# generated using pymatgen
data_Ag2H7C7SBrO8
_symmetry_space_group_name_H-M   'P 1'
_cell_length_a   6.61537000
_cell_length_b   9.31867000
_cell_length_c   10.13650000
_cell_angle_alpha   83.58700000
_cell_angle_beta   75.92890000
_cell_angle_gamma   86.40600000
_symmetry_Int_Tables_number   1
_chemical_formula_structural   Ag2H7C7SBrO8
_chemical_formula_sum   'Ag4 H14 C14 S2 Br2 O16'
_cell_volume   601.92747851
_cell_formula_units_Z   2
loop_
 _symmetry_equiv_pos_site_id
 _symmetry_equiv_pos_as_xyz
  1  'x, y, z'
loop_
 _atom_site_type_symbol
 _atom_site_label
 _atom_site_symmetry_multiplicity
 _atom_site_fract_x
 _atom_site_fract_y
 _atom_site_fract_z
 _atom_site_occupancy
  Ag  Ag0  1  0.65801000  0.02469000  0.63970000  1.0
  Ag  Ag1  1  0.34199000  0.97532000  0.36030000  1.0
  Ag  Ag2  1  0.96815000  0.65145000  0.02543000  1.0
  Ag  Ag3  1  0.03185000  0.34855000  0.97457000  1.0
  H  H4  1  0.50270000  0.10587000  0.88806000  1.0
  H  H5  1  0.49729000  0.89413000  0.11195000  1.0
  H  H6  1  0.71135000  0.19440000  0.84691000  1.0
  H  H7  1  0.28865000  0.80560000  0.15310000  1.0
  H  H8  1  0.77184000  0.94569000  0.96850000  1.0
  H  H9  1  0.22816000  0.05431000  0.03150000  1.0
  H  H10  1  0.80538000  0.95393000  0.11434000  1.0
  H  H11  1  0.19462000  0.04606000  0.88567000  1.0
  H  H12  1  0.38420000  0.25871000  0.14166000  1.0
  H  H13  1  0.61580000  0.74129000  0.85834000  1.0
  H  H14  1  0.46892000  0.68695000  0.27090000  1.0
  H  H15  1  0.53108000  0.31305000  0.72909000  1.0
  H  H16  1  0.92624000  0.39652000  0.40804000  1.0
  H  H17  1  0.07376000  0.60348000  0.59196000  1.0
  C  C18  1  0.73375000  0.30567000  0.29856000  1.0
  C  C19  1  0.26625000  0.69433000  0.70144000  1.0
  C  C20  1  0.56780000  0.32704000  0.23239000  1.0
  C  C21  1  0.43220000  0.67296000  0.76761000  1.0
  C  C22  1  0.47342000  0.46788000  0.22058000  1.0
  C  C23  1  0.52658000  0.53212000  0.77942000  1.0
  C  C24  1  0.54308000  0.57985000  0.27804000  1.0
  C  C25  1  0.45692000  0.42015000  0.72196000  1.0
  C  C26  1  0.70381000  0.55453000  0.34496000  1.0
  C  C27  1  0.29619000  0.44547000  0.65504000  1.0
  C  C28  1  0.80012000  0.41757000  0.35564000  1.0
  C  C29  1  0.19988000  0.58243000  0.64436000  1.0
  C  C30  1  0.30407000  0.49543000  0.14704000  1.0
  C  C31  1  0.69593000  0.50457000  0.85296000  1.0
  S  S32  1  0.85371000  0.13099000  0.31675000  1.0
  S  S33  1  0.14629000  0.86901000  0.68325000  1.0
  Br  Br34  1  0.79477000  0.70662000  0.42341000  1.0
  Br  Br35  1  0.20522000  0.29338000  0.57659000  1.0
  O  O36  1  0.68800000  0.04147000  0.40869000  1.0
  O  O37  1  0.31200000  0.95853000  0.59131000  1.0
  O  O38  1  0.65787000  0.09773000  0.84654000  1.0
  O  O39  1  0.34213000  0.90227000  0.15346000  1.0
  O  O40  1  0.91614000  0.08111000  0.17967000  1.0
  O  O41  1  0.08386000  0.91889000  0.82033000  1.0
  O  O42  1  0.75098000  0.88979000  0.05929000  1.0
  O  O43  1  0.24902000  0.11021000  0.94071000  1.0
  O  O44  1  0.02850000  0.14875000  0.37753000  1.0
  O  O45  1  0.97150000  0.85125000  0.62247000  1.0
  O  O46  1  0.50285000  0.21460000  0.18383000  1.0
  O  O47  1  0.49716000  0.78540000  0.81617000  1.0
  O  O48  1  0.22285000  0.62205000  0.13273000  1.0
  O  O49  1  0.77715000  0.37795000  0.86727000  1.0
  O  O50  1  0.24952000  0.38461000  0.09997000  1.0
  O  O51  1  0.75048000  0.61539000  0.90003000  1.0
