# generated using pymatgen
data_H10PbC6S2N6O
_symmetry_space_group_name_H-M   'P 1'
_cell_length_a   7.49982000
_cell_length_b   9.09062841
_cell_length_c   9.35746000
_cell_angle_alpha   87.83264970
_cell_angle_beta   89.98910000
_cell_angle_gamma   65.65731439
_symmetry_Int_Tables_number   1
_chemical_formula_structural   H10PbC6S2N6O
_chemical_formula_sum   'H20 Pb2 C12 S4 N12 O2'
_cell_volume   580.75660970
_cell_formula_units_Z   2
loop_
 _symmetry_equiv_pos_site_id
 _symmetry_equiv_pos_as_xyz
  1  'x, y, z'
loop_
 _atom_site_type_symbol
 _atom_site_label
 _atom_site_symmetry_multiplicity
 _atom_site_fract_x
 _atom_site_fract_y
 _atom_site_fract_z
 _atom_site_occupancy
  H  H0  1  0.91719000  0.93169000  0.81510000  1.0
  H  H1  1  0.84902000  0.06803000  0.68550000  1.0
  H  H2  1  0.08284000  0.06833000  0.18490000  1.0
  H  H3  1  0.15097000  0.93198000  0.31448000  1.0
  H  H4  1  0.72079000  0.33305000  0.42343000  1.0
  H  H5  1  0.05449000  0.66640000  0.07726000  1.0
  H  H6  1  0.27917000  0.66698000  0.57658000  1.0
  H  H7  1  0.94552000  0.33361000  0.92272000  1.0
  H  H8  1  0.06333000  0.51874000  0.32172000  1.0
  H  H9  1  0.58240000  0.48064000  0.17866000  1.0
  H  H10  1  0.93670000  0.48127000  0.67829000  1.0
  H  H11  1  0.41759000  0.51934000  0.82138000  1.0
  H  H12  1  0.84571000  0.50537000  0.26117000  1.0
  H  H13  1  0.35158000  0.49389000  0.23939000  1.0
  H  H14  1  0.15429000  0.49465000  0.73883000  1.0
  H  H15  1  0.64846000  0.50608000  0.76062000  1.0
  H  H16  1  0.07933000  0.36481000  0.20229000  1.0
  H  H17  1  0.44461000  0.63450000  0.29818000  1.0
  H  H18  1  0.92067000  0.63519000  0.79773000  1.0
  H  H19  1  0.55536000  0.36553000  0.70181000  1.0
  Pb  Pb20  1  0.46637000  0.99965000  0.75005000  1.0
  Pb  Pb21  1  0.53371000  0.00029000  0.24996000  1.0
  C  C22  1  0.17462000  0.24628000  0.49995000  1.0
  C  C23  1  0.42137000  0.75349000  0.00069000  1.0
  C  C24  1  0.82533000  0.75374000  0.50008000  1.0
  C  C25  1  0.57864000  0.24649000  0.99928000  1.0
  C  C26  1  0.86806000  0.28760000  0.46798000  1.0
  C  C27  1  0.15619000  0.71193000  0.03257000  1.0
  C  C28  1  0.13191000  0.71242000  0.53199000  1.0
  C  C29  1  0.84378000  0.28810000  0.96746000  1.0
  C  C30  1  0.99902000  0.43537000  0.29224000  1.0
  C  C31  1  0.43479000  0.56403000  0.20816000  1.0
  C  C32  1  0.00098000  0.56466000  0.70776000  1.0
  C  C33  1  0.56518000  0.43599000  0.79184000  1.0
  S  S34  1  0.39951000  0.25201000  0.48181000  1.0
  S  S35  1  0.65196000  0.74785000  0.01883000  1.0
  S  S36  1  0.60048000  0.74795000  0.51818000  1.0
  S  S37  1  0.34808000  0.25212000  0.98116000  1.0
  N  N38  1  0.12757000  0.16060000  0.60080000  1.0
  N  N39  1  0.28857000  0.83931000  0.90000000  1.0
  N  N40  1  0.87243000  0.83941000  0.39924000  1.0
  N  N41  1  0.71143000  0.16065000  0.10000000  1.0
  N  N42  1  0.93498000  0.18677000  0.58006000  1.0
  N  N43  1  0.12223000  0.81297000  0.92060000  1.0
  N  N44  1  0.06505000  0.81321000  0.41989000  1.0
  N  N45  1  0.87772000  0.18707000  0.07941000  1.0
  N  N46  1  0.01096000  0.32935000  0.41484000  1.0
  N  N47  1  0.34083000  0.67017000  0.08565000  1.0
  N  N48  1  0.98899000  0.67068000  0.58516000  1.0
  N  N49  1  0.65914000  0.32983000  0.91434000  1.0
  O  O50  1  0.80444000  0.99967000  0.75019000  1.0
  O  O51  1  0.19559000  0.00032000  0.24980000  1.0
