# generated using pymatgen
data_NiH42C32S4(NO)2
_symmetry_space_group_name_H-M   'P 1'
_cell_length_a   11.24020000
_cell_length_b   11.85250000
_cell_length_c   17.06360000
_cell_angle_alpha   107.25500000
_cell_angle_beta   109.21400000
_cell_angle_gamma   90.00550000
_symmetry_Int_Tables_number   1
_chemical_formula_structural   NiH42C32S4(NO)2
_chemical_formula_sum   'Ni2 H84 C64 S8 N4 O4'
_cell_volume   2037.97521200
_cell_formula_units_Z   2
loop_
 _symmetry_equiv_pos_site_id
 _symmetry_equiv_pos_as_xyz
  1  'x, y, z'
loop_
 _atom_site_type_symbol
 _atom_site_label
 _atom_site_symmetry_multiplicity
 _atom_site_fract_x
 _atom_site_fract_y
 _atom_site_fract_z
 _atom_site_occupancy
  Ni  Ni0  1  0.94380000  0.50005000  0.99995000  1.0
  Ni  Ni1  1  0.99750000  0.00003000  0.00001000  1.0
  H  H2  1  0.74897000  0.13834000  0.78277000  1.0
  H  H3  1  0.96624000  0.86170000  0.21721000  1.0
  H  H4  1  0.43590000  0.24121000  0.59998000  1.0
  H  H5  1  0.83624000  0.75868000  0.40013000  1.0
  H  H6  1  0.59171000  0.31256000  0.64062000  1.0
  H  H7  1  0.95142000  0.68744000  0.35946000  1.0
  H  H8  1  0.47854000  0.10494000  0.48201000  1.0
  H  H9  1  0.99670000  0.89511000  0.51802000  1.0
  H  H10  1  0.63591000  0.17224000  0.52200000  1.0
  H  H11  1  0.11411000  0.82789000  0.47803000  1.0
  H  H12  1  0.60730000  0.94785000  0.52779000  1.0
  H  H13  1  0.07956000  0.05219000  0.47215000  1.0
  H  H14  1  0.80361000  0.12456000  0.62324000  1.0
  H  H15  1  0.18047000  0.87544000  0.37670000  1.0
  H  H16  1  0.79624000  0.00794000  0.66733000  1.0
  H  H17  1  0.12901000  0.99207000  0.33261000  1.0
  H  H18  1  0.41220000  0.21765000  0.73503000  1.0
  H  H19  1  0.67742000  0.78221000  0.26510000  1.0
  H  H20  1  0.55575000  0.31211000  0.79742000  1.0
  H  H21  1  0.75857000  0.68776000  0.20267000  1.0
  H  H22  1  0.53790000  0.17037000  0.80982000  1.0
  H  H23  1  0.72828000  0.82949000  0.19027000  1.0
  H  H24  1  0.53553000  0.85290000  0.64609000  1.0
  H  H25  1  0.88945000  0.14703000  0.35396000  1.0
  H  H26  1  0.51679000  0.96066000  0.73695000  1.0
  H  H27  1  0.77985000  0.03928000  0.26309000  1.0
  H  H28  1  0.66760000  0.95199000  0.72501000  1.0
  H  H29  1  0.94260000  0.04801000  0.27498000  1.0
  H  H30  1  0.34888000  0.06030000  0.54335000  1.0
  H  H31  1  0.80559000  0.93948000  0.45665000  1.0
  H  H32  1  0.33219000  0.00828000  0.62690000  1.0
  H  H33  1  0.70537000  0.99150000  0.37311000  1.0
  H  H34  1  0.36687000  0.91019000  0.53836000  1.0
  H  H35  1  0.82849000  0.08961000  0.46167000  1.0
  H  H36  1  0.77073000  0.35105000  0.04054000  1.0
  H  H37  1  0.73052000  0.64946000  0.95951000  1.0
  H  H38  1  0.55058000  0.34240000  0.04029000  1.0
  H  H39  1  0.51046000  0.65820000  0.95947000  1.0
  H  H40  1  0.39854000  0.39139000  0.08564000  1.0
  H  H41  1  0.31258000  0.60932000  0.91418000  1.0
  H  H42  1  0.17499000  0.39014000  0.07766000  1.0
  H  H43  1  0.09704000  0.61011000  0.92225000  1.0
  H  H44  1  0.84736000  0.63494000  0.74224000  1.0
  H  H45  1  0.10529000  0.36504000  0.25786000  1.0
  H  H46  1  0.90939000  0.79953000  0.60643000  1.0
  H  H47  1  0.30308000  0.20042000  0.39365000  1.0
  H  H48  1  0.84977000  0.68858000  0.50354000  1.0
  H  H49  1  0.34636000  0.31142000  0.49654000  1.0
  H  H50  1  0.05167000  0.62017000  0.52462000  1.0
  H  H51  1  0.52716000  0.37977000  0.47538000  1.0
  H  H52  1  0.11329000  0.72674000  0.62942000  1.0
  H  H53  1  0.48398000  0.27316000  0.37059000  1.0
  H  H54  1  0.09699000  0.49595000  0.62511000  1.0
  H  H55  1  0.47205000  0.50392000  0.37484000  1.0
  H  H56  1  0.04614000  0.56511000  0.76334000  1.0
  H  H57  1  0.28295000  0.43482000  0.23667000  1.0
  H  H58  1  0.10862000  0.69882000  0.75752000  1.0
  H  H59  1  0.35116000  0.30109000  0.24246000  1.0
  H  H60  1  0.64915000  0.57776000  0.60821000  1.0
  H  H61  1  0.04110000  0.42217000  0.39195000  1.0
  H  H62  1  0.64839000  0.60102000  0.50967000  1.0
  H  H63  1  0.13892000  0.39895000  0.49048000  1.0
  H  H64  1  0.66952000  0.72422000  0.60437000  1.0
  H  H65  1  0.06536000  0.27574000  0.39580000  1.0
  H  H66  1  0.86814000  0.44648000  0.69060000  1.0
  H  H67  1  0.17788000  0.55347000  0.30932000  1.0
  H  H68  1  0.89522000  0.33457000  0.60490000  1.0
  H  H69  1  0.29073000  0.66534000  0.39502000  1.0
  H  H70  1  0.74460000  0.38703000  0.58917000  1.0
  H  H71  1  0.15574000  0.61308000  0.41075000  1.0
  H  H72  1  0.88916000  0.36448000  0.46926000  1.0
  H  H73  1  0.42001000  0.63557000  0.53069000  1.0
  H  H74  1  0.87407000  0.50367000  0.45022000  1.0
  H  H75  1  0.42396000  0.49646000  0.54982000  1.0
  H  H76  1  0.74304000  0.42579000  0.45487000  1.0
  H  H77  1  0.28829000  0.57431000  0.54515000  1.0
  H  H78  1  0.84075000  0.88220000  0.07169000  1.0
  H  H79  1  0.76906000  0.11783000  0.92850000  1.0
  H  H80  1  0.62369000  0.88015000  0.07748000  1.0
  H  H81  1  0.54609000  0.11923000  0.92243000  1.0
  H  H82  1  0.42403000  0.83241000  0.02777000  1.0
  H  H83  1  0.39664000  0.16718000  0.97234000  1.0
  H  H84  1  0.20458000  0.84200000  0.02920000  1.0
  H  H85  1  0.17571000  0.15782000  0.97082000  1.0
  C  C86  1  0.83749000  0.34972000  0.82911000  1.0
  C  C87  1  0.00834000  0.65028000  0.17077000  1.0
  C  C88  1  0.71524000  0.16552000  0.72366000  1.0
  C  C89  1  0.99169000  0.83448000  0.27631000  1.0
  C  C90  1  0.56956000  0.16546000  0.69006000  1.0
  C  C91  1  0.87970000  0.83447000  0.30999000  1.0
  C  C92  1  0.53622000  0.22569000  0.61773000  1.0
  C  C93  1  0.91877000  0.77429000  0.38234000  1.0
  C  C94  1  0.56388000  0.13484000  0.54064000  1.0
  C  C95  1  0.02342000  0.86520000  0.45937000  1.0
  C  C96  1  0.61135000  0.03277000  0.57771000  1.0
  C  C97  1  0.03376000  0.96724000  0.42226000  1.0
  C  C98  1  0.74432000  0.07850000  0.64658000  1.0
  C  C99  1  0.09785000  0.92151000  0.35337000  1.0
  C  C100  1  0.51572000  0.21902000  0.76194000  1.0
  C  C101  1  0.75400000  0.78084000  0.23815000  1.0
  C  C102  1  0.52869000  0.03074000  0.63502000  1.0
  C  C103  1  0.89377000  0.96917000  0.36498000  1.0
  C  C104  1  0.56566000  0.94520000  0.68902000  1.0
  C  C105  1  0.87665000  0.05474000  0.31100000  1.0
  C  C106  1  0.38651000  0.00203000  0.58293000  1.0
  C  C107  1  0.80363000  0.99778000  0.41708000  1.0
  C  C108  1  0.70918000  0.41699000  0.02248000  1.0
  C  C109  1  0.68685000  0.58352000  0.97748000  1.0
  C  C110  1  0.58579000  0.41363000  0.02274000  1.0
  C  C111  1  0.56312000  0.58695000  0.97707000  1.0
  C  C112  1  0.50878000  0.50032000  0.99989000  1.0
  C  C113  1  0.37763000  0.50032000  0.99988000  1.0
  C  C114  1  0.33502000  0.43877000  0.04610000  1.0
  C  C115  1  0.28870000  0.56179000  0.95369000  1.0
  C  C116  1  0.21017000  0.43928000  0.04344000  1.0
  C  C117  1  0.16655000  0.56106000  0.95643000  1.0
  C  C118  1  0.92906000  0.85848000  0.82512000  1.0
  C  C119  1  0.10411000  0.14157000  0.17485000  1.0
  C  C120  1  0.90064000  0.67057000  0.70953000  1.0
  C  C121  1  0.19125000  0.32939000  0.29052000  1.0
  C  C122  1  0.83472000  0.62987000  0.60940000  1.0
  C  C123  1  0.22547000  0.37009000  0.39067000  1.0
  C  C124  1  0.90333000  0.70410000  0.57304000  1.0
  C  C125  1  0.33042000  0.29585000  0.42703000  1.0
  C  C126  1  0.03519000  0.65691000  0.58680000  1.0
  C  C127  1  0.44852000  0.34302000  0.41322000  1.0
  C  C128  1  0.02714000  0.56024000  0.62917000  1.0
  C  C129  1  0.39812000  0.43966000  0.37082000  1.0
  C  C130  1  0.03269000  0.62478000  0.72343000  1.0
  C  C131  1  0.30936000  0.37515000  0.27658000  1.0
  C  C132  1  0.69266000  0.63299000  0.58122000  1.0
  C  C133  1  0.11164000  0.36698000  0.41893000  1.0
  C  C134  1  0.88590000  0.50614000  0.58295000  1.0
  C  C135  1  0.30311000  0.49384000  0.41706000  1.0
  C  C136  1  0.84703000  0.41489000  0.61977000  1.0
  C  C137  1  0.22758000  0.58509000  0.38016000  1.0
  C  C138  1  0.84645000  0.44812000  0.48385000  1.0
  C  C139  1  0.36272000  0.55195000  0.51614000  1.0
  C  C140  1  0.77258000  0.93456000  0.04003000  1.0
  C  C141  1  0.73256000  0.06534000  0.96011000  1.0
  C  C142  1  0.64996000  0.93276000  0.04188000  1.0
  C  C143  1  0.60798000  0.06673000  0.95807000  1.0
  C  C144  1  0.56314000  0.99970000  0.99997000  1.0
  C  C145  1  0.43199000  0.99975000  0.00002000  1.0
  C  C146  1  0.37418000  0.90786000  0.01592000  1.0
  C  C147  1  0.35851000  0.09177000  0.98418000  1.0
  C  C148  1  0.25069000  0.91164000  0.01603000  1.0
  C  C149  1  0.23488000  0.08812000  0.98400000  1.0
  S  S150  1  0.89538000  0.29305000  0.91297000  1.0
  S  S151  1  0.98255000  0.70702000  0.08696000  1.0
  S  S152  1  0.85928000  0.49853000  0.84987000  1.0
  S  S153  1  0.00912000  0.50145000  0.15001000  1.0
  S  S154  1  0.93626000  0.00839000  0.85192000  1.0
  S  S155  1  0.08443000  0.99167000  0.14805000  1.0
  S  S156  1  0.95106000  0.79332000  0.90417000  1.0
  S  S157  1  0.04710000  0.20678000  0.09583000  1.0
  N  N158  1  0.75973000  0.50023000  0.99999000  1.0
  N  N159  1  0.12642000  0.50010000  0.99993000  1.0
  N  N160  1  0.81468000  0.00004000  0.00011000  1.0
  N  N161  1  0.18106000  0.99991000  0.99998000  1.0
  O  O162  1  0.77500000  0.28528000  0.74608000  1.0
  O  O163  1  0.02906000  0.71475000  0.25382000  1.0
  O  O164  1  0.90594000  0.79972000  0.74071000  1.0
  O  O165  1  0.16534000  0.20025000  0.25927000  1.0
