# generated using pymatgen
data_CoH17C21Br(NO2)2
_symmetry_space_group_name_H-M   'P 1'
_cell_length_a   9.06762000
_cell_length_b   10.08830000
_cell_length_c   11.58200000
_cell_angle_alpha   68.14890000
_cell_angle_beta   87.39680000
_cell_angle_gamma   77.41170000
_symmetry_Int_Tables_number   1
_chemical_formula_structural   CoH17C21Br(NO2)2
_chemical_formula_sum   'Co2 H34 C42 Br2 N4 O8'
_cell_volume   958.98119064
_cell_formula_units_Z   2
loop_
 _symmetry_equiv_pos_site_id
 _symmetry_equiv_pos_as_xyz
  1  'x, y, z'
loop_
 _atom_site_type_symbol
 _atom_site_label
 _atom_site_symmetry_multiplicity
 _atom_site_fract_x
 _atom_site_fract_y
 _atom_site_fract_z
 _atom_site_occupancy
  Co  Co0  1  0.33991000  0.84575000  0.06303000  1.0
  Co  Co1  1  0.66006000  0.15421000  0.93699000  1.0
  H  H2  1  0.37113000  0.40261000  0.02576000  1.0
  H  H3  1  0.62885000  0.59741000  0.97421000  1.0
  H  H4  1  0.96888000  0.56794000  0.18573000  1.0
  H  H5  1  0.03111000  0.43204000  0.81429000  1.0
  H  H6  1  0.03673000  0.14066000  0.16182000  1.0
  H  H7  1  0.96331000  0.85933000  0.83814000  1.0
  H  H8  1  0.46482000  0.83104000  0.83352000  1.0
  H  H9  1  0.53516000  0.16895000  0.16642000  1.0
  H  H10  1  0.41071000  0.97337000  0.60888000  1.0
  H  H11  1  0.58924000  0.02674000  0.39108000  1.0
  H  H12  1  0.00419000  0.21722000  0.70710000  1.0
  H  H13  1  0.99583000  0.78287000  0.29295000  1.0
  H  H14  1  0.07721000  0.07091000  0.92567000  1.0
  H  H15  1  0.92277000  0.92907000  0.07437000  1.0
  H  H16  1  0.07618000  0.29840000  0.48900000  1.0
  H  H17  1  0.92386000  0.70174000  0.51097000  1.0
  H  H18  1  0.10065000  0.13362000  0.46527000  1.0
  H  H19  1  0.89926000  0.86652000  0.53476000  1.0
  H  H20  1  0.24955000  0.26264000  0.31600000  1.0
  H  H21  1  0.75045000  0.73734000  0.68401000  1.0
  H  H22  1  0.38323000  0.13904000  0.43120000  1.0
  H  H23  1  0.61672000  0.86088000  0.56882000  1.0
  H  H24  1  0.42827000  0.39501000  0.33417000  1.0
  H  H25  1  0.57187000  0.60486000  0.66582000  1.0
  H  H26  1  0.25918000  0.46130000  0.39550000  1.0
  H  H27  1  0.74093000  0.53868000  0.60444000  1.0
  H  H28  1  0.64434000  0.20545000  0.49038000  1.0
  H  H29  1  0.35580000  0.79456000  0.50964000  1.0
  H  H30  1  0.76388000  0.12942000  0.70089000  1.0
  H  H31  1  0.23612000  0.87057000  0.29918000  1.0
  H  H32  1  0.39860000  0.37289000  0.81243000  1.0
  H  H33  1  0.60136000  0.62706000  0.18756000  1.0
  H  H34  1  0.26175000  0.45651000  0.60806000  1.0
  H  H35  1  0.73831000  0.54351000  0.39187000  1.0
  C  C36  1  0.21271000  0.26002000  0.08932000  1.0
  C  C37  1  0.78726000  0.73998000  0.91068000  1.0
  C  C38  1  0.26332000  0.38847000  0.06898000  1.0
  C  C39  1  0.73666000  0.61152000  0.93100000  1.0
  C  C40  1  0.17527000  0.49821000  0.10482000  1.0
  C  C41  1  0.82469000  0.50177000  0.89516000  1.0
  C  C42  1  0.03646000  0.48041000  0.16020000  1.0
  C  C43  1  0.96351000  0.51954000  0.83981000  1.0
  C  C44  1  0.98972000  0.35136000  0.18097000  1.0
  C  C45  1  0.01026000  0.64858000  0.81903000  1.0
  C  C46  1  0.07493000  0.24073000  0.14638000  1.0
  C  C47  1  0.92506000  0.75924000  0.85360000  1.0
  C  C48  1  0.30641000  0.14121000  0.05128000  1.0
  C  C49  1  0.69357000  0.85878000  0.94873000  1.0
  C  C50  1  0.22340000  0.63643000  0.08882000  1.0
  C  C51  1  0.77655000  0.36358000  0.91117000  1.0
  C  C52  1  0.36528000  0.91940000  0.80112000  1.0
  C  C53  1  0.63469000  0.08062000  0.19887000  1.0
  C  C54  1  0.33255000  0.99952000  0.67534000  1.0
  C  C55  1  0.66742000  0.00056000  0.32465000  1.0
  C  C56  1  0.20235000  0.11122000  0.63501000  1.0
  C  C57  1  0.79762000  0.88888000  0.36498000  1.0
  C  C58  1  0.10865000  0.13348000  0.72862000  1.0
  C  C59  1  0.89135000  0.86658000  0.27141000  1.0
  C  C60  1  0.14839000  0.05068000  0.85334000  1.0
  C  C61  1  0.85161000  0.94932000  0.14669000  1.0
  C  C62  1  0.16056000  0.19764000  0.49876000  1.0
  C  C63  1  0.83942000  0.80244000  0.50127000  1.0
  C  C64  1  0.29023000  0.23587000  0.41130000  1.0
  C  C65  1  0.70976000  0.76410000  0.58872000  1.0
  C  C66  1  0.35303000  0.36539000  0.41273000  1.0
  C  C67  1  0.64705000  0.63455000  0.58724000  1.0
  C  C68  1  0.43759000  0.33252000  0.53215000  1.0
  C  C69  1  0.56250000  0.66745000  0.46784000  1.0
  C  C70  1  0.58384000  0.24414000  0.55931000  1.0
  C  C71  1  0.41625000  0.75585000  0.44069000  1.0
  C  C72  1  0.65281000  0.20218000  0.67568000  1.0
  C  C73  1  0.34721000  0.79780000  0.32434000  1.0
  C  C74  1  0.44812000  0.33827000  0.73834000  1.0
  C  C75  1  0.55184000  0.66173000  0.26164000  1.0
  C  C76  1  0.37283000  0.38302000  0.62401000  1.0
  C  C77  1  0.62720000  0.61699000  0.37595000  1.0
  Br  Br78  1  0.80394000  0.32476000  0.26116000  1.0
  Br  Br79  1  0.19605000  0.67515000  0.73888000  1.0
  N  N80  1  0.27670000  0.94573000  0.89061000  1.0
  N  N81  1  0.72328000  0.05427000  0.10941000  1.0
  N  N82  1  0.58399000  0.24385000  0.76663000  1.0
  N  N83  1  0.41596000  0.75613000  0.23338000  1.0
  O  O84  1  0.26176000  0.01922000  0.09403000  1.0
  O  O85  1  0.73825000  0.98078000  0.90598000  1.0
  O  O86  1  0.41602000  0.16738000  0.98340000  1.0
  O  O87  1  0.58395000  0.83260000  0.01663000  1.0
  O  O88  1  0.35730000  0.65198000  0.05161000  1.0
  O  O89  1  0.64268000  0.34799000  0.94838000  1.0
  O  O90  1  0.13333000  0.73584000  0.11447000  1.0
  O  O91  1  0.86662000  0.26419000  0.88551000  1.0
