# generated using pymatgen
data_CdH8C10S2(NO)2
_symmetry_space_group_name_H-M   'P 1'
_cell_length_a   3.81398000
_cell_length_b   10.01100000
_cell_length_c   14.34280000
_cell_angle_alpha   101.45200000
_cell_angle_beta   89.99980000
_cell_angle_gamma   89.99990000
_symmetry_Int_Tables_number   1
_chemical_formula_structural   CdH8C10S2(NO)2
_chemical_formula_sum   'Cd2 H16 C20 S4 N4 O4'
_cell_volume   536.73063722
_cell_formula_units_Z   2
loop_
 _symmetry_equiv_pos_site_id
 _symmetry_equiv_pos_as_xyz
  1  'x, y, z'
loop_
 _atom_site_type_symbol
 _atom_site_label
 _atom_site_symmetry_multiplicity
 _atom_site_fract_x
 _atom_site_fract_y
 _atom_site_fract_z
 _atom_site_occupancy
  Cd  Cd0  1  0.99999000  0.50000000  0.00000000  1.0
  Cd  Cd1  1  0.50000000  0.50000000  0.50000000  1.0
  H  H2  1  0.74421000  0.42845000  0.25238000  1.0
  H  H3  1  0.24423000  0.57155000  0.24762000  1.0
  H  H4  1  0.25577000  0.57155000  0.74762000  1.0
  H  H5  1  0.75579000  0.42845000  0.75238000  1.0
  H  H6  1  0.81894000  0.20815000  0.30409000  1.0
  H  H7  1  0.31897000  0.79185000  0.19591000  1.0
  H  H8  1  0.18104000  0.79185000  0.69592000  1.0
  H  H9  1  0.68106000  0.20815000  0.80409000  1.0
  H  H10  1  0.56941000  0.99410000  0.19764000  1.0
  H  H11  1  0.06942000  0.00590000  0.30235000  1.0
  H  H12  1  0.43059000  0.00590000  0.80235000  1.0
  H  H13  1  0.93059000  0.99410000  0.69764000  1.0
  H  H14  1  0.24495000  0.01702000  0.05277000  1.0
  H  H15  1  0.74495000  0.98298000  0.44723000  1.0
  H  H16  1  0.75505000  0.98298000  0.94723000  1.0
  H  H17  1  0.25505000  0.01702000  0.55277000  1.0
  C  C18  1  0.64088000  0.33391000  0.21110000  1.0
  C  C19  1  0.14090000  0.66609000  0.28890000  1.0
  C  C20  1  0.35910000  0.66610000  0.78890000  1.0
  C  C21  1  0.85911000  0.33391000  0.71110000  1.0
  C  C22  1  0.67755000  0.21067000  0.23847000  1.0
  C  C23  1  0.17756000  0.78933000  0.26153000  1.0
  C  C24  1  0.32244000  0.78933000  0.76153000  1.0
  C  C25  1  0.82245000  0.21067000  0.73847000  1.0
  C  C26  1  0.53846000  0.09407000  0.17979000  1.0
  C  C27  1  0.03847000  0.90593000  0.32021000  1.0
  C  C28  1  0.46154000  0.90593000  0.82021000  1.0
  C  C29  1  0.96154000  0.09407000  0.67979000  1.0
  C  C30  1  0.36319000  0.10629000  0.09755000  1.0
  C  C31  1  0.86319000  0.89371000  0.40245000  1.0
  C  C32  1  0.63681000  0.89371000  0.90245000  1.0
  C  C33  1  0.13682000  0.10629000  0.59755000  1.0
  C  C34  1  0.33142000  0.23250000  0.06857000  1.0
  C  C35  1  0.83143000  0.76750000  0.43143000  1.0
  C  C36  1  0.66857000  0.76750000  0.93143000  1.0
  C  C37  1  0.16858000  0.23250000  0.56857000  1.0
  S  S38  1  0.13205000  0.24679000  0.96383000  1.0
  S  S39  1  0.63205000  0.75322000  0.53617000  1.0
  S  S40  1  0.86795000  0.75322000  0.03617000  1.0
  S  S41  1  0.36795000  0.24679000  0.46383000  1.0
  N  N42  1  0.47838000  0.34431000  0.12822000  1.0
  N  N43  1  0.97839000  0.65569000  0.37178000  1.0
  N  N44  1  0.52161000  0.65570000  0.87178000  1.0
  N  N45  1  0.02162000  0.34430000  0.62822000  1.0
  O  O46  1  0.47380000  0.46806000  0.10561000  1.0
  O  O47  1  0.97381000  0.53194000  0.39439000  1.0
  O  O48  1  0.52619000  0.53195000  0.89439000  1.0
  O  O49  1  0.02620000  0.46806000  0.60561000  1.0
