# generated using pymatgen
data_CaH22C24(NO5)2
_symmetry_space_group_name_H-M   'P 1'
_cell_length_a   9.83256000
_cell_length_b   11.44350000
_cell_length_c   12.91898317
_cell_angle_alpha   63.76554569
_cell_angle_beta   84.68143316
_cell_angle_gamma   77.82270000
_symmetry_Int_Tables_number   1
_chemical_formula_structural   CaH22C24(NO5)2
_chemical_formula_sum   'Ca2 H44 C48 N4 O20'
_cell_volume   1274.55682604
_cell_formula_units_Z   2
loop_
 _symmetry_equiv_pos_site_id
 _symmetry_equiv_pos_as_xyz
  1  'x, y, z'
loop_
 _atom_site_type_symbol
 _atom_site_label
 _atom_site_symmetry_multiplicity
 _atom_site_fract_x
 _atom_site_fract_y
 _atom_site_fract_z
 _atom_site_occupancy
  Ca  Ca0  1  0.24998000  0.14466000  0.71084000  1.0
  Ca  Ca1  1  0.75002000  0.85534000  0.28916000  1.0
  H  H2  1  0.70107000  0.94327000  0.52326000  1.0
  H  H3  1  0.79865000  0.53343000  0.52318000  1.0
  H  H4  1  0.29893000  0.05673000  0.47674000  1.0
  H  H5  1  0.20135000  0.46657000  0.47682000  1.0
  H  H6  1  0.43260000  0.65988000  0.50321000  1.0
  H  H7  1  0.06716000  0.83666000  0.50321000  1.0
  H  H8  1  0.56740000  0.34012000  0.49679000  1.0
  H  H9  1  0.93284000  0.16334000  0.49679000  1.0
  H  H10  1  0.34083000  0.41217000  0.85475000  1.0
  H  H11  1  0.15946000  0.73345000  0.85483000  1.0
  H  H12  1  0.65916000  0.58783000  0.14525000  1.0
  H  H13  1  0.84054000  0.26655000  0.14517000  1.0
  H  H14  1  0.58235000  0.71611000  0.77708000  1.0
  H  H15  1  0.91788000  0.50711000  0.77688000  1.0
  H  H16  1  0.41765000  0.28389000  0.22292000  1.0
  H  H17  1  0.08212000  0.49289000  0.22312000  1.0
  H  H18  1  0.58438000  0.06482000  0.69005000  1.0
  H  H19  1  0.91545000  0.24520000  0.68993000  1.0
  H  H20  1  0.41562000  0.93518000  0.30995000  1.0
  H  H21  1  0.08455000  0.75480000  0.31007000  1.0
  H  H22  1  0.84183000  0.81758000  0.79099000  1.0
  H  H23  1  0.65812000  0.39127000  0.79108000  1.0
  H  H24  1  0.15817000  0.18242000  0.20901000  1.0
  H  H25  1  0.34188000  0.60873000  0.20892000  1.0
  H  H26  1  0.89857000  0.93838000  0.82001000  1.0
  H  H27  1  0.60120000  0.24168000  0.81983000  1.0
  H  H28  1  0.10143000  0.06162000  0.17999000  1.0
  H  H29  1  0.39880000  0.75832000  0.18017000  1.0
  H  H30  1  0.80268000  0.98760000  0.69132000  1.0
  H  H31  1  0.69708000  0.32092000  0.69124000  1.0
  H  H32  1  0.19732000  0.01240000  0.30868000  1.0
  H  H33  1  0.30292000  0.67907000  0.30876000  1.0
  H  H34  1  0.62718000  0.91835000  0.01077000  1.0
  H  H35  1  0.87275000  0.07091000  0.01068000  1.0
  H  H36  1  0.37282000  0.08165000  0.98923000  1.0
  H  H37  1  0.12724000  0.92909000  0.98932000  1.0
  H  H38  1  0.78254000  0.80903000  0.00161000  1.0
  H  H39  1  0.71742000  0.18941000  0.00157000  1.0
  H  H40  1  0.21746000  0.19097000  0.99839000  1.0
  H  H41  1  0.28258000  0.81059000  0.99843000  1.0
  H  H42  1  0.61561000  0.77900000  0.98693000  1.0
  H  H43  1  0.88436000  0.23395000  0.98711000  1.0
  H  H44  1  0.38439000  0.22100000  0.01307000  1.0
  H  H45  1  0.11564000  0.76605000  0.01289000  1.0
  C  C46  1  0.43961000  0.63294000  0.59473000  1.0
  C  C47  1  0.06040000  0.77229000  0.59476000  1.0
  C  C48  1  0.56039000  0.36706000  0.40527000  1.0
  C  C49  1  0.93960000  0.22771000  0.40524000  1.0
  C  C50  1  0.38851000  0.49360000  0.79284000  1.0
  C  C51  1  0.11171000  0.71379000  0.79293000  1.0
  C  C52  1  0.61148000  0.50640000  0.20716000  1.0
  C  C53  1  0.88829000  0.28621000  0.20707000  1.0
  C  C54  1  0.51305000  0.69982000  0.63151000  1.0
  C  C55  1  0.98702000  0.66872000  0.63153000  1.0
  C  C56  1  0.48696000  0.30019000  0.36849000  1.0
  C  C57  1  0.01298000  0.33128000  0.36847000  1.0
  C  C58  1  0.37730000  0.52984000  0.67528000  1.0
  C  C59  1  0.12289000  0.79490000  0.67533000  1.0
  C  C60  1  0.62270000  0.47015000  0.32473000  1.0
  C  C61  1  0.87711000  0.20510000  0.32467000  1.0
  C  C62  1  0.30347000  0.45521000  0.63475000  1.0
  C  C63  1  0.19670000  0.91001000  0.63475000  1.0
  C  C64  1  0.69653000  0.54479000  0.36525000  1.0
  C  C65  1  0.80330000  0.08999000  0.36525000  1.0
  C  C66  1  0.52393000  0.66446000  0.74894000  1.0
  C  C67  1  0.97628000  0.58682000  0.74894000  1.0
  C  C68  1  0.47607000  0.33554000  0.25106000  1.0
  C  C69  1  0.02373000  0.41318000  0.25106000  1.0
  C  C70  1  0.48554000  0.51814000  0.94964000  1.0
  C  C71  1  0.01460000  0.53250000  0.94975000  1.0
  C  C72  1  0.51445000  0.48186000  0.05036000  1.0
  C  C73  1  0.98541000  0.46750000  0.05025000  1.0
  C  C74  1  0.46315000  0.55974000  0.83097000  1.0
  C  C75  1  0.03707000  0.60960000  0.83110000  1.0
  C  C76  1  0.53685000  0.44026000  0.16903000  1.0
  C  C77  1  0.96293000  0.39040000  0.16890000  1.0
  C  C78  1  0.58559000  0.80422000  0.54505000  1.0
  C  C79  1  0.91430000  0.65058000  0.54512000  1.0
  C  C80  1  0.41441000  0.19578000  0.45495000  1.0
  C  C81  1  0.08570000  0.34942000  0.45488000  1.0
  C  C82  1  0.56908000  0.01255000  0.78408000  1.0
  C  C83  1  0.93079000  0.20343000  0.78399000  1.0
  C  C84  1  0.43093000  0.98745000  0.21592000  1.0
  C  C85  1  0.06921000  0.79657000  0.21601000  1.0
  C  C86  1  0.81416000  0.91910000  0.78322000  1.0
  C  C87  1  0.68565000  0.29758000  0.78316000  1.0
  C  C88  1  0.18584000  0.08090000  0.21678000  1.0
  C  C89  1  0.31435000  0.70242000  0.21684000  1.0
  C  C90  1  0.67695000  0.85623000  0.96782000  1.0
  C  C91  1  0.82299000  0.17592000  0.96781000  1.0
  C  C92  1  0.32305000  0.14377000  0.03218000  1.0
  C  C93  1  0.17701000  0.82408000  0.03219000  1.0
  N  N94  1  0.68395000  0.93596000  0.84328000  1.0
  N  N95  1  0.81592000  0.22066000  0.84323000  1.0
  N  N96  1  0.31605000  0.06404000  0.15672000  1.0
  N  N97  1  0.18408000  0.77935000  0.15677000  1.0
  O  O98  1  0.27996000  0.34302000  0.70687000  1.0
  O  O99  1  0.22011000  0.95028000  0.70688000  1.0
  O  O100  1  0.72004000  0.65698000  0.29313000  1.0
  O  O101  1  0.77989000  0.04972000  0.29312000  1.0
  O  O102  1  0.27223000  0.51325000  0.52728000  1.0
  O  O103  1  0.22801000  0.95925000  0.52733000  1.0
  O  O104  1  0.72777000  0.48675000  0.47272000  1.0
  O  O105  1  0.77198000  0.04075000  0.47267000  1.0
  O  O106  1  0.64390000  0.86608000  0.58699000  1.0
  O  O107  1  0.85605000  0.54688000  0.58709000  1.0
  O  O108  1  0.35610000  0.13392000  0.41301000  1.0
  O  O109  1  0.14395000  0.45312000  0.41291000  1.0
  O  O110  1  0.59032000  0.82498000  0.44125000  1.0
  O  O111  1  0.90945000  0.73345000  0.44128000  1.0
  O  O112  1  0.40968000  0.17502000  0.55875000  1.0
  O  O113  1  0.09055000  0.26655000  0.55872000  1.0
  O  O114  1  0.45116000  0.02571000  0.82920000  1.0
  O  O115  1  0.04875000  0.14522000  0.82914000  1.0
  O  O116  1  0.54884000  0.97429000  0.17080000  1.0
  O  O117  1  0.95125000  0.85478000  0.17086000  1.0
