# generated using pymatgen
data_TbH8C9O8
_symmetry_space_group_name_H-M   'P 1'
_cell_length_a   7.75795000
_cell_length_b   8.18548000
_cell_length_c   18.97470000
_cell_angle_alpha   90.00000000
_cell_angle_beta   90.00010000
_cell_angle_gamma   105.98300000
_symmetry_Int_Tables_number   1
_chemical_formula_structural   TbH8C9O8
_chemical_formula_sum   'Tb4 H32 C36 O32'
_cell_volume   1158.36282623
_cell_formula_units_Z   4
loop_
 _symmetry_equiv_pos_site_id
 _symmetry_equiv_pos_as_xyz
  1  'x, y, z'
loop_
 _atom_site_type_symbol
 _atom_site_label
 _atom_site_symmetry_multiplicity
 _atom_site_fract_x
 _atom_site_fract_y
 _atom_site_fract_z
 _atom_site_occupancy
  Tb  Tb0  1  0.75824000  0.25151000  0.51786000  1.0
  Tb  Tb1  1  0.74176000  0.74849000  0.01787000  1.0
  Tb  Tb2  1  0.24176000  0.74849000  0.48213000  1.0
  Tb  Tb3  1  0.25824000  0.25151000  0.98214000  1.0
  H  H4  1  0.60885000  0.43628000  0.36969000  1.0
  H  H5  1  0.89115000  0.56372000  0.86969000  1.0
  H  H6  1  0.39115000  0.56373000  0.63031000  1.0
  H  H7  1  0.10885000  0.43628000  0.13031000  1.0
  H  H8  1  0.65841000  0.58421000  0.25276000  1.0
  H  H9  1  0.84159000  0.41579000  0.75276000  1.0
  H  H10  1  0.34160000  0.41579000  0.74724000  1.0
  H  H11  1  0.15841000  0.58421000  0.24724000  1.0
  H  H12  1  0.31139000  0.14292000  0.15424000  1.0
  H  H13  1  0.18861000  0.85708000  0.65424000  1.0
  H  H14  1  0.68862000  0.85708000  0.84576000  1.0
  H  H15  1  0.81139000  0.14292000  0.34576000  1.0
  H  H16  1  0.25623000  0.99650000  0.27191000  1.0
  H  H17  1  0.24376000  0.00351000  0.77190000  1.0
  H  H18  1  0.74377000  0.00351000  0.72810000  1.0
  H  H19  1  0.75623000  0.99650000  0.22809000  1.0
  H  H20  1  0.51849000  0.24726000  0.63903000  1.0
  H  H21  1  0.98150000  0.75274000  0.13903000  1.0
  H  H22  1  0.48150000  0.75274000  0.36097000  1.0
  H  H23  1  0.01849000  0.24726000  0.86097000  1.0
  H  H24  1  0.38226000  0.16012000  0.57777000  1.0
  H  H25  1  0.11774000  0.83988000  0.07777000  1.0
  H  H26  1  0.61773000  0.83988000  0.42223000  1.0
  H  H27  1  0.88227000  0.16012000  0.92223000  1.0
  H  H28  1  0.77630000  0.62096000  0.48376000  1.0
  H  H29  1  0.72370000  0.37903000  0.98376000  1.0
  H  H30  1  0.22370000  0.37904000  0.51624000  1.0
  H  H31  1  0.27630000  0.62096000  0.01624000  1.0
  H  H32  1  0.60545000  0.55104000  0.53342000  1.0
  H  H33  1  0.89455000  0.44896000  0.03342000  1.0
  H  H34  1  0.39455000  0.44896000  0.46658000  1.0
  H  H35  1  0.10545000  0.55104000  0.96658000  1.0
  C  C36  1  0.42967000  0.20720000  0.32729000  1.0
  C  C37  1  0.07033000  0.79280000  0.82728000  1.0
  C  C38  1  0.57033000  0.79280000  0.67272000  1.0
  C  C39  1  0.92967000  0.20720000  0.17271000  1.0
  C  C40  1  0.54165000  0.37370000  0.32255000  1.0
  C  C41  1  0.95835000  0.62630000  0.82255000  1.0
  C  C42  1  0.45835000  0.62630000  0.67745000  1.0
  C  C43  1  0.04166000  0.37370000  0.17745000  1.0
  C  C44  1  0.56968000  0.45578000  0.25760000  1.0
  C  C45  1  0.93032000  0.54422000  0.75760000  1.0
  C  C46  1  0.43032000  0.54422000  0.74240000  1.0
  C  C47  1  0.06968000  0.45578000  0.24240000  1.0
  C  C48  1  0.48762000  0.37223000  0.19675000  1.0
  C  C49  1  0.01238000  0.62777000  0.69675000  1.0
  C  C50  1  0.51238000  0.62777000  0.80325000  1.0
  C  C51  1  0.98762000  0.37223000  0.30325000  1.0
  C  C52  1  0.37405000  0.20656000  0.20184000  1.0
  C  C53  1  0.12595000  0.79344000  0.70184000  1.0
  C  C54  1  0.62595000  0.79344000  0.79816000  1.0
  C  C55  1  0.87405000  0.20656000  0.29816000  1.0
  C  C56  1  0.34408000  0.12515000  0.26673000  1.0
  C  C57  1  0.15592000  0.87485000  0.76673000  1.0
  C  C58  1  0.65593000  0.87485000  0.73327000  1.0
  C  C59  1  0.84408000  0.12515000  0.23327000  1.0
  C  C60  1  0.40943000  0.11094000  0.39517000  1.0
  C  C61  1  0.09057000  0.88907000  0.89517000  1.0
  C  C62  1  0.59057000  0.88907000  0.60483000  1.0
  C  C63  1  0.90944000  0.11094000  0.10483000  1.0
  C  C64  1  0.52063000  0.45877000  0.12656000  1.0
  C  C65  1  0.97937000  0.54122000  0.62656000  1.0
  C  C66  1  0.47937000  0.54122000  0.87344000  1.0
  C  C67  1  0.02063000  0.45878000  0.37344000  1.0
  C  C68  1  0.07282000  0.06056000  0.52300000  1.0
  C  C69  1  0.42716000  0.93944000  0.02300000  1.0
  C  C70  1  0.92716000  0.93944000  0.47700000  1.0
  C  C71  1  0.57282000  0.06056000  0.97700000  1.0
  O  O72  1  0.51793000  0.17175000  0.44531000  1.0
  O  O73  1  0.98206000  0.82825000  0.94531000  1.0
  O  O74  1  0.48207000  0.82825000  0.55469000  1.0
  O  O75  1  0.01794000  0.17175000  0.05469000  1.0
  O  O76  1  0.28776000  0.97117000  0.39913000  1.0
  O  O77  1  0.21224000  0.02883000  0.89913000  1.0
  O  O78  1  0.71224000  0.02883000  0.60087000  1.0
  O  O79  1  0.78776000  0.97117000  0.10087000  1.0
  O  O80  1  0.64096000  0.59988000  0.12236000  1.0
  O  O81  1  0.85905000  0.40012000  0.62236000  1.0
  O  O82  1  0.35905000  0.40012000  0.87764000  1.0
  O  O83  1  0.14096000  0.59989000  0.37764000  1.0
  O  O84  1  0.42720000  0.38756000  0.07400000  1.0
  O  O85  1  0.07280000  0.61244000  0.57399000  1.0
  O  O86  1  0.57280000  0.61245000  0.92601000  1.0
  O  O87  1  0.92720000  0.38756000  0.42600000  1.0
  O  O88  1  0.05229000  0.20589000  0.53592000  1.0
  O  O89  1  0.44771000  0.79410000  0.03592000  1.0
  O  O90  1  0.94770000  0.79411000  0.46407000  1.0
  O  O91  1  0.55229000  0.20589000  0.96408000  1.0
  O  O92  1  0.20170000  0.00560000  0.54367000  1.0
  O  O93  1  0.29830000  0.99439000  0.04367000  1.0
  O  O94  1  0.79829000  0.99439000  0.45633000  1.0
  O  O95  1  0.70170000  0.00560000  0.95633000  1.0
  O  O96  1  0.49289000  0.25278000  0.58908000  1.0
  O  O97  1  0.00711000  0.74722000  0.08908000  1.0
  O  O98  1  0.50711000  0.74722000  0.41092000  1.0
  O  O99  1  0.99289000  0.25278000  0.91092000  1.0
  O  O100  1  0.68691000  0.51697000  0.50110000  1.0
  O  O101  1  0.81309000  0.48303000  0.00110000  1.0
  O  O102  1  0.31308000  0.48303000  0.49890000  1.0
  O  O103  1  0.18692000  0.51697000  0.99890000  1.0
