# generated using pymatgen
data_ZnH8C4(NO2)4
_symmetry_space_group_name_H-M   'P 1'
_cell_length_a   7.42024000
_cell_length_b   8.58373000
_cell_length_c   8.58373000
_cell_angle_alpha   85.23720000
_cell_angle_beta   72.40670000
_cell_angle_gamma   72.40640000
_symmetry_Int_Tables_number   1
_chemical_formula_structural   ZnH8C4(NO2)4
_chemical_formula_sum   'Zn2 H16 C8 N8 O16'
_cell_volume   496.75569054
_cell_formula_units_Z   2
loop_
 _symmetry_equiv_pos_site_id
 _symmetry_equiv_pos_as_xyz
  1  'x, y, z'
loop_
 _atom_site_type_symbol
 _atom_site_label
 _atom_site_symmetry_multiplicity
 _atom_site_fract_x
 _atom_site_fract_y
 _atom_site_fract_z
 _atom_site_occupancy
  Zn  Zn0  1  0.50000000  0.50000000  0.00000000  1.0
  Zn  Zn1  1  0.00000000  0.00000000  0.50000000  1.0
  H  H2  1  0.54204000  0.69144000  0.66804000  1.0
  H  H3  1  0.95797000  0.33197000  0.30855000  1.0
  H  H4  1  0.45796000  0.30855000  0.33196000  1.0
  H  H5  1  0.04203000  0.66803000  0.69145000  1.0
  H  H6  1  0.74999000  0.62487000  0.37514000  1.0
  H  H7  1  0.25001000  0.37513000  0.62486000  1.0
  H  H8  1  0.75000000  0.20674000  0.79327000  1.0
  H  H9  1  0.25000000  0.79326000  0.20674000  1.0
  H  H10  1  0.52543000  0.80704000  0.90902000  1.0
  H  H11  1  0.97457000  0.09098000  0.19297000  1.0
  H  H12  1  0.47457000  0.19296000  0.09098000  1.0
  H  H13  1  0.02543000  0.90902000  0.80703000  1.0
  H  H14  1  0.70171000  0.73202000  0.98678000  1.0
  H  H15  1  0.79829000  0.01322000  0.26798000  1.0
  H  H16  1  0.29829000  0.26798000  0.01322000  1.0
  H  H17  1  0.20171000  0.98678000  0.73202000  1.0
  C  C18  1  0.63581000  0.56823000  0.62961000  1.0
  C  C19  1  0.86417000  0.37040000  0.43177000  1.0
  C  C20  1  0.36418000  0.43178000  0.37040000  1.0
  C  C21  1  0.13583000  0.62960000  0.56823000  1.0
  C  C22  1  0.75000000  0.53134000  0.46865000  1.0
  C  C23  1  0.25001000  0.46866000  0.53135000  1.0
  C  C24  1  0.75000000  0.30017000  0.69984000  1.0
  C  C25  1  0.25000000  0.69983000  0.30016000  1.0
  N  N26  1  0.05978000  0.67461000  0.00747000  1.0
  N  N27  1  0.44022000  0.99253000  0.32539000  1.0
  N  N28  1  0.94022000  0.32539000  0.99253000  1.0
  N  N29  1  0.55978000  0.00747000  0.67461000  1.0
  N  N30  1  0.63765000  0.45247000  0.74544000  1.0
  N  N31  1  0.86235000  0.25456000  0.54753000  1.0
  N  N32  1  0.36235000  0.54753000  0.25456000  1.0
  N  N33  1  0.13765000  0.74544000  0.45247000  1.0
  O  O34  1  0.24116000  0.66189000  0.93085000  1.0
  O  O35  1  0.25884000  0.06915000  0.33811000  1.0
  O  O36  1  0.75884000  0.33811000  0.06915000  1.0
  O  O37  1  0.74116000  0.93085000  0.66189000  1.0
  O  O38  1  0.01206000  0.59315000  0.13121000  1.0
  O  O39  1  0.48793000  0.86879000  0.40685000  1.0
  O  O40  1  0.98794000  0.40685000  0.86879000  1.0
  O  O41  1  0.51207000  0.13121000  0.59315000  1.0
  O  O42  1  0.92884000  0.77522000  0.95070000  1.0
  O  O43  1  0.57116000  0.04930000  0.22478000  1.0
  O  O44  1  0.07116000  0.22478000  0.04930000  1.0
  O  O45  1  0.42884000  0.95070000  0.77522000  1.0
  O  O46  1  0.56932000  0.72586000  0.98954000  1.0
  O  O47  1  0.93068000  0.01046000  0.27414000  1.0
  O  O48  1  0.43068000  0.27413000  0.01046000  1.0
  O  O49  1  0.06932000  0.98954000  0.72586000  1.0
