# generated using pymatgen
data_ZnH16C18N2(ClO)2
_symmetry_space_group_name_H-M   'P 1'
_cell_length_a   8.20923000
_cell_length_b   9.57932000
_cell_length_c   12.25900000
_cell_angle_alpha   108.40600000
_cell_angle_beta   94.63210000
_cell_angle_gamma   102.83100000
_symmetry_Int_Tables_number   1
_chemical_formula_structural   ZnH16C18N2(ClO)2
_chemical_formula_sum   'Zn2 H32 C36 N4 Cl4 O4'
_cell_volume   879.93504648
_cell_formula_units_Z   2
loop_
 _symmetry_equiv_pos_site_id
 _symmetry_equiv_pos_as_xyz
  1  'x, y, z'
loop_
 _atom_site_type_symbol
 _atom_site_label
 _atom_site_symmetry_multiplicity
 _atom_site_fract_x
 _atom_site_fract_y
 _atom_site_fract_z
 _atom_site_occupancy
  Zn  Zn0  1  0.94650000  0.09298000  0.17168000  1.0
  Zn  Zn1  1  0.58373000  0.38810000  0.81379000  1.0
  H  H2  1  0.07999000  0.94632000  0.31304000  1.0
  H  H3  1  0.18284000  0.86822000  0.47621000  1.0
  H  H4  1  0.18469000  0.03053000  0.68397000  1.0
  H  H5  1  0.07172000  0.25969000  0.71729000  1.0
  H  H6  1  0.89724000  0.37400000  0.64485000  1.0
  H  H7  1  0.86587000  0.35049000  0.49271000  1.0
  H  H8  1  0.10150000  0.47647000  0.40881000  1.0
  H  H9  1  0.34798000  0.70216000  0.44800000  1.0
  H  H10  1  0.48053000  0.85964000  0.65153000  1.0
  H  H11  1  0.13620000  0.55997000  0.77742000  1.0
  H  H12  1  0.37752000  0.92837000  0.88179000  1.0
  H  H13  1  0.36502000  0.75616000  0.91198000  1.0
  H  H14  1  0.61968000  0.07325000  0.88050000  1.0
  H  H15  1  0.92920000  0.12154000  0.87179000  1.0
  H  H16  1  0.06275000  0.90033000  0.84119000  1.0
  H  H17  1  0.88430000  0.64620000  0.82947000  1.0
  H  H18  1  0.65145000  0.11459000  0.68337000  1.0
  H  H19  1  0.69256000  0.89099000  0.52674000  1.0
  H  H20  1  0.60727000  0.85981000  0.31599000  1.0
  H  H21  1  0.47856000  0.05334000  0.27280000  1.0
  H  H22  1  0.35840000  0.34423000  0.48592000  1.0
  H  H23  1  0.33173000  0.23016000  0.33472000  1.0
  H  H24  1  0.63241000  0.54975000  0.57893000  1.0
  H  H25  1  0.86512000  0.74160000  0.54579000  1.0
  H  H26  1  0.91576000  0.71680000  0.34450000  1.0
  H  H27  1  0.51580000  0.30160000  0.20954000  1.0
  H  H28  1  0.67890000  0.38146000  0.07930000  1.0
  H  H29  1  0.71370000  0.58221000  0.11402000  1.0
  H  H30  1  0.95666000  0.72682000  0.12138000  1.0
  H  H31  1  0.26542000  0.77108000  0.11273000  1.0
  H  H32  1  0.40288000  0.55725000  0.11092000  1.0
  H  H33  1  0.22703000  0.31521000  0.12171000  1.0
  C  C34  1  0.01980000  0.14461000  0.42464000  1.0
  C  C35  1  0.07778000  0.01077000  0.40346000  1.0
  C  C36  1  0.13553000  0.96943000  0.49420000  1.0
  C  C37  1  0.13555000  0.05752000  0.61025000  1.0
  C  C38  1  0.07654000  0.18519000  0.63030000  1.0
  C  C39  1  0.95862000  0.36615000  0.56770000  1.0
  C  C40  1  0.10223000  0.50617000  0.59069000  1.0
  C  C41  1  0.16186000  0.54611000  0.49782000  1.0
  C  C42  1  0.29866000  0.67267000  0.52015000  1.0
  C  C43  1  0.37393000  0.76073000  0.63471000  1.0
  C  C44  1  0.31587000  0.72205000  0.72822000  1.0
  C  C45  1  0.18030000  0.59368000  0.70536000  1.0
  C  C46  1  0.40401000  0.81597000  0.85167000  1.0
  C  C47  1  0.68576000  0.98354000  0.86766000  1.0
  C  C48  1  0.85577000  0.00773000  0.86225000  1.0
  C  C49  1  0.92813000  0.88377000  0.84565000  1.0
  C  C50  1  0.83092000  0.74290000  0.83831000  1.0
  C  C51  1  0.65630000  0.71978000  0.84720000  1.0
  C  C52  1  0.54116000  0.20534000  0.56512000  1.0
  C  C53  1  0.61210000  0.09527000  0.59171000  1.0
  C  C54  1  0.63559000  0.97292000  0.50456000  1.0
  C  C55  1  0.58722000  0.95309000  0.38693000  1.0
  C  C56  1  0.51837000  0.05958000  0.36156000  1.0
  C  C57  1  0.42329000  0.29379000  0.41501000  1.0
  C  C58  1  0.55887000  0.41482000  0.39628000  1.0
  C  C59  1  0.65692000  0.53920000  0.49102000  1.0
  C  C60  1  0.78600000  0.64665000  0.47199000  1.0
  C  C61  1  0.81548000  0.63195000  0.35890000  1.0
  C  C62  1  0.71821000  0.50853000  0.26370000  1.0
  C  C63  1  0.59064000  0.39978000  0.28325000  1.0
  C  C64  1  0.75045000  0.49310000  0.14129000  1.0
  C  C65  1  0.02547000  0.64250000  0.12470000  1.0
  C  C66  1  0.19521000  0.66408000  0.11895000  1.0
  C  C67  1  0.26964000  0.54507000  0.11891000  1.0
  C  C68  1  0.17397000  0.41095000  0.12542000  1.0
  C  C69  1  0.99887000  0.38984000  0.13235000  1.0
  N  N70  1  0.01917000  0.22643000  0.54078000  1.0
  N  N71  1  0.58865000  0.84338000  0.85729000  1.0
  N  N72  1  0.49560000  0.18114000  0.44752000  1.0
  N  N73  1  0.93131000  0.51108000  0.13307000  1.0
  Cl  Cl74  1  0.72778000  0.88690000  0.12751000  1.0
  Cl  Cl75  1  0.19190000  0.04124000  0.12367000  1.0
  Cl  Cl76  1  0.40398000  0.24600000  0.88838000  1.0
  Cl  Cl77  1  0.85576000  0.38119000  0.85026000  1.0
  O  O78  1  0.97179000  0.19652000  0.34725000  1.0
  O  O79  1  0.89694000  0.26991000  0.13666000  1.0
  O  O80  1  0.55452000  0.59681000  0.84599000  1.0
  O  O81  1  0.51774000  0.32410000  0.63942000  1.0
