# generated using pymatgen
data_Zn3Ag6H50C42S6(N3O4)4
_symmetry_space_group_name_H-M   'P 1'
_cell_length_a   12.24930000
_cell_length_b   12.33667817
_cell_length_c   13.55900000
_cell_angle_alpha   111.72475396
_cell_angle_beta   94.31420000
_cell_angle_gamma   119.73891670
_symmetry_Int_Tables_number   1
_chemical_formula_structural   Zn3Ag6H50C42S6(N3O4)4
_chemical_formula_sum   'Zn3 Ag6 H50 C42 S6 N12 O16'
_cell_volume   1565.34711820
_cell_formula_units_Z   1
loop_
 _symmetry_equiv_pos_site_id
 _symmetry_equiv_pos_as_xyz
  1  'x, y, z'
loop_
 _atom_site_type_symbol
 _atom_site_label
 _atom_site_symmetry_multiplicity
 _atom_site_fract_x
 _atom_site_fract_y
 _atom_site_fract_z
 _atom_site_occupancy
  Zn  Zn0  1  0.50000000  0.00000000  0.50000000  1.0
  Zn  Zn1  1  0.86970000  0.70863000  0.47975000  1.0
  Zn  Zn2  1  0.13029000  0.29137000  0.52025000  1.0
  Ag  Ag3  1  0.32590000  0.48007000  0.89121000  1.0
  Ag  Ag4  1  0.67410000  0.51993000  0.10879000  1.0
  Ag  Ag5  1  0.34662000  0.42014000  0.08519000  1.0
  Ag  Ag6  1  0.65339000  0.57986000  0.91481000  1.0
  Ag  Ag7  1  0.56399000  0.73186000  0.07213000  1.0
  Ag  Ag8  1  0.43601000  0.26813000  0.92787000  1.0
  H  H9  1  0.64713000  0.02871000  0.09699000  1.0
  H  H10  1  0.35287000  0.97129000  0.90302000  1.0
  H  H11  1  0.65861000  0.14749000  0.97947000  1.0
  H  H12  1  0.34140000  0.85251000  0.02054000  1.0
  H  H13  1  0.59312000  0.00696000  0.77044000  1.0
  H  H14  1  0.40689000  0.99305000  0.22957000  1.0
  H  H15  1  0.71714000  0.86973000  0.37469000  1.0
  H  H16  1  0.28285000  0.13026000  0.62531000  1.0
  H  H17  1  0.76644000  0.00539000  0.51107000  1.0
  H  H18  1  0.23356000  0.99460000  0.48892000  1.0
  H  H19  1  0.79101000  0.09098000  0.36788000  1.0
  H  H20  1  0.20899000  0.90902000  0.63211000  1.0
  H  H21  1  0.61777000  0.96705000  0.29510000  1.0
  H  H22  1  0.38223000  0.03295000  0.70489000  1.0
  H  H23  1  0.08091000  0.66135000  0.54625000  1.0
  H  H24  1  0.91908000  0.33865000  0.45375000  1.0
  H  H25  1  0.00487000  0.53691000  0.40262000  1.0
  H  H26  1  0.99512000  0.46309000  0.59738000  1.0
  H  H27  1  0.06395000  0.22306000  0.11562000  1.0
  H  H28  1  0.93605000  0.77694000  0.88438000  1.0
  H  H29  1  0.83703000  0.00681000  0.99631000  1.0
  H  H30  1  0.16296000  0.99319000  0.00369000  1.0
  H  H31  1  0.79241000  0.87979000  0.78707000  1.0
  H  H32  1  0.20760000  0.12022000  0.21293000  1.0
  H  H33  1  0.10194000  0.52442000  0.82548000  1.0
  H  H34  1  0.89804000  0.47557000  0.17452000  1.0
  H  H35  1  0.97854000  0.62224000  0.91499000  1.0
  H  H36  1  0.02145000  0.37775000  0.08501000  1.0
  H  H37  1  0.03715000  0.73386000  0.12506000  1.0
  H  H38  1  0.96285000  0.26614000  0.87494000  1.0
  H  H39  1  0.56486000  0.81873000  0.49304000  1.0
  H  H40  1  0.43514000  0.18127000  0.50696000  1.0
  H  H41  1  0.49193000  0.77802000  0.36492000  1.0
  H  H42  1  0.50807000  0.22198000  0.63508000  1.0
  H  H43  1  0.63995000  0.17932000  0.41659000  1.0
  H  H44  1  0.36005000  0.82068000  0.58341000  1.0
  H  H45  1  0.73509000  0.20055000  0.52672000  1.0
  H  H46  1  0.26491000  0.79945000  0.47328000  1.0
  H  H47  1  0.86406000  0.56318000  0.56884000  1.0
  H  H48  1  0.13595000  0.43683000  0.43116000  1.0
  H  H49  1  0.78689000  0.44878000  0.43675000  1.0
  H  H50  1  0.21311000  0.55122000  0.56325000  1.0
  H  H51  1  0.61769000  0.57156000  0.38106000  1.0
  H  H52  1  0.38231000  0.42844000  0.61894000  1.0
  H  H53  1  0.64676000  0.68090000  0.51061000  1.0
  H  H54  1  0.35324000  0.31910000  0.48940000  1.0
  H  H55  1  0.02885000  0.73555000  0.35321000  1.0
  H  H56  1  0.97115000  0.26445000  0.64678000  1.0
  H  H57  1  0.98745000  0.84611000  0.37343000  1.0
  H  H58  1  0.01256000  0.15390000  0.62657000  1.0
  C  C59  1  0.61883000  0.97184000  0.00594000  1.0
  C  C60  1  0.38118000  0.02816000  0.99407000  1.0
  C  C61  1  0.62513000  0.03716000  0.94032000  1.0
  C  C62  1  0.37489000  0.96285000  0.05969000  1.0
  C  C63  1  0.58724000  0.95806000  0.82442000  1.0
  C  C64  1  0.41277000  0.04195000  0.17559000  1.0
  C  C65  1  0.54586000  0.81674000  0.77726000  1.0
  C  C66  1  0.45414000  0.18326000  0.22275000  1.0
  C  C67  1  0.54069000  0.75737000  0.84943000  1.0
  C  C68  1  0.45932000  0.24264000  0.15058000  1.0
  C  C69  1  0.51352000  0.73539000  0.65160000  1.0
  C  C70  1  0.48648000  0.26461000  0.34841000  1.0
  C  C71  1  0.69147000  0.93962000  0.42776000  1.0
  C  C72  1  0.30852000  0.06037000  0.57224000  1.0
  C  C73  1  0.69323000  0.03354000  0.37863000  1.0
  C  C74  1  0.30677000  0.96646000  0.62137000  1.0
  C  C75  1  0.99635000  0.55333000  0.48640000  1.0
  C  C76  1  0.00365000  0.44668000  0.51360000  1.0
  C  C77  1  0.03851000  0.16814000  0.02466000  1.0
  C  C78  1  0.96149000  0.83186000  0.97534000  1.0
  C  C79  1  0.91260000  0.04750000  0.95819000  1.0
  C  C80  1  0.08739000  0.95249000  0.04181000  1.0
  C  C81  1  0.88832000  0.97708000  0.84332000  1.0
  C  C82  1  0.11168000  0.02292000  0.15668000  1.0
  C  C83  1  0.98952000  0.03230000  0.79866000  1.0
  C  C84  1  0.01049000  0.96770000  0.20134000  1.0
  C  C85  1  0.11374000  0.15793000  0.87076000  1.0
  C  C86  1  0.88627000  0.84207000  0.12924000  1.0
  C  C87  1  0.96438000  0.95318000  0.67556000  1.0
  C  C88  1  0.03563000  0.04683000  0.32444000  1.0
  C  C89  1  0.12773000  0.57870000  0.91642000  1.0
  C  C90  1  0.87227000  0.42130000  0.08358000  1.0
  C  C91  1  0.05916000  0.63305000  0.96664000  1.0
  C  C92  1  0.94084000  0.36695000  0.03336000  1.0
  C  C93  1  0.09164000  0.69398000  0.08301000  1.0
  C  C94  1  0.90836000  0.30602000  0.91699000  1.0
  C  C95  1  0.19385000  0.70308000  0.14648000  1.0
  C  C96  1  0.80615000  0.29692000  0.85352000  1.0
  C  C97  1  0.26100000  0.64779000  0.08926000  1.0
  C  C98  1  0.73899000  0.35220000  0.91074000  1.0
  C  C99  1  0.23198000  0.77217000  0.27327000  1.0
  C  C100  1  0.76803000  0.22784000  0.72673000  1.0
  S  S101  1  0.48834000  0.58018000  0.79639000  1.0
  S  S102  1  0.51166000  0.41982000  0.20361000  1.0
  S  S103  1  0.24051000  0.22851000  0.81533000  1.0
  S  S104  1  0.75949000  0.77148000  0.18467000  1.0
  S  S105  1  0.39187000  0.65771000  0.16361000  1.0
  S  S106  1  0.60813000  0.34229000  0.83639000  1.0
  N  N107  1  0.57662000  0.83528000  0.96193000  1.0
  N  N108  1  0.42338000  0.16472000  0.03808000  1.0
  N  N109  1  0.13664000  0.22268000  0.98272000  1.0
  N  N110  1  0.86336000  0.77732000  0.01728000  1.0
  N  N111  1  0.22556000  0.58491000  0.97579000  1.0
  N  N112  1  0.77444000  0.41509000  0.02421000  1.0
  N  N113  1  0.56059000  0.86035000  0.44130000  1.0
  N  N114  1  0.43941000  0.13965000  0.55870000  1.0
  N  N115  1  0.65969000  0.12727000  0.45131000  1.0
  N  N116  1  0.34031000  0.87273000  0.54868000  1.0
  N  N117  1  0.87289000  0.54672000  0.49088000  1.0
  N  N118  1  0.12710000  0.45328000  0.50912000  1.0
  O  O119  1  0.39854000  0.68061000  0.58947000  1.0
  O  O120  1  0.60147000  0.31939000  0.41054000  1.0
  O  O121  1  0.60925000  0.73669000  0.62021000  1.0
  O  O122  1  0.39075000  0.26331000  0.37980000  1.0
  O  O123  1  0.94790000  0.83218000  0.64422000  1.0
  O  O124  1  0.05212000  0.16782000  0.35578000  1.0
  O  O125  1  0.68623000  0.66273000  0.44757000  1.0
  O  O126  1  0.31378000  0.33728000  0.55243000  1.0
  O  O127  1  0.95474000  0.99871000  0.60880000  1.0
  O  O128  1  0.04527000  0.00129000  0.39121000  1.0
  O  O129  1  0.14570000  0.71280000  0.31633000  1.0
  O  O130  1  0.85430000  0.28720000  0.68366000  1.0
  O  O131  1  0.34728000  0.88445000  0.32609000  1.0
  O  O132  1  0.65271000  0.11554000  0.67390000  1.0
  O  O133  1  0.95832000  0.75172000  0.37069000  1.0
  O  O134  1  0.04168000  0.24828000  0.62930000  1.0
