# generated using pymatgen
data_Re2AgH5C10N6O7
_symmetry_space_group_name_H-M   'P 1'
_cell_length_a   9.11455000
_cell_length_b   14.73260000
_cell_length_c   17.78850000
_cell_angle_alpha   89.99880000
_cell_angle_beta   82.22100000
_cell_angle_gamma   89.99840000
_symmetry_Int_Tables_number   1
_chemical_formula_structural   Re2AgH5C10N6O7
_chemical_formula_sum   'Re8 Ag4 H20 C40 N24 O28'
_cell_volume   2366.67632552
_cell_formula_units_Z   4
loop_
 _symmetry_equiv_pos_site_id
 _symmetry_equiv_pos_as_xyz
  1  'x, y, z'
loop_
 _atom_site_type_symbol
 _atom_site_label
 _atom_site_symmetry_multiplicity
 _atom_site_fract_x
 _atom_site_fract_y
 _atom_site_fract_z
 _atom_site_occupancy
  Re  Re0  1  0.00392000  0.97661000  0.76926000  1.0
  Re  Re1  1  0.49607000  0.47661000  0.73075000  1.0
  Re  Re2  1  0.99606000  0.02339000  0.23075000  1.0
  Re  Re3  1  0.50395000  0.52338000  0.26926000  1.0
  Re  Re4  1  0.36959000  0.00826000  0.83367000  1.0
  Re  Re5  1  0.13041000  0.50828000  0.66633000  1.0
  Re  Re6  1  0.63039000  0.99175000  0.16633000  1.0
  Re  Re7  1  0.86961000  0.49173000  0.33367000  1.0
  Ag  Ag8  1  0.43986000  0.68989000  0.59575000  1.0
  Ag  Ag9  1  0.06015000  0.18988000  0.90425000  1.0
  Ag  Ag10  1  0.56016000  0.31012000  0.40425000  1.0
  Ag  Ag11  1  0.93985000  0.81011000  0.09575000  1.0
  H  H12  1  0.25743000  0.91528000  0.01336000  1.0
  H  H13  1  0.24255000  0.41528000  0.48666000  1.0
  H  H14  1  0.74256000  0.08473000  0.98664000  1.0
  H  H15  1  0.75746000  0.58471000  0.51335000  1.0
  H  H16  1  0.84777000  0.87499000  0.93344000  1.0
  H  H17  1  0.65223000  0.37498000  0.56657000  1.0
  H  H18  1  0.15222000  0.12501000  0.06656000  1.0
  H  H19  1  0.34779000  0.62501000  0.43343000  1.0
  H  H20  1  0.52698000  0.82207000  0.73705000  1.0
  H  H21  1  0.97301000  0.32207000  0.76295000  1.0
  H  H22  1  0.47302000  0.17794000  0.26296000  1.0
  H  H23  1  0.02698000  0.67793000  0.23705000  1.0
  H  H24  1  0.11902000  0.79426000  0.65255000  1.0
  H  H25  1  0.38098000  0.29427000  0.84746000  1.0
  H  H26  1  0.88099000  0.20573000  0.34745000  1.0
  H  H27  1  0.61902000  0.70572000  0.15254000  1.0
  H  H28  1  0.20788000  0.11195000  0.74889000  1.0
  H  H29  1  0.29213000  0.61197000  0.75110000  1.0
  H  H30  1  0.79210000  0.88805000  0.25111000  1.0
  H  H31  1  0.70790000  0.38802000  0.24890000  1.0
  C  C32  1  0.85490000  0.06071000  0.81113000  1.0
  C  C33  1  0.64508000  0.56071000  0.68885000  1.0
  C  C34  1  0.14509000  0.93928000  0.18886000  1.0
  C  C35  1  0.35493000  0.43928000  0.31115000  1.0
  C  C36  1  0.98375000  0.01690000  0.66804000  1.0
  C  C37  1  0.51625000  0.51691000  0.83196000  1.0
  C  C38  1  0.01623000  0.98309000  0.33196000  1.0
  C  C39  1  0.48376000  0.48308000  0.16804000  1.0
  C  C40  1  0.85660000  0.88708000  0.75921000  1.0
  C  C41  1  0.64340000  0.38708000  0.74079000  1.0
  C  C42  1  0.14339000  0.11291000  0.24079000  1.0
  C  C43  1  0.35661000  0.61291000  0.25921000  1.0
  C  C44  1  0.51503000  0.05417000  0.75444000  1.0
  C  C45  1  0.98494000  0.55418000  0.74557000  1.0
  C  C46  1  0.48494000  0.94585000  0.24557000  1.0
  C  C47  1  0.01508000  0.44583000  0.25442000  1.0
  C  C48  1  0.40256000  0.11122000  0.89520000  1.0
  C  C49  1  0.09744000  0.61125000  0.60479000  1.0
  C  C50  1  0.59743000  0.88879000  0.10480000  1.0
  C  C51  1  0.90258000  0.38876000  0.39521000  1.0
  C  C52  1  0.52023000  0.94920000  0.88013000  1.0
  C  C53  1  0.97978000  0.44921000  0.61986000  1.0
  C  C54  1  0.47975000  0.05082000  0.11987000  1.0
  C  C55  1  0.02024000  0.55081000  0.38013000  1.0
  C  C56  1  0.16954000  0.91458000  0.97793000  1.0
  C  C57  1  0.33045000  0.41461000  0.52208000  1.0
  C  C58  1  0.83045000  0.08541000  0.02207000  1.0
  C  C59  1  0.66956000  0.58539000  0.47793000  1.0
  C  C60  1  0.96166000  0.89347000  0.93737000  1.0
  C  C61  1  0.53834000  0.39347000  0.56264000  1.0
  C  C62  1  0.03833000  0.10652000  0.06263000  1.0
  C  C63  1  0.46168000  0.60652000  0.43736000  1.0
  C  C64  1  0.41327000  0.83141000  0.72669000  1.0
  C  C65  1  0.08672000  0.33143000  0.77331000  1.0
  C  C66  1  0.58673000  0.16858000  0.27331000  1.0
  C  C67  1  0.91327000  0.66858000  0.22669000  1.0
  C  C68  1  0.20612000  0.81754000  0.68379000  1.0
  C  C69  1  0.29387000  0.31755000  0.81622000  1.0
  C  C70  1  0.79389000  0.18246000  0.31621000  1.0
  C  C71  1  0.70612000  0.68245000  0.18378000  1.0
  N  N72  1  0.04954000  0.93431000  0.88165000  1.0
  N  N73  1  0.45046000  0.43433000  0.61835000  1.0
  N  N74  1  0.95045000  0.06568000  0.11834000  1.0
  N  N75  1  0.54956000  0.56567000  0.38166000  1.0
  N  N76  1  0.18340000  0.94803000  0.90761000  1.0
  N  N77  1  0.31659000  0.44802000  0.59239000  1.0
  N  N78  1  0.81659000  0.05197000  0.09238000  1.0
  N  N79  1  0.68342000  0.55197000  0.40761000  1.0
  N  N80  1  0.03238000  0.87998000  0.99867000  1.0
  N  N81  1  0.46762000  0.37997000  0.50133000  1.0
  N  N82  1  0.96762000  0.12002000  0.00132000  1.0
  N  N83  1  0.53240000  0.62003000  0.49867000  1.0
  N  N84  1  0.19091000  0.88657000  0.73253000  1.0
  N  N85  1  0.30909000  0.38658000  0.76747000  1.0
  N  N86  1  0.80909000  0.11343000  0.26748000  1.0
  N  N87  1  0.69092000  0.61342000  0.23252000  1.0
  N  N88  1  0.32400000  0.89556000  0.75998000  1.0
  N  N89  1  0.17598000  0.39557000  0.74002000  1.0
  N  N90  1  0.67599000  0.10444000  0.24002000  1.0
  N  N91  1  0.82402000  0.60443000  0.25998000  1.0
  N  N92  1  0.34369000  0.78105000  0.67846000  1.0
  N  N93  1  0.15632000  0.28106000  0.82154000  1.0
  N  N94  1  0.65632000  0.21895000  0.32155000  1.0
  N  N95  1  0.84369000  0.71894000  0.17845000  1.0
  O  O96  1  0.76828000  0.11350000  0.83998000  1.0
  O  O97  1  0.73170000  0.61350000  0.66001000  1.0
  O  O98  1  0.23170000  0.88650000  0.16001000  1.0
  O  O99  1  0.26829000  0.38651000  0.33999000  1.0
  O  O100  1  0.97304000  0.04106000  0.60644000  1.0
  O  O101  1  0.52697000  0.54108000  0.89356000  1.0
  O  O102  1  0.02696000  0.95892000  0.39356000  1.0
  O  O103  1  0.47303000  0.45890000  0.10644000  1.0
  O  O104  1  0.76793000  0.83095000  0.75167000  1.0
  O  O105  1  0.73208000  0.33095000  0.74832000  1.0
  O  O106  1  0.23205000  0.16906000  0.24833000  1.0
  O  O107  1  0.26794000  0.66905000  0.25166000  1.0
  O  O108  1  0.59824000  0.08004000  0.70306000  1.0
  O  O109  1  0.90171000  0.58005000  0.79694000  1.0
  O  O110  1  0.40170000  0.91997000  0.29694000  1.0
  O  O111  1  0.09831000  0.41997000  0.20306000  1.0
  O  O112  1  0.42807000  0.17463000  0.93136000  1.0
  O  O113  1  0.07194000  0.67466000  0.56863000  1.0
  O  O114  1  0.57192000  0.82537000  0.06864000  1.0
  O  O115  1  0.92810000  0.32536000  0.43137000  1.0
  O  O116  1  0.61297000  0.91518000  0.91064000  1.0
  O  O117  1  0.88704000  0.41519000  0.58935000  1.0
  O  O118  1  0.38702000  0.08485000  0.08937000  1.0
  O  O119  1  0.11297000  0.58484000  0.41063000  1.0
  O  O120  1  0.18391000  0.06532000  0.78689000  1.0
  O  O121  1  0.31608000  0.56533000  0.71310000  1.0
  O  O122  1  0.81607000  0.93468000  0.21310000  1.0
  O  O123  1  0.68395000  0.43466000  0.28690000  1.0
