# generated using pymatgen
data_CuH3C7N6
_symmetry_space_group_name_H-M   'P 1'
_cell_length_a   32.49870000
_cell_length_b   32.73350000
_cell_length_c   32.77130000
_cell_angle_alpha   90.01470000
_cell_angle_beta   90.12040000
_cell_angle_gamma   89.89790000
_symmetry_Int_Tables_number   1
_chemical_formula_structural   CuH3C7N6
_chemical_formula_sum   'Cu12 H36 C84 N72'
_cell_volume   34861.85085590
_cell_formula_units_Z   12
loop_
 _symmetry_equiv_pos_site_id
 _symmetry_equiv_pos_as_xyz
  1  'x, y, z'
loop_
 _atom_site_type_symbol
 _atom_site_label
 _atom_site_symmetry_multiplicity
 _atom_site_fract_x
 _atom_site_fract_y
 _atom_site_fract_z
 _atom_site_occupancy
  Cu  Cu0  1  0.37443000  0.58626000  0.66393000  1.0
  Cu  Cu1  1  0.33447000  0.62555000  0.58407000  1.0
  Cu  Cu2  1  0.41470000  0.66452000  0.62382000  1.0
  Cu  Cu3  1  0.62377000  0.91491000  0.16298000  1.0
  Cu  Cu4  1  0.66516000  0.87382000  0.08550000  1.0
  Cu  Cu5  1  0.58480000  0.83457000  0.12430000  1.0
  Cu  Cu6  1  0.87541000  0.41410000  0.83624000  1.0
  Cu  Cu7  1  0.83522000  0.37400000  0.91490000  1.0
  Cu  Cu8  1  0.91489000  0.33426000  0.87524000  1.0
  Cu  Cu9  1  0.12399000  0.08568000  0.33702000  1.0
  Cu  Cu10  1  0.16508000  0.12635000  0.41490000  1.0
  Cu  Cu11  1  0.08448000  0.16572000  0.37588000  1.0
  H  H12  1  0.30945000  0.51594000  0.68205000  1.0
  H  H13  1  0.26450000  0.55978000  0.56530000  1.0
  H  H14  1  0.48635000  0.68276000  0.68822000  1.0
  H  H15  1  0.43901000  0.56843000  0.73555000  1.0
  H  H16  1  0.31572000  0.69134000  0.51435000  1.0
  H  H17  1  0.43356000  0.73459000  0.55902000  1.0
  H  H18  1  0.68776000  0.98687000  0.18054000  1.0
  H  H19  1  0.73752000  0.93733000  0.06821000  1.0
  H  H20  1  0.51555000  0.81517000  0.19052000  1.0
  H  H21  1  0.55813000  0.93334000  0.23285000  1.0
  H  H22  1  0.68383000  0.80882000  0.01533000  1.0
  H  H23  1  0.56575000  0.76512000  0.05843000  1.0
  H  H24  1  0.80965000  0.48430000  0.81767000  1.0
  H  H25  1  0.76508000  0.43956000  0.93401000  1.0
  H  H26  1  0.98479000  0.31524000  0.80946000  1.0
  H  H27  1  0.94162000  0.43331000  0.76704000  1.0
  H  H28  1  0.81612000  0.30843000  0.98440000  1.0
  H  H29  1  0.93390000  0.26423000  0.94057000  1.0
  H  H30  1  0.18839000  0.01411000  0.31917000  1.0
  H  H31  1  0.23734000  0.06233000  0.43255000  1.0
  H  H32  1  0.01447000  0.18469000  0.31002000  1.0
  H  H33  1  0.05849000  0.06724000  0.26688000  1.0
  H  H34  1  0.18366000  0.19143000  0.48508000  1.0
  H  H35  1  0.06559000  0.23543000  0.44138000  1.0
  H  H36  1  0.82123000  0.12410000  0.07052000  1.0
  H  H37  1  0.92876000  0.17882000  0.12494000  1.0
  H  H38  1  0.87489000  0.07147000  0.17893000  1.0
  H  H39  1  0.17861000  0.37518000  0.57129000  1.0
  H  H40  1  0.07118000  0.32111000  0.62604000  1.0
  H  H41  1  0.12543000  0.42889000  0.67916000  1.0
  H  H42  1  0.32173000  0.87589000  0.42908000  1.0
  H  H43  1  0.42928000  0.82100000  0.37497000  1.0
  H  H44  1  0.37526000  0.92861000  0.32098000  1.0
  H  H45  1  0.62509000  0.57100000  0.82143000  1.0
  H  H46  1  0.57146000  0.67935000  0.87414000  1.0
  H  H47  1  0.67887000  0.62465000  0.92917000  1.0
  C  C48  1  0.30374000  0.53227000  0.65379000  1.0
  C  C49  1  0.27391000  0.52467000  0.62366000  1.0
  C  C50  1  0.28103000  0.55438000  0.59359000  1.0
  C  C51  1  0.46921000  0.65506000  0.69450000  1.0
  C  C52  1  0.47585000  0.62565000  0.72504000  1.0
  C  C53  1  0.44525000  0.59609000  0.71842000  1.0
  C  C54  1  0.34423000  0.69663000  0.53078000  1.0
  C  C55  1  0.37471000  0.72615000  0.52365000  1.0
  C  C56  1  0.40499000  0.71844000  0.55334000  1.0
  C  C57  1  0.69456000  0.96924000  0.15334000  1.0
  C  C58  1  0.72579000  0.97523000  0.12437000  1.0
  C  C59  1  0.71976000  0.94417000  0.09537000  1.0
  C  C60  1  0.53148000  0.84383000  0.19558000  1.0
  C  C61  1  0.52378000  0.87419000  0.22492000  1.0
  C  C62  1  0.55296000  0.90476000  0.21689000  1.0
  C  C63  1  0.65524000  0.80338000  0.03145000  1.0
  C  C64  1  0.62480000  0.77394000  0.02372000  1.0
  C  C65  1  0.59436000  0.78133000  0.05320000  1.0
  C  C66  1  0.80408000  0.46780000  0.84583000  1.0
  C  C67  1  0.77426000  0.47513000  0.87592000  1.0
  C  C68  1  0.78159000  0.44526000  0.90584000  1.0
  C  C69  1  0.96865000  0.34384000  0.80433000  1.0
  C  C70  1  0.97636000  0.37430000  0.77515000  1.0
  C  C71  1  0.94685000  0.40471000  0.78296000  1.0
  C  C72  1  0.84463000  0.30288000  0.96814000  1.0
  C  C73  1  0.87501000  0.27319000  0.97555000  1.0
  C  C74  1  0.90536000  0.28058000  0.94601000  1.0
  C  C75  1  0.19500000  0.03143000  0.34662000  1.0
  C  C76  1  0.22609000  0.02509000  0.37582000  1.0
  C  C77  1  0.21980000  0.05583000  0.40510000  1.0
  C  C78  1  0.03080000  0.15624000  0.30476000  1.0
  C  C79  1  0.02343000  0.12602000  0.27520000  1.0
  C  C80  1  0.05301000  0.09566000  0.28303000  1.0
  C  C81  1  0.15506000  0.19691000  0.46883000  1.0
  C  C82  1  0.12462000  0.22647000  0.47639000  1.0
  C  C83  1  0.09419000  0.21914000  0.44678000  1.0
  C  C84  1  0.84471000  0.09442000  0.12472000  1.0
  C  C85  1  0.84472000  0.12439000  0.09428000  1.0
  C  C86  1  0.87495000  0.15480000  0.09439000  1.0
  C  C87  1  0.90520000  0.15520000  0.12486000  1.0
  C  C88  1  0.90511000  0.12520000  0.15527000  1.0
  C  C89  1  0.87486000  0.09481000  0.15525000  1.0
  C  C90  1  0.15530000  0.40538000  0.62515000  1.0
  C  C91  1  0.15516000  0.37512000  0.59498000  1.0
  C  C92  1  0.12487000  0.34480000  0.59531000  1.0
  C  C93  1  0.09476000  0.34472000  0.62579000  1.0
  C  C94  1  0.09499000  0.37497000  0.65597000  1.0
  C  C95  1  0.12526000  0.40534000  0.65568000  1.0
  C  C96  1  0.34513000  0.90563000  0.37504000  1.0
  C  C97  1  0.34519000  0.87557000  0.40540000  1.0
  C  C98  1  0.37543000  0.84507000  0.40532000  1.0
  C  C99  1  0.40570000  0.84469000  0.37500000  1.0
  C  C100  1  0.40560000  0.87478000  0.34465000  1.0
  C  C101  1  0.37528000  0.90522000  0.34462000  1.0
  C  C102  1  0.65530000  0.59453000  0.87531000  1.0
  C  C103  1  0.62506000  0.59463000  0.84483000  1.0
  C  C104  1  0.59488000  0.62518000  0.84445000  1.0
  C  C105  1  0.59494000  0.65557000  0.87448000  1.0
  C  C106  1  0.62515000  0.65537000  0.90499000  1.0
  C  C107  1  0.65535000  0.62484000  0.90544000  1.0
  C  C108  1  0.75718000  0.00647000  0.12447000  1.0
  C  C109  1  0.81294000  0.06239000  0.12464000  1.0
  C  C110  1  0.24282000  0.49317000  0.62391000  1.0
  C  C111  1  0.18717000  0.43722000  0.62472000  1.0
  C  C112  1  0.25753000  0.99379000  0.37563000  1.0
  C  C113  1  0.31333000  0.93773000  0.37520000  1.0
  C  C114  1  0.74290000  0.50647000  0.87589000  1.0
  C  C115  1  0.68711000  0.56251000  0.87559000  1.0
  C  C116  1  0.99233000  0.12594000  0.24363000  1.0
  C  C117  1  0.93686000  0.12553000  0.18732000  1.0
  C  C118  1  0.50722000  0.62561000  0.75640000  1.0
  C  C119  1  0.56306000  0.62535000  0.81240000  1.0
  C  C120  1  0.00768000  0.37444000  0.74391000  1.0
  C  C121  1  0.06334000  0.37481000  0.68801000  1.0
  C  C122  1  0.49278000  0.87419000  0.25650000  1.0
  C  C123  1  0.43736000  0.87450000  0.31270000  1.0
  C  C124  1  0.87498000  0.24196000  0.00673000  1.0
  C  C125  1  0.87494000  0.18640000  0.06245000  1.0
  C  C126  1  0.37490000  0.75756000  0.49266000  1.0
  C  C127  1  0.37530000  0.81336000  0.43716000  1.0
  C  C128  1  0.62488000  0.74290000  0.99233000  1.0
  C  C129  1  0.62509000  0.68727000  0.93663000  1.0
  C  C130  1  0.12463000  0.25752000  0.50775000  1.0
  C  C131  1  0.12474000  0.31300000  0.56356000  1.0
  N  N132  1  0.31261000  0.57815000  0.60520000  1.0
  N  N133  1  0.32711000  0.56401000  0.64229000  1.0
  N  N134  1  0.42191000  0.60731000  0.68644000  1.0
  N  N135  1  0.43717000  0.64362000  0.67121000  1.0
  N  N136  1  0.39320000  0.68681000  0.57663000  1.0
  N  N137  1  0.35577000  0.67287000  0.56221000  1.0
  N  N138  1  0.68746000  0.92119000  0.10650000  1.0
  N  N139  1  0.67144000  0.93713000  0.14217000  1.0
  N  N140  1  0.57652000  0.89325000  0.18527000  1.0
  N  N141  1  0.56276000  0.85571000  0.17162000  1.0
  N  N142  1  0.60605000  0.81268000  0.07697000  1.0
  N  N143  1  0.64356000  0.82679000  0.06307000  1.0
  N  N144  1  0.81329000  0.42164000  0.89415000  1.0
  N  N145  1  0.82768000  0.43606000  0.85722000  1.0
  N  N146  1  0.92309000  0.39299000  0.81432000  1.0
  N  N147  1  0.93705000  0.35550000  0.82802000  1.0
  N  N148  1  0.89368000  0.31217000  0.92250000  1.0
  N  N149  1  0.85629000  0.32643000  0.93667000  1.0
  N  N150  1  0.18752000  0.07898000  0.39392000  1.0
  N  N151  1  0.17175000  0.06345000  0.35792000  1.0
  N  N152  1  0.07652000  0.10718000  0.31474000  1.0
  N  N153  1  0.06232000  0.14449000  0.32865000  1.0
  N  N154  1  0.10590000  0.18771000  0.42311000  1.0
  N  N155  1  0.14341000  0.17349000  0.43719000  1.0
  N  N156  1  0.76688000  0.02407000  0.16076000  1.0
  N  N157  1  0.77504000  0.01609000  0.08830000  1.0
  N  N158  1  0.80341000  0.04482000  0.08844000  1.0
  N  N159  1  0.79551000  0.05256000  0.16078000  1.0
  N  N160  1  0.23170000  0.47758000  0.66067000  1.0
  N  N161  1  0.22690000  0.48111000  0.58752000  1.0
  N  N162  1  0.19849000  0.45244000  0.58803000  1.0
  N  N163  1  0.20318000  0.44903000  0.66102000  1.0
  N  N164  1  0.27508000  0.98351000  0.41185000  1.0
  N  N165  1  0.26748000  0.97672000  0.33918000  1.0
  N  N166  1  0.29614000  0.94817000  0.33902000  1.0
  N  N167  1  0.30351000  0.95473000  0.41156000  1.0
  N  N168  1  0.72731000  0.51843000  0.91240000  1.0
  N  N169  1  0.73108000  0.52191000  0.83921000  1.0
  N  N170  1  0.70252000  0.55051000  0.83915000  1.0
  N  N171  1  0.69883000  0.54715000  0.91216000  1.0
  N  N172  1  0.98058000  0.08918000  0.22835000  1.0
  N  N173  1  0.97695000  0.16250000  0.23125000  1.0
  N  N174  1  0.94863000  0.16220000  0.20240000  1.0
  N  N175  1  0.95218000  0.08906000  0.19961000  1.0
  N  N176  1  0.52410000  0.66200000  0.76712000  1.0
  N  N177  1  0.51780000  0.58908000  0.77309000  1.0
  N  N178  1  0.54643000  0.58902000  0.80163000  1.0
  N  N179  1  0.55255000  0.66179000  0.79586000  1.0
  N  N180  1  0.01976000  0.41121000  0.72897000  1.0
  N  N181  1  0.02304000  0.33787000  0.73159000  1.0
  N  N182  1  0.05147000  0.33815000  0.70298000  1.0
  N  N183  1  0.04825000  0.41131000  0.70042000  1.0
  N  N184  1  0.47793000  0.83759000  0.26916000  1.0
  N  N185  1  0.48061000  0.91094000  0.27153000  1.0
  N  N186  1  0.45227000  0.91101000  0.30023000  1.0
  N  N187  1  0.44964000  0.83783000  0.29793000  1.0
  N  N188  1  0.83805000  0.23005000  0.02191000  1.0
  N  N189  1  0.91189000  0.22654000  0.01874000  1.0
  N  N190  1  0.91178000  0.19819000  0.04730000  1.0
  N  N191  1  0.83812000  0.20158000  0.05035000  1.0
  N  N192  1  0.33809000  0.76973000  0.47715000  1.0
  N  N193  1  0.41189000  0.77296000  0.48117000  1.0
  N  N194  1  0.41201000  0.80142000  0.45273000  1.0
  N  N195  1  0.33838000  0.79831000  0.44883000  1.0
  N  N196  1  0.58800000  0.72769000  0.98009000  1.0
  N  N197  1  0.66182000  0.73111000  0.97698000  1.0
  N  N198  1  0.66186000  0.70260000  0.94857000  1.0
  N  N199  1  0.58821000  0.69930000  0.95156000  1.0
  N  N200  1  0.16155000  0.26905000  0.52342000  1.0
  N  N201  1  0.08775000  0.27305000  0.51956000  1.0
  N  N202  1  0.08789000  0.30136000  0.54817000  1.0
  N  N203  1  0.16152000  0.29749000  0.55189000  1.0
