# generated using pymatgen
data_Zn2H23C26I(NO4)2
_symmetry_space_group_name_H-M   'P 1'
_cell_length_a   9.74645000
_cell_length_b   10.85350000
_cell_length_c   11.10500000
_cell_angle_alpha   89.50260000
_cell_angle_beta   90.89890000
_cell_angle_gamma   89.75930000
_symmetry_Int_Tables_number   1
_chemical_formula_structural   Zn2H23C26I(NO4)2
_chemical_formula_sum   'Zn2 H23 C26 I1 N2 O8'
_cell_volume   1174.52139125
_cell_formula_units_Z   1
loop_
 _symmetry_equiv_pos_site_id
 _symmetry_equiv_pos_as_xyz
  1  'x, y, z'
loop_
 _atom_site_type_symbol
 _atom_site_label
 _atom_site_symmetry_multiplicity
 _atom_site_fract_x
 _atom_site_fract_y
 _atom_site_fract_z
 _atom_site_occupancy
  Zn  Zn0  1  0.35419000  0.50841000  0.49565000  1.0
  Zn  Zn1  1  0.63579000  0.50895000  0.49834000  1.0
  H  H2  1  0.31669000  0.90503000  0.39905000  1.0
  H  H3  1  0.35761000  0.23610000  0.12791000  1.0
  H  H4  1  0.87039000  0.48062000  0.68250000  1.0
  H  H5  1  0.46466000  0.88429000  0.31221000  1.0
  H  H6  1  0.13079000  0.48817000  0.68113000  1.0
  H  H7  1  0.12622000  0.48798000  0.21354000  1.0
  H  H8  1  0.84995000  0.62867000  0.23511000  1.0
  H  H9  1  0.86366000  0.46638000  0.21532000  1.0
  H  H10  1  0.50768000  0.09656000  0.30183000  1.0
  H  H11  1  0.33854000  0.11631000  0.35492000  1.0
  H  H12  1  0.33068000  0.89498000  0.62729000  1.0
  H  H13  1  0.68490000  0.11372000  0.59964000  1.0
  H  H14  1  0.30190000  0.10552000  0.58027000  1.0
  H  H15  1  0.71041000  0.89977000  0.57850000  1.0
  H  H16  1  0.69985000  0.91033000  0.42064000  1.0
  H  H17  1  0.71122000  0.12493000  0.44364000  1.0
  H  H18  1  0.49211000  0.92089000  0.69770000  1.0
  H  H19  1  0.43906000  0.13138000  0.68210000  1.0
  H  H20  1  0.64401000  0.65128000  0.10214000  1.0
  H  H21  1  0.64859000  0.63532000  0.87983000  1.0
  H  H22  1  0.22049000  0.32201000  0.88946000  1.0
  H  H23  1  0.36296000  0.21897000  0.90282000  1.0
  H  H24  1  0.21540000  0.33877000  0.11501000  1.0
  C  C25  1  0.49241000  0.51835000  0.26109000  1.0
  C  C26  1  0.41756000  0.41400000  0.93900000  1.0
  C  C27  1  0.31929000  0.30566000  0.93598000  1.0
  C  C28  1  0.50274000  0.74771000  0.51104000  1.0
  C  C29  1  0.31627000  0.31623000  0.07795000  1.0
  C  C30  1  0.92025000  0.52771000  0.39867000  1.0
  C  C31  1  0.92635000  0.49523000  0.59931000  1.0
  C  C32  1  0.06968000  0.50017000  0.59869000  1.0
  C  C33  1  0.06307000  0.53515000  0.39869000  1.0
  C  C34  1  0.06802000  0.55558000  0.26455000  1.0
  C  C35  1  0.90569000  0.54557000  0.26414000  1.0
  C  C36  1  0.49755000  0.12899000  0.49389000  1.0
  C  C37  1  0.49920000  0.48812000  0.73404000  1.0
  C  C38  1  0.48990000  0.26938000  0.48655000  1.0
  C  C39  1  0.42459000  0.93231000  0.39123000  1.0
  C  C40  1  0.43858000  0.07353000  0.37618000  1.0
  C  C41  1  0.42975000  0.94141000  0.61638000  1.0
  C  C42  1  0.64993000  0.94015000  0.50373000  1.0
  C  C43  1  0.50335000  0.88829000  0.50579000  1.0
  C  C44  1  0.40981000  0.08210000  0.59943000  1.0
  C  C45  1  0.64570000  0.08226000  0.51168000  1.0
  C  C46  1  0.41503000  0.42313000  0.06430000  1.0
  C  C47  1  0.49469000  0.50800000  0.12735000  1.0
  C  C48  1  0.57998000  0.58324000  0.05681000  1.0
  C  C49  1  0.58251000  0.57436000  0.93152000  1.0
  C  C50  1  0.49955000  0.48964000  0.86857000  1.0
  I  I51  1  0.14396000  0.73251000  0.20665000  1.0
  N  N52  1  0.84839000  0.50749000  0.49735000  1.0
  N  N53  1  0.14157000  0.51951000  0.49649000  1.0
  O  O54  1  0.37781000  0.49803000  0.31122000  1.0
  O  O55  1  0.60461000  0.54545000  0.31486000  1.0
  O  O56  1  0.38716000  0.69443000  0.49763000  1.0
  O  O57  1  0.61719000  0.69261000  0.52744000  1.0
  O  O58  1  0.38224000  0.49692000  0.68176000  1.0
  O  O59  1  0.61505000  0.48091000  0.68307000  1.0
  O  O60  1  0.37231000  0.31890000  0.49782000  1.0
  O  O61  1  0.60150000  0.32776000  0.46956000  1.0
