# generated using pymatgen
data_NaH13C14SIN5
_symmetry_space_group_name_H-M   'P 1'
_cell_length_a   10.04150000
_cell_length_b   10.25920000
_cell_length_c   10.29567036
_cell_angle_alpha   117.80691670
_cell_angle_beta   107.99778655
_cell_angle_gamma   102.15500000
_symmetry_Int_Tables_number   1
_chemical_formula_structural   NaH13C14SIN5
_chemical_formula_sum   'Na2 H26 C28 S2 I2 N10'
_cell_volume   809.06682425
_cell_formula_units_Z   2
loop_
 _symmetry_equiv_pos_site_id
 _symmetry_equiv_pos_as_xyz
  1  'x, y, z'
loop_
 _atom_site_type_symbol
 _atom_site_label
 _atom_site_symmetry_multiplicity
 _atom_site_fract_x
 _atom_site_fract_y
 _atom_site_fract_z
 _atom_site_occupancy
  Na  Na0  1  0.93698000  0.27299000  0.46156000  1.0
  Na  Na1  1  0.06301000  0.72701000  0.53844000  1.0
  H  H2  1  0.91277000  0.94514000  0.75189000  1.0
  H  H3  1  0.08724000  0.05486000  0.24811000  1.0
  H  H4  1  0.07473000  0.18550000  0.05587000  1.0
  H  H5  1  0.92528000  0.81450000  0.94413000  1.0
  H  H6  1  0.15922000  0.46294000  0.12178000  1.0
  H  H7  1  0.84078000  0.53706000  0.87822000  1.0
  H  H8  1  0.09257000  0.49750000  0.88540000  1.0
  H  H9  1  0.90743000  0.50250000  0.11460000  1.0
  H  H10  1  0.49214000  0.69690000  0.87869000  1.0
  H  H11  1  0.50786000  0.30311000  0.12131000  1.0
  H  H12  1  0.47701000  0.78359000  0.68791000  1.0
  H  H13  1  0.52300000  0.21643000  0.31210000  1.0
  H  H14  1  0.66099000  0.06893000  0.80800000  1.0
  H  H15  1  0.33901000  0.93107000  0.19200000  1.0
  H  H16  1  0.84319000  0.25224000  0.11518000  1.0
  H  H17  1  0.15681000  0.74775000  0.88482000  1.0
  H  H18  1  0.40712000  0.51819000  0.16673000  1.0
  H  H19  1  0.59287000  0.48182000  0.83327000  1.0
  H  H20  1  0.51930000  0.57991000  0.37417000  1.0
  H  H21  1  0.48070000  0.42009000  0.62583000  1.0
  H  H22  1  0.35124000  0.73174000  0.37042000  1.0
  H  H23  1  0.64876000  0.26826000  0.62958000  1.0
  H  H24  1  0.54889000  0.86907000  0.48458000  1.0
  H  H25  1  0.45111000  0.13093000  0.51542000  1.0
  H  H26  1  0.43713000  0.80855000  0.27771000  1.0
  H  H27  1  0.56287000  0.19145000  0.72229000  1.0
  C  C28  1  0.82494000  0.96192000  0.48601000  1.0
  C  C29  1  0.17506000  0.03808000  0.51399000  1.0
  C  C30  1  0.69458000  0.87705000  0.21168000  1.0
  C  C31  1  0.30542000  0.12295000  0.78832000  1.0
  C  C32  1  0.92218000  0.10053000  0.66558000  1.0
  C  C33  1  0.07782000  0.89947000  0.33442000  1.0
  C  C34  1  0.95628000  0.07015000  0.78864000  1.0
  C  C35  1  0.04372000  0.92985000  0.21136000  1.0
  C  C36  1  0.04473000  0.20178000  0.95481000  1.0
  C  C37  1  0.95527000  0.79822000  0.04519000  1.0
  C  C38  1  0.09384000  0.35826000  0.99228000  1.0
  C  C39  1  0.90616000  0.64173000  0.00772000  1.0
  C  C40  1  0.05537000  0.37696000  0.86148000  1.0
  C  C41  1  0.94463000  0.62304000  0.13852000  1.0
  C  C42  1  0.67678000  0.92735000  0.09436000  1.0
  C  C43  1  0.32323000  0.07265000  0.90564000  1.0
  C  C44  1  0.56943000  0.81806000  0.92546000  1.0
  C  C45  1  0.43057000  0.18194000  0.07454000  1.0
  C  C46  1  0.56167000  0.86784000  0.81956000  1.0
  C  C47  1  0.43832000  0.13216000  0.18044000  1.0
  C  C48  1  0.66163000  0.02521000  0.88629000  1.0
  C  C49  1  0.33837000  0.97479000  0.11371000  1.0
  C  C50  1  0.76331000  0.12743000  0.05683000  1.0
  C  C51  1  0.23669000  0.87257000  0.94317000  1.0
  C  C52  1  0.49621000  0.62257000  0.29263000  1.0
  C  C53  1  0.50379000  0.37743000  0.70737000  1.0
  C  C54  1  0.45662000  0.76706000  0.35985000  1.0
  C  C55  1  0.54338000  0.23294000  0.64015000  1.0
  S  S56  1  0.66872000  0.65733000  0.26746000  1.0
  S  S57  1  0.33127000  0.34267000  0.73254000  1.0
  I  I58  1  0.79808000  0.52441000  0.56304000  1.0
  I  I59  1  0.20191000  0.47559000  0.43696000  1.0
  N  N60  1  0.77729000  0.99988000  0.37612000  1.0
  N  N61  1  0.22271000  0.00012000  0.62388000  1.0
  N  N62  1  0.97209000  0.25170000  0.70110000  1.0
  N  N63  1  0.02791000  0.74830000  0.29890000  1.0
  N  N64  1  0.77131000  0.08065000  0.15949000  1.0
  N  N65  1  0.22869000  0.91935000  0.84051000  1.0
  N  N66  1  0.63230000  0.71792000  0.13988000  1.0
  N  N67  1  0.36770000  0.28208000  0.86012000  1.0
  N  N68  1  0.80344000  0.81605000  0.45570000  1.0
  N  N69  1  0.19655000  0.18395000  0.54429000  1.0
