# generated using pymatgen
data_ZnH14C20(NO4)2
_symmetry_space_group_name_H-M   'P 1'
_cell_length_a   9.89405000
_cell_length_b   10.88990000
_cell_length_c   23.62900000
_cell_angle_alpha   88.55100000
_cell_angle_beta   88.74660000
_cell_angle_gamma   88.15670000
_symmetry_Int_Tables_number   1
_chemical_formula_structural   ZnH14C20(NO4)2
_chemical_formula_sum   'Zn2 H28 C40 N4 O16'
_cell_volume   2543.21542024
_cell_formula_units_Z   2
loop_
 _symmetry_equiv_pos_site_id
 _symmetry_equiv_pos_as_xyz
  1  'x, y, z'
loop_
 _atom_site_type_symbol
 _atom_site_label
 _atom_site_symmetry_multiplicity
 _atom_site_fract_x
 _atom_site_fract_y
 _atom_site_fract_z
 _atom_site_occupancy
  Zn  Zn0  1  0.35037000  0.48273000  0.50756000  1.0
  Zn  Zn1  1  0.63067000  0.48535000  0.48734000  1.0
  H  H2  1  0.28453000  0.73403000  0.05126000  1.0
  H  H3  1  0.24521000  0.40663000  0.32078000  1.0
  H  H4  1  0.66834000  0.48155000  0.31658000  1.0
  H  H5  1  0.66737000  0.49041000  0.21035000  1.0
  H  H6  1  0.44580000  0.06410000  0.53898000  1.0
  H  H7  1  0.68212000  0.86878000  0.45960000  1.0
  H  H8  1  0.37787000  0.89749000  0.48799000  1.0
  H  H9  1  0.14312000  0.41312000  0.43369000  1.0
  H  H10  1  0.08286000  0.51330000  0.54501000  1.0
  H  H11  1  0.31791000  0.75785000  0.94527000  1.0
  H  H12  1  0.43030000  0.35695000  0.78409000  1.0
  H  H13  1  0.42566000  0.36749000  0.67838000  1.0
  H  H14  1  0.66195000  0.68457000  0.78173000  1.0
  H  H15  1  0.24454000  0.40921000  0.21470000  1.0
  H  H16  1  0.60840000  0.02296000  0.35727000  1.0
  H  H17  1  0.53232000  0.16909000  0.37151000  1.0
  H  H18  1  0.69675000  0.15953000  0.34032000  1.0
  H  H19  1  0.71088000  0.20627000  0.44324000  1.0
  H  H20  1  0.78597000  0.05953000  0.42993000  1.0
  H  H21  1  0.96585000  0.38210000  0.38810000  1.0
  H  H22  1  0.79018000  0.53515000  0.57017000  1.0
  H  H23  1  0.72912000  0.25245000  0.89876000  1.0
  H  H24  1  0.66629000  0.20689000  0.09554000  1.0
  H  H25  1  0.50985000  0.78285000  0.61430000  1.0
  H  H26  1  0.50703000  0.85794000  0.68025000  1.0
  H  H27  1  0.62450000  0.90138000  0.62563000  1.0
  H  H28  1  0.74272000  0.77251000  0.69940000  1.0
  H  H29  1  0.74414000  0.69652000  0.63432000  1.0
  C  C30  1  0.48151000  0.71800000  0.48029000  1.0
  C  C31  1  0.34652000  0.66807000  0.02738000  1.0
  C  C32  1  0.36513000  0.68136000  0.96891000  1.0
  C  C33  1  0.44546000  0.59561000  0.93911000  1.0
  C  C34  1  0.50826000  0.49527000  0.96804000  1.0
  C  C35  1  0.59037000  0.40752000  0.93851000  1.0
  C  C36  1  0.65323000  0.30733000  0.96700000  1.0
  C  C37  1  0.63340000  0.29314000  0.02764000  1.0
  C  C38  1  0.46160000  0.60970000  0.87699000  1.0
  C  C39  1  0.60913000  0.41934000  0.87741000  1.0
  C  C40  1  0.48062000  0.42994000  0.76027000  1.0
  C  C41  1  0.53050000  0.52595000  0.60782000  1.0
  C  C42  1  0.47880000  0.43569000  0.70157000  1.0
  C  C43  1  0.54402000  0.52930000  0.67082000  1.0
  C  C44  1  0.61299000  0.62028000  0.69924000  1.0
  C  C45  1  0.61240000  0.61385000  0.75860000  1.0
  C  C46  1  0.54718000  0.52039000  0.78843000  1.0
  C  C47  1  0.33693000  0.42518000  0.23728000  1.0
  C  C48  1  0.33771000  0.42369000  0.29632000  1.0
  C  C49  1  0.45721000  0.44388000  0.32489000  1.0
  C  C50  1  0.57634000  0.46624000  0.29365000  1.0
  C  C51  1  0.57564000  0.47074000  0.23488000  1.0
  C  C52  1  0.50403000  0.25041000  0.51468000  1.0
  C  C53  1  0.45603000  0.44961000  0.20701000  1.0
  C  C54  1  0.59551000  0.05301000  0.47370000  1.0
  C  C55  1  0.51554000  0.11476000  0.51136000  1.0
  C  C56  1  0.58847000  0.91956000  0.47086000  1.0
  C  C57  1  0.47673000  0.85373000  0.47965000  1.0
  C  C58  1  0.08062000  0.44582000  0.46970000  1.0
  C  C59  1  0.93439000  0.44682000  0.46215000  1.0
  C  C60  1  0.46208000  0.44570000  0.38835000  1.0
  C  C61  1  0.53618000  0.36629000  0.11767000  1.0
  C  C62  1  0.38894000  0.55709000  0.11888000  1.0
  C  C63  1  0.40794000  0.56877000  0.05684000  1.0
  C  C64  1  0.48921000  0.48164000  0.02753000  1.0
  C  C65  1  0.55245000  0.38024000  0.05660000  1.0
  C  C66  1  0.68932000  0.11289000  0.43083000  1.0
  C  C67  1  0.62848000  0.11582000  0.37148000  1.0
  C  C68  1  0.67788000  0.72827000  0.66922000  1.0
  C  C69  1  0.57362000  0.82314000  0.64601000  1.0
  N  N70  1  0.45855000  0.45555000  0.14590000  1.0
  N  N71  1  0.54283000  0.51724000  0.84958000  1.0
  N  N72  1  0.14431000  0.48211000  0.51258000  1.0
  N  N73  1  0.84000000  0.48211000  0.49768000  1.0
  O  O74  1  0.37179000  0.66583000  0.49499000  1.0
  O  O75  1  0.31978000  0.62938000  0.14714000  1.0
  O  O76  1  0.40813000  0.69377000  0.84914000  1.0
  O  O77  1  0.68148000  0.34354000  0.85014000  1.0
  O  O78  1  0.59346000  0.66267000  0.46739000  1.0
  O  O79  1  0.41518000  0.50034000  0.59017000  1.0
  O  O80  1  0.63355000  0.54588000  0.57524000  1.0
  O  O81  1  0.38401000  0.29688000  0.51435000  1.0
  O  O82  1  0.61191000  0.31114000  0.51715000  1.0
  O  O83  1  0.35191000  0.45976000  0.41659000  1.0
  O  O84  1  0.57997000  0.43442000  0.40896000  1.0
  O  O85  1  0.59065000  0.27777000  0.14470000  1.0
  O  O86  1  0.88921000  0.40864000  0.41182000  1.0
  O  O87  1  0.88114000  0.52005000  0.54924000  1.0
  O  O88  1  0.73042000  0.22396000  0.94061000  1.0
  O  O89  1  0.69386000  0.19765000  0.05365000  1.0
