# generated using pymatgen
data_CoH12(C2O)6
_symmetry_space_group_name_H-M   'P 1'
_cell_length_a   6.17034000
_cell_length_b   7.67752000
_cell_length_c   12.43140000
_cell_angle_alpha   91.22330000
_cell_angle_beta   89.99960000
_cell_angle_gamma   89.99790000
_symmetry_Int_Tables_number   1
_chemical_formula_structural   CoH12(C2O)6
_chemical_formula_sum   'Co2 H24 C24 O12'
_cell_volume   588.77735533
_cell_formula_units_Z   2
loop_
 _symmetry_equiv_pos_site_id
 _symmetry_equiv_pos_as_xyz
  1  'x, y, z'
loop_
 _atom_site_type_symbol
 _atom_site_label
 _atom_site_symmetry_multiplicity
 _atom_site_fract_x
 _atom_site_fract_y
 _atom_site_fract_z
 _atom_site_occupancy
  Co  Co0  1  0.99999000  0.00000000  0.00000000  1.0
  Co  Co1  1  0.49999000  0.49999000  0.99999000  1.0
  H  H2  1  0.87917000  0.25886000  0.70050000  1.0
  H  H3  1  0.37919000  0.24116000  0.29950000  1.0
  H  H4  1  0.12083000  0.74116000  0.29949000  1.0
  H  H5  1  0.62084000  0.75885000  0.70049000  1.0
  H  H6  1  0.41045000  0.36294000  0.76129000  1.0
  H  H7  1  0.91050000  0.13705000  0.23872000  1.0
  H  H8  1  0.58953000  0.63705000  0.23870000  1.0
  H  H9  1  0.08954000  0.86291000  0.76130000  1.0
  H  H10  1  0.21246000  0.52973000  0.63907000  1.0
  H  H11  1  0.71252000  0.97031000  0.36093000  1.0
  H  H12  1  0.78750000  0.47031000  0.36092000  1.0
  H  H13  1  0.28754000  0.02970000  0.63908000  1.0
  H  H14  1  0.83978000  0.33757000  0.53758000  1.0
  H  H15  1  0.33980000  0.16245000  0.46243000  1.0
  H  H16  1  0.16020000  0.66247000  0.46242000  1.0
  H  H17  1  0.66024000  0.83755000  0.53759000  1.0
  H  H18  1  0.63519000  0.92434000  0.08181000  1.0
  H  H19  1  0.13520000  0.57565000  0.91818000  1.0
  H  H20  1  0.36479000  0.07566000  0.91819000  1.0
  H  H21  1  0.86476000  0.42432000  0.08182000  1.0
  H  H22  1  0.64639000  0.11364000  0.02691000  1.0
  H  H23  1  0.14640000  0.38635000  0.97309000  1.0
  H  H24  1  0.35359000  0.88635000  0.97308000  1.0
  H  H25  1  0.85359000  0.61363000  0.02691000  1.0
  C  C26  1  0.74187000  0.20569000  0.85609000  1.0
  C  C27  1  0.24186000  0.29431000  0.14391000  1.0
  C  C28  1  0.25812000  0.79431000  0.14390000  1.0
  C  C29  1  0.75813000  0.70568000  0.85609000  1.0
  C  C30  1  0.73092000  0.27345000  0.74748000  1.0
  C  C31  1  0.23094000  0.22658000  0.25253000  1.0
  C  C32  1  0.26907000  0.72656000  0.25251000  1.0
  C  C33  1  0.76907000  0.77343000  0.74747000  1.0
  C  C34  1  0.55092000  0.35001000  0.70806000  1.0
  C  C35  1  0.05095000  0.14999000  0.29195000  1.0
  C  C36  1  0.44906000  0.64999000  0.29193000  1.0
  C  C37  1  0.94908000  0.85000000  0.70807000  1.0
  C  C38  1  0.52934000  0.42376000  0.60215000  1.0
  C  C39  1  0.02938000  0.07625000  0.39786000  1.0
  C  C40  1  0.47062000  0.57627000  0.39785000  1.0
  C  C41  1  0.97067000  0.92375000  0.60216000  1.0
  C  C42  1  0.33812000  0.51620000  0.57755000  1.0
  C  C43  1  0.83817000  0.98380000  0.42246000  1.0
  C  C44  1  0.66186000  0.48381000  0.42245000  1.0
  C  C45  1  0.16189000  0.01619000  0.57756000  1.0
  C  C46  1  0.69094000  0.40924000  0.52201000  1.0
  C  C47  1  0.19098000  0.09077000  0.47800000  1.0
  C  C48  1  0.30903000  0.59078000  0.47798000  1.0
  C  C49  1  0.80907000  0.90924000  0.52202000  1.0
  O  O50  1  0.91955000  0.12729000  0.87884000  1.0
  O  O51  1  0.41956000  0.37272000  0.12116000  1.0
  O  O52  1  0.08044000  0.87272000  0.12115000  1.0
  O  O53  1  0.58043000  0.62727000  0.87883000  1.0
  O  O54  1  0.58280000  0.22421000  0.92348000  1.0
  O  O55  1  0.08284000  0.27579000  0.07652000  1.0
  O  O56  1  0.41717000  0.77578000  0.07650000  1.0
  O  O57  1  0.91715000  0.72420000  0.92348000  1.0
  O  O58  1  0.72568000  0.03095000  0.07583000  1.0
  O  O59  1  0.22569000  0.46904000  0.92416000  1.0
  O  O60  1  0.27430000  0.96905000  0.92417000  1.0
  O  O61  1  0.77429000  0.53094000  0.07584000  1.0
