# generated using pymatgen
data_ZnH16C19N3O5
_symmetry_space_group_name_H-M   'P 1'
_cell_length_a   9.76400000
_cell_length_b   10.16040000
_cell_length_c   10.17660000
_cell_angle_alpha   83.91030000
_cell_angle_beta   62.12430000
_cell_angle_gamma   76.92830000
_symmetry_Int_Tables_number   1
_chemical_formula_structural   ZnH16C19N3O5
_chemical_formula_sum   'Zn2 H32 C38 N6 O10'
_cell_volume   869.30851260
_cell_formula_units_Z   2
loop_
 _symmetry_equiv_pos_site_id
 _symmetry_equiv_pos_as_xyz
  1  'x, y, z'
loop_
 _atom_site_type_symbol
 _atom_site_label
 _atom_site_symmetry_multiplicity
 _atom_site_fract_x
 _atom_site_fract_y
 _atom_site_fract_z
 _atom_site_occupancy
  Zn  Zn0  1  0.62420000  0.74064000  0.02778000  1.0
  Zn  Zn1  1  0.37580000  0.25936000  0.97222000  1.0
  H  H2  1  0.10152000  0.49244000  0.24048000  1.0
  H  H3  1  0.89848000  0.50757000  0.75952000  1.0
  H  H4  1  0.94453000  0.63517000  0.31665000  1.0
  H  H5  1  0.05547000  0.36484000  0.68335000  1.0
  H  H6  1  0.29705000  0.95172000  0.07154000  1.0
  H  H7  1  0.70295000  0.04828000  0.92846000  1.0
  H  H8  1  0.60456000  0.33691000  0.46327000  1.0
  H  H9  1  0.39544000  0.66309000  0.53673000  1.0
  H  H10  1  0.54396000  0.52209000  0.30194000  1.0
  H  H11  1  0.45603000  0.47792000  0.69806000  1.0
  H  H12  1  0.00566000  0.36549000  0.94301000  1.0
  H  H13  1  0.99434000  0.63451000  0.05700000  1.0
  H  H14  1  0.82160000  0.21335000  0.50342000  1.0
  H  H15  1  0.17840000  0.78665000  0.49658000  1.0
  H  H16  1  0.99111000  0.13023000  0.34925000  1.0
  H  H17  1  0.00889000  0.86977000  0.65075000  1.0
  H  H18  1  0.75604000  0.04929000  0.22913000  1.0
  H  H19  1  0.24396000  0.95071000  0.77087000  1.0
  H  H20  1  0.61144000  0.71641000  0.52435000  1.0
  H  H21  1  0.38856000  0.28358000  0.47565000  1.0
  H  H22  1  0.04999000  0.19305000  0.11763000  1.0
  H  H23  1  0.95001000  0.80695000  0.88237000  1.0
  H  H24  1  0.01221000  0.86163000  0.22784000  1.0
  H  H25  1  0.98779000  0.13837000  0.77216000  1.0
  H  H26  1  0.78995000  0.00959000  0.64074000  1.0
  H  H27  1  0.21005000  0.99041000  0.35926000  1.0
  H  H28  1  0.39026000  0.53466000  0.16933000  1.0
  H  H29  1  0.60974000  0.46534000  0.83067000  1.0
  H  H30  1  0.00311000  0.64481000  0.52689000  1.0
  H  H31  1  0.99690000  0.35519000  0.47311000  1.0
  H  H32  1  0.17199000  0.51196000  0.44692000  1.0
  H  H33  1  0.82801000  0.48804000  0.55308000  1.0
  C  C34  1  0.70277000  0.85273000  0.59503000  1.0
  C  C35  1  0.29724000  0.14726000  0.40496000  1.0
  C  C36  1  0.06092000  0.58459000  0.30675000  1.0
  C  C37  1  0.93908000  0.41541000  0.69325000  1.0
  C  C38  1  0.77014000  0.46273000  0.10596000  1.0
  C  C39  1  0.22986000  0.53727000  0.89404000  1.0
  C  C40  1  0.27489000  0.85248000  0.11551000  1.0
  C  C41  1  0.72511000  0.14752000  0.88449000  1.0
  C  C42  1  0.68793000  0.35185000  0.34753000  1.0
  C  C43  1  0.31207000  0.64815000  0.65247000  1.0
  C  C44  1  0.65599000  0.45045000  0.25741000  1.0
  C  C45  1  0.34401000  0.54955000  0.74259000  1.0
  C  C46  1  0.91332000  0.36290000  0.05656000  1.0
  C  C47  1  0.08668000  0.63710000  0.94344000  1.0
  C  C48  1  0.86164000  0.16234000  0.39805000  1.0
  C  C49  1  0.13835000  0.83766000  0.60195000  1.0
  C  C50  1  0.67869000  0.77401000  0.73557000  1.0
  C  C51  1  0.32131000  0.22599000  0.26443000  1.0
  C  C52  1  0.74175000  0.99550000  0.33197000  1.0
  C  C53  1  0.25824000  0.00450000  0.66803000  1.0
  C  C54  1  0.67761000  0.87844000  0.36667000  1.0
  C  C55  1  0.32239000  0.12156000  0.63333000  1.0
  C  C56  1  0.65989000  0.80768000  0.49718000  1.0
  C  C57  1  0.34012000  0.19232000  0.50282000  1.0
  C  C58  1  0.62809000  0.82339000  0.26779000  1.0
  C  C59  1  0.37191000  0.17661000  0.73221000  1.0
  C  C60  1  0.93970000  0.26697000  0.15158000  1.0
  C  C61  1  0.06030000  0.73303000  0.84842000  1.0
  C  C62  1  0.78470000  0.04157000  0.42953000  1.0
  C  C63  1  0.21530000  0.95843000  0.57047000  1.0
  C  C64  1  0.13368000  0.80997000  0.19292000  1.0
  C  C65  1  0.86632000  0.19003000  0.80708000  1.0
  C  C66  1  0.76285000  0.97098000  0.56143000  1.0
  C  C67  1  0.23715000  0.02902000  0.43857000  1.0
  C  C68  1  0.33033000  0.63757000  0.16399000  1.0
  C  C69  1  0.66967000  0.36243000  0.83601000  1.0
  C  C70  1  0.05163000  0.55183000  0.46011000  1.0
  C  C71  1  0.94838000  0.44817000  0.53989000  1.0
  N  N72  1  0.17101000  0.67433000  0.22267000  1.0
  N  N73  1  0.82899000  0.32567000  0.77733000  1.0
  N  N74  1  0.82924000  0.26219000  0.29610000  1.0
  N  N75  1  0.17076000  0.73781000  0.70390000  1.0
  N  N76  1  0.39601000  0.74385000  0.09942000  1.0
  N  N77  1  0.60399000  0.25615000  0.90057000  1.0
  O  O78  1  0.71416000  0.82442000  0.82555000  1.0
  O  O79  1  0.28585000  0.17557000  0.17445000  1.0
  O  O80  1  0.62710000  0.66758000  0.75844000  1.0
  O  O81  1  0.37289000  0.33243000  0.24157000  1.0
  O  O82  1  0.75106000  0.55526000  0.01563000  1.0
  O  O83  1  0.24894000  0.44474000  0.98437000  1.0
  O  O84  1  0.69295000  0.85536000  0.12791000  1.0
  O  O85  1  0.30705000  0.14464000  0.87210000  1.0
  O  O86  1  0.53066000  0.74641000  0.32278000  1.0
  O  O87  1  0.46934000  0.25360000  0.67723000  1.0
