# generated using pymatgen
data_ErH11C9NO9
_symmetry_space_group_name_H-M   'P 1'
_cell_length_a   6.28093000
_cell_length_b   13.33350000
_cell_length_c   15.87170000
_cell_angle_alpha   89.99930000
_cell_angle_beta   82.09970000
_cell_angle_gamma   89.99940000
_symmetry_Int_Tables_number   1
_chemical_formula_structural   ErH11C9NO9
_chemical_formula_sum   'Er4 H44 C36 N4 O36'
_cell_volume   1316.58795660
_cell_formula_units_Z   4
loop_
 _symmetry_equiv_pos_site_id
 _symmetry_equiv_pos_as_xyz
  1  'x, y, z'
loop_
 _atom_site_type_symbol
 _atom_site_label
 _atom_site_symmetry_multiplicity
 _atom_site_fract_x
 _atom_site_fract_y
 _atom_site_fract_z
 _atom_site_occupancy
  Er  Er0  1  0.05960000  0.56407000  0.75126000  1.0
  Er  Er1  1  0.44039000  0.06407000  0.24873000  1.0
  Er  Er2  1  0.94038000  0.43593000  0.24874000  1.0
  Er  Er3  1  0.55961000  0.93593000  0.75126000  1.0
  H  H4  1  0.98443000  0.20022000  0.80212000  1.0
  H  H5  1  0.51562000  0.70021000  0.19789000  1.0
  H  H6  1  0.01562000  0.79978000  0.19788000  1.0
  H  H7  1  0.48443000  0.29980000  0.80211000  1.0
  H  H8  1  0.84456000  0.05540000  0.03520000  1.0
  H  H9  1  0.65546000  0.55539000  0.96481000  1.0
  H  H10  1  0.15548000  0.94459000  0.96480000  1.0
  H  H11  1  0.34455000  0.44460000  0.03519000  1.0
  H  H12  1  0.89610000  0.37830000  0.03018000  1.0
  H  H13  1  0.60390000  0.87830000  0.96983000  1.0
  H  H14  1  0.10389000  0.62169000  0.96982000  1.0
  H  H15  1  0.39613000  0.12170000  0.03017000  1.0
  H  H16  1  0.47071000  0.61261000  0.48183000  1.0
  H  H17  1  0.02920000  0.11261000  0.51815000  1.0
  H  H18  1  0.52921000  0.38740000  0.51817000  1.0
  H  H19  1  0.97080000  0.88739000  0.48184000  1.0
  H  H20  1  0.67451000  0.56317000  0.53445000  1.0
  H  H21  1  0.82546000  0.06313000  0.46552000  1.0
  H  H22  1  0.32546000  0.43686000  0.46554000  1.0
  H  H23  1  0.17454000  0.93687000  0.53447000  1.0
  H  H24  1  0.61977000  0.48074000  0.72574000  1.0
  H  H25  1  0.88021000  0.98074000  0.27427000  1.0
  H  H26  1  0.38020000  0.51924000  0.27427000  1.0
  H  H27  1  0.11978000  0.01927000  0.72573000  1.0
  H  H28  1  0.81799000  0.41256000  0.68718000  1.0
  H  H29  1  0.68200000  0.91256000  0.31283000  1.0
  H  H30  1  0.18199000  0.58743000  0.31283000  1.0
  H  H31  1  0.31800000  0.08745000  0.68719000  1.0
  H  H32  1  0.48879000  0.57260000  0.80805000  1.0
  H  H33  1  0.01119000  0.07259000  0.19195000  1.0
  H  H34  1  0.51119000  0.42740000  0.19195000  1.0
  H  H35  1  0.98882000  0.92741000  0.80804000  1.0
  H  H36  1  0.39766000  0.46916000  0.84949000  1.0
  H  H37  1  0.10234000  0.96915000  0.15052000  1.0
  H  H38  1  0.60233000  0.53084000  0.15052000  1.0
  H  H39  1  0.89767000  0.03084000  0.84948000  1.0
  H  H40  1  0.78340000  0.64955000  0.64430000  1.0
  H  H41  1  0.71656000  0.14954000  0.35572000  1.0
  H  H42  1  0.21655000  0.35045000  0.35571000  1.0
  H  H43  1  0.28341000  0.85046000  0.64429000  1.0
  H  H44  1  0.92345000  0.74629000  0.64987000  1.0
  H  H45  1  0.57652000  0.24629000  0.35014000  1.0
  H  H46  1  0.07653000  0.25370000  0.35013000  1.0
  H  H47  1  0.42346000  0.75372000  0.64987000  1.0
  C  C48  1  0.98297000  0.39239000  0.85484000  1.0
  C  C49  1  0.51704000  0.89239000  0.14517000  1.0
  C  C50  1  0.01703000  0.60761000  0.14517000  1.0
  C  C51  1  0.48298000  0.10762000  0.85482000  1.0
  C  C52  1  0.94302000  0.30091000  0.90955000  1.0
  C  C53  1  0.55700000  0.80091000  0.09045000  1.0
  C  C54  1  0.05700000  0.69908000  0.09045000  1.0
  C  C55  1  0.44304000  0.19910000  0.90954000  1.0
  C  C56  1  0.95302000  0.20618000  0.87127000  1.0
  C  C57  1  0.54701000  0.70617000  0.12874000  1.0
  C  C58  1  0.04702000  0.79382000  0.12873000  1.0
  C  C59  1  0.45303000  0.29383000  0.87126000  1.0
  C  C60  1  0.87851000  0.12560000  0.00064000  1.0
  C  C61  1  0.62151000  0.62559000  0.99937000  1.0
  C  C62  1  0.12152000  0.87440000  0.99937000  1.0
  C  C63  1  0.37851000  0.37441000  0.00062000  1.0
  C  C64  1  0.87023000  0.21663000  0.04460000  1.0
  C  C65  1  0.62978000  0.71663000  0.95540000  1.0
  C  C66  1  0.12980000  0.78337000  0.95540000  1.0
  C  C67  1  0.37024000  0.28337000  0.04459000  1.0
  C  C68  1  0.90160000  0.30591000  0.99797000  1.0
  C  C69  1  0.59841000  0.80591000  0.00204000  1.0
  C  C70  1  0.09841000  0.69408000  0.00204000  1.0
  C  C71  1  0.40162000  0.19409000  0.99795000  1.0
  C  C72  1  0.82722000  0.21842000  0.14009000  1.0
  C  C73  1  0.67278000  0.71841000  0.85992000  1.0
  C  C74  1  0.17278000  0.78158000  0.85992000  1.0
  C  C75  1  0.32723000  0.28158000  0.14008000  1.0
  C  C76  1  0.36045000  0.55753000  0.60526000  1.0
  C  C77  1  0.13955000  0.05751000  0.39474000  1.0
  C  C78  1  0.63952000  0.44248000  0.39475000  1.0
  C  C79  1  0.86046000  0.94248000  0.60526000  1.0
  C  C80  1  0.50866000  0.54996000  0.52249000  1.0
  C  C81  1  0.99131000  0.04995000  0.47750000  1.0
  C  C82  1  0.49128000  0.45005000  0.47751000  1.0
  C  C83  1  0.00870000  0.95005000  0.52249000  1.0
  N  N84  1  0.92055000  0.12071000  0.91538000  1.0
  N  N85  1  0.57948000  0.62070000  0.08463000  1.0
  N  N86  1  0.07949000  0.87929000  0.08462000  1.0
  N  N87  1  0.42056000  0.37930000  0.91537000  1.0
  O  O88  1  0.95697000  0.47934000  0.88795000  1.0
  O  O89  1  0.54304000  0.97933000  0.11205000  1.0
  O  O90  1  0.04304000  0.52066000  0.11205000  1.0
  O  O91  1  0.45695000  0.02067000  0.88793000  1.0
  O  O92  1  0.04581000  0.38054000  0.77558000  1.0
  O  O93  1  0.45418000  0.88055000  0.22442000  1.0
  O  O94  1  0.95416000  0.61946000  0.22442000  1.0
  O  O95  1  0.54585000  0.11947000  0.77556000  1.0
  O  O96  1  0.77877000  0.13614000  0.17895000  1.0
  O  O97  1  0.72123000  0.63613000  0.82106000  1.0
  O  O98  1  0.22123000  0.86385000  0.82105000  1.0
  O  O99  1  0.27877000  0.36386000  0.17894000  1.0
  O  O100  1  0.84402000  0.30203000  0.17606000  1.0
  O  O101  1  0.65597000  0.80203000  0.82394000  1.0
  O  O102  1  0.15595000  0.69797000  0.82394000  1.0
  O  O103  1  0.34404000  0.19796000  0.17605000  1.0
  O  O104  1  0.21846000  0.49066000  0.62582000  1.0
  O  O105  1  0.28155000  0.99065000  0.37418000  1.0
  O  O106  1  0.78153000  0.50934000  0.37419000  1.0
  O  O107  1  0.71846000  0.00935000  0.62582000  1.0
  O  O108  1  0.37747000  0.63153000  0.65625000  1.0
  O  O109  1  0.12254000  0.13152000  0.34374000  1.0
  O  O110  1  0.62251000  0.36848000  0.34375000  1.0
  O  O111  1  0.87749000  0.86848000  0.65626000  1.0
  O  O112  1  0.76587000  0.48152000  0.69194000  1.0
  O  O113  1  0.73412000  0.98152000  0.30806000  1.0
  O  O114  1  0.23410000  0.51847000  0.30806000  1.0
  O  O115  1  0.26588000  0.01850000  0.69195000  1.0
  O  O116  1  0.39336000  0.51578000  0.79793000  1.0
  O  O117  1  0.10662000  0.01577000  0.20207000  1.0
  O  O118  1  0.60662000  0.48422000  0.20207000  1.0
  O  O119  1  0.89338000  0.98423000  0.79793000  1.0
  O  O120  1  0.93001000  0.67114000  0.64862000  1.0
  O  O121  1  0.56995000  0.17114000  0.35139000  1.0
  O  O122  1  0.06995000  0.32884000  0.35138000  1.0
  O  O123  1  0.43003000  0.82887000  0.64861000  1.0
