# generated using pymatgen
data_AgH11C11SN2O3
_symmetry_space_group_name_H-M   'P 1'
_cell_length_a   7.08593000
_cell_length_b   8.19886000
_cell_length_c   11.25490000
_cell_angle_alpha   81.41190000
_cell_angle_beta   73.80070000
_cell_angle_gamma   66.79230000
_symmetry_Int_Tables_number   1
_chemical_formula_structural   AgH11C11SN2O3
_chemical_formula_sum   'Ag2 H22 C22 S2 N4 O6'
_cell_volume   576.52612516
_cell_formula_units_Z   2
loop_
 _symmetry_equiv_pos_site_id
 _symmetry_equiv_pos_as_xyz
  1  'x, y, z'
loop_
 _atom_site_type_symbol
 _atom_site_label
 _atom_site_symmetry_multiplicity
 _atom_site_fract_x
 _atom_site_fract_y
 _atom_site_fract_z
 _atom_site_occupancy
  Ag  Ag0  1  0.47121000  0.37998000  0.62662000  1.0
  Ag  Ag1  1  0.52879000  0.62003000  0.37339000  1.0
  H  H2  1  0.95071000  0.08479000  0.89073000  1.0
  H  H3  1  0.04929000  0.91520000  0.10927000  1.0
  H  H4  1  0.01975000  0.27957000  0.00902000  1.0
  H  H5  1  0.98024000  0.72042000  0.99099000  1.0
  H  H6  1  0.67618000  0.08564000  0.80789000  1.0
  H  H7  1  0.32381000  0.91437000  0.19211000  1.0
  H  H8  1  0.60610000  0.89551000  0.69176000  1.0
  H  H9  1  0.39391000  0.10450000  0.30824000  1.0
  H  H10  1  0.56241000  0.30273000  0.95903000  1.0
  H  H11  1  0.43758000  0.69728000  0.04097000  1.0
  H  H12  1  0.35618000  0.28518000  0.08557000  1.0
  H  H13  1  0.64381000  0.71483000  0.91443000  1.0
  H  H14  1  0.30093000  0.45965000  0.96963000  1.0
  H  H15  1  0.69906000  0.54036000  0.03038000  1.0
  H  H16  1  0.99981000  0.57138000  0.76113000  1.0
  H  H17  1  0.00019000  0.42863000  0.23887000  1.0
  H  H18  1  0.64417000  0.55696000  0.76620000  1.0
  H  H19  1  0.35584000  0.44303000  0.23380000  1.0
  H  H20  1  0.94705000  0.17016000  0.50378000  1.0
  H  H21  1  0.05296000  0.82985000  0.49621000  1.0
  H  H22  1  0.30024000  0.18044000  0.50241000  1.0
  H  H23  1  0.69977000  0.81956000  0.49759000  1.0
  C  C24  1  0.27316000  0.97783000  0.78411000  1.0
  C  C25  1  0.72684000  0.02217000  0.21589000  1.0
  C  C26  1  0.10853000  0.08778000  0.87251000  1.0
  C  C27  1  0.89147000  0.91222000  0.12748000  1.0
  C  C28  1  0.14823000  0.19795000  0.93772000  1.0
  C  C29  1  0.85176000  0.80206000  0.06227000  1.0
  C  C30  1  0.35161000  0.20182000  0.91517000  1.0
  C  C31  1  0.64839000  0.79818000  0.08484000  1.0
  C  C32  1  0.51436000  0.09168000  0.82529000  1.0
  C  C33  1  0.48563000  0.90833000  0.17471000  1.0
  C  C34  1  0.47637000  0.97994000  0.76046000  1.0
  C  C35  1  0.52363000  0.02006000  0.23953000  1.0
  C  C36  1  0.39500000  0.31908000  0.98596000  1.0
  C  C37  1  0.60499000  0.68092000  0.01404000  1.0
  C  C38  1  0.98622000  0.48103000  0.70497000  1.0
  C  C39  1  0.01379000  0.51896000  0.29503000  1.0
  C  C40  1  0.79238000  0.47386000  0.70747000  1.0
  C  C41  1  0.20763000  0.52614000  0.29254000  1.0
  C  C42  1  0.95831000  0.25821000  0.56269000  1.0
  C  C43  1  0.04170000  0.74178000  0.43731000  1.0
  C  C44  1  0.15260000  0.26509000  0.56055000  1.0
  C  C45  1  0.84740000  0.73490000  0.43945000  1.0
  S  S46  1  0.22903000  0.82571000  0.70709000  1.0
  S  S47  1  0.77098000  0.17429000  0.29291000  1.0
  N  N48  1  0.16556000  0.37961000  0.62888000  1.0
  N  N49  1  0.83444000  0.62038000  0.37112000  1.0
  N  N50  1  0.77829000  0.36572000  0.63407000  1.0
  N  N51  1  0.22172000  0.63427000  0.36593000  1.0
  O  O52  1  0.28200000  0.65772000  0.78337000  1.0
  O  O53  1  0.71800000  0.34227000  0.21662000  1.0
  O  O54  1  0.00549000  0.90170000  0.70312000  1.0
  O  O55  1  0.99452000  0.09830000  0.29687000  1.0
  O  O56  1  0.37628000  0.80940000  0.58343000  1.0
  O  O57  1  0.62373000  0.19060000  0.41657000  1.0
