# generated using pymatgen
data_CuH13C17SNO10
_symmetry_space_group_name_H-M   'P 1'
_cell_length_a   7.97275000
_cell_length_b   9.72215000
_cell_length_c   12.04090000
_cell_angle_alpha   83.00520000
_cell_angle_beta   74.05660000
_cell_angle_gamma   78.64040000
_symmetry_Int_Tables_number   1
_chemical_formula_structural   CuH13C17SNO10
_chemical_formula_sum   'Cu2 H26 C34 S2 N2 O20'
_cell_volume   877.56585280
_cell_formula_units_Z   2
loop_
 _symmetry_equiv_pos_site_id
 _symmetry_equiv_pos_as_xyz
  1  'x, y, z'
loop_
 _atom_site_type_symbol
 _atom_site_label
 _atom_site_symmetry_multiplicity
 _atom_site_fract_x
 _atom_site_fract_y
 _atom_site_fract_z
 _atom_site_occupancy
  Cu  Cu0  1  0.57245000  0.44824000  0.77728000  1.0
  Cu  Cu1  1  0.42756000  0.55176000  0.22271000  1.0
  H  H2  1  0.35241000  0.83246000  0.66745000  1.0
  H  H3  1  0.64758000  0.16752000  0.33255000  1.0
  H  H4  1  0.44615000  0.40409000  0.61558000  1.0
  H  H5  1  0.55386000  0.59590000  0.38442000  1.0
  H  H6  1  0.35071000  0.55349000  0.65575000  1.0
  H  H7  1  0.64930000  0.44651000  0.34425000  1.0
  H  H8  1  0.79779000  0.34966000  0.89608000  1.0
  H  H9  1  0.20222000  0.65036000  0.10393000  1.0
  H  H10  1  0.86169000  0.47704000  0.79433000  1.0
  H  H11  1  0.13831000  0.52297000  0.20567000  1.0
  H  H12  1  0.14525000  0.66655000  0.49518000  1.0
  H  H13  1  0.85474000  0.33345000  0.50482000  1.0
  H  H14  1  0.96620000  0.91315000  0.21356000  1.0
  H  H15  1  0.03378000  0.08686000  0.78644000  1.0
  H  H16  1  0.65564000  0.90045000  0.32115000  1.0
  H  H17  1  0.34436000  0.09955000  0.67885000  1.0
  H  H18  1  0.14116000  0.05872000  0.30897000  1.0
  H  H19  1  0.85883000  0.94130000  0.69103000  1.0
  H  H20  1  0.33592000  0.23385000  0.21720000  1.0
  H  H21  1  0.66409000  0.76615000  0.78280000  1.0
  H  H22  1  0.86810000  0.96447000  0.98551000  1.0
  H  H23  1  0.13192000  0.03553000  0.01449000  1.0
  H  H24  1  0.93874000  0.71662000  0.93284000  1.0
  H  H25  1  0.06126000  0.28338000  0.06715000  1.0
  H  H26  1  0.72221000  0.55362000  0.02594000  1.0
  H  H27  1  0.27778000  0.44639000  0.97406000  1.0
  C  C28  1  0.83121000  0.61252000  0.62551000  1.0
  C  C29  1  0.16879000  0.38748000  0.37449000  1.0
  C  C30  1  0.86294000  0.70687000  0.51632000  1.0
  C  C31  1  0.13706000  0.29313000  0.48369000  1.0
  C  C32  1  0.03714000  0.71844000  0.45798000  1.0
  C  C33  1  0.96285000  0.28155000  0.54203000  1.0
  C  C34  1  0.07225000  0.79118000  0.34965000  1.0
  C  C35  1  0.92774000  0.20882000  0.65035000  1.0
  C  C36  1  0.93723000  0.85719000  0.29871000  1.0
  C  C37  1  0.06276000  0.14281000  0.70128000  1.0
  C  C38  1  0.76282000  0.84839000  0.35903000  1.0
  C  C39  1  0.23719000  0.15160000  0.64097000  1.0
  C  C40  1  0.72391000  0.77326000  0.46684000  1.0
  C  C41  1  0.27610000  0.22674000  0.53316000  1.0
  C  C42  1  0.53436000  0.76445000  0.52759000  1.0
  C  C43  1  0.46564000  0.23554000  0.47241000  1.0
  C  C44  1  0.49832000  0.84126000  0.15193000  1.0
  C  C45  1  0.50168000  0.15874000  0.84807000  1.0
  C  C46  1  0.33226000  0.88494000  0.23240000  1.0
  C  C47  1  0.66774000  0.11507000  0.76760000  1.0
  C  C48  1  0.27102000  0.02492000  0.25149000  1.0
  C  C49  1  0.72898000  0.97509000  0.74851000  1.0
  C  C50  1  0.38161000  0.12398000  0.19957000  1.0
  C  C51  1  0.61839000  0.87602000  0.80042000  1.0
  C  C52  1  0.55079000  0.08479000  0.13142000  1.0
  C  C53  1  0.44921000  0.91522000  0.86858000  1.0
  C  C54  1  0.61225000  0.94215000  0.10167000  1.0
  C  C55  1  0.38775000  0.05785000  0.89833000  1.0
  C  C56  1  0.77669000  0.89207000  0.02457000  1.0
  C  C57  1  0.22331000  0.10793000  0.97543000  1.0
  C  C58  1  0.81638000  0.75426000  0.99595000  1.0
  C  C59  1  0.18361000  0.24574000  0.00405000  1.0
  C  C60  1  0.69694000  0.66251000  0.04783000  1.0
  C  C61  1  0.30305000  0.33750000  0.95216000  1.0
  S  S62  1  0.69335000  0.21338000  0.10373000  1.0
  S  S63  1  0.30666000  0.78662000  0.89627000  1.0
  N  N64  1  0.54556000  0.70394000  0.12519000  1.0
  N  N65  1  0.45443000  0.29606000  0.87481000  1.0
  O  O66  1  0.67681000  0.57587000  0.65270000  1.0
  O  O67  1  0.32320000  0.42412000  0.34730000  1.0
  O  O68  1  0.94878000  0.57434000  0.67941000  1.0
  O  O69  1  0.05121000  0.42565000  0.32059000  1.0
  O  O70  1  0.46808000  0.85037000  0.61192000  1.0
  O  O71  1  0.53192000  0.14962000  0.38809000  1.0
  O  O72  1  0.44660000  0.69039000  0.49734000  1.0
  O  O73  1  0.55341000  0.30961000  0.50267000  1.0
  O  O74  1  0.25000000  0.77686000  0.28992000  1.0
  O  O75  1  0.75000000  0.22314000  0.71008000  1.0
  O  O76  1  0.57829000  0.35073000  0.11560000  1.0
  O  O77  1  0.42172000  0.64927000  0.88440000  1.0
  O  O78  1  0.81241000  0.19820000  0.98637000  1.0
  O  O79  1  0.18759000  0.80180000  0.01362000  1.0
  O  O80  1  0.79120000  0.17529000  0.19487000  1.0
  O  O81  1  0.20881000  0.82470000  0.80513000  1.0
  O  O82  1  0.38517000  0.45732000  0.68659000  1.0
  O  O83  1  0.61483000  0.54267000  0.31341000  1.0
  O  O84  1  0.76204000  0.44319000  0.85738000  1.0
  O  O85  1  0.23797000  0.55681000  0.14262000  1.0
