# generated using pymatgen
data_CuH5C6BrN3
_symmetry_space_group_name_H-M   'P 1'
_cell_length_a   9.92722000
_cell_length_b   12.19670000
_cell_length_c   12.32020000
_cell_angle_alpha   90.00020000
_cell_angle_beta   90.00020000
_cell_angle_gamma   91.65120000
_symmetry_Int_Tables_number   1
_chemical_formula_structural   CuH5C6BrN3
_chemical_formula_sum   'Cu8 H40 C48 Br8 N24'
_cell_volume   1491.10207457
_cell_formula_units_Z   8
loop_
 _symmetry_equiv_pos_site_id
 _symmetry_equiv_pos_as_xyz
  1  'x, y, z'
loop_
 _atom_site_type_symbol
 _atom_site_label
 _atom_site_symmetry_multiplicity
 _atom_site_fract_x
 _atom_site_fract_y
 _atom_site_fract_z
 _atom_site_occupancy
  Cu  Cu0  1  0.46856000  0.66726000  0.62717000  1.0
  Cu  Cu1  1  0.03144000  0.83274000  0.12717000  1.0
  Cu  Cu2  1  0.53144000  0.33274000  0.37282000  1.0
  Cu  Cu3  1  0.96856000  0.16726000  0.87283000  1.0
  Cu  Cu4  1  0.32375000  0.75416000  0.00277000  1.0
  Cu  Cu5  1  0.17626000  0.74585000  0.50278000  1.0
  Cu  Cu6  1  0.67626000  0.24584000  0.99723000  1.0
  Cu  Cu7  1  0.82374000  0.25416000  0.49723000  1.0
  H  H8  1  0.99398000  0.41790000  0.80282000  1.0
  H  H9  1  0.50602000  0.08210000  0.30283000  1.0
  H  H10  1  0.00602000  0.58210000  0.19718000  1.0
  H  H11  1  0.49398000  0.91790000  0.69718000  1.0
  H  H12  1  0.03718000  0.51901000  0.89384000  1.0
  H  H13  1  0.46281000  0.98099000  0.39384000  1.0
  H  H14  1  0.96282000  0.48100000  0.10616000  1.0
  H  H15  1  0.53718000  0.01901000  0.60616000  1.0
  H  H16  1  0.68621000  0.62346000  0.47320000  1.0
  H  H17  1  0.81379000  0.87654000  0.97320000  1.0
  H  H18  1  0.31379000  0.37654000  0.52680000  1.0
  H  H19  1  0.18621000  0.12346000  0.02680000  1.0
  H  H20  1  0.93190000  0.58972000  0.48459000  1.0
  H  H21  1  0.56810000  0.91029000  0.98459000  1.0
  H  H22  1  0.06810000  0.41028000  0.51541000  1.0
  H  H23  1  0.43190000  0.08972000  0.01541000  1.0
  H  H24  1  0.90371000  0.64515000  0.83076000  1.0
  H  H25  1  0.59629000  0.85485000  0.33076000  1.0
  H  H26  1  0.09629000  0.35485000  0.16923000  1.0
  H  H27  1  0.40371000  0.14515000  0.66924000  1.0
  H  H28  1  0.66048000  0.68039000  0.80364000  1.0
  H  H29  1  0.83952000  0.81961000  0.30364000  1.0
  H  H30  1  0.33953000  0.31961000  0.19636000  1.0
  H  H31  1  0.16047000  0.18039000  0.69636000  1.0
  H  H32  1  0.67441000  0.34489000  0.77734000  1.0
  H  H33  1  0.82558000  0.15511000  0.27734000  1.0
  H  H34  1  0.32559000  0.65511000  0.22265000  1.0
  H  H35  1  0.17441000  0.84490000  0.72266000  1.0
  H  H36  1  0.50871000  0.44212000  0.66518000  1.0
  H  H37  1  0.99129000  0.05789000  0.16518000  1.0
  H  H38  1  0.49129000  0.55788000  0.33482000  1.0
  H  H39  1  0.00871000  0.94212000  0.83482000  1.0
  H  H40  1  0.26057000  0.46892000  0.95270000  1.0
  H  H41  1  0.23943000  0.03108000  0.45270000  1.0
  H  H42  1  0.73943000  0.53108000  0.04730000  1.0
  H  H43  1  0.76057000  0.96892000  0.54730000  1.0
  H  H44  1  0.43569000  0.36697000  0.05222000  1.0
  H  H45  1  0.06431000  0.13302000  0.55222000  1.0
  H  H46  1  0.56431000  0.63303000  0.94778000  1.0
  H  H47  1  0.93569000  0.86697000  0.44778000  1.0
  C  C48  1  0.08055000  0.58557000  0.67164000  1.0
  C  C49  1  0.41946000  0.91444000  0.17164000  1.0
  C  C50  1  0.91946000  0.41443000  0.32836000  1.0
  C  C51  1  0.58054000  0.08557000  0.82836000  1.0
  C  C52  1  0.27159000  0.52308000  0.73567000  1.0
  C  C53  1  0.22841000  0.97692000  0.23567000  1.0
  C  C54  1  0.72841000  0.47692000  0.26433000  1.0
  C  C55  1  0.77159000  0.02308000  0.76433000  1.0
  C  C56  1  0.73826000  0.62615000  0.55104000  1.0
  C  C57  1  0.76175000  0.87385000  0.05105000  1.0
  C  C58  1  0.26175000  0.37384000  0.44895000  1.0
  C  C59  1  0.23825000  0.12616000  0.94896000  1.0
  C  C60  1  0.87486000  0.60600000  0.55804000  1.0
  C  C61  1  0.62514000  0.89400000  0.05804000  1.0
  C  C62  1  0.12514000  0.39399000  0.44196000  1.0
  C  C63  1  0.37486000  0.10600000  0.94196000  1.0
  C  C64  1  0.93779000  0.60793000  0.66008000  1.0
  C  C65  1  0.56221000  0.89207000  0.16008000  1.0
  C  C66  1  0.06221000  0.39207000  0.33992000  1.0
  C  C67  1  0.43779000  0.10793000  0.83992000  1.0
  C  C68  1  0.85911000  0.63531000  0.75039000  1.0
  C  C69  1  0.64089000  0.86469000  0.25039000  1.0
  C  C70  1  0.14089000  0.36468000  0.24961000  1.0
  C  C71  1  0.35911000  0.13532000  0.74961000  1.0
  C  C72  1  0.72383000  0.65592000  0.73604000  1.0
  C  C73  1  0.77617000  0.84407000  0.23604000  1.0
  C  C74  1  0.27617000  0.34407000  0.26396000  1.0
  C  C75  1  0.22383000  0.15593000  0.76396000  1.0
  C  C76  1  0.58124000  0.37363000  0.81337000  1.0
  C  C77  1  0.91875000  0.12637000  0.31337000  1.0
  C  C78  1  0.41876000  0.62637000  0.18663000  1.0
  C  C79  1  0.08124000  0.87363000  0.68664000  1.0
  C  C80  1  0.48832000  0.42848000  0.75108000  1.0
  C  C81  1  0.01168000  0.07152000  0.25108000  1.0
  C  C82  1  0.51168000  0.57152000  0.24892000  1.0
  C  C83  1  0.98832000  0.92848000  0.74892000  1.0
  C  C84  1  0.36901000  0.46431000  0.79953000  1.0
  C  C85  1  0.13099000  0.03569000  0.29953000  1.0
  C  C86  1  0.63099000  0.53569000  0.20047000  1.0
  C  C87  1  0.86901000  0.96431000  0.70047000  1.0
  C  C88  1  0.34921000  0.44161000  0.91024000  1.0
  C  C89  1  0.15078000  0.05839000  0.41024000  1.0
  C  C90  1  0.65079000  0.55839000  0.08976000  1.0
  C  C91  1  0.84921000  0.94161000  0.58976000  1.0
  C  C92  1  0.44681000  0.38561000  0.96609000  1.0
  C  C93  1  0.05319000  0.11439000  0.46609000  1.0
  C  C94  1  0.55319000  0.61439000  0.03391000  1.0
  C  C95  1  0.94681000  0.88561000  0.53392000  1.0
  Br  Br96  1  0.41629000  0.78276000  0.81911000  1.0
  Br  Br97  1  0.08371000  0.71724000  0.31911000  1.0
  Br  Br98  1  0.58371000  0.21724000  0.18089000  1.0
  Br  Br99  1  0.91629000  0.28276000  0.68089000  1.0
  Br  Br100  1  0.41618000  0.79848000  0.48103000  1.0
  Br  Br101  1  0.08383000  0.70152000  0.98103000  1.0
  Br  Br102  1  0.58383000  0.20152000  0.51897000  1.0
  Br  Br103  1  0.91617000  0.29848000  0.01897000  1.0
  N  N104  1  0.18001000  0.62041000  0.60604000  1.0
  N  N105  1  0.31999000  0.87959000  0.10604000  1.0
  N  N106  1  0.81999000  0.37958000  0.39396000  1.0
  N  N107  1  0.68001000  0.12041000  0.89396000  1.0
  N  N108  1  0.29963000  0.58313000  0.64722000  1.0
  N  N109  1  0.20037000  0.91688000  0.14722000  1.0
  N  N110  1  0.70037000  0.41687000  0.35278000  1.0
  N  N111  1  0.79963000  0.08313000  0.85278000  1.0
  N  N112  1  0.13563000  0.52507000  0.75435000  1.0
  N  N113  1  0.36437000  0.97493000  0.25435000  1.0
  N  N114  1  0.86437000  0.47493000  0.24564000  1.0
  N  N115  1  0.63562000  0.02507000  0.74565000  1.0
  N  N116  1  0.07075000  0.46552000  0.83621000  1.0
  N  N117  1  0.42925000  0.03448000  0.33621000  1.0
  N  N118  1  0.92925000  0.53448000  0.16379000  1.0
  N  N119  1  0.57075000  0.96552000  0.66379000  1.0
  N  N120  1  0.66133000  0.64933000  0.63847000  1.0
  N  N121  1  0.83867000  0.85067000  0.13847000  1.0
  N  N122  1  0.33867000  0.35067000  0.36153000  1.0
  N  N123  1  0.16133000  0.14933000  0.86153000  1.0
  N  N124  1  0.56159000  0.35157000  0.92011000  1.0
  N  N125  1  0.93841000  0.14842000  0.42010000  1.0
  N  N126  1  0.43842000  0.64843000  0.07989000  1.0
  N  N127  1  0.06159000  0.85158000  0.57990000  1.0
