# generated using pymatgen
data_V8Zn2H16C20N4O21
_symmetry_space_group_name_H-M   'P 1'
_cell_length_a   8.07749000
_cell_length_b   9.71410000
_cell_length_c   11.58880000
_cell_angle_alpha   86.28150000
_cell_angle_beta   72.26820000
_cell_angle_gamma   73.29310000
_symmetry_Int_Tables_number   1
_chemical_formula_structural   V8Zn2H16C20N4O21
_chemical_formula_sum   'V8 Zn2 H16 C20 N4 O21'
_cell_volume   829.30432255
_cell_formula_units_Z   1
loop_
 _symmetry_equiv_pos_site_id
 _symmetry_equiv_pos_as_xyz
  1  'x, y, z'
loop_
 _atom_site_type_symbol
 _atom_site_label
 _atom_site_symmetry_multiplicity
 _atom_site_fract_x
 _atom_site_fract_y
 _atom_site_fract_z
 _atom_site_occupancy
  V  V0  1  0.53255000  0.96562000  0.74843000  1.0
  V  V1  1  0.46745000  0.03438000  0.25157000  1.0
  V  V2  1  0.12820000  0.17251000  0.81648000  1.0
  V  V3  1  0.87180000  0.82748000  0.18352000  1.0
  V  V4  1  0.88229000  0.92232000  0.88047000  1.0
  V  V5  1  0.11770000  0.07769000  0.11953000  1.0
  V  V6  1  0.19752000  0.00882000  0.53400000  1.0
  V  V7  1  0.80248000  0.99117000  0.46600000  1.0
  Zn  Zn8  1  0.32016000  0.71930000  0.71464000  1.0
  Zn  Zn9  1  0.67984000  0.28070000  0.28536000  1.0
  H  H10  1  0.59526000  0.70472000  0.45348000  1.0
  H  H11  1  0.40474000  0.29528000  0.54652000  1.0
  H  H12  1  0.00851000  0.30278000  0.43736000  1.0
  H  H13  1  0.99149000  0.69722000  0.56264000  1.0
  H  H14  1  0.88521000  0.53073000  0.33622000  1.0
  H  H15  1  0.11479000  0.46926000  0.66378000  1.0
  H  H16  1  0.84052000  0.26100000  0.64883000  1.0
  H  H17  1  0.15948000  0.73899000  0.35117000  1.0
  H  H18  1  0.69959000  0.25062000  0.83074000  1.0
  H  H19  1  0.30041000  0.74938000  0.16925000  1.0
  H  H20  1  0.49180000  0.23357000  0.03415000  1.0
  H  H21  1  0.50820000  0.76643000  0.96585000  1.0
  H  H22  1  0.18662000  0.42021000  0.10215000  1.0
  H  H23  1  0.81338000  0.57980000  0.89786000  1.0
  H  H24  1  0.11044000  0.61682000  0.96161000  1.0
  H  H25  1  0.88956000  0.38319000  0.03839000  1.0
  C  C26  1  0.65429000  0.60463000  0.49267000  1.0
  C  C27  1  0.34572000  0.39537000  0.50733000  1.0
  C  C28  1  0.88283000  0.38158000  0.48507000  1.0
  C  C29  1  0.11717000  0.61842000  0.51493000  1.0
  C  C30  1  0.81524000  0.50669000  0.42821000  1.0
  C  C31  1  0.18476000  0.49331000  0.57179000  1.0
  C  C32  1  0.78832000  0.35774000  0.60339000  1.0
  C  C33  1  0.21168000  0.64226000  0.39660000  1.0
  C  C34  1  0.62667000  0.45958000  0.66223000  1.0
  C  C35  1  0.37333000  0.54042000  0.33777000  1.0
  C  C36  1  0.51384000  0.44171000  0.78634000  1.0
  C  C37  1  0.48616000  0.55829000  0.21366000  1.0
  C  C38  1  0.56768000  0.32956000  0.86042000  1.0
  C  C39  1  0.43232000  0.67044000  0.13958000  1.0
  C  C40  1  0.45076000  0.32011000  0.97525000  1.0
  C  C41  1  0.54924000  0.67989000  0.02474000  1.0
  C  C42  1  0.28306000  0.42265000  0.01342000  1.0
  C  C43  1  0.71694000  0.57735000  0.98658000  1.0
  C  C44  1  0.23863000  0.53282000  0.93553000  1.0
  C  C45  1  0.76138000  0.46718000  0.06447000  1.0
  N  N46  1  0.56245000  0.58099000  0.60624000  1.0
  N  N47  1  0.43755000  0.41901000  0.39376000  1.0
  N  N48  1  0.35164000  0.54198000  0.82528000  1.0
  N  N49  1  0.64836000  0.45802000  0.17472000  1.0
  O  O50  1  0.41040000  0.84973000  0.79609000  1.0
  O  O51  1  0.58959000  0.15028000  0.20392000  1.0
  O  O52  1  0.66976000  0.91976000  0.59549000  1.0
  O  O53  1  0.33024000  0.08024000  0.40451000  1.0
  O  O54  1  0.30916000  0.84661000  0.56496000  1.0
  O  O55  1  0.69084000  0.15339000  0.43504000  1.0
  O  O56  1  0.04951000  0.79699000  0.78744000  1.0
  O  O57  1  0.95049000  0.20301000  0.21257000  1.0
  O  O58  1  0.00000000  0.00000000  0.50000000  1.0
  O  O59  1  0.03767000  0.34336000  0.81957000  1.0
  O  O60  1  0.96233000  0.65665000  0.18042000  1.0
  O  O61  1  0.67591000  0.95789000  0.83791000  1.0
  O  O62  1  0.32409000  0.04211000  0.16209000  1.0
  O  O63  1  0.38687000  0.13440000  0.75470000  1.0
  O  O64  1  0.61313000  0.86561000  0.24530000  1.0
  O  O65  1  0.13908000  0.12208000  0.65387000  1.0
  O  O66  1  0.86092000  0.87792000  0.34613000  1.0
  O  O67  1  0.93773000  0.08117000  0.87122000  1.0
  O  O68  1  0.06227000  0.91883000  0.12879000  1.0
  O  O69  1  0.84172000  0.86453000  0.02661000  1.0
  O  O70  1  0.15828000  0.13548000  0.97339000  1.0
