# generated using pymatgen
data_ZnH16C14(NO4)2
_symmetry_space_group_name_H-M   'P 1'
_cell_length_a   5.35123000
_cell_length_b   7.10025000
_cell_length_c   9.90561000
_cell_angle_alpha   86.42050000
_cell_angle_beta   85.18080000
_cell_angle_gamma   74.82410000
_symmetry_Int_Tables_number   1
_chemical_formula_structural   ZnH16C14(NO4)2
_chemical_formula_sum   'Zn1 H16 C14 N2 O8'
_cell_volume   361.63499259
_cell_formula_units_Z   1
loop_
 _symmetry_equiv_pos_site_id
 _symmetry_equiv_pos_as_xyz
  1  'x, y, z'
loop_
 _atom_site_type_symbol
 _atom_site_label
 _atom_site_symmetry_multiplicity
 _atom_site_fract_x
 _atom_site_fract_y
 _atom_site_fract_z
 _atom_site_occupancy
  Zn  Zn0  1  0.99991000  0.99988000  0.00002000  1.0
  H  H1  1  0.52846000  0.18154000  0.75164000  1.0
  H  H2  1  0.47156000  0.81846000  0.24835000  1.0
  H  H3  1  0.43344000  0.30405000  0.51368000  1.0
  H  H4  1  0.56655000  0.69596000  0.48633000  1.0
  H  H5  1  0.66814000  0.62098000  0.67441000  1.0
  H  H6  1  0.33189000  0.37901000  0.32559000  1.0
  H  H7  1  0.79780000  0.48118000  0.90291000  1.0
  H  H8  1  0.20219000  0.51876000  0.09708000  1.0
  H  H9  1  0.82440000  0.17786000  0.57038000  1.0
  H  H10  1  0.17551000  0.82218000  0.42961000  1.0
  H  H11  1  0.65685000  0.20703000  0.14879000  1.0
  H  H12  1  0.34317000  0.79293000  0.85123000  1.0
  H  H13  1  0.50054000  0.21363000  0.01163000  1.0
  H  H14  1  0.49947000  0.78641000  0.98838000  1.0
  H  H15  1  0.74655000  0.95488000  0.56211000  1.0
  H  H16  1  0.25345000  0.04513000  0.43786000  1.0
  C  C17  1  0.34350000  0.28008000  0.72520000  1.0
  C  C18  1  0.65653000  0.71993000  0.27479000  1.0
  C  C19  1  0.28413000  0.35026000  0.59542000  1.0
  C  C20  1  0.71588000  0.64972000  0.40457000  1.0
  C  C21  1  0.03629000  0.46917000  0.56944000  1.0
  C  C22  1  0.96374000  0.53081000  0.43057000  1.0
  C  C23  1  0.86111000  0.52363000  0.68322000  1.0
  C  C24  1  0.13891000  0.47635000  0.31678000  1.0
  C  C25  1  0.92599000  0.45115000  0.81157000  1.0
  C  C26  1  0.07401000  0.54883000  0.18843000  1.0
  C  C27  1  0.04067000  0.94962000  0.69562000  1.0
  C  C28  1  0.95934000  0.05043000  0.30439000  1.0
  C  C29  1  0.91140000  0.02039000  0.56389000  1.0
  C  C30  1  0.08858000  0.97966000  0.43610000  1.0
  N  N31  1  0.16142000  0.32532000  0.83056000  1.0
  N  N32  1  0.83861000  0.67469000  0.16943000  1.0
  O  O33  1  0.20833000  0.23950000  0.95189000  1.0
  O  O34  1  0.79171000  0.76058000  0.04813000  1.0
  O  O35  1  0.89631000  0.00835000  0.80313000  1.0
  O  O36  1  0.10367000  0.99173000  0.19687000  1.0
  O  O37  1  0.27144000  0.84333000  0.69317000  1.0
  O  O38  1  0.72851000  0.15666000  0.30683000  1.0
  O  O39  1  0.66699000  0.22182000  0.04650000  1.0
  O  O40  1  0.33306000  0.77812000  0.95352000  1.0
