# generated using pymatgen
data_MnH24C26S2(N3O)2
_symmetry_space_group_name_H-M   'P 1'
_cell_length_a   5.64441000
_cell_length_b   8.55923000
_cell_length_c   12.98750000
_cell_angle_alpha   87.12510000
_cell_angle_beta   85.61320000
_cell_angle_gamma   75.05880000
_symmetry_Int_Tables_number   1
_chemical_formula_structural   MnH24C26S2(N3O)2
_chemical_formula_sum   'Mn1 H24 C26 S2 N6 O2'
_cell_volume   604.15831833
_cell_formula_units_Z   1
loop_
 _symmetry_equiv_pos_site_id
 _symmetry_equiv_pos_as_xyz
  1  'x, y, z'
loop_
 _atom_site_type_symbol
 _atom_site_label
 _atom_site_symmetry_multiplicity
 _atom_site_fract_x
 _atom_site_fract_y
 _atom_site_fract_z
 _atom_site_occupancy
  Mn  Mn0  1  0.99998000  0.00000000  0.50001000  1.0
  H  H1  1  0.65566000  0.78854000  0.37581000  1.0
  H  H2  1  0.34432000  0.21146000  0.62419000  1.0
  H  H3  1  0.38053000  0.64203000  0.46955000  1.0
  H  H4  1  0.61946000  0.35798000  0.53045000  1.0
  H  H5  1  0.28281000  0.39196000  0.36244000  1.0
  H  H6  1  0.71720000  0.60804000  0.63756000  1.0
  H  H7  1  0.61092000  0.54814000  0.29259000  1.0
  H  H8  1  0.38908000  0.45185000  0.70741000  1.0
  H  H9  1  0.79244000  0.36318000  0.34236000  1.0
  H  H10  1  0.20757000  0.63681000  0.65764000  1.0
  H  H11  1  0.93679000  0.54214000  0.14514000  1.0
  H  H12  1  0.06321000  0.45786000  0.85486000  1.0
  H  H13  1  0.10839000  0.35626000  0.19350000  1.0
  H  H14  1  0.89161000  0.64374000  0.80650000  1.0
  H  H15  1  0.25397000  0.19713000  0.07604000  1.0
  H  H16  1  0.74605000  0.80287000  0.92396000  1.0
  H  H17  1  0.41315000  0.05613000  0.91269000  1.0
  H  H18  1  0.58687000  0.94388000  0.08730000  1.0
  H  H19  1  0.13484000  0.06166000  0.77331000  1.0
  H  H20  1  0.86517000  0.93833000  0.22669000  1.0
  H  H21  1  0.69506000  0.21295000  0.79468000  1.0
  H  H22  1  0.30495000  0.78705000  0.20532000  1.0
  H  H23  1  0.52953000  0.34389000  0.96217000  1.0
  H  H24  1  0.47049000  0.65611000  0.03782000  1.0
  C  C25  1  0.84091000  0.71738000  0.38801000  1.0
  C  C26  1  0.15908000  0.28263000  0.61199000  1.0
  C  C27  1  0.21645000  0.63526000  0.43365000  1.0
  C  C28  1  0.78354000  0.36475000  0.56634000  1.0
  C  C29  1  0.17090000  0.51109000  0.38189000  1.0
  C  C30  1  0.82910000  0.48893000  0.61811000  1.0
  C  C31  1  0.80003000  0.47425000  0.29735000  1.0
  C  C32  1  0.19997000  0.52575000  0.70265000  1.0
  C  C33  1  0.91944000  0.43207000  0.18986000  1.0
  C  C34  1  0.08056000  0.56792000  0.81014000  1.0
  C  C35  1  0.76851000  0.35120000  0.12937000  1.0
  C  C36  1  0.23151000  0.64880000  0.87063000  1.0
  C  C37  1  0.87914000  0.27806000  0.02957000  1.0
  C  C38  1  0.12086000  0.72194000  0.97043000  1.0
  C  C39  1  0.13023000  0.20011000  0.01496000  1.0
  C  C40  1  0.86977000  0.79990000  0.98504000  1.0
  C  C41  1  0.22012000  0.12109000  0.92316000  1.0
  C  C42  1  0.77989000  0.87891000  0.07684000  1.0
  C  C43  1  0.06343000  0.12457000  0.84444000  1.0
  C  C44  1  0.93659000  0.87543000  0.15556000  1.0
  C  C45  1  0.81560000  0.20824000  0.85699000  1.0
  C  C46  1  0.18441000  0.79176000  0.14301000  1.0
  C  C47  1  0.72323000  0.28205000  0.94977000  1.0
  C  C48  1  0.27678000  0.71795000  0.05023000  1.0
  C  C49  1  0.50341000  0.09068000  0.38125000  1.0
  C  C50  1  0.49659000  0.90932000  0.61876000  1.0
  S  S51  1  0.27019000  0.06371000  0.32536000  1.0
  S  S52  1  0.72978000  0.93628000  0.67465000  1.0
  N  N53  1  0.00947000  0.76392000  0.43696000  1.0
  N  N54  1  0.99052000  0.23609000  0.56304000  1.0
  N  N55  1  0.93211000  0.56512000  0.35351000  1.0
  N  N56  1  0.06789000  0.43488000  0.64649000  1.0
  N  N57  1  0.67535000  0.10855000  0.42238000  1.0
  N  N58  1  0.32462000  0.89144000  0.57763000  1.0
  O  O59  1  0.55569000  0.35011000  0.15944000  1.0
  O  O60  1  0.44431000  0.64989000  0.84055000  1.0
