# generated using pymatgen
data_Cu2P2H12C8N2O7
_symmetry_space_group_name_H-M   'P 1'
_cell_length_a   5.41822000
_cell_length_b   9.20582000
_cell_length_c   13.14240000
_cell_angle_alpha   99.28730000
_cell_angle_beta   91.14030000
_cell_angle_gamma   98.82230000
_symmetry_Int_Tables_number   1
_chemical_formula_structural   Cu2P2H12C8N2O7
_chemical_formula_sum   'Cu4 P4 H24 C16 N4 O14'
_cell_volume   638.61425810
_cell_formula_units_Z   2
loop_
 _symmetry_equiv_pos_site_id
 _symmetry_equiv_pos_as_xyz
  1  'x, y, z'
loop_
 _atom_site_type_symbol
 _atom_site_label
 _atom_site_symmetry_multiplicity
 _atom_site_fract_x
 _atom_site_fract_y
 _atom_site_fract_z
 _atom_site_occupancy
  Cu  Cu0  1  0.28133000  0.03610000  0.54346000  1.0
  Cu  Cu1  1  0.71866000  0.96389000  0.45654000  1.0
  Cu  Cu2  1  0.86650000  0.74870000  0.14607000  1.0
  Cu  Cu3  1  0.13347000  0.25130000  0.85393000  1.0
  P  P4  1  0.74127000  0.13042000  0.67859000  1.0
  P  P5  1  0.25870000  0.86958000  0.32140000  1.0
  P  P6  1  0.52223000  0.80655000  0.63678000  1.0
  P  P7  1  0.47778000  0.19345000  0.36323000  1.0
  H  H8  1  0.68166000  0.07440000  0.88541000  1.0
  H  H9  1  0.31834000  0.92560000  0.11459000  1.0
  H  H10  1  0.38903000  0.01702000  0.81650000  1.0
  H  H11  1  0.61096000  0.98299000  0.18349000  1.0
  H  H12  1  0.14328000  0.76446000  0.82594000  1.0
  H  H13  1  0.85671000  0.23554000  0.17404000  1.0
  H  H14  1  0.06046000  0.57823000  0.94474000  1.0
  H  H15  1  0.93952000  0.42177000  0.05524000  1.0
  H  H16  1  0.37906000  0.57849000  0.08614000  1.0
  H  H17  1  0.62091000  0.42152000  0.91384000  1.0
  H  H18  1  0.86737000  0.90923000  0.98063000  1.0
  H  H19  1  0.13259000  0.09079000  0.01938000  1.0
  H  H20  1  0.04503000  0.89777000  0.69932000  1.0
  H  H21  1  0.95496000  0.10224000  0.30068000  1.0
  H  H22  1  0.76074000  0.65893000  0.45155000  1.0
  H  H23  1  0.23929000  0.34106000  0.54847000  1.0
  H  H24  1  0.89510000  0.56347000  0.60338000  1.0
  H  H25  1  0.10492000  0.43651000  0.39665000  1.0
  H  H26  1  0.80080000  0.37993000  0.53300000  1.0
  H  H27  1  0.19923000  0.62005000  0.46703000  1.0
  H  H28  1  0.30566000  0.51221000  0.63052000  1.0
  H  H29  1  0.69437000  0.48778000  0.36950000  1.0
  H  H30  1  0.09703000  0.36739000  0.66047000  1.0
  H  H31  1  0.90303000  0.63260000  0.33955000  1.0
  C  C32  1  0.70570000  0.95516000  0.73458000  1.0
  C  C33  1  0.29431000  0.04485000  0.26541000  1.0
  C  C34  1  0.56600000  0.98053000  0.83465000  1.0
  C  C35  1  0.43399000  0.01947000  0.16534000  1.0
  C  C36  1  0.51337000  0.85369000  0.89437000  1.0
  C  C37  1  0.48659000  0.14631000  0.10562000  1.0
  C  C38  1  0.28508000  0.75621000  0.88373000  1.0
  C  C39  1  0.71489000  0.24379000  0.11627000  1.0
  C  C40  1  0.23752000  0.65388000  0.95103000  1.0
  C  C41  1  0.76245000  0.34613000  0.04894000  1.0
  C  C42  1  0.41448000  0.65051000  0.02828000  1.0
  C  C43  1  0.58549000  0.34949000  0.97171000  1.0
  C  C44  1  0.68572000  0.83807000  0.97019000  1.0
  C  C45  1  0.31426000  0.16194000  0.02982000  1.0
  C  C46  1  0.95631000  0.47317000  0.54949000  1.0
  C  C47  1  0.04373000  0.52681000  0.45053000  1.0
  N  N48  1  0.63886000  0.74049000  0.03710000  1.0
  N  N49  1  0.36110000  0.25952000  0.96289000  1.0
  N  N50  1  0.16445000  0.42022000  0.60052000  1.0
  N  N51  1  0.83559000  0.57977000  0.39951000  1.0
  O  O52  1  0.89779000  0.26066000  0.75438000  1.0
  O  O53  1  0.10221000  0.73936000  0.24562000  1.0
  O  O54  1  0.88847000  0.10031000  0.57962000  1.0
  O  O55  1  0.11154000  0.89970000  0.42037000  1.0
  O  O56  1  0.48021000  0.16979000  0.65997000  1.0
  O  O57  1  0.51981000  0.83019000  0.34003000  1.0
  O  O58  1  0.94500000  0.92245000  0.76146000  1.0
  O  O59  1  0.05500000  0.07756000  0.23854000  1.0
  O  O60  1  0.49080000  0.66130000  0.67826000  1.0
  O  O61  1  0.50924000  0.33870000  0.32174000  1.0
  O  O62  1  0.27082000  0.86375000  0.61842000  1.0
  O  O63  1  0.72921000  0.13624000  0.38157000  1.0
  O  O64  1  0.67307000  0.79871000  0.53741000  1.0
  O  O65  1  0.32692000  0.20128000  0.46258000  1.0
