# generated using pymatgen
data_CdH14C14(N4O)2
_symmetry_space_group_name_H-M   'P 1'
_cell_length_a   3.76629000
_cell_length_b   12.82920000
_cell_length_c   16.88010000
_cell_angle_alpha   90.00010000
_cell_angle_beta   90.00020000
_cell_angle_gamma   86.18410000
_symmetry_Int_Tables_number   1
_chemical_formula_structural   CdH14C14(N4O)2
_chemical_formula_sum   'Cd2 H28 C28 N16 O4'
_cell_volume   813.81270344
_cell_formula_units_Z   2
loop_
 _symmetry_equiv_pos_site_id
 _symmetry_equiv_pos_as_xyz
  1  'x, y, z'
loop_
 _atom_site_type_symbol
 _atom_site_label
 _atom_site_symmetry_multiplicity
 _atom_site_fract_x
 _atom_site_fract_y
 _atom_site_fract_z
 _atom_site_occupancy
  Cd  Cd0  1  0.00000000  0.50000000  0.50000000  1.0
  Cd  Cd1  1  0.00000000  0.00000000  0.00000000  1.0
  H  H2  1  0.21544000  0.58905000  0.32972000  1.0
  H  H3  1  0.78456000  0.91094000  0.82973000  1.0
  H  H4  1  0.78456000  0.41095000  0.67028000  1.0
  H  H5  1  0.21544000  0.08906000  0.17028000  1.0
  H  H6  1  0.92866000  0.38072000  0.14258000  1.0
  H  H7  1  0.07134000  0.11927000  0.64258000  1.0
  H  H8  1  0.07135000  0.61928000  0.85742000  1.0
  H  H9  1  0.92866000  0.88072000  0.35742000  1.0
  H  H10  1  0.72842000  0.26004000  0.24720000  1.0
  H  H11  1  0.27157000  0.23995000  0.74720000  1.0
  H  H12  1  0.27158000  0.73996000  0.75280000  1.0
  H  H13  1  0.72843000  0.76005000  0.25280000  1.0
  H  H14  1  0.78052000  0.31028000  0.38877000  1.0
  H  H15  1  0.21948000  0.18972000  0.88877000  1.0
  H  H16  1  0.21948000  0.68972000  0.61123000  1.0
  H  H17  1  0.78052000  0.81028000  0.11123000  1.0
  H  H18  1  0.85865000  0.55709000  0.07388000  1.0
  H  H19  1  0.14133000  0.94290000  0.57388000  1.0
  H  H20  1  0.14134000  0.44291000  0.92612000  1.0
  H  H21  1  0.85867000  0.05710000  0.42612000  1.0
  H  H22  1  0.25863000  0.47837000  0.06548000  1.0
  H  H23  1  0.74136000  0.02163000  0.56549000  1.0
  H  H24  1  0.74137000  0.52164000  0.93452000  1.0
  H  H25  1  0.25864000  0.97837000  0.43451000  1.0
  H  H26  1  0.25948000  0.61677000  0.04864000  1.0
  H  H27  1  0.74051000  0.88322000  0.54864000  1.0
  H  H28  1  0.74051000  0.38323000  0.95136000  1.0
  H  H29  1  0.25949000  0.11678000  0.45136000  1.0
  C  C30  1  0.10766000  0.51690000  0.30948000  1.0
  C  C31  1  0.89233000  0.98310000  0.80948000  1.0
  C  C32  1  0.89234000  0.48310000  0.69052000  1.0
  C  C33  1  0.10766000  0.01691000  0.19052000  1.0
  C  C34  1  0.08992000  0.49521000  0.22837000  1.0
  C  C35  1  0.91008000  0.00479000  0.72837000  1.0
  C  C36  1  0.91008000  0.50479000  0.77163000  1.0
  C  C37  1  0.08992000  0.99521000  0.27163000  1.0
  C  C38  1  0.95037000  0.40150000  0.20486000  1.0
  C  C39  1  0.04963000  0.09849000  0.70486000  1.0
  C  C40  1  0.04963000  0.59850000  0.79514000  1.0
  C  C41  1  0.95038000  0.90151000  0.29514000  1.0
  C  C42  1  0.84030000  0.33333333  0.26259000  1.0
  C  C43  1  0.15970000  0.16667000  0.76259000  1.0
  C  C44  1  0.15970000  0.66666667  0.73741000  1.0
  C  C45  1  0.84031000  0.83333000  0.23742000  1.0
  C  C46  1  0.86880000  0.36095000  0.34190000  1.0
  C  C47  1  0.13120000  0.13905000  0.84190000  1.0
  C  C48  1  0.13120000  0.63905000  0.65810000  1.0
  C  C49  1  0.86881000  0.86095000  0.15810000  1.0
  C  C50  1  0.22058000  0.57203000  0.17058000  1.0
  C  C51  1  0.77942000  0.92796000  0.67058000  1.0
  C  C52  1  0.77942000  0.42797000  0.82942000  1.0
  C  C53  1  0.22058000  0.07204000  0.32942000  1.0
  C  C54  1  0.14665000  0.55586000  0.08437000  1.0
  C  C55  1  0.85333000  0.94413000  0.58437000  1.0
  C  C56  1  0.85334000  0.44414000  0.91563000  1.0
  C  C57  1  0.14667000  0.05587000  0.41563000  1.0
  N  N58  1  0.47192000  0.61317000  0.47512000  1.0
  N  N59  1  0.52808000  0.88683000  0.97513000  1.0
  N  N60  1  0.52807000  0.38684000  0.52487000  1.0
  N  N61  1  0.47192000  0.11316000  0.02487000  1.0
  N  N62  1  0.46941000  0.70384000  0.45600000  1.0
  N  N63  1  0.53058000  0.79615000  0.95600000  1.0
  N  N64  1  0.53059000  0.29616000  0.54400000  1.0
  N  N65  1  0.46941000  0.20384000  0.04400000  1.0
  N  N66  1  0.46958000  0.79159000  0.43754000  1.0
  N  N67  1  0.53043000  0.70840000  0.93754000  1.0
  N  N68  1  0.53043000  0.20841000  0.56246000  1.0
  N  N69  1  0.46957000  0.29159000  0.06246000  1.0
  N  N70  1  0.99827000  0.45171000  0.36509000  1.0
  N  N71  1  0.00173000  0.04829000  0.86508000  1.0
  N  N72  1  0.00173000  0.54830000  0.63492000  1.0
  N  N73  1  0.99828000  0.95171000  0.13491000  1.0
  O  O74  1  0.38898000  0.64550000  0.19394000  1.0
  O  O75  1  0.61103000  0.85449000  0.69394000  1.0
  O  O76  1  0.61102000  0.35450000  0.80606000  1.0
  O  O77  1  0.38898000  0.14551000  0.30606000  1.0
