# generated using pymatgen
data_CoH16C20N6O5
_symmetry_space_group_name_H-M   'P 1'
_cell_length_a   9.03632000
_cell_length_b   10.00720000
_cell_length_c   11.34460000
_cell_angle_alpha   81.32070000
_cell_angle_beta   85.43150000
_cell_angle_gamma   70.94470000
_symmetry_Int_Tables_number   1
_chemical_formula_structural   CoH16C20N6O5
_chemical_formula_sum   'Co2 H32 C40 N12 O10'
_cell_volume   958.04765991
_cell_formula_units_Z   2
loop_
 _symmetry_equiv_pos_site_id
 _symmetry_equiv_pos_as_xyz
  1  'x, y, z'
loop_
 _atom_site_type_symbol
 _atom_site_label
 _atom_site_symmetry_multiplicity
 _atom_site_fract_x
 _atom_site_fract_y
 _atom_site_fract_z
 _atom_site_occupancy
  Co  Co0  1  0.50027000  0.31378000  0.61463000  1.0
  Co  Co1  1  0.49973000  0.68622000  0.38537000  1.0
  H  H2  1  0.46853000  0.25320000  0.89161000  1.0
  H  H3  1  0.53147000  0.74680000  0.10839000  1.0
  H  H4  1  0.15194000  0.04099000  0.81373000  1.0
  H  H5  1  0.84805000  0.95902000  0.18627000  1.0
  H  H6  1  0.25435000  0.95287000  0.01816000  1.0
  H  H7  1  0.74565000  0.04713000  0.98184000  1.0
  H  H8  1  0.21594000  0.73315000  0.13003000  1.0
  H  H9  1  0.78406000  0.26685000  0.86997000  1.0
  H  H10  1  0.07285000  0.60381000  0.03800000  1.0
  H  H11  1  0.92715000  0.39619000  0.96200000  1.0
  H  H12  1  0.88853000  0.61237000  0.89102000  1.0
  H  H13  1  0.11147000  0.38763000  0.10897000  1.0
  H  H14  1  0.87093000  0.72251000  0.75244000  1.0
  H  H15  1  0.12907000  0.27749000  0.24756000  1.0
  H  H16  1  0.87393000  0.93184000  0.67877000  1.0
  H  H17  1  0.12607000  0.06817000  0.32123000  1.0
  H  H18  1  0.99401000  0.04260000  0.66587000  1.0
  H  H19  1  0.00599000  0.95741000  0.33413000  1.0
  H  H20  1  0.14496000  0.29055000  0.60643000  1.0
  H  H21  1  0.85504000  0.70945000  0.39357000  1.0
  H  H22  1  0.29337000  0.55282000  0.79363000  1.0
  H  H23  1  0.70663000  0.44718000  0.20637000  1.0
  H  H24  1  0.14757000  0.63133000  0.40739000  1.0
  H  H25  1  0.85243000  0.36868000  0.59261000  1.0
  H  H26  1  0.29873000  0.90950000  0.57468000  1.0
  H  H27  1  0.70127000  0.09050000  0.42532000  1.0
  H  H28  1  0.43545000  0.15353000  0.40283000  1.0
  H  H29  1  0.56455000  0.84646000  0.59718000  1.0
  H  H30  1  0.42963000  0.06930000  0.04224000  1.0
  H  H31  1  0.57037000  0.93069000  0.95776000  1.0
  H  H32  1  0.42571000  0.48355000  0.10799000  1.0
  H  H33  1  0.57429000  0.51645000  0.89202000  1.0
  C  C34  1  0.03561000  0.74529000  0.87235000  1.0
  C  C35  1  0.96439000  0.25471000  0.12764000  1.0
  C  C36  1  0.05724000  0.87042000  0.80890000  1.0
  C  C37  1  0.94276000  0.12958000  0.19110000  1.0
  C  C38  1  0.13660000  0.94338000  0.86251000  1.0
  C  C39  1  0.86340000  0.05662000  0.13749000  1.0
  C  C40  1  0.19391000  0.89477000  0.97695000  1.0
  C  C41  1  0.80609000  0.10523000  0.02305000  1.0
  C  C42  1  0.17135000  0.77199000  0.04049000  1.0
  C  C43  1  0.82865000  0.22801000  0.95950000  1.0
  C  C44  1  0.09223000  0.69891000  0.98790000  1.0
  C  C45  1  0.90777000  0.30109000  0.01210000  1.0
  C  C46  1  0.95456000  0.65876000  0.82046000  1.0
  C  C47  1  0.04544000  0.34124000  0.17954000  1.0
  C  C48  1  0.99421000  0.93180000  0.68590000  1.0
  C  C49  1  0.00579000  0.06820000  0.31409000  1.0
  C  C50  1  0.14347000  0.37059000  0.66174000  1.0
  C  C51  1  0.85654000  0.62941000  0.33826000  1.0
  C  C52  1  0.22259000  0.50403000  0.75357000  1.0
  C  C53  1  0.77741000  0.49597000  0.24643000  1.0
  C  C54  1  0.15071000  0.70845000  0.46419000  1.0
  C  C55  1  0.84928000  0.29155000  0.53581000  1.0
  C  C56  1  0.23091000  0.84813000  0.54787000  1.0
  C  C57  1  0.76908000  0.15188000  0.45213000  1.0
  C  C58  1  0.42531000  0.32995000  0.26362000  1.0
  C  C59  1  0.57469000  0.67005000  0.73639000  1.0
  C  C60  1  0.43398000  0.18905000  0.30725000  1.0
  C  C61  1  0.56602000  0.81095000  0.69275000  1.0
  C  C62  1  0.43989000  0.09453000  0.22642000  1.0
  C  C63  1  0.56010000  0.90547000  0.77358000  1.0
  C  C64  1  0.43147000  0.14208000  0.10381000  1.0
  C  C65  1  0.56853000  0.85792000  0.89619000  1.0
  C  C66  1  0.42879000  0.28148000  0.06035000  1.0
  C  C67  1  0.57121000  0.71851000  0.93966000  1.0
  C  C68  1  0.42574000  0.37547000  0.14092000  1.0
  C  C69  1  0.57426000  0.62452000  0.85909000  1.0
  C  C70  1  0.42194000  0.43219000  0.34774000  1.0
  C  C71  1  0.57806000  0.56780000  0.65226000  1.0
  C  C72  1  0.45956000  0.94173000  0.27058000  1.0
  C  C73  1  0.54044000  0.05826000  0.72943000  1.0
  N  N74  1  0.06556000  0.54144000  0.76368000  1.0
  N  N75  1  0.93444000  0.45856000  0.23632000  1.0
  N  N76  1  0.01230000  0.45703000  0.70577000  1.0
  N  N77  1  0.98770000  0.54298000  0.29422000  1.0
  N  N78  1  0.27567000  0.39532000  0.68917000  1.0
  N  N79  1  0.72434000  0.60468000  0.31084000  1.0
  N  N80  1  0.08588000  0.85379000  0.59075000  1.0
  N  N81  1  0.91412000  0.14621000  0.40924000  1.0
  N  N82  1  0.03215000  0.76572000  0.53770000  1.0
  N  N83  1  0.96785000  0.23429000  0.46230000  1.0
  N  N84  1  0.27543000  0.75652000  0.46738000  1.0
  N  N85  1  0.72456000  0.24348000  0.53262000  1.0
  O  O86  1  0.40809000  0.39465000  0.45930000  1.0
  O  O87  1  0.59191000  0.60535000  0.54070000  1.0
  O  O88  1  0.43190000  0.55374000  0.30221000  1.0
  O  O89  1  0.56811000  0.44626000  0.69780000  1.0
  O  O90  1  0.50427000  0.89353000  0.37741000  1.0
  O  O91  1  0.49573000  0.10646000  0.62259000  1.0
  O  O92  1  0.43194000  0.86124000  0.20377000  1.0
  O  O93  1  0.56806000  0.13876000  0.79623000  1.0
  O  O94  1  0.42824000  0.33150000  0.94265000  1.0
  O  O95  1  0.57176000  0.66850000  0.05735000  1.0
