# generated using pymatgen
data_Mn3H30(C22O7)2
_symmetry_space_group_name_H-M   'P 1'
_cell_length_a   13.61920000
_cell_length_b   16.39250000
_cell_length_c   17.16860000
_cell_angle_alpha   66.04860000
_cell_angle_beta   66.64160000
_cell_angle_gamma   65.46260000
_symmetry_Int_Tables_number   1
_chemical_formula_structural   Mn3H30(C22O7)2
_chemical_formula_sum   'Mn6 H60 C88 O28'
_cell_volume   3064.48125690
_cell_formula_units_Z   2
loop_
 _symmetry_equiv_pos_site_id
 _symmetry_equiv_pos_as_xyz
  1  'x, y, z'
loop_
 _atom_site_type_symbol
 _atom_site_label
 _atom_site_symmetry_multiplicity
 _atom_site_fract_x
 _atom_site_fract_y
 _atom_site_fract_z
 _atom_site_occupancy
  Mn  Mn0  1  0.54607000  0.24995000  0.75000000  1.0
  Mn  Mn1  1  0.45397000  0.75005000  0.24993000  1.0
  Mn  Mn2  1  0.51853000  0.46967000  0.60235000  1.0
  Mn  Mn3  1  0.59072000  0.03033000  0.89759000  1.0
  Mn  Mn4  1  0.48145000  0.53035000  0.39770000  1.0
  Mn  Mn5  1  0.40924000  0.96970000  0.10241000  1.0
  H  H6  1  0.59764000  0.59410000  0.74495000  1.0
  H  H7  1  0.93700000  0.90571000  0.75519000  1.0
  H  H8  1  0.40237000  0.40590000  0.25506000  1.0
  H  H9  1  0.06300000  0.09428000  0.24482000  1.0
  H  H10  1  0.69776000  0.62134000  0.82216000  1.0
  H  H11  1  0.14147000  0.87870000  0.67787000  1.0
  H  H12  1  0.30226000  0.37865000  0.17784000  1.0
  H  H13  1  0.85852000  0.12130000  0.32214000  1.0
  H  H14  1  0.83992000  0.32325000  0.92274000  1.0
  H  H15  1  0.08560000  0.17685000  0.57686000  1.0
  H  H16  1  0.16009000  0.67674000  0.07725000  1.0
  H  H17  1  0.91440000  0.82315000  0.42314000  1.0
  H  H18  1  0.73614000  0.29724000  0.84702000  1.0
  H  H19  1  0.88014000  0.20265000  0.65267000  1.0
  H  H20  1  0.26388000  0.70276000  0.15299000  1.0
  H  H21  1  0.11986000  0.79734000  0.34733000  1.0
  H  H22  1  0.84112000  0.42940000  0.98587000  1.0
  H  H23  1  0.25628000  0.07075000  0.51396000  1.0
  H  H24  1  0.15889000  0.57060000  0.01414000  1.0
  H  H25  1  0.74372000  0.92924000  0.48604000  1.0
  H  H26  1  0.64912000  0.51369000  0.05213000  1.0
  H  H27  1  0.21464000  0.98641000  0.44783000  1.0
  H  H28  1  0.35088000  0.48631000  0.94788000  1.0
  H  H29  1  0.78536000  0.01359000  0.55218000  1.0
  H  H30  1  0.52958000  0.65726000  0.09978000  1.0
  H  H31  1  0.28635000  0.84286000  0.40013000  1.0
  H  H32  1  0.47041000  0.34275000  0.90021000  1.0
  H  H33  1  0.71365000  0.15715000  0.59987000  1.0
  H  H34  1  0.76365000  0.80374000  0.90477000  1.0
  H  H35  1  0.47217000  0.69649000  0.59500000  1.0
  H  H36  1  0.23635000  0.19625000  0.09523000  1.0
  H  H37  1  0.52783000  0.30351000  0.40500000  1.0
  H  H38  1  0.88580000  0.65883000  0.85850000  1.0
  H  H39  1  0.40303000  0.84141000  0.64132000  1.0
  H  H40  1  0.11420000  0.34117000  0.14150000  1.0
  H  H41  1  0.59697000  0.15859000  0.35868000  1.0
  H  H42  1  0.02212000  0.38497000  0.98623000  1.0
  H  H43  1  0.39337000  0.11507000  0.51361000  1.0
  H  H44  1  0.97789000  0.61502000  0.01377000  1.0
  H  H45  1  0.60663000  0.88492000  0.48639000  1.0
  H  H46  1  0.22322000  0.35031000  0.90196000  1.0
  H  H47  1  0.47563000  0.14963000  0.59794000  1.0
  H  H48  1  0.77679000  0.64968000  0.09803000  1.0
  H  H49  1  0.52437000  0.85036000  0.40206000  1.0
  H  H50  1  0.13343000  0.53306000  0.66134000  1.0
  H  H51  1  0.32781000  0.96695000  0.83851000  1.0
  H  H52  1  0.86657000  0.46693000  0.33866000  1.0
  H  H53  1  0.67221000  0.03303000  0.16149000  1.0
  H  H54  1  0.93209000  0.56159000  0.74354000  1.0
  H  H55  1  0.23713000  0.93851000  0.75625000  1.0
  H  H56  1  0.06791000  0.43841000  0.25646000  1.0
  H  H57  1  0.76288000  0.06147000  0.24375000  1.0
  H  H58  1  0.69068000  0.49135000  0.44641000  1.0
  H  H59  1  0.62829000  0.00873000  0.05362000  1.0
  H  H60  1  0.30931000  0.50867000  0.55360000  1.0
  H  H61  1  0.37170000  0.99128000  0.94639000  1.0
  H  H62  1  0.74348000  0.40327000  0.51715000  1.0
  H  H63  1  0.66380000  0.09680000  0.98294000  1.0
  H  H64  1  0.25645000  0.59675000  0.48289000  1.0
  H  H65  1  0.33622000  0.90320000  0.01707000  1.0
  C  C66  1  0.60180000  0.42665000  0.74628000  1.0
  C  C67  1  0.77484000  0.07298000  0.75379000  1.0
  C  C68  1  0.39820000  0.57335000  0.25373000  1.0
  C  C69  1  0.22515000  0.92703000  0.24621000  1.0
  C  C70  1  0.66052000  0.44408000  0.79225000  1.0
  C  C71  1  0.89688000  0.05575000  0.70768000  1.0
  C  C72  1  0.33948000  0.55591000  0.20775000  1.0
  C  C73  1  0.10312000  0.94425000  0.29232000  1.0
  C  C74  1  0.65060000  0.53536000  0.78446000  1.0
  C  C75  1  0.97061000  0.96451000  0.71556000  1.0
  C  C76  1  0.34941000  0.46463000  0.21554000  1.0
  C  C77  1  0.02938000  0.03548000  0.28444000  1.0
  C  C78  1  0.70749000  0.55009000  0.82702000  1.0
  C  C79  1  0.08473000  0.94992000  0.67296000  1.0
  C  C80  1  0.29253000  0.44991000  0.17298000  1.0
  C  C81  1  0.91527000  0.05008000  0.32704000  1.0
  C  C82  1  0.77581000  0.47401000  0.87728000  1.0
  C  C83  1  0.12704000  0.02608000  0.62255000  1.0
  C  C84  1  0.22420000  0.52598000  0.12272000  1.0
  C  C85  1  0.87295000  0.97392000  0.37745000  1.0
  C  C86  1  0.78609000  0.38274000  0.88424000  1.0
  C  C87  1  0.05288000  0.11729000  0.61548000  1.0
  C  C88  1  0.21391000  0.61725000  0.11576000  1.0
  C  C89  1  0.94712000  0.88271000  0.38452000  1.0
  C  C90  1  0.72884000  0.36772000  0.84243000  1.0
  C  C91  1  0.93881000  0.13219000  0.65733000  1.0
  C  C92  1  0.27116000  0.63227000  0.15757000  1.0
  C  C93  1  0.06119000  0.86780000  0.34267000  1.0
  C  C94  1  0.84012000  0.48760000  0.92401000  1.0
  C  C95  1  0.25161000  0.01255000  0.57582000  1.0
  C  C96  1  0.15989000  0.51239000  0.07600000  1.0
  C  C97  1  0.74838000  0.98744000  0.42419000  1.0
  C  C98  1  0.77566000  0.57663000  0.95226000  1.0
  C  C99  1  0.30439000  0.92351000  0.54760000  1.0
  C  C100  1  0.22435000  0.42337000  0.04774000  1.0
  C  C101  1  0.69561000  0.07648000  0.45240000  1.0
  C  C102  1  0.67490000  0.57710000  0.02033000  1.0
  C  C103  1  0.27208000  0.92302000  0.47958000  1.0
  C  C104  1  0.32510000  0.42289000  0.97968000  1.0
  C  C105  1  0.72792000  0.07698000  0.52042000  1.0
  C  C106  1  0.60732000  0.65707000  0.04679000  1.0
  C  C107  1  0.31097000  0.84308000  0.45308000  1.0
  C  C108  1  0.39268000  0.34292000  0.95321000  1.0
  C  C109  1  0.68903000  0.15693000  0.54691000  1.0
  C  C110  1  0.63946000  0.73908000  0.00509000  1.0
  C  C111  1  0.38355000  0.76113000  0.49472000  1.0
  C  C112  1  0.36054000  0.26092000  0.99491000  1.0
  C  C113  1  0.61645000  0.23889000  0.50528000  1.0
  C  C114  1  0.73963000  0.73957000  0.93680000  1.0
  C  C115  1  0.41593000  0.76065000  0.56301000  1.0
  C  C116  1  0.26037000  0.26043000  0.06320000  1.0
  C  C117  1  0.58406000  0.23935000  0.43699000  1.0
  C  C118  1  0.80753000  0.65850000  0.91112000  1.0
  C  C119  1  0.37700000  0.84169000  0.58874000  1.0
  C  C120  1  0.19247000  0.34150000  0.08888000  1.0
  C  C121  1  0.62299000  0.15831000  0.41126000  1.0
  C  C122  1  0.56880000  0.82410000  0.03390000  1.0
  C  C123  1  0.42674000  0.67609000  0.46591000  1.0
  C  C124  1  0.43121000  0.17590000  0.96609000  1.0
  C  C125  1  0.57326000  0.32394000  0.53405000  1.0
  C  C126  1  0.96246000  0.47592000  0.87111000  1.0
  C  C127  1  0.30946000  0.02417000  0.62872000  1.0
  C  C128  1  0.03754000  0.52407000  0.12889000  1.0
  C  C129  1  0.69054000  0.97582000  0.37128000  1.0
  C  C130  1  0.04606000  0.41736000  0.91474000  1.0
  C  C131  1  0.37820000  0.08268000  0.58511000  1.0
  C  C132  1  0.95395000  0.58263000  0.08526000  1.0
  C  C133  1  0.62181000  0.91731000  0.41489000  1.0
  C  C134  1  0.15902000  0.39801000  0.86806000  1.0
  C  C135  1  0.42518000  0.10198000  0.63181000  1.0
  C  C136  1  0.84098000  0.60198000  0.13194000  1.0
  C  C137  1  0.57483000  0.89801000  0.36819000  1.0
  C  C138  1  0.19214000  0.43916000  0.77637000  1.0
  C  C139  1  0.40768000  0.06084000  0.72350000  1.0
  C  C140  1  0.80786000  0.56084000  0.22363000  1.0
  C  C141  1  0.59233000  0.93915000  0.27650000  1.0
  C  C142  1  0.10912000  0.50047000  0.73264000  1.0
  C  C143  1  0.34221000  0.99955000  0.76721000  1.0
  C  C144  1  0.89088000  0.49952000  0.26736000  1.0
  C  C145  1  0.65780000  0.00043000  0.23279000  1.0
  C  C146  1  0.99569000  0.51738000  0.77928000  1.0
  C  C147  1  0.29230000  0.98269000  0.72055000  1.0
  C  C148  1  0.00430000  0.48262000  0.22072000  1.0
  C  C149  1  0.70771000  0.01730000  0.27946000  1.0
  C  C150  1  0.31476000  0.41530000  0.72907000  1.0
  C  C151  1  0.45914000  0.08468000  0.77086000  1.0
  C  C152  1  0.68524000  0.58470000  0.27093000  1.0
  C  C153  1  0.54087000  0.91532000  0.22914000  1.0
  O  O154  1  0.61294000  0.34208000  0.75761000  1.0
  O  O155  1  0.71261000  0.15750000  0.74255000  1.0
  O  O156  1  0.38707000  0.65792000  0.24238000  1.0
  O  O157  1  0.28739000  0.84251000  0.25743000  1.0
  O  O158  1  0.54510000  0.49771000  0.69662000  1.0
  O  O159  1  0.73972000  0.00184000  0.80352000  1.0
  O  O160  1  0.45486000  0.50229000  0.30341000  1.0
  O  O161  1  0.26026000  0.99818000  0.19650000  1.0
  O  O162  1  0.58970000  0.90141000  0.98870000  1.0
  O  O163  1  0.47974000  0.59878000  0.51116000  1.0
  O  O164  1  0.41033000  0.09858000  0.01128000  1.0
  O  O165  1  0.52026000  0.40124000  0.48879000  1.0
  O  O166  1  0.48498000  0.82048000  0.10410000  1.0
  O  O167  1  0.40950000  0.67965000  0.39573000  1.0
  O  O168  1  0.51501000  0.17953000  0.89589000  1.0
  O  O169  1  0.59047000  0.32040000  0.60424000  1.0
  O  O170  1  0.34806000  0.46839000  0.65058000  1.0
  O  O171  1  0.46712000  0.03158000  0.84933000  1.0
  O  O172  1  0.65194000  0.53162000  0.34942000  1.0
  O  O173  1  0.53289000  0.96843000  0.15067000  1.0
  O  O174  1  0.38069000  0.34495000  0.76951000  1.0
  O  O175  1  0.49506000  0.15509000  0.73043000  1.0
  O  O176  1  0.61931000  0.65505000  0.23048000  1.0
  O  O177  1  0.50495000  0.84491000  0.26956000  1.0
  O  O178  1  0.69550000  0.46789000  0.50869000  1.0
  O  O179  1  0.67200000  0.03218000  0.99138000  1.0
  O  O180  1  0.30447000  0.53214000  0.49132000  1.0
  O  O181  1  0.32799000  0.96783000  0.00863000  1.0
