# generated using pymatgen
data_ZnSiH24C28(N2F3)2
_symmetry_space_group_name_H-M   'P 1'
_cell_length_a   7.74453000
_cell_length_b   13.98030000
_cell_length_c   13.98040000
_cell_angle_alpha   90.04090000
_cell_angle_beta   89.75490000
_cell_angle_gamma   89.75450000
_symmetry_Int_Tables_number   1
_chemical_formula_structural   ZnSiH24C28(N2F3)2
_chemical_formula_sum   'Zn1 Si1 H24 C28 N4 F6'
_cell_volume   1513.64167958
_cell_formula_units_Z   1
loop_
 _symmetry_equiv_pos_site_id
 _symmetry_equiv_pos_as_xyz
  1  'x, y, z'
loop_
 _atom_site_type_symbol
 _atom_site_label
 _atom_site_symmetry_multiplicity
 _atom_site_fract_x
 _atom_site_fract_y
 _atom_site_fract_z
 _atom_site_occupancy
  Zn  Zn0  1  0.50001000  0.50000000  0.50000000  1.0
  Si  Si1  1  0.00001000  0.49999000  0.50000000  1.0
  H  H2  1  0.23114000  0.66511000  0.50008000  1.0
  H  H3  1  0.22776000  0.84348000  0.50009000  1.0
  H  H4  1  0.76772000  0.65942000  0.49996000  1.0
  H  H5  1  0.23231000  0.34057000  0.49990000  1.0
  H  H6  1  0.76887000  0.33488000  0.50006000  1.0
  H  H7  1  0.77227000  0.15651000  0.50007000  1.0
  H  H8  1  0.23115000  0.50004000  0.66511000  1.0
  H  H9  1  0.22775000  0.50001000  0.84348000  1.0
  H  H10  1  0.76772000  0.50011000  0.65943000  1.0
  H  H11  1  0.23231000  0.50004000  0.34058000  1.0
  H  H12  1  0.76887000  0.49981000  0.33488000  1.0
  H  H13  1  0.77226000  0.49983000  0.15651000  1.0
  H  H14  1  0.91222000  0.82480000  0.56313000  1.0
  H  H15  1  0.83021000  0.92598000  0.49984000  1.0
  H  H16  1  0.91326000  0.82448000  0.43691000  1.0
  H  H17  1  0.08708000  0.17511000  0.56329000  1.0
  H  H18  1  0.16982000  0.07401000  0.49963000  1.0
  H  H19  1  0.08749000  0.17558000  0.43708000  1.0
  H  H20  1  0.91291000  0.43669000  0.82488000  1.0
  H  H21  1  0.83019000  0.50033000  0.92599000  1.0
  H  H22  1  0.91254000  0.56290000  0.82444000  1.0
  H  H23  1  0.08778000  0.43691000  0.17519000  1.0
  H  H24  1  0.16979000  0.50021000  0.07403000  1.0
  H  H25  1  0.08678000  0.56312000  0.17554000  1.0
  C  C26  1  0.35092000  0.70555000  0.50007000  1.0
  C  C27  1  0.34981000  0.80455000  0.50005000  1.0
  C  C28  1  0.50697000  0.85519000  0.50003000  1.0
  C  C29  1  0.66317000  0.80237000  0.50002000  1.0
  C  C30  1  0.65031000  0.70263000  0.49999000  1.0
  C  C31  1  0.50410000  0.95638000  0.50003000  1.0
  C  C32  1  0.49592000  0.04360000  0.50005000  1.0
  C  C33  1  0.49306000  0.14479000  0.50003000  1.0
  C  C34  1  0.33686000  0.19762000  0.49996000  1.0
  C  C35  1  0.34971000  0.29735000  0.49994000  1.0
  C  C36  1  0.64910000  0.29444000  0.50002000  1.0
  C  C37  1  0.65021000  0.19544000  0.50006000  1.0
  C  C38  1  0.35093000  0.50007000  0.70556000  1.0
  C  C39  1  0.34980000  0.50002000  0.80455000  1.0
  C  C40  1  0.50696000  0.50002000  0.85520000  1.0
  C  C41  1  0.66317000  0.50006000  0.80237000  1.0
  C  C42  1  0.65032000  0.50009000  0.70265000  1.0
  C  C43  1  0.50409000  0.49997000  0.95641000  1.0
  C  C44  1  0.49590000  0.49998000  0.04360000  1.0
  C  C45  1  0.49304000  0.49994000  0.14480000  1.0
  C  C46  1  0.33685000  0.49999000  0.19764000  1.0
  C  C47  1  0.34972000  0.49999000  0.29736000  1.0
  C  C48  1  0.64910000  0.49985000  0.29444000  1.0
  C  C49  1  0.65021000  0.49988000  0.19544000  1.0
  C  C50  1  0.83864000  0.84768000  0.49997000  1.0
  C  C51  1  0.16138000  0.15230000  0.49998000  1.0
  C  C52  1  0.83863000  0.50000000  0.84770000  1.0
  C  C53  1  0.16138000  0.50007000  0.15232000  1.0
  N  N54  1  0.49994000  0.65496000  0.50001000  1.0
  N  N55  1  0.50008000  0.34503000  0.49999000  1.0
  N  N56  1  0.49994000  0.50007000  0.65497000  1.0
  N  N57  1  0.50009000  0.49993000  0.34503000  1.0
  F  F58  1  0.22644000  0.50141000  0.50143000  1.0
  F  F59  1  0.77358000  0.49857000  0.49858000  1.0
  F  F60  1  0.00001000  0.58605000  0.41393000  1.0
  F  F61  1  0.00000000  0.41394000  0.58607000  1.0
  F  F62  1  0.99576000  0.58613000  0.58613000  1.0
  F  F63  1  0.00426000  0.41386000  0.41387000  1.0
