# generated using pymatgen
data_Zn2H3C12S2ClO7
_symmetry_space_group_name_H-M   'P 1'
_cell_length_a   19.66680000
_cell_length_b   19.69360000
_cell_length_c   33.37100000
_cell_angle_alpha   79.10580000
_cell_angle_beta   79.18460000
_cell_angle_gamma   63.94670000
_symmetry_Int_Tables_number   1
_chemical_formula_structural   Zn2H3C12S2ClO7
_chemical_formula_sum   'Zn16 H24 C96 S16 Cl8 O56'
_cell_volume   11321.81500787
_cell_formula_units_Z   8
loop_
 _symmetry_equiv_pos_site_id
 _symmetry_equiv_pos_as_xyz
  1  'x, y, z'
loop_
 _atom_site_type_symbol
 _atom_site_label
 _atom_site_symmetry_multiplicity
 _atom_site_fract_x
 _atom_site_fract_y
 _atom_site_fract_z
 _atom_site_occupancy
  Zn  Zn0  1  0.05681000  0.39941000  0.47835000  1.0
  Zn  Zn1  1  0.98437000  0.48328000  0.56025000  1.0
  Zn  Zn2  1  0.05817000  0.56091000  0.48247000  1.0
  Zn  Zn3  1  0.90098000  0.55464000  0.47977000  1.0
  Zn  Zn4  1  0.69426000  0.35039000  0.27171000  1.0
  Zn  Zn5  1  0.68942000  0.19002000  0.26703000  1.0
  Zn  Zn6  1  0.76897000  0.26596000  0.19084000  1.0
  Zn  Zn7  1  0.84798000  0.19565000  0.27306000  1.0
  Zn  Zn8  1  0.26663000  0.76653000  0.68917000  1.0
  Zn  Zn9  1  0.34865000  0.69582000  0.77134000  1.0
  Zn  Zn10  1  0.19305000  0.84750000  0.77130000  1.0
  Zn  Zn11  1  0.19098000  0.68755000  0.76617000  1.0
  Zn  Zn12  1  0.56055000  0.06029000  0.98338000  1.0
  Zn  Zn13  1  0.40119000  0.05494000  0.97805000  1.0
  Zn  Zn14  1  0.55441000  0.90152000  0.97789000  1.0
  Zn  Zn15  1  0.48401000  0.98366000  0.06034000  1.0
  H  H16  1  0.95383000  0.24880000  0.35122000  1.0
  H  H17  1  0.74666000  0.45553000  0.35103000  1.0
  H  H18  1  0.00094000  0.29775000  0.39928000  1.0
  H  H19  1  0.09765000  0.59756000  0.70002000  1.0
  H  H20  1  0.20144000  0.70129000  0.59658000  1.0
  H  H21  1  0.05004000  0.55023000  0.65136000  1.0
  H  H22  1  0.46315000  0.23984000  0.34098000  1.0
  H  H23  1  0.47900000  0.70287000  0.60121000  1.0
  H  H24  1  0.20302000  0.97877000  0.60154000  1.0
  H  H25  1  0.94915000  0.97023000  0.34797000  1.0
  H  H26  1  0.54978000  0.04986000  0.15268000  1.0
  H  H27  1  0.65317000  0.15337000  0.04896000  1.0
  H  H28  1  0.59839000  0.09832000  0.20021000  1.0
  H  H29  1  0.54738000  0.77089000  0.14844000  1.0
  H  H30  1  0.16292000  0.14131000  0.04035000  1.0
  H  H31  1  0.50132000  0.79601000  0.89883000  1.0
  H  H32  1  0.29463000  0.00327000  0.89889000  1.0
  H  H33  1  0.45204000  0.74943000  0.85071000  1.0
  H  H34  1  0.30071000  0.27965000  0.90215000  1.0
  H  H35  1  0.78663000  0.01003000  0.90907000  1.0
  H  H36  1  0.80985000  0.52754000  0.41868000  1.0
  H  H37  1  0.13591000  0.63604000  0.52659000  1.0
  H  H38  1  0.72324000  0.22307000  0.11439000  1.0
  H  H39  1  0.22208000  0.94036000  0.83129000  1.0
  C  C40  1  0.06167000  0.31586000  0.56166000  1.0
  C  C41  1  0.06957000  0.57019000  0.56953000  1.0
  C  C42  1  0.18381000  0.43940000  0.43871000  1.0
  C  C43  1  0.93738000  0.68406000  0.43883000  1.0
  C  C44  1  0.93047000  0.43001000  0.43054000  1.0
  C  C45  1  0.81632000  0.56111000  0.56190000  1.0
  C  C46  1  0.56564000  0.31117000  0.31136000  1.0
  C  C47  1  0.68062000  0.17996000  0.18062000  1.0
  C  C48  1  0.68908000  0.43364000  0.18834000  1.0
  C  C49  1  0.93466000  0.18785000  0.18950000  1.0
  C  C50  1  0.81858000  0.32067000  0.31985000  1.0
  C  C51  1  0.81152000  0.06603000  0.31166000  1.0
  C  C52  1  0.43376000  0.68948000  0.68814000  1.0
  C  C53  1  0.31935000  0.82005000  0.81946000  1.0
  C  C54  1  0.18906000  0.93359000  0.68838000  1.0
  C  C55  1  0.06604000  0.81023000  0.81119000  1.0
  C  C56  1  0.18125000  0.68055000  0.67968000  1.0
  C  C57  1  0.31222000  0.56590000  0.81110000  1.0
  C  C58  1  0.43822000  0.18398000  0.93862000  1.0
  C  C59  1  0.42959000  0.93111000  0.93033000  1.0
  C  C60  1  0.68388000  0.93890000  0.93857000  1.0
  C  C61  1  0.56123000  0.81636000  0.06145000  1.0
  C  C62  1  0.57008000  0.06999000  0.06929000  1.0
  C  C63  1  0.31604000  0.06161000  0.06124000  1.0
  C  C64  1  0.90095000  0.40334000  0.40210000  1.0
  C  C65  1  0.84743000  0.34942000  0.34840000  1.0
  C  C66  1  0.82824000  0.44863000  0.38829000  1.0
  C  C67  1  0.91958000  0.30428000  0.36186000  1.0
  C  C68  1  0.80239000  0.42070000  0.36143000  1.0
  C  C69  1  0.94541000  0.33145000  0.38837000  1.0
  C  C70  1  0.09868000  0.59891000  0.59711000  1.0
  C  C71  1  0.15232000  0.65215000  0.65101000  1.0
  C  C72  1  0.14199000  0.64204000  0.58132000  1.0
  C  C73  1  0.10948000  0.60942000  0.66690000  1.0
  C  C74  1  0.16832000  0.66827000  0.60877000  1.0
  C  C75  1  0.08329000  0.58342000  0.63999000  1.0
  C  C76  1  0.30468000  0.45485000  0.40099000  1.0
  C  C77  1  0.44606000  0.29659000  0.34895000  1.0
  C  C78  1  0.25853000  0.41573000  0.41394000  1.0
  C  C79  1  0.49086000  0.33654000  0.33642000  1.0
  C  C80  1  0.37795000  0.33967000  0.37255000  1.0
  C  C81  1  0.37278000  0.41142000  0.37738000  1.0
  C  C82  1  0.72584000  0.57575000  0.62992000  1.0
  C  C83  1  0.52389000  0.67385000  0.62113000  1.0
  C  C84  1  0.74232000  0.58531000  0.58729000  1.0
  C  C85  1  0.50891000  0.66387000  0.66352000  1.0
  C  C86  1  0.60315000  0.64167000  0.60874000  1.0
  C  C87  1  0.64640000  0.60796000  0.64215000  1.0
  C  C88  1  0.07605000  0.22546000  0.62982000  1.0
  C  C89  1  0.17407000  0.02367000  0.62137000  1.0
  C  C90  1  0.08566000  0.24189000  0.58718000  1.0
  C  C91  1  0.16393000  0.00874000  0.66377000  1.0
  C  C92  1  0.14203000  0.10283000  0.60887000  1.0
  C  C93  1  0.10827000  0.14610000  0.64218000  1.0
  C  C94  1  0.84300000  0.80088000  0.39706000  1.0
  C  C95  1  0.90484000  0.94972000  0.35253000  1.0
  C  C96  1  0.91163000  0.75837000  0.41370000  1.0
  C  C97  1  0.83614000  0.99096000  0.33644000  1.0
  C  C98  1  0.90760000  0.88015000  0.37470000  1.0
  C  C99  1  0.84075000  0.87034000  0.37484000  1.0
  C  C100  1  0.65274000  0.15263000  0.15165000  1.0
  C  C101  1  0.59872000  0.09879000  0.09800000  1.0
  C  C102  1  0.66838000  0.16847000  0.10838000  1.0
  C  C103  1  0.58288000  0.08297000  0.14083000  1.0
  C  C104  1  0.64092000  0.14107000  0.08203000  1.0
  C  C105  1  0.60979000  0.10980000  0.16699000  1.0
  C  C106  1  0.67394000  0.52415000  0.12012000  1.0
  C  C107  1  0.57630000  0.72606000  0.12856000  1.0
  C  C108  1  0.66452000  0.50764000  0.16277000  1.0
  C  C109  1  0.58638000  0.74113000  0.08616000  1.0
  C  C110  1  0.60818000  0.64683000  0.14106000  1.0
  C  C111  1  0.64180000  0.60355000  0.10776000  1.0
  C  C112  1  0.08211000  0.12364000  0.17813000  1.0
  C  C113  1  0.17027000  0.12486000  0.07277000  1.0
  C  C114  1  0.00986000  0.16258000  0.16512000  1.0
  C  C115  1  0.24135000  0.08619000  0.08650000  1.0
  C  C116  1  0.11188000  0.13866000  0.10618000  1.0
  C  C117  1  0.14023000  0.11000000  0.14453000  1.0
  C  C118  1  0.34644000  0.84945000  0.84779000  1.0
  C  C119  1  0.40077000  0.90249000  0.90163000  1.0
  C  C120  1  0.30133000  0.92203000  0.86158000  1.0
  C  C121  1  0.44577000  0.83045000  0.88817000  1.0
  C  C122  1  0.32944000  0.94764000  0.88847000  1.0
  C  C123  1  0.41841000  0.80489000  0.86159000  1.0
  C  C124  1  0.40679000  0.44897000  0.85284000  1.0
  C  C125  1  0.34504000  0.30015000  0.89758000  1.0
  C  C126  1  0.33811000  0.49147000  0.83623000  1.0
  C  C127  1  0.41371000  0.25892000  0.91367000  1.0
  C  C128  1  0.34231000  0.36964000  0.87530000  1.0
  C  C129  1  0.40916000  0.37948000  0.87509000  1.0
  C  C130  1  0.94520000  0.79490000  0.84914000  1.0
  C  C131  1  0.80373000  0.95325000  0.90113000  1.0
  C  C132  1  0.99137000  0.83395000  0.83610000  1.0
  C  C133  1  0.75886000  0.91335000  0.91364000  1.0
  C  C134  1  0.87192000  0.91011000  0.87756000  1.0
  C  C135  1  0.87710000  0.83834000  0.87277000  1.0
  S  S136  1  0.29886000  0.32608000  0.39717000  1.0
  S  S137  1  0.45110000  0.42616000  0.35304000  1.0
  S  S138  1  0.66057000  0.63351000  0.56245000  1.0
  S  S139  1  0.59018000  0.61560000  0.68863000  1.0
  S  S140  1  0.13393000  0.16015000  0.56251000  1.0
  S  S141  1  0.11572000  0.08998000  0.68873000  1.0
  S  S142  1  0.97297000  0.80363000  0.40196000  1.0
  S  S143  1  0.77467000  0.94604000  0.34790000  1.0
  S  S144  1  0.61627000  0.58945000  0.18744000  1.0
  S  S145  1  0.63437000  0.65979000  0.06121000  1.0
  S  S146  1  0.01365000  0.18228000  0.11178000  1.0
  S  S147  1  0.23809000  0.06624000  0.13973000  1.0
  S  S148  1  0.27688000  0.44609000  0.84804000  1.0
  S  S149  1  0.47528000  0.30376000  0.90204000  1.0
  S  S150  1  0.95104000  0.92364000  0.85289000  1.0
  S  S151  1  0.79871000  0.82367000  0.89708000  1.0
  Cl  Cl152  1  0.28562000  0.54364000  0.41112000  1.0
  Cl  Cl153  1  0.79003000  0.53158000  0.66483000  1.0
  Cl  Cl154  1  0.03188000  0.28955000  0.66466000  1.0
  Cl  Cl155  1  0.76868000  0.77615000  0.40157000  1.0
  Cl  Cl156  1  0.71779000  0.45998000  0.08530000  1.0
  Cl  Cl157  1  0.10249000  0.09424000  0.22769000  1.0
  Cl  Cl158  1  0.48117000  0.47366000  0.84824000  1.0
  Cl  Cl159  1  0.96443000  0.70602000  0.83907000  1.0
  O  O160  1  0.00069000  0.49856000  0.49988000  1.0
  O  O161  1  0.07866000  0.31407000  0.52271000  1.0
  O  O162  1  0.03145000  0.53166000  0.58536000  1.0
  O  O163  1  0.15484000  0.50548000  0.45037000  1.0
  O  O164  1  0.02638000  0.37498000  0.58028000  1.0
  O  O165  1  0.15437000  0.39102000  0.44635000  1.0
  O  O166  1  0.08489000  0.58638000  0.53029000  1.0
  O  O167  1  0.00409000  0.65837000  0.45007000  1.0
  O  O168  1  0.88673000  0.49645000  0.44239000  1.0
  O  O169  1  0.89200000  0.65156000  0.44741000  1.0
  O  O170  1  0.99589000  0.38742000  0.44186000  1.0
  O  O171  1  0.87574000  0.52633000  0.58038000  1.0
  O  O172  1  0.81428000  0.57752000  0.52290000  1.0
  O  O173  1  0.74941000  0.25054000  0.25080000  1.0
  O  O174  1  0.59631000  0.35836000  0.30314000  1.0
  O  O175  1  0.66465000  0.16445000  0.21900000  1.0
  O  O176  1  0.72512000  0.37427000  0.16992000  1.0
  O  O177  1  0.59282000  0.24474000  0.30017000  1.0
  O  O178  1  0.67191000  0.43561000  0.22726000  1.0
  O  O179  1  0.72035000  0.21865000  0.16480000  1.0
  O  O180  1  0.87718000  0.22292000  0.16899000  1.0
  O  O181  1  0.86204000  0.25454000  0.30930000  1.0
  O  O182  1  0.93260000  0.17310000  0.22845000  1.0
  O  O183  1  0.75316000  0.36418000  0.30837000  1.0
  O  O184  1  0.74506000  0.09335000  0.30010000  1.0
  O  O185  1  0.85841000  0.09685000  0.30403000  1.0
  O  O186  1  0.24984000  0.74967000  0.74950000  1.0
  O  O187  1  0.37572000  0.72509000  0.66849000  1.0
  O  O188  1  0.36234000  0.75499000  0.80793000  1.0
  O  O189  1  0.17254000  0.93346000  0.72738000  1.0
  O  O190  1  0.43389000  0.67349000  0.72714000  1.0
  O  O191  1  0.22478000  0.87572000  0.66873000  1.0
  O  O192  1  0.25240000  0.86313000  0.80795000  1.0
  O  O193  1  0.09541000  0.85878000  0.80368000  1.0
  O  O194  1  0.16558000  0.66361000  0.71809000  1.0
  O  O195  1  0.09517000  0.74445000  0.79926000  1.0
  O  O196  1  0.21930000  0.71937000  0.66344000  1.0
  O  O197  1  0.35765000  0.59836000  0.80275000  1.0
  O  O198  1  0.24564000  0.59150000  0.79978000  1.0
  O  O199  1  0.50000000  0.00011000  0.99995000  1.0
  O  O200  1  0.50503000  0.15629000  0.94971000  1.0
  O  O201  1  0.38618000  0.99676000  0.94150000  1.0
  O  O202  1  0.65294000  0.89190000  0.94661000  1.0
  O  O203  1  0.39084000  0.15367000  0.94685000  1.0
  O  O204  1  0.65675000  0.00525000  0.94979000  1.0
  O  O205  1  0.49539000  0.88751000  0.94135000  1.0
  O  O206  1  0.57714000  0.81632000  0.02247000  1.0
  O  O207  1  0.53166000  0.03157000  0.08563000  1.0
  O  O208  1  0.52605000  0.87440000  0.08106000  1.0
  O  O209  1  0.58632000  0.08603000  0.03082000  1.0
  O  O210  1  0.31557000  0.07811000  0.02239000  1.0
  O  O211  1  0.37449000  0.02590000  0.08076000  1.0
  O  O212  1  0.78200000  0.51800000  0.39978000  1.0
  O  O213  1  0.15943000  0.65930000  0.54079000  1.0
  O  O214  1  0.70882000  0.20903000  0.09102000  1.0
  O  O215  1  0.23188000  0.96831000  0.85000000  1.0
