# generated using pymatgen
data_PrH5C10O9
_symmetry_space_group_name_H-M   'P 1'
_cell_length_a   6.36975000
_cell_length_b   9.37845000
_cell_length_c   9.66186000
_cell_angle_alpha   88.12020000
_cell_angle_beta   74.61190000
_cell_angle_gamma   76.99150000
_symmetry_Int_Tables_number   1
_chemical_formula_structural   PrH5C10O9
_chemical_formula_sum   'Pr2 H10 C20 O18'
_cell_volume   541.98791536
_cell_formula_units_Z   2
loop_
 _symmetry_equiv_pos_site_id
 _symmetry_equiv_pos_as_xyz
  1  'x, y, z'
loop_
 _atom_site_type_symbol
 _atom_site_label
 _atom_site_symmetry_multiplicity
 _atom_site_fract_x
 _atom_site_fract_y
 _atom_site_fract_z
 _atom_site_occupancy
  Pr  Pr0  1  0.85314000  0.44095000  0.72026000  1.0
  Pr  Pr1  1  0.14687000  0.55905000  0.27974000  1.0
  H  H2  1  0.72046000  0.48972000  0.22034000  1.0
  H  H3  1  0.27954000  0.51028000  0.77966000  1.0
  H  H4  1  0.72834000  0.42635000  0.37224000  1.0
  H  H5  1  0.27166000  0.57365000  0.62776000  1.0
  H  H6  1  0.68185000  0.16011000  0.10505000  1.0
  H  H7  1  0.31815000  0.83989000  0.89495000  1.0
  H  H8  1  0.79856000  0.93509000  0.62530000  1.0
  H  H9  1  0.20144000  0.06491000  0.37470000  1.0
  H  H10  1  0.01632000  0.92586000  0.26043000  1.0
  H  H11  1  0.98368000  0.07414000  0.73957000  1.0
  C  C12  1  0.60242000  0.09079000  0.05711000  1.0
  C  C13  1  0.39758000  0.90921000  0.94289000  1.0
  C  C14  1  0.34179000  0.29553000  0.41548000  1.0
  C  C15  1  0.65821000  0.70446000  0.58452000  1.0
  C  C16  1  0.42708000  0.14621000  0.46521000  1.0
  C  C17  1  0.57293000  0.85379000  0.53478000  1.0
  C  C18  1  0.60922000  0.67908000  0.02494000  1.0
  C  C19  1  0.39078000  0.32092000  0.97506000  1.0
  C  C20  1  0.70302000  0.22055000  0.57988000  1.0
  C  C21  1  0.29697000  0.77945000  0.42011000  1.0
  C  C22  1  0.59750000  0.10924000  0.53594000  1.0
  C  C23  1  0.40250000  0.89076000  0.46406000  1.0
  C  C24  1  0.66777000  0.96326000  0.56952000  1.0
  C  C25  1  0.33223000  0.03675000  0.43048000  1.0
  C  C26  1  0.83271000  0.87769000  0.14874000  1.0
  C  C27  1  0.16729000  0.12231000  0.85126000  1.0
  C  C28  1  0.66085000  0.93844000  0.07174000  1.0
  C  C29  1  0.33914000  0.06156000  0.92826000  1.0
  C  C30  1  0.55749000  0.84499000  0.01436000  1.0
  C  C31  1  0.44251000  0.15501000  0.98564000  1.0
  O  O32  1  0.45242000  0.34026000  0.30076000  1.0
  O  O33  1  0.54759000  0.65975000  0.69924000  1.0
  O  O34  1  0.84830000  0.18025000  0.65155000  1.0
  O  O35  1  0.15169000  0.81975000  0.34846000  1.0
  O  O36  1  0.64703000  0.35431000  0.54969000  1.0
  O  O37  1  0.35297000  0.64570000  0.45031000  1.0
  O  O38  1  0.89883000  0.74334000  0.16037000  1.0
  O  O39  1  0.10116000  0.25666000  0.83963000  1.0
  O  O40  1  0.14543000  0.36771000  0.48137000  1.0
  O  O41  1  0.85457000  0.63229000  0.51863000  1.0
  O  O42  1  0.76454000  0.60646000  0.92661000  1.0
  O  O43  1  0.23546000  0.39354000  0.07339000  1.0
  O  O44  1  0.90841000  0.97703000  0.20370000  1.0
  O  O45  1  0.09160000  0.02297000  0.79630000  1.0
  O  O46  1  0.48756000  0.62378000  0.12940000  1.0
  O  O47  1  0.51243000  0.37623000  0.87060000  1.0
  O  O48  1  0.18119000  0.53879000  0.71606000  1.0
  O  O49  1  0.81881000  0.46121000  0.28394000  1.0
