# generated using pymatgen
data_CuH22C18(NO3)2
_symmetry_space_group_name_H-M   'P 1'
_cell_length_a   10.14420000
_cell_length_b   10.48332828
_cell_length_c   11.82790000
_cell_angle_alpha   84.61324642
_cell_angle_beta   87.40150000
_cell_angle_gamma   61.64663513
_symmetry_Int_Tables_number   1
_chemical_formula_structural   CuH22C18(NO3)2
_chemical_formula_sum   'Cu2 H44 C36 N4 O12'
_cell_volume   1102.05278122
_cell_formula_units_Z   2
loop_
 _symmetry_equiv_pos_site_id
 _symmetry_equiv_pos_as_xyz
  1  'x, y, z'
loop_
 _atom_site_type_symbol
 _atom_site_label
 _atom_site_symmetry_multiplicity
 _atom_site_fract_x
 _atom_site_fract_y
 _atom_site_fract_z
 _atom_site_occupancy
  Cu  Cu0  1  0.50001000  1.00000000  0.00000000  1.0
  Cu  Cu1  1  0.50000000  0.50001000  0.50000000  1.0
  H  H2  1  0.60820000  0.08306000  0.68509000  1.0
  H  H3  1  0.39179000  0.91691000  0.31489000  1.0
  H  H4  1  0.33456000  0.03238000  0.70864000  1.0
  H  H5  1  0.66544000  0.96758000  0.29137000  1.0
  H  H6  1  0.46242000  0.98546000  0.59204000  1.0
  H  H7  1  0.53756000  0.01451000  0.40797000  1.0
  H  H8  1  0.34878000  0.17232000  0.61944000  1.0
  H  H9  1  0.65118000  0.82765000  0.38056000  1.0
  H  H10  1  0.78498000  0.40702000  0.76106000  1.0
  H  H11  1  0.21501000  0.59300000  0.23896000  1.0
  H  H12  1  0.63816000  0.64689000  0.84142000  1.0
  H  H13  1  0.36179000  0.35312000  0.15861000  1.0
  H  H14  1  0.57861000  0.52090000  0.90493000  1.0
  H  H15  1  0.42134000  0.47911000  0.09509000  1.0
  H  H16  1  0.46882000  0.65581000  0.79570000  1.0
  H  H17  1  0.53115000  0.34420000  0.20430000  1.0
  H  H18  1  0.19829000  0.22204000  0.93909000  1.0
  H  H19  1  0.80173000  0.77796000  0.06091000  1.0
  H  H20  1  0.96543000  0.23181000  0.86482000  1.0
  H  H21  1  0.03460000  0.76819000  0.13518000  1.0
  H  H22  1  0.41793000  0.77283000  0.96510000  1.0
  H  H23  1  0.58209000  0.22717000  0.03490000  1.0
  H  H24  1  0.19742000  0.76239000  0.88997000  1.0
  H  H25  1  0.80260000  0.23761000  0.11002000  1.0
  H  H26  1  0.82549000  0.08800000  0.85044000  1.0
  H  H27  1  0.17453000  0.91200000  0.14956000  1.0
  H  H28  1  0.92688000  0.89591000  0.84517000  1.0
  H  H29  1  0.07314000  0.10409000  0.15484000  1.0
  H  H30  1  0.82327000  0.02746000  0.65838000  1.0
  H  H31  1  0.17673000  0.97253000  0.34163000  1.0
  H  H32  1  0.92550000  0.12519000  0.66154000  1.0
  H  H33  1  0.07448000  0.87482000  0.33846000  1.0
  H  H34  1  0.17548000  0.02236000  0.58391000  1.0
  H  H35  1  0.82450000  0.97766000  0.41609000  1.0
  H  H36  1  0.40048000  0.80708000  0.51492000  1.0
  H  H37  1  0.59952000  0.19294000  0.48507000  1.0
  H  H38  1  0.97983000  0.74029000  0.67684000  1.0
  H  H39  1  0.02018000  0.25971000  0.32314000  1.0
  H  H40  1  0.21634000  0.53473000  0.60641000  1.0
  H  H41  1  0.78367000  0.46528000  0.39357000  1.0
  H  H42  1  0.51942000  0.20760000  0.82285000  1.0
  H  H43  1  0.48058000  0.79239000  0.17713000  1.0
  H  H44  1  0.68013000  0.63779000  0.64400000  1.0
  H  H45  1  0.31986000  0.36223000  0.35602000  1.0
  C  C46  1  0.63240000  0.88954000  0.78054000  1.0
  C  C47  1  0.36759000  0.11045000  0.21946000  1.0
  C  C48  1  0.53387000  0.05017000  0.73602000  1.0
  C  C49  1  0.46612000  0.94981000  0.26398000  1.0
  C  C50  1  0.41211000  0.06081000  0.65864000  1.0
  C  C51  1  0.58789000  0.93915000  0.34136000  1.0
  C  C52  1  0.59834000  0.37660000  0.72943000  1.0
  C  C53  1  0.40166000  0.62340000  0.27058000  1.0
  C  C54  1  0.66722000  0.47808000  0.73470000  1.0
  C  C55  1  0.33277000  0.52193000  0.26532000  1.0
  C  C56  1  0.58343000  0.58189000  0.82565000  1.0
  C  C57  1  0.41653000  0.41812000  0.17437000  1.0
  C  C58  1  0.19214000  0.12363000  0.92587000  1.0
  C  C59  1  0.80787000  0.87638000  0.07413000  1.0
  C  C60  1  0.06451000  0.12737000  0.88425000  1.0
  C  C61  1  0.93551000  0.87263000  0.11574000  1.0
  C  C62  1  0.06282000  0.99715000  0.86878000  1.0
  C  C63  1  0.93721000  0.00285000  0.13121000  1.0
  C  C64  1  0.31601000  0.87151000  0.94018000  1.0
  C  C65  1  0.68401000  0.12849000  0.05982000  1.0
  C  C66  1  0.19238000  0.86729000  0.89845000  1.0
  C  C67  1  0.80764000  0.13271000  0.10154000  1.0
  C  C68  1  0.92857000  0.99859000  0.81958000  1.0
  C  C69  1  0.07145000  0.00141000  0.18042000  1.0
  C  C70  1  0.92719000  0.02107000  0.68841000  1.0
  C  C71  1  0.07281000  0.97893000  0.31159000  1.0
  C  C72  1  0.05981000  0.89843000  0.63800000  1.0
  C  C73  1  0.94020000  0.10157000  0.36199000  1.0
  C  C74  1  0.17960000  0.91616000  0.59092000  1.0
  C  C75  1  0.82040000  0.08385000  0.40907000  1.0
  C  C76  1  0.30520000  0.79737000  0.55239000  1.0
  C  C77  1  0.69480000  0.20265000  0.44761000  1.0
  C  C78  1  0.07167000  0.75908000  0.64268000  1.0
  C  C79  1  0.92834000  0.24092000  0.35731000  1.0
  C  C80  1  0.20130000  0.64506000  0.60321000  1.0
  C  C81  1  0.79872000  0.35494000  0.39678000  1.0
  N  N82  1  0.31640000  0.99729000  0.95250000  1.0
  N  N83  1  0.68362000  0.00271000  0.04750000  1.0
  N  N84  1  0.31626000  0.66393000  0.55907000  1.0
  N  N85  1  0.68375000  0.33608000  0.44092000  1.0
  O  O86  1  0.62989000  0.85323000  0.88737000  1.0
  O  O87  1  0.37013000  0.14676000  0.11263000  1.0
  O  O88  1  0.70888000  0.80105000  0.70863000  1.0
  O  O89  1  0.29111000  0.19893000  0.29138000  1.0
  O  O90  1  0.46779000  0.14557000  0.82400000  1.0
  O  O91  1  0.53221000  0.85442000  0.17599000  1.0
  O  O92  1  0.52510000  0.37913000  0.64299000  1.0
  O  O93  1  0.47491000  0.62088000  0.35701000  1.0
  O  O94  1  0.61513000  0.29369000  0.81826000  1.0
  O  O95  1  0.38487000  0.70630000  0.18173000  1.0
  O  O96  1  0.66375000  0.55573000  0.62758000  1.0
  O  O97  1  0.33625000  0.44428000  0.37244000  1.0
