# generated using pymatgen
data_ZnH20C36NO13
_symmetry_space_group_name_H-M   'P 1'
_cell_length_a   10.85180000
_cell_length_b   17.10840000
_cell_length_c   17.83980000
_cell_angle_alpha   89.29000000
_cell_angle_beta   86.17340000
_cell_angle_gamma   89.27380000
_symmetry_Int_Tables_number   1
_chemical_formula_structural   ZnH20C36NO13
_chemical_formula_sum   'Zn2 H40 C72 N2 O26'
_cell_volume   3304.21189844
_cell_formula_units_Z   2
loop_
 _symmetry_equiv_pos_site_id
 _symmetry_equiv_pos_as_xyz
  1  'x, y, z'
loop_
 _atom_site_type_symbol
 _atom_site_label
 _atom_site_symmetry_multiplicity
 _atom_site_fract_x
 _atom_site_fract_y
 _atom_site_fract_z
 _atom_site_occupancy
  Zn  Zn0  1  0.49192000  0.59284000  0.50367000  1.0
  Zn  Zn1  1  0.50061000  0.40579000  0.49602000  1.0
  H  H2  1  0.20315000  0.17491000  0.46441000  1.0
  H  H3  1  0.79951000  0.82224000  0.53710000  1.0
  H  H4  1  0.87247000  0.39712000  0.44619000  1.0
  H  H5  1  0.11771000  0.59852000  0.56173000  1.0
  H  H6  1  0.35331000  0.17423000  0.26985000  1.0
  H  H7  1  0.65761000  0.83758000  0.73140000  1.0
  H  H8  1  0.82673000  0.45282000  0.14955000  1.0
  H  H9  1  0.20910000  0.56237000  0.88792000  1.0
  H  H10  1  0.38512000  0.94847000  0.61080000  1.0
  H  H11  1  0.63773000  0.05294000  0.38539000  1.0
  H  H12  1  0.34982000  0.72635000  0.65747000  1.0
  H  H13  1  0.23357000  0.73781000  0.59566000  1.0
  H  H14  1  0.33077000  0.65282000  0.58867000  1.0
  H  H15  1  0.63953000  0.29321000  0.34246000  1.0
  H  H16  1  0.68496000  0.34815000  0.42022000  1.0
  H  H17  1  0.76387000  0.25935000  0.39191000  1.0
  H  H18  1  0.69633000  0.74027000  0.34846000  1.0
  H  H19  1  0.67339000  0.65533000  0.40625000  1.0
  H  H20  1  0.56036000  0.68389000  0.34497000  1.0
  H  H21  1  0.29600000  0.25091000  0.64204000  1.0
  H  H22  1  0.42658000  0.31141000  0.65040000  1.0
  H  H23  1  0.31768000  0.33661000  0.58528000  1.0
  H  H24  1  0.74518000  0.84580000  0.36992000  1.0
  H  H25  1  0.26280000  0.14068000  0.62314000  1.0
  H  H26  1  0.37627000  0.28953000  0.23540000  1.0
  H  H27  1  0.22853000  0.28982000  0.19777000  1.0
  H  H28  1  0.29160000  0.37843000  0.22489000  1.0
  H  H29  1  0.63682000  0.73606000  0.77702000  1.0
  H  H30  1  0.65617000  0.63282000  0.77246000  1.0
  H  H31  1  0.77353000  0.68876000  0.80607000  1.0
  H  H32  1  0.05668000  0.48060000  0.33880000  1.0
  H  H33  1  0.91468000  0.51460000  0.66628000  1.0
  H  H34  1  0.02544000  0.33251000  0.57293000  1.0
  H  H35  1  0.96229000  0.65714000  0.43213000  1.0
  H  H36  1  0.33427000  0.60228000  0.05855000  1.0
  H  H37  1  0.69606000  0.41856000  0.94005000  1.0
  H  H38  1  0.31407000  0.65286000  0.27332000  1.0
  H  H39  1  0.66823000  0.33694000  0.73467000  1.0
  H  H40  1  0.76539000  0.39133000  0.25270000  1.0
  H  H41  1  0.28345000  0.55282000  0.67826000  1.0
  C  C42  1  0.49443000  0.50006000  0.64515000  1.0
  C  C43  1  0.50354000  0.49973000  0.35585000  1.0
  C  C44  1  0.86638000  0.50451000  0.50595000  1.0
  C  C45  1  0.12406000  0.49095000  0.50190000  1.0
  C  C46  1  0.93395000  0.56273000  0.53976000  1.0
  C  C47  1  0.05587000  0.43244000  0.46862000  1.0
  C  C48  1  0.42886000  0.55142000  0.15515000  1.0
  C  C49  1  0.59192000  0.45828000  0.84343000  1.0
  C  C50  1  0.42247000  0.54841000  0.23408000  1.0
  C  C51  1  0.58598000  0.45253000  0.76519000  1.0
  C  C52  1  0.51572000  0.51015000  0.27161000  1.0
  C  C53  1  0.49473000  0.49475000  0.72959000  1.0
  C  C54  1  0.62136000  0.48184000  0.23010000  1.0
  C  C55  1  0.40229000  0.53552000  0.77308000  1.0
  C  C56  1  0.63063000  0.48621000  0.15099000  1.0
  C  C57  1  0.40583000  0.54054000  0.85137000  1.0
  C  C58  1  0.53030000  0.51749000  0.11201000  1.0
  C  C59  1  0.50453000  0.50406000  0.88742000  1.0
  C  C60  1  0.52786000  0.51453000  0.03310000  1.0
  C  C61  1  0.51457000  0.51075000  0.96574000  1.0
  C  C62  1  0.42108000  0.84074000  0.54794000  1.0
  C  C63  1  0.58385000  0.16067000  0.44481000  1.0
  C  C64  1  0.26196000  0.48883000  0.50255000  1.0
  C  C65  1  0.72930000  0.50791000  0.50210000  1.0
  C  C66  1  0.41423000  0.75847000  0.54534000  1.0
  C  C67  1  0.58746000  0.24297000  0.44998000  1.0
  C  C68  1  0.56113000  0.75435000  0.44196000  1.0
  C  C69  1  0.43890000  0.24157000  0.55238000  1.0
  C  C70  1  0.56981000  0.83624000  0.44014000  1.0
  C  C71  1  0.43767000  0.15965000  0.55384000  1.0
  C  C72  1  0.49891000  0.88096000  0.49397000  1.0
  C  C73  1  0.51083000  0.11756000  0.49914000  1.0
  C  C74  1  0.50547000  0.96364000  0.49485000  1.0
  C  C75  1  0.50802000  0.03484000  0.49726000  1.0
  C  C76  1  0.22469000  0.30615000  0.31811000  1.0
  C  C77  1  0.76273000  0.69498000  0.68605000  1.0
  C  C78  1  0.15040000  0.36654000  0.35204000  1.0
  C  C79  1  0.82982000  0.63043000  0.65336000  1.0
  C  C80  1  0.11421000  0.36309000  0.42959000  1.0
  C  C81  1  0.87454000  0.63286000  0.57707000  1.0
  C  C82  1  0.12928000  0.29209000  0.46968000  1.0
  C  C83  1  0.86543000  0.70330000  0.53543000  1.0
  C  C84  1  0.19282000  0.23016000  0.43415000  1.0
  C  C85  1  0.80557000  0.76763000  0.56893000  1.0
  C  C86  1  0.24567000  0.23755000  0.36082000  1.0
  C  C87  1  0.75156000  0.76394000  0.64222000  1.0
  C  C88  1  0.92778000  0.44067000  0.47198000  1.0
  C  C89  1  0.06224000  0.55442000  0.53668000  1.0
  C  C90  1  0.31805000  0.16988000  0.32968000  1.0
  C  C91  1  0.68673000  0.83579000  0.67057000  1.0
  C  C92  1  0.74979000  0.46281000  0.11189000  1.0
  C  C93  1  0.30429000  0.58183000  0.89677000  1.0
  C  C94  1  0.35403000  0.88721000  0.60808000  1.0
  C  C95  1  0.64818000  0.11724000  0.38161000  1.0
  C  C96  1  0.32821000  0.71539000  0.59927000  1.0
  C  C97  1  0.67403000  0.28928000  0.39895000  1.0
  C  C98  1  0.62787000  0.70647000  0.38229000  1.0
  C  C99  1  0.36464000  0.28688000  0.61075000  1.0
  C  C100  1  0.65428000  0.87515000  0.38218000  1.0
  C  C101  1  0.35895000  0.11807000  0.61310000  1.0
  C  C102  1  0.28383000  0.31645000  0.23997000  1.0
  C  C103  1  0.70345000  0.68883000  0.76432000  1.0
  C  C104  1  0.09596000  0.43021000  0.30664000  1.0
  C  C105  1  0.86337000  0.56091000  0.69879000  1.0
  C  C106  1  0.07780000  0.28172000  0.54802000  1.0
  C  C107  1  0.91573000  0.71018000  0.45649000  1.0
  C  C108  1  0.32540000  0.59121000  0.11992000  1.0
  C  C109  1  0.69414000  0.41632000  0.87817000  1.0
  C  C110  1  0.31692000  0.58809000  0.27899000  1.0
  C  C111  1  0.67445000  0.40009000  0.71975000  1.0
  C  C112  1  0.72636000  0.44876000  0.27184000  1.0
  C  C113  1  0.29812000  0.57298000  0.73596000  1.0
  N  N114  1  0.48530000  0.71653000  0.49432000  1.0
  N  N115  1  0.51359000  0.28216000  0.50163000  1.0
  O  O116  1  0.50253000  0.56923000  0.61882000  1.0
  O  O117  1  0.51019000  0.43003000  0.37989000  1.0
  O  O118  1  0.48318000  0.43688000  0.61068000  1.0
  O  O119  1  0.48719000  0.56202000  0.39276000  1.0
  O  O120  1  0.31350000  0.55269000  0.51696000  1.0
  O  O121  1  0.67621000  0.44257000  0.49866000  1.0
  O  O122  1  0.31582000  0.42316000  0.49071000  1.0
  O  O123  1  0.67858000  0.57528000  0.50083000  1.0
  O  O124  1  0.33930000  0.11061000  0.36638000  1.0
  O  O125  1  0.66550000  0.89229000  0.63015000  1.0
  O  O126  1  0.76905000  0.45618000  0.04392000  1.0
  O  O127  1  0.32451000  0.63011000  0.94429000  1.0
  O  O128  1  0.27269000  0.86235000  0.65276000  1.0
  O  O129  1  0.70534000  0.14757000  0.32737000  1.0
  O  O130  1  0.62839000  0.93665000  0.35086000  1.0
  O  O131  1  0.39612000  0.06167000  0.64819000  1.0
  O  O132  1  0.08394000  0.42548000  0.23886000  1.0
  O  O133  1  0.84415000  0.55394000  0.76711000  1.0
  O  O134  1  0.08922000  0.22113000  0.58479000  1.0
  O  O135  1  0.90777000  0.77015000  0.41837000  1.0
  O  O136  1  0.23307000  0.61291000  0.15831000  1.0
  O  O137  1  0.77360000  0.38052000  0.83957000  1.0
  O  O138  1  0.24811000  0.55314000  0.32461000  1.0
  O  O139  1  0.73911000  0.42329000  0.66543000  1.0
  O  O140  1  0.76673000  0.48237000  0.32484000  1.0
  O  O141  1  0.22899000  0.62189000  0.76670000  1.0
