# generated using pymatgen
data_GdH5C4SN2O7
_symmetry_space_group_name_H-M   'P 1'
_cell_length_a   6.50134000
_cell_length_b   11.20350000
_cell_length_c   12.21000000
_cell_angle_alpha   108.38200000
_cell_angle_beta   90.00000000
_cell_angle_gamma   89.99990000
_symmetry_Int_Tables_number   1
_chemical_formula_structural   GdH5C4SN2O7
_chemical_formula_sum   'Gd4 H20 C16 S4 N8 O28'
_cell_volume   843.97016014
_cell_formula_units_Z   4
loop_
 _symmetry_equiv_pos_site_id
 _symmetry_equiv_pos_as_xyz
  1  'x, y, z'
loop_
 _atom_site_type_symbol
 _atom_site_label
 _atom_site_symmetry_multiplicity
 _atom_site_fract_x
 _atom_site_fract_y
 _atom_site_fract_z
 _atom_site_occupancy
  Gd  Gd0  1  0.86374000  0.83964000  0.39287000  1.0
  Gd  Gd1  1  0.36374000  0.16036000  0.10713000  1.0
  Gd  Gd2  1  0.13626000  0.16036000  0.60713000  1.0
  Gd  Gd3  1  0.63626000  0.83964000  0.89287000  1.0
  H  H4  1  0.72069000  0.43679000  0.55965000  1.0
  H  H5  1  0.22069000  0.56321000  0.94035000  1.0
  H  H6  1  0.27931000  0.56321000  0.44035000  1.0
  H  H7  1  0.77931000  0.43679000  0.05965000  1.0
  H  H8  1  0.77855000  0.48301000  0.23165000  1.0
  H  H9  1  0.27855000  0.51699000  0.26835000  1.0
  H  H10  1  0.22145000  0.51698000  0.76835000  1.0
  H  H11  1  0.72145000  0.48302000  0.73165000  1.0
  H  H12  1  0.72415000  0.32936000  0.34705000  1.0
  H  H13  1  0.22415000  0.67065000  0.15295000  1.0
  H  H14  1  0.27585000  0.67064000  0.65295000  1.0
  H  H15  1  0.77585000  0.32936000  0.84704000  1.0
  H  H16  1  0.04468000  0.91359000  0.19636000  1.0
  H  H17  1  0.54467000  0.08641000  0.30364000  1.0
  H  H18  1  0.95532000  0.08641000  0.80364000  1.0
  H  H19  1  0.45532000  0.91359000  0.69636000  1.0
  H  H20  1  0.07126000  0.03372000  0.31207000  1.0
  H  H21  1  0.57126000  0.96628000  0.18793000  1.0
  H  H22  1  0.92874000  0.96629000  0.68794000  1.0
  H  H23  1  0.42874000  0.03372000  0.81207000  1.0
  C  C24  1  0.73893000  0.48706000  0.49787000  1.0
  C  C25  1  0.23892000  0.51294000  0.00214000  1.0
  C  C26  1  0.26107000  0.51294000  0.50214000  1.0
  C  C27  1  0.76107000  0.48706000  0.99786000  1.0
  C  C28  1  0.77217000  0.50877000  0.32452000  1.0
  C  C29  1  0.27217000  0.49123000  0.17548000  1.0
  C  C30  1  0.22783000  0.49123000  0.67549000  1.0
  C  C31  1  0.72783000  0.50877000  0.82452000  1.0
  C  C32  1  0.76749000  0.61220000  0.50793000  1.0
  C  C33  1  0.26748000  0.38780000  0.99207000  1.0
  C  C34  1  0.23252000  0.38780000  0.49207000  1.0
  C  C35  1  0.73252000  0.61220000  0.00793000  1.0
  C  C36  1  0.77925000  0.72659000  0.60816000  1.0
  C  C37  1  0.27925000  0.27341000  0.89184000  1.0
  C  C38  1  0.22075000  0.27340000  0.39184000  1.0
  C  C39  1  0.72075000  0.72660000  0.10816000  1.0
  S  S40  1  0.32236000  0.83578000  0.46083000  1.0
  S  S41  1  0.82236000  0.16422000  0.03917000  1.0
  S  S42  1  0.67764000  0.16422000  0.53917000  1.0
  S  S43  1  0.17764000  0.83578000  0.96083000  1.0
  N  N44  1  0.74367000  0.42408000  0.38204000  1.0
  N  N45  1  0.24367000  0.57593000  0.11796000  1.0
  N  N46  1  0.25633000  0.57592000  0.61796000  1.0
  N  N47  1  0.75633000  0.42408000  0.88204000  1.0
  N  N48  1  0.78830000  0.62375000  0.39874000  1.0
  N  N49  1  0.28830000  0.37625000  0.10126000  1.0
  N  N50  1  0.21170000  0.37625000  0.60126000  1.0
  N  N51  1  0.71170000  0.62375000  0.89874000  1.0
  O  O52  1  0.72589000  0.72137000  0.70651000  1.0
  O  O53  1  0.22589000  0.27863000  0.79349000  1.0
  O  O54  1  0.27411000  0.27863000  0.29349000  1.0
  O  O55  1  0.77411000  0.72137000  0.20651000  1.0
  O  O56  1  0.84414000  0.82561000  0.58743000  1.0
  O  O57  1  0.34414000  0.17439000  0.91257000  1.0
  O  O58  1  0.15586000  0.17439000  0.41257000  1.0
  O  O59  1  0.65586000  0.82561000  0.08743000  1.0
  O  O60  1  0.50846000  0.86316000  0.40353000  1.0
  O  O61  1  0.00846000  0.13684000  0.09647000  1.0
  O  O62  1  0.49154000  0.13684000  0.59647000  1.0
  O  O63  1  0.99154000  0.86316000  0.90353000  1.0
  O  O64  1  0.37303000  0.80164000  0.56413000  1.0
  O  O65  1  0.87303000  0.19836000  0.93587000  1.0
  O  O66  1  0.62697000  0.19836000  0.43587000  1.0
  O  O67  1  0.12697000  0.80164000  0.06413000  1.0
  O  O68  1  0.19637000  0.73599000  0.37676000  1.0
  O  O69  1  0.69637000  0.26401000  0.12324000  1.0
  O  O70  1  0.80363000  0.26401000  0.62324000  1.0
  O  O71  1  0.30363000  0.73599000  0.87676000  1.0
  O  O72  1  0.18107000  0.94881000  0.49231000  1.0
  O  O73  1  0.68107000  0.05119000  0.00769000  1.0
  O  O74  1  0.81893000  0.05119000  0.50769000  1.0
  O  O75  1  0.31893000  0.94881000  0.99231000  1.0
  O  O76  1  0.99400000  0.95430000  0.27575000  1.0
  O  O77  1  0.49400000  0.04570000  0.22425000  1.0
  O  O78  1  0.00600000  0.04570000  0.72425000  1.0
  O  O79  1  0.50600000  0.95430000  0.77575000  1.0
