# generated using pymatgen
data_CdH28C22S(N3O4)2
_symmetry_space_group_name_H-M   'P 1'
_cell_length_a   9.97005000
_cell_length_b   11.89340000
_cell_length_c   12.11870000
_cell_angle_alpha   71.71400000
_cell_angle_beta   85.72120000
_cell_angle_gamma   89.56360000
_symmetry_Int_Tables_number   1
_chemical_formula_structural   CdH28C22S(N3O4)2
_chemical_formula_sum   'Cd2 H56 C44 S2 N12 O16'
_cell_volume   1360.45063287
_cell_formula_units_Z   2
loop_
 _symmetry_equiv_pos_site_id
 _symmetry_equiv_pos_as_xyz
  1  'x, y, z'
loop_
 _atom_site_type_symbol
 _atom_site_label
 _atom_site_symmetry_multiplicity
 _atom_site_fract_x
 _atom_site_fract_y
 _atom_site_fract_z
 _atom_site_occupancy
  Cd  Cd0  1  0.41750000  0.03963000  0.87098000  1.0
  Cd  Cd1  1  0.58249000  0.96037000  0.12902000  1.0
  H  H2  1  0.66881000  0.07285000  0.67665000  1.0
  H  H3  1  0.33119000  0.92715000  0.32334000  1.0
  H  H4  1  0.10428000  0.02551000  0.90851000  1.0
  H  H5  1  0.89572000  0.97448000  0.09148000  1.0
  H  H6  1  0.47178000  0.09923000  0.44529000  1.0
  H  H7  1  0.52821000  0.90077000  0.55470000  1.0
  H  H8  1  0.45122000  0.24301000  0.45199000  1.0
  H  H9  1  0.54878000  0.75699000  0.54800000  1.0
  H  H10  1  0.21764000  0.24793000  0.40805000  1.0
  H  H11  1  0.78235000  0.75207000  0.59195000  1.0
  H  H12  1  0.29496000  0.16679000  0.32160000  1.0
  H  H13  1  0.70504000  0.83321000  0.67839000  1.0
  H  H14  1  0.22729000  0.97667000  0.48202000  1.0
  H  H15  1  0.77271000  0.02333000  0.51797000  1.0
  H  H16  1  0.08857000  0.06070000  0.42353000  1.0
  H  H17  1  0.91142000  0.93929000  0.57646000  1.0
  H  H18  1  0.05751000  0.13881000  0.58970000  1.0
  H  H19  1  0.94249000  0.86119000  0.41030000  1.0
  H  H20  1  0.06967000  0.98504000  0.64694000  1.0
  H  H21  1  0.93033000  0.01495000  0.35305000  1.0
  H  H22  1  0.62502000  0.26205000  0.82757000  1.0
  H  H23  1  0.37497000  0.73795000  0.17243000  1.0
  H  H24  1  0.63065000  0.47150000  0.81677000  1.0
  H  H25  1  0.36935000  0.52850000  0.18323000  1.0
  H  H26  1  0.19584000  0.44996000  0.88309000  1.0
  H  H27  1  0.80416000  0.55004000  0.11691000  1.0
  H  H28  1  0.20854000  0.24201000  0.88646000  1.0
  H  H29  1  0.79145000  0.75799000  0.11353000  1.0
  H  H30  1  0.63076000  0.62512000  0.85289000  1.0
  H  H31  1  0.36924000  0.37488000  0.14711000  1.0
  H  H32  1  0.62005000  0.82812000  0.86654000  1.0
  H  H33  1  0.37995000  0.17188000  0.13345000  1.0
  H  H34  1  0.20352000  0.82488000  0.88149000  1.0
  H  H35  1  0.79648000  0.17512000  0.11853000  1.0
  H  H36  1  0.19527000  0.62473000  0.86195000  1.0
  H  H37  1  0.80472000  0.37527000  0.13807000  1.0
  H  H38  1  0.99207000  0.76749000  0.72579000  1.0
  H  H39  1  0.00793000  0.23251000  0.27421000  1.0
  H  H40  1  0.93828000  0.23949000  0.76455000  1.0
  H  H41  1  0.06172000  0.76051000  0.23545000  1.0
  H  H42  1  0.25390000  0.73433000  0.56559000  1.0
  H  H43  1  0.74611000  0.26567000  0.43441000  1.0
  H  H44  1  0.16258000  0.71473000  0.45456000  1.0
  H  H45  1  0.83743000  0.28526000  0.54545000  1.0
  H  H46  1  0.39470000  0.66029000  0.42215000  1.0
  H  H47  1  0.60532000  0.33970000  0.57785000  1.0
  H  H48  1  0.39683000  0.56210000  0.56607000  1.0
  H  H49  1  0.60319000  0.43789000  0.43394000  1.0
  H  H50  1  0.35961000  0.45194000  0.42301000  1.0
  H  H51  1  0.64040000  0.54805000  0.57699000  1.0
  H  H52  1  0.21152000  0.53347000  0.38480000  1.0
  H  H53  1  0.78849000  0.46653000  0.61521000  1.0
  H  H54  1  0.26821000  0.35201000  0.61871000  1.0
  H  H55  1  0.73179000  0.64798000  0.38130000  1.0
  H  H56  1  0.13960000  0.34682000  0.52957000  1.0
  H  H57  1  0.86041000  0.65317000  0.47043000  1.0
  C  C58  1  0.37796000  0.10678000  0.60461000  1.0
  C  C59  1  0.62204000  0.89322000  0.39539000  1.0
  C  C60  1  0.39903000  0.15646000  0.47411000  1.0
  C  C61  1  0.60097000  0.84353000  0.52589000  1.0
  C  C62  1  0.26943000  0.16481000  0.41178000  1.0
  C  C63  1  0.73056000  0.83518000  0.58821000  1.0
  C  C64  1  0.17497000  0.06021000  0.47416000  1.0
  C  C65  1  0.82504000  0.93979000  0.52583000  1.0
  C  C66  1  0.12702000  0.06499000  0.59477000  1.0
  C  C67  1  0.87297000  0.93501000  0.40523000  1.0
  C  C68  1  0.24115000  0.07882000  0.66281000  1.0
  C  C69  1  0.75885000  0.92118000  0.33719000  1.0
  C  C70  1  0.53140000  0.30747000  0.83741000  1.0
  C  C71  1  0.46860000  0.69253000  0.16259000  1.0
  C  C72  1  0.53364000  0.42553000  0.83330000  1.0
  C  C73  1  0.46636000  0.57447000  0.16670000  1.0
  C  C74  1  0.41333000  0.48135000  0.85200000  1.0
  C  C75  1  0.58667000  0.51865000  0.14800000  1.0
  C  C76  1  0.29404000  0.41364000  0.86976000  1.0
  C  C77  1  0.70596000  0.58636000  0.13024000  1.0
  C  C78  1  0.29981000  0.29631000  0.87145000  1.0
  C  C79  1  0.70019000  0.70369000  0.12856000  1.0
  C  C80  1  0.41292000  0.60427000  0.85711000  1.0
  C  C81  1  0.58708000  0.39573000  0.14289000  1.0
  C  C82  1  0.53291000  0.66518000  0.85789000  1.0
  C  C83  1  0.46709000  0.33482000  0.14211000  1.0
  C  C84  1  0.52803000  0.77894000  0.86653000  1.0
  C  C85  1  0.47197000  0.22106000  0.13347000  1.0
  C  C86  1  0.29633000  0.77767000  0.87433000  1.0
  C  C87  1  0.70367000  0.22233000  0.12568000  1.0
  C  C88  1  0.29250000  0.66428000  0.86480000  1.0
  C  C89  1  0.70750000  0.33573000  0.13520000  1.0
  C  C90  1  0.11488000  0.58860000  0.62097000  1.0
  C  C91  1  0.88513000  0.41139000  0.37903000  1.0
  C  C92  1  0.21627000  0.66630000  0.53149000  1.0
  C  C93  1  0.78374000  0.33370000  0.46851000  1.0
  C  C94  1  0.33207000  0.59831000  0.49346000  1.0
  C  C95  1  0.66794000  0.40169000  0.50654000  1.0
  C  C96  1  0.27740000  0.49759000  0.45636000  1.0
  C  C97  1  0.72261000  0.50241000  0.54365000  1.0
  C  C98  1  0.19837000  0.40840000  0.55894000  1.0
  C  C99  1  0.80164000  0.59160000  0.44106000  1.0
  C  C100  1  0.10279000  0.46171000  0.63072000  1.0
  C  C101  1  0.89722000  0.53829000  0.36928000  1.0
  S  S102  1  0.77438000  0.04196000  0.87797000  1.0
  S  S103  1  0.22561000  0.95804000  0.12203000  1.0
  N  N104  1  0.47798000  0.08085000  0.67080000  1.0
  N  N105  1  0.52201000  0.91915000  0.32920000  1.0
  N  N106  1  0.22542000  0.06360000  0.77394000  1.0
  N  N107  1  0.77458000  0.93640000  0.22606000  1.0
  N  N108  1  0.41653000  0.24320000  0.85725000  1.0
  N  N109  1  0.58347000  0.75680000  0.14275000  1.0
  N  N110  1  0.41190000  0.83470000  0.87521000  1.0
  N  N111  1  0.58809000  0.16530000  0.12480000  1.0
  N  N112  1  0.03608000  0.62779000  0.69064000  1.0
  N  N113  1  0.96393000  0.37220000  0.30936000  1.0
  N  N114  1  0.00959000  0.39783000  0.70423000  1.0
  N  N115  1  0.99042000  0.60217000  0.29577000  1.0
  O  O116  1  0.60339000  0.10933000  0.61426000  1.0
  O  O117  1  0.39661000  0.89067000  0.38574000  1.0
  O  O118  1  0.09925000  0.02715000  0.82500000  1.0
  O  O119  1  0.90074000  0.97285000  0.17499000  1.0
  O  O120  1  0.62865000  0.02762000  0.93267000  1.0
  O  O121  1  0.37134000  0.97239000  0.06732000  1.0
  O  O122  1  0.81409000  0.16739000  0.85362000  1.0
  O  O123  1  0.18591000  0.83261000  0.14637000  1.0
  O  O124  1  0.85616000  0.96009000  0.96455000  1.0
  O  O125  1  0.14383000  0.03991000  0.03545000  1.0
  O  O126  1  0.77339000  0.00837000  0.76979000  1.0
  O  O127  1  0.22660000  0.99163000  0.23020000  1.0
  O  O128  1  0.05674000  0.75154000  0.66832000  1.0
  O  O129  1  0.94327000  0.24846000  0.33168000  1.0
  O  O130  1  0.01415000  0.28061000  0.70680000  1.0
  O  O131  1  0.98585000  0.71938000  0.29320000  1.0
