# generated using pymatgen
data_Ag3H13C9S(NO4)2
_symmetry_space_group_name_H-M   'P 1'
_cell_length_a   7.52648000
_cell_length_b   8.33450000
_cell_length_c   13.69760000
_cell_angle_alpha   77.23780000
_cell_angle_beta   75.71900000
_cell_angle_gamma   71.90850000
_symmetry_Int_Tables_number   1
_chemical_formula_structural   Ag3H13C9S(NO4)2
_chemical_formula_sum   'Ag6 H26 C18 S2 N4 O16'
_cell_volume   781.75163607
_cell_formula_units_Z   2
loop_
 _symmetry_equiv_pos_site_id
 _symmetry_equiv_pos_as_xyz
  1  'x, y, z'
loop_
 _atom_site_type_symbol
 _atom_site_label
 _atom_site_symmetry_multiplicity
 _atom_site_fract_x
 _atom_site_fract_y
 _atom_site_fract_z
 _atom_site_occupancy
  Ag  Ag0  1  0.26318000  0.86576000  0.33288000  1.0
  Ag  Ag1  1  0.73682000  0.13424000  0.66711000  1.0
  Ag  Ag2  1  0.50000000  0.00000000  0.00000000  1.0
  Ag  Ag3  1  0.00000000  0.00000000  0.50000000  1.0
  Ag  Ag4  1  0.47060000  0.67407000  0.09426000  1.0
  Ag  Ag5  1  0.52939000  0.32593000  0.90574000  1.0
  H  H6  1  0.05586000  0.31368000  0.27656000  1.0
  H  H7  1  0.94414000  0.68633000  0.72343000  1.0
  H  H8  1  0.72592000  0.34818000  0.37620000  1.0
  H  H9  1  0.27408000  0.65182000  0.62379000  1.0
  H  H10  1  0.62830000  0.47416000  0.53451000  1.0
  H  H11  1  0.37170000  0.52583000  0.46548000  1.0
  H  H12  1  0.66743000  0.93753000  0.24161000  1.0
  H  H13  1  0.33257000  0.06247000  0.75839000  1.0
  H  H14  1  0.72301000  0.72186000  0.30068000  1.0
  H  H15  1  0.27700000  0.27814000  0.69932000  1.0
  H  H16  1  0.08279000  0.54789000  0.15107000  1.0
  H  H17  1  0.91720000  0.45212000  0.84894000  1.0
  H  H18  1  0.14917000  0.57456000  0.01716000  1.0
  H  H19  1  0.85082000  0.42543000  0.98285000  1.0
  H  H20  1  0.15144000  0.86936000  0.02753000  1.0
  H  H21  1  0.84855000  0.13064000  0.97247000  1.0
  H  H22  1  0.10783000  0.82045000  0.15261000  1.0
  H  H23  1  0.89217000  0.17956000  0.84739000  1.0
  H  H24  1  0.46694000  0.01400000  0.39888000  1.0
  H  H25  1  0.53307000  0.98600000  0.60112000  1.0
  H  H26  1  0.51279000  0.81617000  0.45690000  1.0
  H  H27  1  0.48721000  0.18383000  0.54310000  1.0
  H  H28  1  0.32415000  0.18426000  0.17897000  1.0
  H  H29  1  0.67586000  0.81574000  0.82103000  1.0
  H  H30  1  0.18140000  0.13669000  0.12895000  1.0
  H  H31  1  0.81860000  0.86331000  0.87105000  1.0
  C  C32  1  0.14528000  0.42008000  0.37881000  1.0
  C  C33  1  0.85472000  0.57992000  0.62119000  1.0
  C  C34  1  0.01457000  0.36944000  0.34620000  1.0
  C  C35  1  0.98544000  0.63056000  0.65379000  1.0
  C  C36  1  0.82749000  0.38851000  0.40296000  1.0
  C  C37  1  0.17251000  0.61150000  0.59703000  1.0
  C  C38  1  0.77328000  0.45844000  0.49160000  1.0
  C  C39  1  0.22672000  0.54155000  0.50839000  1.0
  C  C40  1  0.90414000  0.50985000  0.52866000  1.0
  C  C41  1  0.09586000  0.49014000  0.47134000  1.0
  C  C42  1  0.68229000  0.85424000  0.31513000  1.0
  C  C43  1  0.31771000  0.14576000  0.68487000  1.0
  C  C44  1  0.84503000  0.88234000  0.35133000  1.0
  C  C45  1  0.15497000  0.11767000  0.64867000  1.0
  C  C46  1  0.86766000  0.72000000  0.07069000  1.0
  C  C47  1  0.13233000  0.28001000  0.92931000  1.0
  C  C48  1  0.07557000  0.64342000  0.08199000  1.0
  C  C49  1  0.92442000  0.35658000  0.91802000  1.0
  S  S50  1  0.38298000  0.38486000  0.30622000  1.0
  S  S51  1  0.61702000  0.61514000  0.69378000  1.0
  N  N52  1  0.17268000  0.76938000  0.08634000  1.0
  N  N53  1  0.82732000  0.23062000  0.91366000  1.0
  N  N54  1  0.49925000  0.88946000  0.38695000  1.0
  N  N55  1  0.50076000  0.11054000  0.61305000  1.0
  O  O56  1  0.43819000  0.54482000  0.29007000  1.0
  O  O57  1  0.56181000  0.45518000  0.70993000  1.0
  O  O58  1  0.49841000  0.24407000  0.36905000  1.0
  O  O59  1  0.50159000  0.75593000  0.63095000  1.0
  O  O60  1  0.37798000  0.34147000  0.20814000  1.0
  O  O61  1  0.62203000  0.65853000  0.79186000  1.0
  O  O62  1  0.80873000  0.92336000  0.43920000  1.0
  O  O63  1  0.19128000  0.07664000  0.56080000  1.0
  O  O64  1  0.00503000  0.86106000  0.28954000  1.0
  O  O65  1  0.99497000  0.13895000  0.71045000  1.0
  O  O66  1  0.81148000  0.87877000  0.03890000  1.0
  O  O67  1  0.18851000  0.12123000  0.96110000  1.0
  O  O68  1  0.76970000  0.61180000  0.09225000  1.0
  O  O69  1  0.23030000  0.38821000  0.90775000  1.0
  O  O70  1  0.29075000  0.08717000  0.16247000  1.0
  O  O71  1  0.70925000  0.91283000  0.83753000  1.0
