# generated using pymatgen
data_Zn2HC32N2Cl8O8F13
_symmetry_space_group_name_H-M   'P 1'
_cell_length_a   9.97785000
_cell_length_b   11.01680000
_cell_length_c   17.31630000
_cell_angle_alpha   94.98970000
_cell_angle_beta   96.61610000
_cell_angle_gamma   90.78600000
_symmetry_Int_Tables_number   1
_chemical_formula_structural   Zn2HC32N2Cl8O8F13
_chemical_formula_sum   'Zn2 H1 C32 N2 Cl8 O8 F13'
_cell_volume   1883.09270019
_cell_formula_units_Z   1
loop_
 _symmetry_equiv_pos_site_id
 _symmetry_equiv_pos_as_xyz
  1  'x, y, z'
loop_
 _atom_site_type_symbol
 _atom_site_label
 _atom_site_symmetry_multiplicity
 _atom_site_fract_x
 _atom_site_fract_y
 _atom_site_fract_z
 _atom_site_occupancy
  Zn  Zn0  1  0.36236000  0.49662000  0.50347000  1.0
  Zn  Zn1  1  0.64495000  0.50083000  0.50640000  1.0
  H  H2  1  0.71355000  0.39075000  0.73543000  1.0
  C  C3  1  0.50012000  0.26643000  0.51067000  1.0
  C  C4  1  0.54535000  0.50905000  0.74105000  1.0
  C  C5  1  0.46434000  0.05596000  0.43779000  1.0
  C  C6  1  0.47485000  0.45880000  0.35587000  1.0
  C  C7  1  0.49706000  0.12963000  0.50699000  1.0
  C  C8  1  0.52611000  0.06808000  0.57438000  1.0
  C  C9  1  0.52475000  0.93881000  0.57145000  1.0
  C  C10  1  0.49197000  0.86586000  0.50070000  1.0
  C  C11  1  0.45937000  0.92907000  0.43521000  1.0
  C  C12  1  0.41519000  0.91241000  0.34824000  1.0
  C  C13  1  0.42767000  0.05766000  0.35049000  1.0
  C  C14  1  0.35959000  0.48053000  0.21806000  1.0
  C  C15  1  0.93596000  0.39115000  0.50264000  1.0
  C  C16  1  0.93776000  0.59289000  0.52738000  1.0
  C  C17  1  0.08250000  0.59763000  0.53457000  1.0
  C  C18  1  0.49576000  0.72911000  0.49642000  1.0
  C  C19  1  0.07501000  0.39407000  0.50694000  1.0
  C  C20  1  0.08545000  0.25547000  0.49753000  1.0
  C  C21  1  0.92143000  0.25257000  0.49087000  1.0
  C  C22  1  0.53926000  0.52107000  0.65498000  1.0
  C  C23  1  0.46474000  0.43545000  0.26843000  1.0
  C  C24  1  0.56667000  0.37078000  0.23521000  1.0
  C  C25  1  0.46647000  0.53997000  0.86764000  1.0
  C  C26  1  0.56694000  0.35184000  0.15470000  1.0
  C  C27  1  0.46719000  0.40101000  0.10391000  1.0
  C  C28  1  0.36333000  0.46314000  0.13742000  1.0
  C  C29  1  0.45453000  0.56410000  0.78910000  1.0
  C  C30  1  0.64404000  0.43262000  0.77325000  1.0
  C  C31  1  0.65231000  0.40862000  0.85114000  1.0
  C  C32  1  0.56360000  0.46315000  0.90066000  1.0
  C  C33  1  0.47515000  0.39940000  0.01977000  1.0
  C  C34  1  0.57321000  0.45056000  0.98518000  1.0
  N  N35  1  0.86213000  0.49211000  0.51084000  1.0
  N  N36  1  0.15229000  0.49644000  0.52032000  1.0
  Cl  Cl37  1  0.77159000  0.30975000  0.88685000  1.0
  Cl  Cl38  1  0.56555000  0.15309000  0.66230000  1.0
  Cl  Cl39  1  0.55943000  0.87052000  0.65671000  1.0
  Cl  Cl40  1  0.15968000  0.73311000  0.56415000  1.0
  Cl  Cl41  1  0.33312000  0.66446000  0.75919000  1.0
  Cl  Cl42  1  0.84077000  0.18738000  0.40245000  1.0
  Cl  Cl43  1  0.71204000  0.52126000  0.04066000  1.0
  Cl  Cl44  1  0.23164000  0.56471000  0.25176000  1.0
  O  O45  1  0.39288000  0.31861000  0.52614000  1.0
  O  O46  1  0.60919000  0.31572000  0.49689000  1.0
  O  O47  1  0.37031000  0.43779000  0.38845000  1.0
  O  O48  1  0.58952000  0.49769000  0.38921000  1.0
  O  O49  1  0.38495000  0.67152000  0.47437000  1.0
  O  O50  1  0.60980000  0.68458000  0.51494000  1.0
  O  O51  1  0.42629000  0.54515000  0.61838000  1.0
  O  O52  1  0.64823000  0.50135000  0.62452000  1.0
  F  F53  1  0.66868000  0.32389000  0.28060000  1.0
  F  F54  1  0.26695000  0.51242000  0.08932000  1.0
  F  F55  1  0.38191000  0.59525000  0.91432000  1.0
  F  F56  1  0.36574000  0.34782000  0.97343000  1.0
  F  F57  1  0.66685000  0.28689000  0.12640000  1.0
  F  F58  1  0.49818000  0.84899000  0.30253000  1.0
  F  F59  1  0.28656000  0.86696000  0.32645000  1.0
  F  F60  1  0.52786000  0.09829000  0.31022000  1.0
  F  F61  1  0.31257000  0.11488000  0.32496000  1.0
  F  F62  1  0.87588000  0.69703000  0.53832000  1.0
  F  F63  1  0.13886000  0.20557000  0.43439000  1.0
  F  F64  1  0.14204000  0.20438000  0.56179000  1.0
  F  F65  1  0.87495000  0.20104000  0.55248000  1.0
