# generated using pymatgen
data_H6PbC6(N2O)4
_symmetry_space_group_name_H-M   'P 1'
_cell_length_a   8.38413000
_cell_length_b   9.28257000
_cell_length_c   9.28239000
_cell_angle_alpha   68.17570000
_cell_angle_beta   66.15400000
_cell_angle_gamma   66.15400000
_symmetry_Int_Tables_number   1
_chemical_formula_structural   H6PbC6(N2O)4
_chemical_formula_sum   'H12 Pb2 C12 N16 O8'
_cell_volume   585.30327268
_cell_formula_units_Z   2
loop_
 _symmetry_equiv_pos_site_id
 _symmetry_equiv_pos_as_xyz
  1  'x, y, z'
loop_
 _atom_site_type_symbol
 _atom_site_label
 _atom_site_symmetry_multiplicity
 _atom_site_fract_x
 _atom_site_fract_y
 _atom_site_fract_z
 _atom_site_occupancy
  H  H0  1  0.79668000  0.89035000  0.50456000  1.0
  H  H1  1  0.70339000  0.49545000  0.10963000  1.0
  H  H2  1  0.20332000  0.10957000  0.49549000  1.0
  H  H3  1  0.29674000  0.50455000  0.89027000  1.0
  H  H4  1  0.81088000  0.08051000  0.68290000  1.0
  H  H5  1  0.68915000  0.31706000  0.91949000  1.0
  H  H6  1  0.18909000  0.91949000  0.31714000  1.0
  H  H7  1  0.31091000  0.68291000  0.08051000  1.0
  H  H8  1  0.64098000  0.06821000  0.87715000  1.0
  H  H9  1  0.85905000  0.12285000  0.93183000  1.0
  H  H10  1  0.35894000  0.93185000  0.12285000  1.0
  H  H11  1  0.14101000  0.87710000  0.06818000  1.0
  Pb  Pb12  1  0.24996000  0.47291000  0.52685000  1.0
  Pb  Pb13  1  0.74976000  0.52708000  0.47311000  1.0
  C  C14  1  0.73388000  0.83790000  0.63098000  1.0
  C  C15  1  0.76614000  0.36906000  0.16212000  1.0
  C  C16  1  0.26608000  0.16206000  0.36908000  1.0
  C  C17  1  0.23393000  0.63095000  0.83784000  1.0
  C  C18  1  0.67460000  0.06525000  0.75106000  1.0
  C  C19  1  0.82542000  0.24894000  0.93477000  1.0
  C  C20  1  0.32535000  0.93478000  0.24895000  1.0
  C  C21  1  0.17463000  0.75102000  0.06524000  1.0
  C  C22  1  0.53272000  0.20564000  0.67581000  1.0
  C  C23  1  0.96732000  0.32415000  0.79437000  1.0
  C  C24  1  0.46731000  0.79442000  0.32411000  1.0
  C  C25  1  0.03271000  0.67580000  0.20564000  1.0
  N  N26  1  0.69939000  0.69587000  0.69223000  1.0
  N  N27  1  0.80058000  0.30783000  0.30419000  1.0
  N  N28  1  0.30054000  0.30411000  0.30786000  1.0
  N  N29  1  0.19945000  0.69220000  0.69578000  1.0
  N  N30  1  0.61899000  0.68069000  0.85508000  1.0
  N  N31  1  0.88096000  0.14499000  0.31938000  1.0
  N  N32  1  0.38093000  0.31933000  0.14500000  1.0
  N  N33  1  0.11904000  0.85503000  0.68063000  1.0
  N  N34  1  0.60428000  0.80773000  0.89366000  1.0
  N  N35  1  0.89569000  0.10640000  0.19233000  1.0
  N  N36  1  0.39566000  0.19231000  0.10639000  1.0
  N  N37  1  0.10433000  0.89359000  0.80770000  1.0
  N  N38  1  0.67739000  0.90719000  0.75399000  1.0
  N  N39  1  0.82261000  0.24604000  0.09284000  1.0
  N  N40  1  0.32256000  0.09282000  0.24604000  1.0
  N  N41  1  0.17745000  0.75394000  0.90715000  1.0
  O  O42  1  0.51648000  0.34704000  0.68018000  1.0
  O  O43  1  0.98360000  0.31975000  0.65294000  1.0
  O  O44  1  0.48355000  0.65298000  0.31982000  1.0
  O  O45  1  0.01642000  0.68022000  0.34707000  1.0
  O  O46  1  0.05690000  0.38491000  0.82448000  1.0
  O  O47  1  0.44311000  0.17552000  0.61508000  1.0
  O  O48  1  0.94312000  0.61506000  0.17552000  1.0
  O  O49  1  0.55701000  0.82458000  0.38471000  1.0
