# generated using pymatgen
data_AgH4C2NO2
_symmetry_space_group_name_H-M   'P 1'
_cell_length_a   6.13266000
_cell_length_b   8.84722000
_cell_length_c   15.12160000
_cell_angle_alpha   97.35470000
_cell_angle_beta   89.99950000
_cell_angle_gamma   89.99940000
_symmetry_Int_Tables_number   1
_chemical_formula_structural   AgH4C2NO2
_chemical_formula_sum   'Ag8 H32 C16 N8 O16'
_cell_volume   813.70240986
_cell_formula_units_Z   8
loop_
 _symmetry_equiv_pos_site_id
 _symmetry_equiv_pos_as_xyz
  1  'x, y, z'
loop_
 _atom_site_type_symbol
 _atom_site_label
 _atom_site_symmetry_multiplicity
 _atom_site_fract_x
 _atom_site_fract_y
 _atom_site_fract_z
 _atom_site_occupancy
  Ag  Ag0  1  0.74204000  0.34359000  0.08345000  1.0
  Ag  Ag1  1  0.75792000  0.84358000  0.58345000  1.0
  Ag  Ag2  1  0.25794000  0.65641000  0.91655000  1.0
  Ag  Ag3  1  0.24206000  0.15642000  0.41656000  1.0
  Ag  Ag4  1  0.64120000  0.67065000  0.73917000  1.0
  Ag  Ag5  1  0.85881000  0.17065000  0.23917000  1.0
  Ag  Ag6  1  0.35879000  0.32935000  0.26082000  1.0
  Ag  Ag7  1  0.14121000  0.82934000  0.76083000  1.0
  H  H8  1  0.78623000  0.04896000  0.04607000  1.0
  H  H9  1  0.71377000  0.54895000  0.54605000  1.0
  H  H10  1  0.21378000  0.95104000  0.95394000  1.0
  H  H11  1  0.28622000  0.45104000  0.45394000  1.0
  H  H12  1  0.93893000  0.08538000  0.67714000  1.0
  H  H13  1  0.56104000  0.58538000  0.17714000  1.0
  H  H14  1  0.06106000  0.91463000  0.32286000  1.0
  H  H15  1  0.43895000  0.41463000  0.82286000  1.0
  H  H16  1  0.70451000  0.03900000  0.72073000  1.0
  H  H17  1  0.79546000  0.53900000  0.22073000  1.0
  H  H18  1  0.29548000  0.96101000  0.27927000  1.0
  H  H19  1  0.20452000  0.46101000  0.77927000  1.0
  H  H20  1  0.50084000  0.15840000  0.61278000  1.0
  H  H21  1  0.99914000  0.65840000  0.11278000  1.0
  H  H22  1  0.49915000  0.84160000  0.38722000  1.0
  H  H23  1  0.00086000  0.34159000  0.88722000  1.0
  H  H24  1  0.74848000  0.20609000  0.56289000  1.0
  H  H25  1  0.75150000  0.70611000  0.06290000  1.0
  H  H26  1  0.25151000  0.79390000  0.43710000  1.0
  H  H27  1  0.24851000  0.29389000  0.93710000  1.0
  H  H28  1  0.69343000  0.16515000  0.87436000  1.0
  H  H29  1  0.80657000  0.66516000  0.37436000  1.0
  H  H30  1  0.30657000  0.83484000  0.12565000  1.0
  H  H31  1  0.19341000  0.33484000  0.62564000  1.0
  H  H32  1  0.48595000  0.10883000  0.94423000  1.0
  H  H33  1  0.01407000  0.60885000  0.44422000  1.0
  H  H34  1  0.51406000  0.89115000  0.05577000  1.0
  H  H35  1  0.98592000  0.39116000  0.55577000  1.0
  H  H36  1  0.95633000  0.13253000  0.98601000  1.0
  H  H37  1  0.54368000  0.63251000  0.48599000  1.0
  H  H38  1  0.04368000  0.86748000  0.01400000  1.0
  H  H39  1  0.45632000  0.36749000  0.51400000  1.0
  C  C40  1  0.67314000  0.18710000  0.62634000  1.0
  C  C41  1  0.82684000  0.68711000  0.12635000  1.0
  C  C42  1  0.32686000  0.81290000  0.37366000  1.0
  C  C43  1  0.17316000  0.31289000  0.87366000  1.0
  C  C44  1  0.67504000  0.33481000  0.69123000  1.0
  C  C45  1  0.82495000  0.83481000  0.19123000  1.0
  C  C46  1  0.32494000  0.66519000  0.30877000  1.0
  C  C47  1  0.17508000  0.16519000  0.80876000  1.0
  C  C48  1  0.68140000  0.92455000  0.88495000  1.0
  C  C49  1  0.81863000  0.42456000  0.38495000  1.0
  C  C50  1  0.31863000  0.07544000  0.11506000  1.0
  C  C51  1  0.18137000  0.57545000  0.61506000  1.0
  C  C52  1  0.65778000  0.09072000  0.92520000  1.0
  C  C53  1  0.84222000  0.59073000  0.42519000  1.0
  C  C54  1  0.34223000  0.90927000  0.07480000  1.0
  C  C55  1  0.15777000  0.40928000  0.57480000  1.0
  N  N56  1  0.79498000  0.13204000  0.00423000  1.0
  N  N57  1  0.70502000  0.63205000  0.50422000  1.0
  N  N58  1  0.20503000  0.86795000  0.99577000  1.0
  N  N59  1  0.29497000  0.36796000  0.49578000  1.0
  N  N60  1  0.77834000  0.05826000  0.66183000  1.0
  N  N61  1  0.72163000  0.55825000  0.16183000  1.0
  N  N62  1  0.22165000  0.94174000  0.33817000  1.0
  N  N63  1  0.27835000  0.44175000  0.83817000  1.0
  O  O64  1  0.70937000  0.33254000  0.77262000  1.0
  O  O65  1  0.79060000  0.83257000  0.27263000  1.0
  O  O66  1  0.29059000  0.66745000  0.22738000  1.0
  O  O67  1  0.20942000  0.16744000  0.72737000  1.0
  O  O68  1  0.62990000  0.45554000  0.65459000  1.0
  O  O69  1  0.87012000  0.95553000  0.15460000  1.0
  O  O70  1  0.37009000  0.54446000  0.34541000  1.0
  O  O71  1  0.12992000  0.04447000  0.84540000  1.0
  O  O72  1  0.61585000  0.89886000  0.80300000  1.0
  O  O73  1  0.88420000  0.39887000  0.30300000  1.0
  O  O74  1  0.38421000  0.10113000  0.19700000  1.0
  O  O75  1  0.11579000  0.60113000  0.69701000  1.0
  O  O76  1  0.75068000  0.82626000  0.93046000  1.0
  O  O77  1  0.74934000  0.32628000  0.43046000  1.0
  O  O78  1  0.24934000  0.17373000  0.06954000  1.0
  O  O79  1  0.25065000  0.67373000  0.56955000  1.0
