# generated using pymatgen
data_NiH6C6(N2O)4
_symmetry_space_group_name_H-M   'P 1'
_cell_length_a   8.21281000
_cell_length_b   8.21280000
_cell_length_c   9.50745000
_cell_angle_alpha   66.03370000
_cell_angle_beta   66.03380000
_cell_angle_gamma   60.31810000
_symmetry_Int_Tables_number   1
_chemical_formula_structural   NiH6C6(N2O)4
_chemical_formula_sum   'Ni2 H12 C12 N16 O8'
_cell_volume   491.82644564
_cell_formula_units_Z   2
loop_
 _symmetry_equiv_pos_site_id
 _symmetry_equiv_pos_as_xyz
  1  'x, y, z'
loop_
 _atom_site_type_symbol
 _atom_site_label
 _atom_site_symmetry_multiplicity
 _atom_site_fract_x
 _atom_site_fract_y
 _atom_site_fract_z
 _atom_site_occupancy
  Ni  Ni0  1  0.54271000  0.45729000  0.75000000  1.0
  Ni  Ni1  1  0.45729000  0.54271000  0.25000000  1.0
  H  H2  1  0.90808000  0.01420000  0.16174000  1.0
  H  H3  1  0.98580000  0.09192000  0.33826000  1.0
  H  H4  1  0.09192000  0.98580000  0.83826000  1.0
  H  H5  1  0.01420000  0.90808000  0.66174000  1.0
  H  H6  1  0.67091000  0.08521000  0.29240000  1.0
  H  H7  1  0.91479000  0.32909000  0.20759000  1.0
  H  H8  1  0.32908000  0.91479000  0.70760000  1.0
  H  H9  1  0.08521000  0.67091000  0.79240000  1.0
  H  H10  1  0.47671000  0.87880000  0.34925000  1.0
  H  H11  1  0.12121000  0.52329000  0.15075000  1.0
  H  H12  1  0.52329000  0.12121000  0.65075000  1.0
  H  H13  1  0.87880000  0.47671000  0.84925000  1.0
  C  C14  1  0.75339000  0.06104000  0.17375000  1.0
  C  C15  1  0.93896000  0.24661000  0.32625000  1.0
  C  C16  1  0.24661000  0.93896000  0.82625000  1.0
  C  C17  1  0.06104000  0.75339000  0.67375000  1.0
  C  C18  1  0.58739000  0.83839000  0.24400000  1.0
  C  C19  1  0.16161000  0.41261000  0.25600000  1.0
  C  C20  1  0.41262000  0.16161000  0.75600000  1.0
  C  C21  1  0.83839000  0.58739000  0.74400000  1.0
  C  C22  1  0.69257000  0.25090000  0.04417000  1.0
  C  C23  1  0.74910000  0.30743000  0.45582000  1.0
  C  C24  1  0.30742000  0.74912000  0.95585000  1.0
  C  C25  1  0.25088000  0.69258000  0.54415000  1.0
  N  N26  1  0.61831000  0.70413000  0.18154000  1.0
  N  N27  1  0.29587000  0.38169000  0.31847000  1.0
  N  N28  1  0.38168000  0.29587000  0.81847000  1.0
  N  N29  1  0.70413000  0.61831000  0.68154000  1.0
  N  N30  1  0.78008000  0.69165000  0.05751000  1.0
  N  N31  1  0.30835000  0.21992000  0.44249000  1.0
  N  N32  1  0.21992000  0.30835000  0.94249000  1.0
  N  N33  1  0.69165000  0.78007000  0.55751000  1.0
  N  N34  1  0.72754000  0.90638000  0.15982000  1.0
  N  N35  1  0.09362000  0.27245000  0.34018000  1.0
  N  N36  1  0.27245000  0.09362000  0.84018000  1.0
  N  N37  1  0.90638000  0.72754000  0.65982000  1.0
  N  N38  1  0.84701000  0.81275000  0.04390000  1.0
  N  N39  1  0.18725000  0.15299000  0.45610000  1.0
  N  N40  1  0.15299000  0.18725000  0.95610000  1.0
  N  N41  1  0.81275000  0.84700000  0.54390000  1.0
  O  O42  1  0.65896000  0.40396000  0.07252000  1.0
  O  O43  1  0.59605000  0.34103000  0.42748000  1.0
  O  O44  1  0.34104000  0.59603000  0.92748000  1.0
  O  O45  1  0.40397000  0.65896000  0.57252000  1.0
  O  O46  1  0.69307000  0.23736000  0.91599000  1.0
  O  O47  1  0.76264000  0.30694000  0.58401000  1.0
  O  O48  1  0.30693000  0.76265000  0.08400000  1.0
  O  O49  1  0.23735000  0.69307000  0.41600000  1.0
