# generated using pymatgen
data_CuH6C3S3N3Cl
_symmetry_space_group_name_H-M   'P 1'
_cell_length_a   13.28540000
_cell_length_b   13.28530000
_cell_length_c   13.46470000
_cell_angle_alpha   89.99990000
_cell_angle_beta   90.00000000
_cell_angle_gamma   114.86600000
_symmetry_Int_Tables_number   1
_chemical_formula_structural   CuH6C3S3N3Cl
_chemical_formula_sum   'Cu8 H48 C24 S24 N24 Cl8'
_cell_volume   2156.20762999
_cell_formula_units_Z   8
loop_
 _symmetry_equiv_pos_site_id
 _symmetry_equiv_pos_as_xyz
  1  'x, y, z'
loop_
 _atom_site_type_symbol
 _atom_site_label
 _atom_site_symmetry_multiplicity
 _atom_site_fract_x
 _atom_site_fract_y
 _atom_site_fract_z
 _atom_site_occupancy
  Cu  Cu0  1  0.52254000  0.20240000  0.49648000  1.0
  Cu  Cu1  1  0.97746000  0.29760000  0.49648000  1.0
  Cu  Cu2  1  0.70240000  0.02254000  0.00352000  1.0
  Cu  Cu3  1  0.79759000  0.47745000  0.00352000  1.0
  Cu  Cu4  1  0.47746000  0.79761000  0.50352000  1.0
  Cu  Cu5  1  0.02254000  0.70240000  0.50352000  1.0
  Cu  Cu6  1  0.29760000  0.97745000  0.99648000  1.0
  Cu  Cu7  1  0.20240000  0.52254000  0.99648000  1.0
  H  H8  1  0.79737000  0.45326000  0.66076000  1.0
  H  H9  1  0.70263000  0.04675000  0.66076000  1.0
  H  H10  1  0.95325000  0.29737000  0.83925000  1.0
  H  H11  1  0.54675000  0.20264000  0.83925000  1.0
  H  H12  1  0.20263000  0.54675000  0.33924000  1.0
  H  H13  1  0.29737000  0.95325000  0.33924000  1.0
  H  H14  1  0.04675000  0.70264000  0.16075000  1.0
  H  H15  1  0.45325000  0.79737000  0.16075000  1.0
  H  H16  1  0.71257000  0.38478000  0.55845000  1.0
  H  H17  1  0.78743000  0.11522000  0.55845000  1.0
  H  H18  1  0.88479000  0.21258000  0.94156000  1.0
  H  H19  1  0.61522000  0.28742000  0.94156000  1.0
  H  H20  1  0.28743000  0.61522000  0.44155000  1.0
  H  H21  1  0.21257000  0.88478000  0.44155000  1.0
  H  H22  1  0.11522000  0.78743000  0.05844000  1.0
  H  H23  1  0.38479000  0.71258000  0.05844000  1.0
  H  H24  1  0.52683000  0.25212000  0.30665000  1.0
  H  H25  1  0.97317000  0.24788000  0.30665000  1.0
  H  H26  1  0.75212000  0.02683000  0.19335000  1.0
  H  H27  1  0.74788000  0.47317000  0.19335000  1.0
  H  H28  1  0.47317000  0.74788000  0.69335000  1.0
  H  H29  1  0.02684000  0.75212000  0.69335000  1.0
  H  H30  1  0.24788000  0.97317000  0.80665000  1.0
  H  H31  1  0.25212000  0.52683000  0.80665000  1.0
  H  H32  1  0.56050000  0.23500000  0.18319000  1.0
  H  H33  1  0.93950000  0.26500000  0.18319000  1.0
  H  H34  1  0.73500000  0.06050000  0.31681000  1.0
  H  H35  1  0.76500000  0.43950000  0.31682000  1.0
  H  H36  1  0.43950000  0.76500000  0.81681000  1.0
  H  H37  1  0.06050000  0.73500000  0.81681000  1.0
  H  H38  1  0.26500000  0.93950000  0.68319000  1.0
  H  H39  1  0.23500000  0.56050000  0.68319000  1.0
  H  H40  1  0.35907000  0.42295000  0.53401000  1.0
  H  H41  1  0.14093000  0.07706000  0.53401000  1.0
  H  H42  1  0.92294000  0.85907000  0.96599000  1.0
  H  H43  1  0.57705000  0.64093000  0.96599000  1.0
  H  H44  1  0.64093000  0.57706000  0.46599000  1.0
  H  H45  1  0.85907000  0.92295000  0.46599000  1.0
  H  H46  1  0.07706000  0.14093000  0.03401000  1.0
  H  H47  1  0.42294000  0.35907000  0.03401000  1.0
  H  H48  1  0.46609000  0.38021000  0.50758000  1.0
  H  H49  1  0.03391000  0.11979000  0.50758000  1.0
  H  H50  1  0.88020000  0.96609000  0.99242000  1.0
  H  H51  1  0.61979000  0.53391000  0.99242000  1.0
  H  H52  1  0.53391000  0.61979000  0.49242000  1.0
  H  H53  1  0.96609000  0.88021000  0.49242000  1.0
  H  H54  1  0.11980000  0.03391000  0.00758000  1.0
  H  H55  1  0.38021000  0.46609000  0.00758000  1.0
  C  C56  1  0.65856000  0.31724000  0.69562000  1.0
  C  C57  1  0.84144000  0.18276000  0.69562000  1.0
  C  C58  1  0.81724000  0.15857000  0.80438000  1.0
  C  C59  1  0.68276000  0.34143000  0.80438000  1.0
  C  C60  1  0.34145000  0.68276000  0.30438000  1.0
  C  C61  1  0.15856000  0.81724000  0.30438000  1.0
  C  C62  1  0.18276000  0.84144000  0.19562000  1.0
  C  C63  1  0.31724000  0.65856000  0.19562000  1.0
  C  C64  1  0.59007000  0.13857000  0.28835000  1.0
  C  C65  1  0.90992000  0.36142000  0.28835000  1.0
  C  C66  1  0.63857000  0.09007000  0.21165000  1.0
  C  C67  1  0.86143000  0.40993000  0.21165000  1.0
  C  C68  1  0.40993000  0.86144000  0.71165000  1.0
  C  C69  1  0.09007000  0.63857000  0.71165000  1.0
  C  C70  1  0.36143000  0.90993000  0.78835000  1.0
  C  C71  1  0.13857000  0.59007000  0.78835000  1.0
  C  C72  1  0.30986000  0.25982000  0.49429000  1.0
  C  C73  1  0.19014000  0.24019000  0.49429000  1.0
  C  C74  1  0.75982000  0.80985000  0.00571000  1.0
  C  C75  1  0.74018000  0.69015000  0.00571000  1.0
  C  C76  1  0.69014000  0.74018000  0.50571000  1.0
  C  C77  1  0.80985000  0.75982000  0.50571000  1.0
  C  C78  1  0.24019000  0.19015000  0.99429000  1.0
  C  C79  1  0.25982000  0.30985000  0.99429000  1.0
  S  S80  1  0.54213000  0.20771000  0.66146000  1.0
  S  S81  1  0.95787000  0.29229000  0.66146000  1.0
  S  S82  1  0.70771000  0.04213000  0.83854000  1.0
  S  S83  1  0.79229000  0.45787000  0.83854000  1.0
  S  S84  1  0.45787000  0.79229000  0.33854000  1.0
  S  S85  1  0.04213000  0.70771000  0.33854000  1.0
  S  S86  1  0.29229000  0.95787000  0.16146000  1.0
  S  S87  1  0.20771000  0.54213000  0.16146000  1.0
  S  S88  1  0.59002000  0.10221000  0.40822000  1.0
  S  S89  1  0.90998000  0.39778000  0.40822000  1.0
  S  S90  1  0.60221000  0.09002000  0.09178000  1.0
  S  S91  1  0.89778000  0.40997000  0.09178000  1.0
  S  S92  1  0.40998000  0.89779000  0.59178000  1.0
  S  S93  1  0.09003000  0.60222000  0.59178000  1.0
  S  S94  1  0.39779000  0.90998000  0.90821000  1.0
  S  S95  1  0.10221000  0.59002000  0.90821000  1.0
  S  S96  1  0.34178000  0.15441000  0.46245000  1.0
  S  S97  1  0.15822000  0.34559000  0.46245000  1.0
  S  S98  1  0.65441000  0.84177000  0.03756000  1.0
  S  S99  1  0.84558000  0.65822000  0.03756000  1.0
  S  S100  1  0.65822000  0.84559000  0.53755000  1.0
  S  S101  1  0.84178000  0.65441000  0.53755000  1.0
  S  S102  1  0.34559000  0.15822000  0.96244000  1.0
  S  S103  1  0.15442000  0.34178000  0.96245000  1.0
  N  N104  1  0.73177000  0.38634000  0.63254000  1.0
  N  N105  1  0.76823000  0.11366000  0.63254000  1.0
  N  N106  1  0.88634000  0.23176000  0.86747000  1.0
  N  N107  1  0.61366000  0.26824000  0.86747000  1.0
  N  N108  1  0.26824000  0.61366000  0.36746000  1.0
  N  N109  1  0.23177000  0.88634000  0.36746000  1.0
  N  N110  1  0.11366000  0.76824000  0.13253000  1.0
  N  N111  1  0.38634000  0.73177000  0.13253000  1.0
  N  N112  1  0.55063000  0.20908000  0.25590000  1.0
  N  N113  1  0.94937000  0.29092000  0.25590000  1.0
  N  N114  1  0.70908000  0.05063000  0.24410000  1.0
  N  N115  1  0.79092000  0.44937000  0.24410000  1.0
  N  N116  1  0.44937000  0.79092000  0.74409000  1.0
  N  N117  1  0.05063000  0.70908000  0.74409000  1.0
  N  N118  1  0.29092000  0.94937000  0.75590000  1.0
  N  N119  1  0.20908000  0.55063000  0.75590000  1.0
  N  N120  1  0.38327000  0.36062000  0.51846000  1.0
  N  N121  1  0.11673000  0.13938000  0.51845000  1.0
  N  N122  1  0.86062000  0.88327000  0.98155000  1.0
  N  N123  1  0.63938000  0.61673000  0.98155000  1.0
  N  N124  1  0.61673000  0.63938000  0.48154000  1.0
  N  N125  1  0.88327000  0.86062000  0.48154000  1.0
  N  N126  1  0.13938000  0.11673000  0.01845000  1.0
  N  N127  1  0.36062000  0.38327000  0.01845000  1.0
  Cl  Cl128  1  0.61647000  0.39512000  0.42855000  1.0
  Cl  Cl129  1  0.88353000  0.10488000  0.42855000  1.0
  Cl  Cl130  1  0.89512000  0.11646000  0.07145000  1.0
  Cl  Cl131  1  0.60488000  0.38354000  0.07146000  1.0
  Cl  Cl132  1  0.38353000  0.60488000  0.57145000  1.0
  Cl  Cl133  1  0.11647000  0.89512000  0.57145000  1.0
  Cl  Cl134  1  0.10488000  0.88354000  0.92854000  1.0
  Cl  Cl135  1  0.39512000  0.61646000  0.92855000  1.0
