# generated using pymatgen
data_LaH10C4Cl3O2
_symmetry_space_group_name_H-M   'P 1'
_cell_length_a   6.65630000
_cell_length_b   7.40529000
_cell_length_c   10.11170000
_cell_angle_alpha   84.43450000
_cell_angle_beta   76.91400000
_cell_angle_gamma   75.65810000
_symmetry_Int_Tables_number   1
_chemical_formula_structural   LaH10C4Cl3O2
_chemical_formula_sum   'La2 H20 C8 Cl6 O4'
_cell_volume   469.90875195
_cell_formula_units_Z   2
loop_
 _symmetry_equiv_pos_site_id
 _symmetry_equiv_pos_as_xyz
  1  'x, y, z'
loop_
 _atom_site_type_symbol
 _atom_site_label
 _atom_site_symmetry_multiplicity
 _atom_site_fract_x
 _atom_site_fract_y
 _atom_site_fract_z
 _atom_site_occupancy
  La  La0  1  0.72025000  0.70793000  0.93956000  1.0
  La  La1  1  0.27976000  0.29206000  0.06044000  1.0
  H  H2  1  0.03852000  0.78433000  0.60365000  1.0
  H  H3  1  0.96149000  0.21566000  0.39634000  1.0
  H  H4  1  0.80543000  0.96755000  0.60293000  1.0
  H  H5  1  0.19457000  0.03245000  0.39707000  1.0
  H  H6  1  0.88591000  0.87574000  0.36699000  1.0
  H  H7  1  0.11408000  0.12426000  0.63302000  1.0
  H  H8  1  0.97895000  0.63795000  0.41321000  1.0
  H  H9  1  0.02103000  0.36204000  0.58679000  1.0
  H  H10  1  0.52036000  0.86780000  0.46721000  1.0
  H  H11  1  0.47964000  0.13221000  0.53281000  1.0
  H  H12  1  0.61980000  0.64362000  0.39975000  1.0
  H  H13  1  0.38016000  0.35640000  0.60025000  1.0
  H  H14  1  0.64812000  0.49624000  0.62147000  1.0
  H  H15  1  0.35186000  0.50378000  0.37853000  1.0
  H  H16  1  0.44620000  0.69654000  0.67910000  1.0
  H  H17  1  0.55381000  0.30347000  0.32091000  1.0
  H  H18  1  0.09028000  0.93629000  0.86077000  1.0
  H  H19  1  0.90976000  0.06370000  0.13922000  1.0
  H  H20  1  0.86666000  0.07764000  0.86873000  1.0
  H  H21  1  0.13337000  0.92235000  0.13126000  1.0
  C  C22  1  0.87753000  0.81897000  0.58415000  1.0
  C  C23  1  0.12247000  0.18104000  0.41585000  1.0
  C  C24  1  0.86134000  0.76663000  0.44611000  1.0
  C  C25  1  0.13863000  0.23338000  0.55389000  1.0
  C  C26  1  0.63637000  0.73491000  0.47359000  1.0
  C  C27  1  0.36362000  0.26510000  0.52641000  1.0
  C  C28  1  0.60669000  0.64936000  0.61774000  1.0
  C  C29  1  0.39330000  0.35064000  0.38226000  1.0
  Cl  Cl30  1  0.60603000  0.99049000  0.14755000  1.0
  Cl  Cl31  1  0.39397000  0.00950000  0.85245000  1.0
  Cl  Cl32  1  0.67342000  0.34706000  0.88504000  1.0
  Cl  Cl33  1  0.32660000  0.65293000  0.11495000  1.0
  Cl  Cl34  1  0.85471000  0.48772000  0.16410000  1.0
  Cl  Cl35  1  0.14531000  0.51227000  0.83590000  1.0
  O  O36  1  0.75583000  0.70748000  0.68211000  1.0
  O  O37  1  0.24417000  0.29251000  0.31788000  1.0
  O  O38  1  0.94053000  0.94411000  0.85876000  1.0
  O  O39  1  0.05949000  0.05588000  0.14124000  1.0
