# generated using pymatgen
data_ZnH16C20(NO2)2
_symmetry_space_group_name_H-M   'P 1'
_cell_length_a   9.55171000
_cell_length_b   11.32531129
_cell_length_c   22.19390000
_cell_angle_alpha   102.43863035
_cell_angle_beta   90.00840000
_cell_angle_gamma   114.93062974
_symmetry_Int_Tables_number   1
_chemical_formula_structural   ZnH16C20(NO2)2
_chemical_formula_sum   'Zn4 H64 C80 N8 O16'
_cell_volume   2114.79151166
_cell_formula_units_Z   4
loop_
 _symmetry_equiv_pos_site_id
 _symmetry_equiv_pos_as_xyz
  1  'x, y, z'
loop_
 _atom_site_type_symbol
 _atom_site_label
 _atom_site_symmetry_multiplicity
 _atom_site_fract_x
 _atom_site_fract_y
 _atom_site_fract_z
 _atom_site_occupancy
  Zn  Zn0  1  0.92353000  0.34168000  0.37669000  1.0
  Zn  Zn1  1  0.58178000  0.65834000  0.12329000  1.0
  Zn  Zn2  1  0.07647000  0.65832000  0.62331000  1.0
  Zn  Zn3  1  0.41822000  0.34166000  0.87671000  1.0
  H  H4  1  0.05751000  0.60617000  0.45258000  1.0
  H  H5  1  0.45148000  0.39399000  0.04741000  1.0
  H  H6  1  0.94249000  0.39383000  0.54742000  1.0
  H  H7  1  0.54852000  0.60601000  0.95259000  1.0
  H  H8  1  0.00132000  0.80388000  0.48668000  1.0
  H  H9  1  0.19772000  0.19621000  0.01326000  1.0
  H  H10  1  0.99868000  0.19612000  0.51332000  1.0
  H  H11  1  0.80228000  0.80379000  0.98674000  1.0
  H  H12  1  0.58755000  0.59658000  0.35744000  1.0
  H  H13  1  0.99100000  0.40331000  0.14245000  1.0
  H  H14  1  0.41245000  0.40342000  0.64256000  1.0
  H  H15  1  0.00900000  0.59669000  0.85755000  1.0
  H  H16  1  0.65598000  0.40299000  0.33092000  1.0
  H  H17  1  0.25289000  0.59697000  0.16904000  1.0
  H  H18  1  0.34401000  0.59701000  0.66908000  1.0
  H  H19  1  0.74711000  0.40303000  0.83096000  1.0
  H  H20  1  0.79822000  0.88882000  0.48996000  1.0
  H  H21  1  0.90939000  0.11116000  0.01000000  1.0
  H  H22  1  0.20179000  0.11118000  0.51004000  1.0
  H  H23  1  0.09061000  0.88884000  0.99000000  1.0
  H  H24  1  0.63764000  0.81533000  0.43259000  1.0
  H  H25  1  0.82257000  0.18484000  0.06740000  1.0
  H  H26  1  0.36236000  0.18467000  0.56741000  1.0
  H  H27  1  0.17744000  0.81517000  0.93260000  1.0
  H  H28  1  0.84018000  0.03878000  0.42010000  1.0
  H  H29  1  0.80138000  0.96121000  0.07982000  1.0
  H  H30  1  0.15982000  0.96122000  0.57990000  1.0
  H  H31  1  0.19862000  0.03879000  0.92018000  1.0
  H  H32  1  0.97856000  0.97318000  0.40937000  1.0
  H  H33  1  0.00533000  0.02665000  0.09059000  1.0
  H  H34  1  0.02146000  0.02683000  0.59063000  1.0
  H  H35  1  0.99467000  0.97335000  0.90941000  1.0
  H  H36  1  0.86755000  0.72952000  0.19834000  1.0
  H  H37  1  0.13822000  0.27034000  0.30162000  1.0
  H  H38  1  0.13245000  0.27048000  0.80166000  1.0
  H  H39  1  0.86178000  0.72966000  0.69838000  1.0
  H  H40  1  0.98581000  0.83995000  0.30792000  1.0
  H  H41  1  0.14585000  0.15982000  0.19204000  1.0
  H  H42  1  0.01419000  0.16005000  0.69208000  1.0
  H  H43  1  0.85415000  0.84018000  0.80796000  1.0
  H  H44  1  0.59331000  0.93167000  0.34106000  1.0
  H  H45  1  0.66168000  0.06828000  0.15897000  1.0
  H  H46  1  0.40669000  0.06833000  0.65894000  1.0
  H  H47  1  0.33832000  0.93172000  0.84103000  1.0
  H  H48  1  0.49270000  0.81898000  0.23000000  1.0
  H  H49  1  0.67395000  0.18100000  0.27002000  1.0
  H  H50  1  0.50730000  0.18102000  0.77000000  1.0
  H  H51  1  0.32606000  0.81900000  0.72998000  1.0
  H  H52  1  0.40729000  0.26232000  0.44192000  1.0
  H  H53  1  0.14535000  0.73758000  0.05814000  1.0
  H  H54  1  0.59271000  0.73768000  0.55808000  1.0
  H  H55  1  0.85465000  0.26242000  0.94186000  1.0
  H  H56  1  0.34233000  0.62220000  0.48812000  1.0
  H  H57  1  0.72009000  0.37820000  0.01184000  1.0
  H  H58  1  0.65767000  0.37780000  0.51189000  1.0
  H  H59  1  0.27991000  0.62180000  0.98816000  1.0
  H  H60  1  0.38160000  0.97076000  0.39476000  1.0
  H  H61  1  0.41072000  0.02928000  0.10522000  1.0
  H  H62  1  0.61840000  0.02924000  0.60524000  1.0
  H  H63  1  0.58928000  0.97072000  0.89478000  1.0
  H  H64  1  0.75910000  0.18717000  0.53867000  1.0
  H  H65  1  0.57160000  0.81262000  0.96135000  1.0
  H  H66  1  0.24090000  0.81283000  0.46133000  1.0
  H  H67  1  0.42839000  0.18737000  0.03865000  1.0
  C  C68  1  0.95606000  0.60930000  0.43183000  1.0
  C  C69  1  0.34687000  0.39079000  0.06813000  1.0
  C  C70  1  0.04395000  0.39070000  0.56817000  1.0
  C  C71  1  0.65313000  0.60921000  0.93187000  1.0
  C  C72  1  0.92441000  0.71979000  0.44997000  1.0
  C  C73  1  0.20479000  0.28024000  0.04997000  1.0
  C  C74  1  0.07559000  0.28021000  0.55003000  1.0
  C  C75  1  0.79521000  0.71976000  0.95003000  1.0
  C  C76  1  0.79182000  0.71985000  0.42313000  1.0
  C  C77  1  0.07213000  0.28013000  0.07682000  1.0
  C  C78  1  0.20818000  0.28015000  0.57687000  1.0
  C  C79  1  0.92787000  0.71987000  0.92318000  1.0
  C  C80  1  0.69449000  0.60402000  0.37896000  1.0
  C  C81  1  0.09055000  0.39596000  0.12096000  1.0
  C  C82  1  0.30552000  0.39599000  0.62104000  1.0
  C  C83  1  0.90945000  0.60404000  0.87904000  1.0
  C  C84  1  0.73232000  0.49605000  0.36346000  1.0
  C  C85  1  0.23626000  0.50395000  0.13649000  1.0
  C  C86  1  0.26767000  0.50395000  0.63654000  1.0
  C  C87  1  0.76374000  0.49605000  0.86351000  1.0
  C  C88  1  0.76216000  0.84237000  0.44027000  1.0
  C  C89  1  0.91993000  0.15764000  0.05970000  1.0
  C  C90  1  0.23784000  0.15763000  0.55973000  1.0
  C  C91  1  0.08007000  0.84236000  0.94030000  1.0
  C  C92  1  0.85402000  0.94646000  0.40256000  1.0
  C  C93  1  0.90758000  0.05349000  0.09741000  1.0
  C  C94  1  0.14598000  0.05354000  0.59744000  1.0
  C  C95  1  0.09242000  0.94651000  0.90259000  1.0
  C  C96  1  0.80951000  0.77281000  0.23225000  1.0
  C  C97  1  0.03685000  0.22706000  0.26771000  1.0
  C  C98  1  0.19049000  0.22719000  0.76775000  1.0
  C  C99  1  0.96315000  0.77294000  0.73229000  1.0
  C  C100  1  0.87458000  0.83560000  0.29308000  1.0
  C  C101  1  0.03902000  0.16421000  0.20689000  1.0
  C  C102  1  0.12542000  0.16440000  0.70692000  1.0
  C  C103  1  0.96098000  0.83579000  0.79311000  1.0
  C  C104  1  0.79684000  0.89150000  0.33496000  1.0
  C  C105  1  0.90536000  0.10838000  0.16501000  1.0
  C  C106  1  0.20316000  0.10850000  0.66504000  1.0
  C  C107  1  0.09464000  0.89162000  0.83499000  1.0
  C  C108  1  0.65693000  0.88570000  0.31168000  1.0
  C  C109  1  0.77131000  0.11419000  0.18833000  1.0
  C  C110  1  0.34307000  0.11430000  0.68832000  1.0
  C  C111  1  0.22869000  0.88581000  0.81167000  1.0
  C  C112  1  0.59871000  0.82230000  0.25024000  1.0
  C  C113  1  0.77658000  0.17763000  0.24976000  1.0
  C  C114  1  0.40129000  0.17770000  0.74976000  1.0
  C  C115  1  0.22342000  0.82237000  0.75024000  1.0
  C  C116  1  0.44873000  0.36625000  0.46773000  1.0
  C  C117  1  0.08270000  0.63370000  0.03231000  1.0
  C  C118  1  0.55127000  0.63375000  0.53227000  1.0
  C  C119  1  0.91730000  0.36630000  0.96769000  1.0
  C  C120  1  0.36031000  0.43577000  0.46113000  1.0
  C  C121  1  0.92471000  0.56439000  0.03890000  1.0
  C  C122  1  0.63969000  0.56423000  0.53887000  1.0
  C  C123  1  0.07528000  0.43561000  0.96110000  1.0
  C  C124  1  0.41283000  0.56997000  0.49354000  1.0
  C  C125  1  0.84288000  0.43026000  0.00644000  1.0
  C  C126  1  0.58717000  0.43003000  0.50646000  1.0
  C  C127  1  0.15712000  0.56974000  0.99356000  1.0
  C  C128  1  0.20723000  0.36402000  0.42176000  1.0
  C  C129  1  0.84358000  0.63633000  0.07827000  1.0
  C  C130  1  0.79277000  0.63598000  0.57824000  1.0
  C  C131  1  0.15642000  0.36367000  0.92173000  1.0
  C  C132  1  0.43218000  0.98220000  0.44091000  1.0
  C  C133  1  0.44987000  0.01775000  0.05907000  1.0
  C  C134  1  0.56782000  0.01780000  0.55909000  1.0
  C  C135  1  0.55012000  0.98224000  0.94093000  1.0
  C  C136  1  0.57884000  0.08739000  0.46260000  1.0
  C  C137  1  0.49119000  0.91246000  0.03738000  1.0
  C  C138  1  0.42116000  0.91261000  0.53740000  1.0
  C  C139  1  0.50880000  0.08753000  0.96263000  1.0
  C  C140  1  0.64562000  0.10481000  0.52204000  1.0
  C  C141  1  0.54060000  0.89507000  0.97794000  1.0
  C  C142  1  0.35438000  0.89519000  0.47796000  1.0
  C  C143  1  0.45940000  0.10493000  0.02206000  1.0
  C  C144  1  0.66681000  0.17470000  0.42056000  1.0
  C  C145  1  0.49179000  0.82503000  0.07934000  1.0
  C  C146  1  0.33319000  0.82530000  0.57944000  1.0
  C  C147  1  0.50821000  0.17497000  0.92066000  1.0
  N  N148  1  0.86257000  0.49887000  0.38859000  1.0
  N  N149  1  0.36371000  0.50119000  0.11138000  1.0
  N  N150  1  0.13743000  0.50113000  0.61141000  1.0
  N  N151  1  0.63629000  0.49881000  0.88862000  1.0
  N  N152  1  0.67209000  0.76397000  0.21115000  1.0
  N  N153  1  0.90833000  0.23597000  0.28884000  1.0
  N  N154  1  0.32791000  0.23603000  0.78885000  1.0
  N  N155  1  0.09167000  0.76403000  0.71116000  1.0
  O  O156  1  0.14451000  0.44059000  0.41034000  1.0
  O  O157  1  0.70430000  0.55982000  0.08972000  1.0
  O  O158  1  0.85549000  0.55941000  0.58966000  1.0
  O  O159  1  0.29570000  0.44018000  0.91028000  1.0
  O  O160  1  0.14706000  0.23918000  0.40279000  1.0
  O  O161  1  0.90838000  0.76113000  0.09724000  1.0
  O  O162  1  0.85294000  0.76082000  0.59721000  1.0
  O  O163  1  0.09162000  0.23887000  0.90276000  1.0
  O  O164  1  0.81302000  0.24802000  0.43951000  1.0
  O  O165  1  0.56494000  0.75191000  0.06040000  1.0
  O  O166  1  0.18698000  0.75198000  0.56049000  1.0
  O  O167  1  0.43506000  0.24809000  0.93960000  1.0
  O  O168  1  0.60186000  0.16994000  0.37050000  1.0
  O  O169  1  0.43141000  0.82951000  0.12936000  1.0
  O  O170  1  0.39814000  0.83006000  0.62950000  1.0
  O  O171  1  0.56860000  0.17049000  0.87064000  1.0
