# generated using pymatgen
data_H16PbC16(NO3)2
_symmetry_space_group_name_H-M   'P 1'
_cell_length_a   8.19498000
_cell_length_b   10.88950000
_cell_length_c   11.63082427
_cell_angle_alpha   117.89532814
_cell_angle_beta   108.61588271
_cell_angle_gamma   90.03650000
_symmetry_Int_Tables_number   1
_chemical_formula_structural   H16PbC16(NO3)2
_chemical_formula_sum   'H32 Pb2 C32 N4 O12'
_cell_volume   855.27592972
_cell_formula_units_Z   2
loop_
 _symmetry_equiv_pos_site_id
 _symmetry_equiv_pos_as_xyz
  1  'x, y, z'
loop_
 _atom_site_type_symbol
 _atom_site_label
 _atom_site_symmetry_multiplicity
 _atom_site_fract_x
 _atom_site_fract_y
 _atom_site_fract_z
 _atom_site_occupancy
  H  H0  1  0.44856000  0.31742000  0.97002000  1.0
  H  H1  1  0.05163000  0.34728000  0.03002000  1.0
  H  H2  1  0.55144000  0.68259000  0.02998000  1.0
  H  H3  1  0.94838000  0.65272000  0.96998000  1.0
  H  H4  1  0.30786000  0.47217000  0.87887000  1.0
  H  H5  1  0.19189000  0.59327000  0.12083000  1.0
  H  H6  1  0.69214000  0.52783000  0.12113000  1.0
  H  H7  1  0.80812000  0.40673000  0.87918000  1.0
  H  H8  1  0.25612000  0.41089000  0.63411000  1.0
  H  H9  1  0.24348000  0.77688000  0.36545000  1.0
  H  H10  1  0.74389000  0.58912000  0.36590000  1.0
  H  H11  1  0.75653000  0.22312000  0.63456000  1.0
  H  H12  1  0.34580000  0.19369000  0.47918000  1.0
  H  H13  1  0.15434000  0.71463000  0.52070000  1.0
  H  H14  1  0.65420000  0.80631000  0.52082000  1.0
  H  H15  1  0.84565000  0.28536000  0.47931000  1.0
  H  H16  1  0.02033000  0.08900000  0.36436000  1.0
  H  H17  1  0.47943000  0.72518000  0.63603000  1.0
  H  H18  1  0.97967000  0.91100000  0.63564000  1.0
  H  H19  1  0.52057000  0.27483000  0.36397000  1.0
  H  H20  1  0.08044000  0.95319000  0.40719000  1.0
  H  H21  1  0.41917000  0.54641000  0.59293000  1.0
  H  H22  1  0.91956000  0.04681000  0.59281000  1.0
  H  H23  1  0.58083000  0.45358000  0.40706000  1.0
  H  H24  1  0.85522000  0.95478000  0.32832000  1.0
  H  H25  1  0.64442000  0.62695000  0.67181000  1.0
  H  H26  1  0.14477000  0.04521000  0.67167000  1.0
  H  H27  1  0.35558000  0.37306000  0.32819000  1.0
  H  H28  1  0.10509000  0.90850000  0.19177000  1.0
  H  H29  1  0.39468000  0.71685000  0.80846000  1.0
  H  H30  1  0.89491000  0.09150000  0.80823000  1.0
  H  H31  1  0.60532000  0.28315000  0.19154000  1.0
  Pb  Pb32  1  0.74997000  0.93500000  0.00006000  1.0
  Pb  Pb33  1  0.25002000  0.06499000  0.99994000  1.0
  C  C34  1  0.56263000  0.07624000  0.83147000  1.0
  C  C35  1  0.93768000  0.24466000  0.16881000  1.0
  C  C36  1  0.43738000  0.92377000  0.16853000  1.0
  C  C37  1  0.06232000  0.75533000  0.83118000  1.0
  C  C38  1  0.47941000  0.17025000  0.77698000  1.0
  C  C39  1  0.02096000  0.39317000  0.22316000  1.0
  C  C40  1  0.52058000  0.82975000  0.22301000  1.0
  C  C41  1  0.97904000  0.60683000  0.77684000  1.0
  C  C42  1  0.42795000  0.29163000  0.86314000  1.0
  C  C43  1  0.07228000  0.42839000  0.13690000  1.0
  C  C44  1  0.57205000  0.70837000  0.13686000  1.0
  C  C45  1  0.92773000  0.57161000  0.86310000  1.0
  C  C46  1  0.34934000  0.37851000  0.81203000  1.0
  C  C47  1  0.15060000  0.56642000  0.18778000  1.0
  C  C48  1  0.65066000  0.62150000  0.18797000  1.0
  C  C49  1  0.84941000  0.43358000  0.81222000  1.0
  C  C50  1  0.32071000  0.34441000  0.67438000  1.0
  C  C51  1  0.17914000  0.67009000  0.32536000  1.0
  C  C52  1  0.67930000  0.65560000  0.32564000  1.0
  C  C53  1  0.82085000  0.32990000  0.67464000  1.0
  C  C54  1  0.37084000  0.22420000  0.58767000  1.0
  C  C55  1  0.12927000  0.63658000  0.41223000  1.0
  C  C56  1  0.62916000  0.77580000  0.41232000  1.0
  C  C57  1  0.87073000  0.36341000  0.58777000  1.0
  C  C58  1  0.45036000  0.13619000  0.63841000  1.0
  C  C59  1  0.05003000  0.49777000  0.36169000  1.0
  C  C60  1  0.54964000  0.86381000  0.36159000  1.0
  C  C61  1  0.94997000  0.50222000  0.63831000  1.0
  C  C62  1  0.98737000  0.97638000  0.33086000  1.0
  C  C63  1  0.51230000  0.64592000  0.66935000  1.0
  C  C64  1  0.01263000  0.02362000  0.66914000  1.0
  C  C65  1  0.48770000  0.35408000  0.33065000  1.0
  N  N66  1  0.49046000  0.00555000  0.55406000  1.0
  N  N67  1  0.00999000  0.45154000  0.44617000  1.0
  N  N68  1  0.50954000  0.99445000  0.44594000  1.0
  N  N69  1  0.98999000  0.54844000  0.55382000  1.0
  O  O70  1  0.47609000  0.02411000  0.87700000  1.0
  O  O71  1  0.02406000  0.14703000  0.12324000  1.0
  O  O72  1  0.52390000  0.97589000  0.12299000  1.0
  O  O73  1  0.97594000  0.85297000  0.87677000  1.0
  O  O74  1  0.71522000  0.05265000  0.83420000  1.0
  O  O75  1  0.78512000  0.21835000  0.16624000  1.0
  O  O76  1  0.28478000  0.94737000  0.16581000  1.0
  O  O77  1  0.21488000  0.78164000  0.83376000  1.0
  O  O78  1  0.98769000  0.88694000  0.19323000  1.0
  O  O79  1  0.51206000  0.69387000  0.80697000  1.0
  O  O80  1  0.01231000  0.11305000  0.80676000  1.0
  O  O81  1  0.48794000  0.30613000  0.19303000  1.0
