# generated using pymatgen
data_Al3H22C48N12Cl3O14
_symmetry_space_group_name_H-M   'P 1'
_cell_length_a   13.33830000
_cell_length_b   13.85780000
_cell_length_c   35.17910000
_cell_angle_alpha   89.80240000
_cell_angle_beta   89.86570000
_cell_angle_gamma   61.27510000
_symmetry_Int_Tables_number   1
_chemical_formula_structural   Al3H22C48N12Cl3O14
_chemical_formula_sum   'Al6 H44 C96 N24 Cl6 O28'
_cell_volume   5702.23829764
_cell_formula_units_Z   2
loop_
 _symmetry_equiv_pos_site_id
 _symmetry_equiv_pos_as_xyz
  1  'x, y, z'
loop_
 _atom_site_type_symbol
 _atom_site_label
 _atom_site_symmetry_multiplicity
 _atom_site_fract_x
 _atom_site_fract_y
 _atom_site_fract_z
 _atom_site_occupancy
  Al  Al0  1  0.77245000  0.74292000  0.50009000  1.0
  Al  Al1  1  0.74203000  0.52728000  0.49954000  1.0
  Al  Al2  1  0.53030000  0.74803000  0.49978000  1.0
  Al  Al3  1  0.51474000  0.25509000  0.00002000  1.0
  Al  Al4  1  0.26959000  0.47248000  0.99955000  1.0
  Al  Al5  1  0.27701000  0.25235000  0.99962000  1.0
  H  H6  1  0.68785000  0.39899000  0.40428000  1.0
  H  H7  1  0.38436000  0.91996000  0.40388000  1.0
  H  H8  1  0.92932000  0.67798000  0.40006000  1.0
  H  H9  1  0.08661000  0.60352000  0.90371000  1.0
  H  H10  1  0.29938000  0.08273000  0.90364000  1.0
  H  H11  1  0.60699000  0.31681000  0.90024000  1.0
  H  H12  1  0.39570000  0.72157000  0.39999000  1.0
  H  H13  1  0.72050000  0.88732000  0.39730000  1.0
  H  H14  1  0.88845000  0.38928000  0.39799000  1.0
  H  H15  1  0.11809000  0.28035000  0.89978000  1.0
  H  H16  1  0.60599000  0.11007000  0.89744000  1.0
  H  H17  1  0.28222000  0.61103000  0.89835000  1.0
  H  H18  1  0.57870000  0.30653000  0.10152000  1.0
  H  H19  1  0.28796000  0.12051000  0.09905000  1.0
  H  H20  1  0.13107000  0.57423000  0.09787000  1.0
  H  H21  1  0.88833000  0.69323000  0.60027000  1.0
  H  H22  1  0.40972000  0.87520000  0.59937000  1.0
  H  H23  1  0.70736000  0.42589000  0.59841000  1.0
  H  H24  1  0.66392000  0.37300000  0.33507000  1.0
  H  H25  1  0.35528000  0.96587000  0.33431000  1.0
  H  H26  1  0.97227000  0.65832000  0.33013000  1.0
  H  H27  1  0.03621000  0.62978000  0.83450000  1.0
  H  H28  1  0.31632000  0.03644000  0.83416000  1.0
  H  H29  1  0.62963000  0.33590000  0.83024000  1.0
  H  H30  1  0.37112000  0.69643000  0.33080000  1.0
  H  H31  1  0.69237000  0.93323000  0.32777000  1.0
  H  H32  1  0.92977000  0.36940000  0.32806000  1.0
  H  H33  1  0.06823000  0.30561000  0.83058000  1.0
  H  H34  1  0.62408000  0.06352000  0.82797000  1.0
  H  H35  1  0.30312000  0.63040000  0.82834000  1.0
  H  H36  1  0.60574000  0.32034000  0.17113000  1.0
  H  H37  1  0.30063000  0.07491000  0.16824000  1.0
  H  H38  1  0.08490000  0.60249000  0.16696000  1.0
  H  H39  1  0.92730000  0.68095000  0.67003000  1.0
  H  H40  1  0.37547000  0.92127000  0.66845000  1.0
  H  H41  1  0.68935000  0.39737000  0.66754000  1.0
  H  H42  1  0.32526000  0.65169000  0.16957000  1.0
  H  H43  1  0.64603000  0.02283000  0.16899000  1.0
  H  H44  1  0.00859000  0.33364000  0.16506000  1.0
  H  H45  1  0.97824000  0.34938000  0.66967000  1.0
  H  H46  1  0.66473000  0.97979000  0.66929000  1.0
  H  H47  1  0.34323000  0.66373000  0.66493000  1.0
  H  H48  1  0.86076000  0.84355000  0.47812000  1.0
  H  H49  1  0.70227000  0.20583000  0.98167000  1.0
  C  C50  1  0.57715000  0.86382000  0.44480000  1.0
  C  C51  1  0.87208000  0.55434000  0.44372000  1.0
  C  C52  1  0.56260000  0.58121000  0.44618000  1.0
  C  C53  1  0.43716000  0.13798000  0.94441000  1.0
  C  C54  1  0.42881000  0.44496000  0.94424000  1.0
  C  C55  1  0.14369000  0.42070000  0.94587000  1.0
  C  C56  1  0.50153000  0.51897000  0.28807000  1.0
  C  C57  1  0.50786000  0.97673000  0.28596000  1.0
  C  C58  1  0.97637000  0.50210000  0.28375000  1.0
  C  C59  1  0.01931000  0.48382000  0.78774000  1.0
  C  C60  1  0.48110000  0.02356000  0.78600000  1.0
  C  C61  1  0.47994000  0.49517000  0.78392000  1.0
  C  C62  1  0.53905000  0.38938000  0.15563000  1.0
  C  C63  1  0.37295000  0.07320000  0.15326000  1.0
  C  C64  1  0.07810000  0.53808000  0.15142000  1.0
  C  C65  1  0.93018000  0.61150000  0.65475000  1.0
  C  C66  1  0.44552000  0.92422000  0.65352000  1.0
  C  C67  1  0.61799000  0.46134000  0.65184000  1.0
  C  C68  1  0.52428000  0.38193000  0.11698000  1.0
  C  C69  1  0.36637000  0.09791000  0.11479000  1.0
  C  C70  1  0.10310000  0.52258000  0.11294000  1.0
  C  C71  1  0.90897000  0.61811000  0.61602000  1.0
  C  C72  1  0.46441000  0.89919000  0.61513000  1.0
  C  C73  1  0.62753000  0.47694000  0.61333000  1.0
  C  C74  1  0.36737000  0.56784000  0.11575000  1.0
  C  C75  1  0.56052000  0.06872000  0.11499000  1.0
  C  C76  1  0.06023000  0.37169000  0.11162000  1.0
  C  C77  1  0.93788000  0.43208000  0.61550000  1.0
  C  C78  1  0.62713000  0.93187000  0.61541000  1.0
  C  C79  1  0.43320000  0.62643000  0.61163000  1.0
  C  C80  1  0.38122000  0.57578000  0.15471000  1.0
  C  C81  1  0.56739000  0.04403000  0.15367000  1.0
  C  C82  1  0.03542000  0.38660000  0.15035000  1.0
  C  C83  1  0.95872000  0.42497000  0.65451000  1.0
  C  C84  1  0.60853000  0.95700000  0.65397000  1.0
  C  C85  1  0.42328000  0.61139000  0.65039000  1.0
  C  C86  1  0.46634000  0.48704000  0.17496000  1.0
  C  C87  1  0.47443000  0.04637000  0.17308000  1.0
  C  C88  1  0.04463000  0.46896000  0.17057000  1.0
  C  C89  1  0.95445000  0.51428000  0.67446000  1.0
  C  C90  1  0.51860000  0.95309000  0.67331000  1.0
  C  C91  1  0.51513000  0.52964000  0.67080000  1.0
  C  C92  1  0.43836000  0.46949000  0.09607000  1.0
  C  C93  1  0.45832000  0.09722000  0.09478000  1.0
  C  C94  1  0.09632000  0.43912000  0.09214000  1.0
  C  C95  1  0.91097000  0.53008000  0.59545000  1.0
  C  C96  1  0.55504000  0.90138000  0.59523000  1.0
  C  C97  1  0.53697000  0.55975000  0.59235000  1.0
  C  C98  1  0.57565000  0.86152000  0.55514000  1.0
  C  C99  1  0.87465000  0.55328000  0.55473000  1.0
  C  C100  1  0.56259000  0.57768000  0.55255000  1.0
  C  C101  1  0.43826000  0.13621000  0.05451000  1.0
  C  C102  1  0.42593000  0.44541000  0.05541000  1.0
  C  C103  1  0.13969000  0.42153000  0.05234000  1.0
  C  C104  1  0.54217000  0.56127000  0.40621000  1.0
  C  C105  1  0.55386000  0.90178000  0.40455000  1.0
  C  C106  1  0.90718000  0.53457000  0.40299000  1.0
  C  C107  1  0.10353000  0.44099000  0.90585000  1.0
  C  C108  1  0.45192000  0.09884000  0.90438000  1.0
  C  C109  1  0.44422000  0.46344000  0.90336000  1.0
  C  C110  1  0.61808000  0.46289000  0.38798000  1.0
  C  C111  1  0.45061000  0.92419000  0.38695000  1.0
  C  C112  1  0.93104000  0.61031000  0.38390000  1.0
  C  C113  1  0.08091000  0.53952000  0.88750000  1.0
  C  C114  1  0.37048000  0.07734000  0.88679000  1.0
  C  C115  1  0.54213000  0.38582000  0.88416000  1.0
  C  C116  1  0.60515000  0.44867000  0.34957000  1.0
  C  C117  1  0.43457000  0.94940000  0.34839000  1.0
  C  C118  1  0.95441000  0.59951000  0.34521000  1.0
  C  C119  1  0.05348000  0.55390000  0.84908000  1.0
  C  C120  1  0.37978000  0.05183000  0.84830000  1.0
  C  C121  1  0.55427000  0.39617000  0.84539000  1.0
  C  C122  1  0.51576000  0.53301000  0.32880000  1.0
  C  C123  1  0.52210000  0.95243000  0.32691000  1.0
  C  C124  1  0.95376000  0.51251000  0.32487000  1.0
  C  C125  1  0.04849000  0.46952000  0.82841000  1.0
  C  C126  1  0.47119000  0.04736000  0.82694000  1.0
  C  C127  1  0.46789000  0.48465000  0.82507000  1.0
  C  C128  1  0.43963000  0.63147000  0.34715000  1.0
  C  C129  1  0.62519000  0.93094000  0.34472000  1.0
  C  C130  1  0.93048000  0.43617000  0.34408000  1.0
  C  C131  1  0.07148000  0.37070000  0.84686000  1.0
  C  C132  1  0.55377000  0.06727000  0.84482000  1.0
  C  C133  1  0.36975000  0.56262000  0.84435000  1.0
  C  C134  1  0.45286000  0.64526000  0.38554000  1.0
  C  C135  1  0.64065000  0.90591000  0.38319000  1.0
  C  C136  1  0.90767000  0.44715000  0.38287000  1.0
  C  C137  1  0.09853000  0.35687000  0.88525000  1.0
  C  C138  1  0.54399000  0.09279000  0.88320000  1.0
  C  C139  1  0.35826000  0.55195000  0.88319000  1.0
  C  C140  1  0.47821000  0.49754000  0.21610000  1.0
  C  C141  1  0.48567000  0.02053000  0.21395000  1.0
  C  C142  1  0.01879000  0.48192000  0.21154000  1.0
  C  C143  1  0.97519000  0.50472000  0.71570000  1.0
  C  C144  1  0.50319000  0.97964000  0.71407000  1.0
  C  C145  1  0.50221000  0.51623000  0.71176000  1.0
  N  N146  1  0.56178000  0.41077000  0.23491000  1.0
  N  N147  1  0.39566000  0.02300000  0.23265000  1.0
  N  N148  1  0.02614000  0.56369000  0.23014000  1.0
  N  N149  1  0.97133000  0.59182000  0.73433000  1.0
  N  N150  1  0.41567000  0.97694000  0.73271000  1.0
  N  N151  1  0.59092000  0.43375000  0.73038000  1.0
  N  N152  1  0.57356000  0.42169000  0.27156000  1.0
  N  N153  1  0.40698000  0.00069000  0.26937000  1.0
  N  N154  1  0.00477000  0.57382000  0.26688000  1.0
  N  N155  1  0.99375000  0.58117000  0.77102000  1.0
  N  N156  1  0.40452000  0.99919000  0.76940000  1.0
  N  N157  1  0.57971000  0.42326000  0.76712000  1.0
  N  N158  1  0.41460000  0.60381000  0.26956000  1.0
  N  N159  1  0.59864000  0.97235000  0.26697000  1.0
  N  N160  1  0.96584000  0.42231000  0.26483000  1.0
  N  N161  1  0.01548000  0.39954000  0.76955000  1.0
  N  N162  1  0.56649000  0.02970000  0.76695000  1.0
  N  N163  1  0.38980000  0.57538000  0.76496000  1.0
  N  N164  1  0.40270000  0.59288000  0.23303000  1.0
  N  N165  1  0.58734000  0.99462000  0.23048000  1.0
  N  N166  1  0.98768000  0.41198000  0.22817000  1.0
  N  N167  1  0.99300000  0.41019000  0.73299000  1.0
  N  N168  1  0.57776000  0.00724000  0.73052000  1.0
  N  N169  1  0.40138000  0.58625000  0.72832000  1.0
  Cl  Cl170  1  0.26104000  0.68464000  0.09424000  1.0
  Cl  Cl171  1  0.68134000  0.06146000  0.09449000  1.0
  Cl  Cl172  1  0.04164000  0.26979000  0.08994000  1.0
  Cl  Cl173  1  0.94909000  0.31475000  0.59435000  1.0
  Cl  Cl174  1  0.73940000  0.94158000  0.59490000  1.0
  Cl  Cl175  1  0.31239000  0.72720000  0.58965000  1.0
  O  O176  1  0.86242000  0.64073000  0.45893000  1.0
  O  O177  1  0.65051000  0.50589000  0.46303000  1.0
  O  O178  1  0.49731000  0.85528000  0.46289000  1.0
  O  O179  1  0.50628000  0.36017000  0.96026000  1.0
  O  O180  1  0.15669000  0.49559000  0.96279000  1.0
  O  O181  1  0.35021000  0.14469000  0.96306000  1.0
  O  O182  1  0.67476000  0.83751000  0.45818000  1.0
  O  O183  1  0.84859000  0.48406000  0.46026000  1.0
  O  O184  1  0.49483000  0.67498000  0.46066000  1.0
  O  O185  1  0.50708000  0.16692000  0.95702000  1.0
  O  O186  1  0.33417000  0.51460000  0.96016000  1.0
  O  O187  1  0.16910000  0.32686000  0.96037000  1.0
  O  O188  1  0.86092000  0.64309000  0.54104000  1.0
  O  O189  1  0.65629000  0.50377000  0.53808000  1.0
  O  O190  1  0.49547000  0.84920000  0.53894000  1.0
  O  O191  1  0.50049000  0.35404000  0.04250000  1.0
  O  O192  1  0.16031000  0.49521000  0.03795000  1.0
  O  O193  1  0.34350000  0.15184000  0.03920000  1.0
  O  O194  1  0.67058000  0.83673000  0.54010000  1.0
  O  O195  1  0.85361000  0.48411000  0.53677000  1.0
  O  O196  1  0.49513000  0.66783000  0.53597000  1.0
  O  O197  1  0.51006000  0.15696000  0.03836000  1.0
  O  O198  1  0.33785000  0.51579000  0.03666000  1.0
  O  O199  1  0.16134000  0.33199000  0.03563000  1.0
  O  O200  1  0.68062000  0.67170000  0.49948000  1.0
  O  O201  1  0.35177000  0.32804000  0.99950000  1.0
  O  O202  1  0.85690000  0.80835000  0.50141000  1.0
  O  O203  1  0.66463000  0.18609000  0.00130000  1.0
