# generated using pymatgen
data_ZnH8C14N2O5
_symmetry_space_group_name_H-M   'P 1'
_cell_length_a   13.80160000
_cell_length_b   13.92890000
_cell_length_c   14.04820000
_cell_angle_alpha   110.46800000
_cell_angle_beta   90.00000000
_cell_angle_gamma   89.99970000
_symmetry_Int_Tables_number   1
_chemical_formula_structural   ZnH8C14N2O5
_chemical_formula_sum   'Zn4 H32 C56 N8 O20'
_cell_volume   2530.14362548
_cell_formula_units_Z   4
loop_
 _symmetry_equiv_pos_site_id
 _symmetry_equiv_pos_as_xyz
  1  'x, y, z'
loop_
 _atom_site_type_symbol
 _atom_site_label
 _atom_site_symmetry_multiplicity
 _atom_site_fract_x
 _atom_site_fract_y
 _atom_site_fract_z
 _atom_site_occupancy
  Zn  Zn0  1  0.05576000  0.90819000  0.95910000  1.0
  Zn  Zn1  1  0.55576000  0.09181000  0.54090000  1.0
  Zn  Zn2  1  0.94424000  0.09181000  0.04090000  1.0
  Zn  Zn3  1  0.44424000  0.90819000  0.45910000  1.0
  H  H4  1  0.89336000  0.59303000  0.15101000  1.0
  H  H5  1  0.92523000  0.73734000  0.11367000  1.0
  H  H6  1  0.76739000  0.01314000  0.26874000  1.0
  H  H7  1  0.69337000  0.73417000  0.31961000  1.0
  H  H8  1  0.02985000  0.29803000  0.12026000  1.0
  H  H9  1  0.97617000  0.48002000  0.18639000  1.0
  H  H10  1  0.68057000  0.37069000  0.15808000  1.0
  H  H11  1  0.74811000  0.19005000  0.08935000  1.0
  H  H12  1  0.39335000  0.40696000  0.34898000  1.0
  H  H13  1  0.42523000  0.26266000  0.38633000  1.0
  H  H14  1  0.26739000  0.98686000  0.23126000  1.0
  H  H15  1  0.19336000  0.26583000  0.18039000  1.0
  H  H16  1  0.52985000  0.70197000  0.37973000  1.0
  H  H17  1  0.47617000  0.51997000  0.31360000  1.0
  H  H18  1  0.18057000  0.62932000  0.34192000  1.0
  H  H19  1  0.24811000  0.80995000  0.41066000  1.0
  H  H20  1  0.10665000  0.40697000  0.84898000  1.0
  H  H21  1  0.07477000  0.26266000  0.88634000  1.0
  H  H22  1  0.23261000  0.98686000  0.73126000  1.0
  H  H23  1  0.30664000  0.26583000  0.68039000  1.0
  H  H24  1  0.97015000  0.70197000  0.87973000  1.0
  H  H25  1  0.02383000  0.51998000  0.81360000  1.0
  H  H26  1  0.31943000  0.62932000  0.84192000  1.0
  H  H27  1  0.25189000  0.80995000  0.91066000  1.0
  H  H28  1  0.60664000  0.59304000  0.65102000  1.0
  H  H29  1  0.57477000  0.73734000  0.61367000  1.0
  H  H30  1  0.73261000  0.01314000  0.76874000  1.0
  H  H31  1  0.80663000  0.73417000  0.81962000  1.0
  H  H32  1  0.47015000  0.29803000  0.62026000  1.0
  H  H33  1  0.52383000  0.48002000  0.68640000  1.0
  H  H34  1  0.81943000  0.37068000  0.65808000  1.0
  H  H35  1  0.75189000  0.19005000  0.58935000  1.0
  C  C36  1  0.81248000  0.72321000  0.21644000  1.0
  C  C37  1  0.86832000  0.77585000  0.16741000  1.0
  C  C38  1  0.85117000  0.87940000  0.18481000  1.0
  C  C39  1  0.77982000  0.93206000  0.25413000  1.0
  C  C40  1  0.72388000  0.87908000  0.30241000  1.0
  C  C41  1  0.73880000  0.77466000  0.28316000  1.0
  C  C42  1  0.77887000  0.54555000  0.21420000  1.0
  C  C43  1  0.95311000  0.31787000  0.12801000  1.0
  C  C44  1  0.92181000  0.41929000  0.16423000  1.0
  C  C45  1  0.82214000  0.43959000  0.17461000  1.0
  C  C46  1  0.75817000  0.35644000  0.14899000  1.0
  C  C47  1  0.79496000  0.25738000  0.11211000  1.0
  C  C48  1  0.90837000  0.93059000  0.12501000  1.0
  C  C49  1  0.64508000  0.93192000  0.37544000  1.0
  C  C50  1  0.31248000  0.27679000  0.28356000  1.0
  C  C51  1  0.36832000  0.22415000  0.33258000  1.0
  C  C52  1  0.35117000  0.12061000  0.31519000  1.0
  C  C53  1  0.27982000  0.06794000  0.24587000  1.0
  C  C54  1  0.22388000  0.12092000  0.19760000  1.0
  C  C55  1  0.23880000  0.22534000  0.21684000  1.0
  C  C56  1  0.27886000  0.45445000  0.28580000  1.0
  C  C57  1  0.45311000  0.68212000  0.37198000  1.0
  C  C58  1  0.42181000  0.58071000  0.33576000  1.0
  C  C59  1  0.32214000  0.56041000  0.32539000  1.0
  C  C60  1  0.25817000  0.64356000  0.35101000  1.0
  C  C61  1  0.29496000  0.74262000  0.38789000  1.0
  C  C62  1  0.40838000  0.06942000  0.37499000  1.0
  C  C63  1  0.14508000  0.06809000  0.12456000  1.0
  C  C64  1  0.18752000  0.27679000  0.78357000  1.0
  C  C65  1  0.13168000  0.22416000  0.83259000  1.0
  C  C66  1  0.14883000  0.12061000  0.81519000  1.0
  C  C67  1  0.22018000  0.06794000  0.74588000  1.0
  C  C68  1  0.27613000  0.12092000  0.69760000  1.0
  C  C69  1  0.26121000  0.22534000  0.71685000  1.0
  C  C70  1  0.22114000  0.45445000  0.78580000  1.0
  C  C71  1  0.04689000  0.68213000  0.87199000  1.0
  C  C72  1  0.07819000  0.58071000  0.83577000  1.0
  C  C73  1  0.17787000  0.56041000  0.82539000  1.0
  C  C74  1  0.24183000  0.64356000  0.85101000  1.0
  C  C75  1  0.20504000  0.74262000  0.88789000  1.0
  C  C76  1  0.09162000  0.06943000  0.87499000  1.0
  C  C77  1  0.35492000  0.06808000  0.62456000  1.0
  C  C78  1  0.68752000  0.72321000  0.71644000  1.0
  C  C79  1  0.63168000  0.77585000  0.66742000  1.0
  C  C80  1  0.64883000  0.87939000  0.68481000  1.0
  C  C81  1  0.72018000  0.93206000  0.75413000  1.0
  C  C82  1  0.77612000  0.87907000  0.80241000  1.0
  C  C83  1  0.76120000  0.77466000  0.78316000  1.0
  C  C84  1  0.72113000  0.54555000  0.71420000  1.0
  C  C85  1  0.54689000  0.31787000  0.62802000  1.0
  C  C86  1  0.57819000  0.41929000  0.66423000  1.0
  C  C87  1  0.67786000  0.43959000  0.67461000  1.0
  C  C88  1  0.74183000  0.35644000  0.64900000  1.0
  C  C89  1  0.70504000  0.25738000  0.61211000  1.0
  C  C90  1  0.59162000  0.93058000  0.62501000  1.0
  C  C91  1  0.85492000  0.93191000  0.87544000  1.0
  N  N92  1  0.83358000  0.61865000  0.19474000  1.0
  N  N93  1  0.89077000  0.23865000  0.10182000  1.0
  N  N94  1  0.33358000  0.38136000  0.30526000  1.0
  N  N95  1  0.39077000  0.76135000  0.39817000  1.0
  N  N96  1  0.16642000  0.38136000  0.80526000  1.0
  N  N97  1  0.10923000  0.76135000  0.89817000  1.0
  N  N98  1  0.66642000  0.61864000  0.69474000  1.0
  N  N99  1  0.60923000  0.23865000  0.60183000  1.0
  O  O100  1  0.69977000  0.56122000  0.25854000  1.0
  O  O101  1  0.97615000  0.87768000  0.06994000  1.0
  O  O102  1  0.88362000  0.02102000  0.13242000  1.0
  O  O103  1  0.65901000  0.02468000  0.43171000  1.0
  O  O104  1  0.57064000  0.87782000  0.37521000  1.0
  O  O105  1  0.19977000  0.43879000  0.24146000  1.0
  O  O106  1  0.47615000  0.12233000  0.43006000  1.0
  O  O107  1  0.38362000  0.97898000  0.36759000  1.0
  O  O108  1  0.15901000  0.97531000  0.06829000  1.0
  O  O109  1  0.07064000  0.12217000  0.12479000  1.0
  O  O110  1  0.30023000  0.43878000  0.74146000  1.0
  O  O111  1  0.02385000  0.12233000  0.93006000  1.0
  O  O112  1  0.11638000  0.97898000  0.86758000  1.0
  O  O113  1  0.34099000  0.97531000  0.56829000  1.0
  O  O114  1  0.42936000  0.12217000  0.62479000  1.0
  O  O115  1  0.80022000  0.56121000  0.75854000  1.0
  O  O116  1  0.52385000  0.87767000  0.56994000  1.0
  O  O117  1  0.61638000  0.02102000  0.63242000  1.0
  O  O118  1  0.84099000  0.02468000  0.93170000  1.0
  O  O119  1  0.92936000  0.87781000  0.87521000  1.0
