# generated using pymatgen
data_Ag2H10C10N6O5
_symmetry_space_group_name_H-M   'P 1'
_cell_length_a   7.05222000
_cell_length_b   12.63280000
_cell_length_c   15.17290000
_cell_angle_alpha   93.39030000
_cell_angle_beta   89.99990000
_cell_angle_gamma   89.99980000
_symmetry_Int_Tables_number   1
_chemical_formula_structural   Ag2H10C10N6O5
_chemical_formula_sum   'Ag8 H40 C40 N24 O20'
_cell_volume   1349.37706231
_cell_formula_units_Z   4
loop_
 _symmetry_equiv_pos_site_id
 _symmetry_equiv_pos_as_xyz
  1  'x, y, z'
loop_
 _atom_site_type_symbol
 _atom_site_label
 _atom_site_symmetry_multiplicity
 _atom_site_fract_x
 _atom_site_fract_y
 _atom_site_fract_z
 _atom_site_occupancy
  Ag  Ag0  1  0.26303000  0.34746000  0.43087000  1.0
  Ag  Ag1  1  0.76303000  0.65254000  0.06913000  1.0
  Ag  Ag2  1  0.73697000  0.65254000  0.56913000  1.0
  Ag  Ag3  1  0.23697000  0.34746000  0.93087000  1.0
  Ag  Ag4  1  0.23927000  0.14028000  0.51748000  1.0
  Ag  Ag5  1  0.73927000  0.85971000  0.98252000  1.0
  Ag  Ag6  1  0.76073000  0.85972000  0.48252000  1.0
  Ag  Ag7  1  0.26073000  0.14028000  0.01748000  1.0
  H  H8  1  0.10919000  0.38816000  0.58524000  1.0
  H  H9  1  0.60918000  0.61184000  0.91476000  1.0
  H  H10  1  0.89082000  0.61184000  0.41476000  1.0
  H  H11  1  0.39082000  0.38816000  0.08524000  1.0
  H  H12  1  0.88049000  0.40609000  0.63898000  1.0
  H  H13  1  0.38048000  0.59391000  0.86102000  1.0
  H  H14  1  0.11951000  0.59391000  0.36102000  1.0
  H  H15  1  0.61951000  0.40609000  0.13898000  1.0
  H  H16  1  0.08619000  0.09765000  0.35776000  1.0
  H  H17  1  0.58619000  0.90235000  0.14224000  1.0
  H  H18  1  0.91381000  0.90235000  0.64224000  1.0
  H  H19  1  0.41381000  0.09765000  0.85776000  1.0
  H  H20  1  0.86309000  0.07714000  0.30235000  1.0
  H  H21  1  0.36309000  0.92286000  0.19765000  1.0
  H  H22  1  0.13691000  0.92286000  0.69765000  1.0
  H  H23  1  0.63691000  0.07714000  0.80235000  1.0
  H  H24  1  0.93765000  0.35114000  0.29302000  1.0
  H  H25  1  0.43764000  0.64886000  0.20698000  1.0
  H  H26  1  0.06236000  0.64886000  0.70698000  1.0
  H  H27  1  0.56235000  0.35113000  0.79302000  1.0
  H  H28  1  0.58442000  0.35978000  0.29456000  1.0
  H  H29  1  0.08442000  0.64022000  0.20544000  1.0
  H  H30  1  0.41559000  0.64022000  0.70544000  1.0
  H  H31  1  0.91559000  0.35978000  0.79456000  1.0
  H  H32  1  0.55796000  0.13468000  0.64693000  1.0
  H  H33  1  0.05796000  0.86533000  0.85307000  1.0
  H  H34  1  0.44203000  0.86532000  0.35307000  1.0
  H  H35  1  0.94204000  0.13467000  0.14693000  1.0
  H  H36  1  0.91779000  0.13655000  0.64819000  1.0
  H  H37  1  0.41779000  0.86344000  0.85181000  1.0
  H  H38  1  0.08221000  0.86345000  0.35181000  1.0
  H  H39  1  0.58222000  0.13655000  0.14819000  1.0
  H  H40  1  0.29542000  0.27216000  0.67974000  1.0
  H  H41  1  0.79542000  0.72784000  0.82026000  1.0
  H  H42  1  0.70458000  0.72785000  0.32026000  1.0
  H  H43  1  0.20458000  0.27216000  0.17974000  1.0
  H  H44  1  0.21885000  0.18392000  0.74488000  1.0
  H  H45  1  0.71885000  0.81609000  0.75512000  1.0
  H  H46  1  0.78114000  0.81609000  0.25511000  1.0
  H  H47  1  0.28115000  0.18392000  0.24488000  1.0
  C  C48  1  0.66145000  0.38058000  0.50922000  1.0
  C  C49  1  0.16145000  0.61942000  0.99078000  1.0
  C  C50  1  0.33856000  0.61942000  0.49078000  1.0
  C  C51  1  0.83855000  0.38058000  0.00922000  1.0
  C  C52  1  0.86599000  0.37834000  0.50912000  1.0
  C  C53  1  0.36599000  0.62166000  0.99088000  1.0
  C  C54  1  0.13401000  0.62166000  0.49088000  1.0
  C  C55  1  0.63401000  0.37834000  0.00912000  1.0
  C  C56  1  0.86112000  0.35775000  0.35543000  1.0
  C  C57  1  0.36112000  0.64224000  0.14457000  1.0
  C  C58  1  0.13888000  0.64224000  0.64457000  1.0
  C  C59  1  0.63888000  0.35776000  0.85543000  1.0
  C  C60  1  0.66498000  0.36263000  0.35565000  1.0
  C  C61  1  0.16498000  0.63737000  0.14435000  1.0
  C  C62  1  0.33502000  0.63736000  0.64435000  1.0
  C  C63  1  0.83502000  0.36263000  0.85565000  1.0
  C  C64  1  0.54891000  0.39100000  0.59515000  1.0
  C  C65  1  0.04891000  0.60900000  0.90486000  1.0
  C  C66  1  0.45109000  0.60900000  0.40485000  1.0
  C  C67  1  0.95109000  0.39100000  0.09515000  1.0
  C  C68  1  0.64183000  0.12920000  0.58661000  1.0
  C  C69  1  0.14183000  0.87079000  0.91339000  1.0
  C  C70  1  0.35816000  0.87079000  0.41339000  1.0
  C  C71  1  0.85817000  0.12921000  0.08661000  1.0
  C  C72  1  0.83826000  0.13078000  0.58644000  1.0
  C  C73  1  0.33826000  0.86922000  0.91357000  1.0
  C  C74  1  0.16174000  0.86922000  0.41357000  1.0
  C  C75  1  0.66174000  0.13078000  0.08644000  1.0
  C  C76  1  0.63767000  0.11563000  0.43266000  1.0
  C  C77  1  0.13767000  0.88437000  0.06734000  1.0
  C  C78  1  0.36233000  0.88437000  0.56734000  1.0
  C  C79  1  0.86233000  0.11563000  0.93266000  1.0
  C  C80  1  0.84235000  0.11052000  0.43249000  1.0
  C  C81  1  0.34236000  0.88948000  0.06751000  1.0
  C  C82  1  0.15764000  0.88949000  0.56751000  1.0
  C  C83  1  0.65764000  0.11052000  0.93249000  1.0
  C  C84  1  0.52626000  0.11407000  0.34701000  1.0
  C  C85  1  0.02625000  0.88593000  0.15299000  1.0
  C  C86  1  0.47374000  0.88593000  0.65299000  1.0
  C  C87  1  0.97375000  0.11407000  0.84701000  1.0
  N  N88  1  0.56855000  0.37108000  0.43242000  1.0
  N  N89  1  0.06855000  0.62893000  0.06758000  1.0
  N  N90  1  0.43145000  0.62892000  0.56757000  1.0
  N  N91  1  0.93145000  0.37108000  0.93242000  1.0
  N  N92  1  0.96109000  0.36338000  0.43084000  1.0
  N  N93  1  0.46109000  0.63662000  0.06916000  1.0
  N  N94  1  0.03891000  0.63663000  0.56916000  1.0
  N  N95  1  0.53891000  0.36338000  0.93084000  1.0
  N  N96  1  0.96390000  0.38820000  0.58429000  1.0
  N  N97  1  0.46390000  0.61180000  0.91571000  1.0
  N  N98  1  0.03610000  0.61181000  0.41571000  1.0
  N  N99  1  0.53610000  0.38820000  0.08429000  1.0
  N  N100  1  0.54549000  0.12536000  0.50961000  1.0
  N  N101  1  0.04549000  0.87464000  0.99039000  1.0
  N  N102  1  0.45451000  0.87464000  0.49039000  1.0
  N  N103  1  0.95451000  0.12536000  0.00961000  1.0
  N  N104  1  0.93758000  0.12390000  0.51085000  1.0
  N  N105  1  0.43758000  0.87610000  0.98915000  1.0
  N  N106  1  0.06242000  0.87610000  0.48915000  1.0
  N  N107  1  0.56242000  0.12390000  0.01085000  1.0
  N  N108  1  0.94119000  0.09653000  0.35795000  1.0
  N  N109  1  0.44118000  0.90348000  0.14205000  1.0
  N  N110  1  0.05882000  0.90348000  0.64205000  1.0
  N  N111  1  0.55882000  0.09653000  0.85795000  1.0
  O  O112  1  0.37207000  0.37058000  0.59155000  1.0
  O  O113  1  0.87206000  0.62942000  0.90845000  1.0
  O  O114  1  0.62793000  0.62942000  0.40845000  1.0
  O  O115  1  0.12793000  0.37058000  0.09155000  1.0
  O  O116  1  0.63896000  0.41884000  0.66479000  1.0
  O  O117  1  0.13895000  0.58116000  0.83521000  1.0
  O  O118  1  0.36105000  0.58116000  0.33521000  1.0
  O  O119  1  0.86104000  0.41884000  0.16479000  1.0
  O  O120  1  0.35733000  0.15206000  0.34981000  1.0
  O  O121  1  0.85733000  0.84794000  0.15018000  1.0
  O  O122  1  0.64267000  0.84794000  0.65018000  1.0
  O  O123  1  0.14267000  0.15206000  0.84981000  1.0
  O  O124  1  0.60840000  0.07693000  0.27830000  1.0
  O  O125  1  0.10839000  0.92307000  0.22170000  1.0
  O  O126  1  0.39160000  0.92307000  0.72170000  1.0
  O  O127  1  0.89161000  0.07692000  0.77830000  1.0
  O  O128  1  0.27414000  0.19628000  0.68604000  1.0
  O  O129  1  0.77415000  0.80372000  0.81396000  1.0
  O  O130  1  0.72585000  0.80372000  0.31396000  1.0
  O  O131  1  0.22585000  0.19628000  0.18604000  1.0
