# generated using pymatgen
data_ZnH17C25N3O5
_symmetry_space_group_name_H-M   'P 1'
_cell_length_a   10.43330000
_cell_length_b   15.76750000
_cell_length_c   15.76750000
_cell_angle_alpha   75.36280000
_cell_angle_beta   70.77910000
_cell_angle_gamma   70.77930000
_symmetry_Int_Tables_number   1
_chemical_formula_structural   ZnH17C25N3O5
_chemical_formula_sum   'Zn4 H68 C100 N12 O20'
_cell_volume   2282.24800069
_cell_formula_units_Z   4
loop_
 _symmetry_equiv_pos_site_id
 _symmetry_equiv_pos_as_xyz
  1  'x, y, z'
loop_
 _atom_site_type_symbol
 _atom_site_label
 _atom_site_symmetry_multiplicity
 _atom_site_fract_x
 _atom_site_fract_y
 _atom_site_fract_z
 _atom_site_occupancy
  Zn  Zn0  1  0.30399000  0.73637000  0.33846000  1.0
  Zn  Zn1  1  0.80399000  0.33846000  0.73637000  1.0
  Zn  Zn2  1  0.85306000  0.78958000  0.18727000  1.0
  Zn  Zn3  1  0.35306000  0.18726000  0.78959000  1.0
  H  H4  1  0.39782000  0.78236000  0.12284000  1.0
  H  H5  1  0.89782000  0.12284000  0.78237000  1.0
  H  H6  1  0.77767000  0.74268000  0.40267000  1.0
  H  H7  1  0.27766000  0.40267000  0.74269000  1.0
  H  H8  1  0.76651000  0.98223000  0.11571000  1.0
  H  H9  1  0.26651000  0.11570000  0.98223000  1.0
  H  H10  1  0.62282000  0.08529000  0.01013000  1.0
  H  H11  1  0.12281000  0.01012000  0.08529000  1.0
  H  H12  1  0.49291000  0.01777000  0.94864000  1.0
  H  H13  1  0.99290000  0.94864000  0.01777000  1.0
  H  H14  1  0.64876000  0.75848000  0.10717000  1.0
  H  H15  1  0.14876000  0.10717000  0.75848000  1.0
  H  H16  1  0.40496000  0.72538000  0.91168000  1.0
  H  H17  1  0.90496000  0.91168000  0.72538000  1.0
  H  H18  1  0.19953000  0.68823000  0.89349000  1.0
  H  H19  1  0.69953000  0.89349000  0.68823000  1.0
  H  H20  1  0.97135000  0.71318000  0.01622000  1.0
  H  H21  1  0.47135000  0.01622000  0.71318000  1.0
  H  H22  1  0.13989000  0.80676000  0.16819000  1.0
  H  H23  1  0.63988000  0.16819000  0.80676000  1.0
  H  H24  1  0.98928000  0.54459000  0.33791000  1.0
  H  H25  1  0.48927000  0.33791000  0.54459000  1.0
  H  H26  1  0.05557000  0.38374000  0.41546000  1.0
  H  H27  1  0.55555000  0.41547000  0.38375000  1.0
  H  H28  1  0.95780000  0.26951000  0.39187000  1.0
  H  H29  1  0.45779000  0.39187000  0.26952000  1.0
  H  H30  1  0.79659000  0.31729000  0.29221000  1.0
  H  H31  1  0.29660000  0.29220000  0.31729000  1.0
  H  H32  1  0.88734000  0.36854000  0.11556000  1.0
  H  H33  1  0.38735000  0.11556000  0.36854000  1.0
  H  H34  1  0.76888000  0.38659000  0.99712000  1.0
  H  H35  1  0.26888000  0.99712000  0.38660000  1.0
  H  H36  1  0.53782000  0.50129000  0.99925000  1.0
  H  H37  1  0.03782000  0.99925000  0.50129000  1.0
  H  H38  1  0.43187000  0.60072000  0.11976000  1.0
  H  H39  1  0.93187000  0.11976000  0.60072000  1.0
  H  H40  1  0.33770000  0.54366000  0.41044000  1.0
  H  H41  1  0.83770000  0.41044000  0.54366000  1.0
  H  H42  1  0.19127000  0.44074000  0.51602000  1.0
  H  H43  1  0.69126000  0.51602000  0.44074000  1.0
  H  H44  1  0.93292000  0.50841000  0.57724000  1.0
  H  H45  1  0.43292000  0.57724000  0.50841000  1.0
  H  H46  1  0.98918000  0.76764000  0.41895000  1.0
  H  H47  1  0.48918000  0.41895000  0.76764000  1.0
  H  H48  1  0.58897000  0.71956000  0.35727000  1.0
  H  H49  1  0.08897000  0.35727000  0.71956000  1.0
  H  H50  1  0.17622000  0.81269000  0.50953000  1.0
  H  H51  1  0.67622000  0.50953000  0.81269000  1.0
  H  H52  1  0.25751000  0.83762000  0.63224000  1.0
  H  H53  1  0.75751000  0.63224000  0.83761000  1.0
  H  H54  1  0.51804000  0.80070000  0.61387000  1.0
  H  H55  1  0.01804000  0.61387000  0.80070000  1.0
  H  H56  1  0.84671000  0.15826000  0.40973000  1.0
  H  H57  1  0.34672000  0.40973000  0.15826000  1.0
  H  H58  1  0.62752000  0.14075000  0.52753000  1.0
  H  H59  1  0.12753000  0.52753000  0.14075000  1.0
  H  H60  1  0.51327000  0.02566000  0.52538000  1.0
  H  H61  1  0.01327000  0.52539000  0.02566000  1.0
  H  H62  1  0.62717000  0.92585000  0.40524000  1.0
  H  H63  1  0.12718000  0.40524000  0.92585000  1.0
  H  H64  1  0.88274000  0.20923000  0.23378000  1.0
  H  H65  1  0.38274000  0.23378000  0.20922000  1.0
  H  H66  1  0.09602000  0.25670000  0.13488000  1.0
  H  H67  1  0.59602000  0.13488000  0.25670000  1.0
  H  H68  1  0.33066000  0.14201000  0.11150000  1.0
  H  H69  1  0.83066000  0.11149000  0.14201000  1.0
  H  H70  1  0.34629000  0.98117000  0.18875000  1.0
  H  H71  1  0.84630000  0.18875000  0.98117000  1.0
  C  C72  1  0.70602000  0.95673000  0.08805000  1.0
  C  C73  1  0.20602000  0.08804000  0.95673000  1.0
  C  C74  1  0.62727000  0.01325000  0.02923000  1.0
  C  C75  1  0.12727000  0.02923000  0.01325000  1.0
  C  C76  1  0.55387000  0.97591000  0.99589000  1.0
  C  C77  1  0.05386000  0.99588000  0.97591000  1.0
  C  C78  1  0.55579000  0.88417000  0.02557000  1.0
  C  C79  1  0.05579000  0.02556000  0.88416000  1.0
  C  C80  1  0.63796000  0.83127000  0.08429000  1.0
  C  C81  1  0.13796000  0.08428000  0.83127000  1.0
  C  C82  1  0.46905000  0.84793000  0.99174000  1.0
  C  C83  1  0.96905000  0.99174000  0.84792000  1.0
  C  C84  1  0.28751000  0.76735000  0.04216000  1.0
  C  C85  1  0.78751000  0.04216000  0.76734000  1.0
  C  C86  1  0.30449000  0.73446000  0.96339000  1.0
  C  C87  1  0.80449000  0.96339000  0.73446000  1.0
  C  C88  1  0.19060000  0.71430000  0.95346000  1.0
  C  C89  1  0.69060000  0.95346000  0.71430000  1.0
  C  C90  1  0.06344000  0.72796000  0.02079000  1.0
  C  C91  1  0.56344000  0.02078000  0.72796000  1.0
  C  C92  1  0.15722000  0.77867000  0.10757000  1.0
  C  C93  1  0.65722000  0.10758000  0.77867000  1.0
  C  C94  1  0.83625000  0.61602000  0.22084000  1.0
  C  C95  1  0.33625000  0.22084000  0.61602000  1.0
  C  C96  1  0.86329000  0.51962000  0.26825000  1.0
  C  C97  1  0.36329000  0.26825000  0.51963000  1.0
  C  C98  1  0.94987000  0.49315000  0.32735000  1.0
  C  C99  1  0.44986000  0.32736000  0.49316000  1.0
  C  C100  1  0.98704000  0.40345000  0.37048000  1.0
  C  C101  1  0.48703000  0.37049000  0.40345000  1.0
  C  C102  1  0.93162000  0.33980000  0.35748000  1.0
  C  C103  1  0.43161000  0.35748000  0.33981000  1.0
  C  C104  1  0.84319000  0.36621000  0.30023000  1.0
  C  C105  1  0.34319000  0.30023000  0.36621000  1.0
  C  C106  1  0.81009000  0.45518000  0.25274000  1.0
  C  C107  1  0.31009000  0.25274000  0.45519000  1.0
  C  C108  1  0.72827000  0.47367000  0.18542000  1.0
  C  C109  1  0.22827000  0.18542000  0.47367000  1.0
  C  C110  1  0.78637000  0.41915000  0.11678000  1.0
  C  C111  1  0.28637000  0.11678000  0.41915000  1.0
  C  C112  1  0.72039000  0.42988000  0.04948000  1.0
  C  C113  1  0.22039000  0.04948000  0.42988000  1.0
  C  C114  1  0.59195000  0.49520000  0.04993000  1.0
  C  C115  1  0.09195000  0.04992000  0.49520000  1.0
  C  C116  1  0.53290000  0.55007000  0.11734000  1.0
  C  C117  1  0.03290000  0.11734000  0.55007000  1.0
  C  C118  1  0.59904000  0.54064000  0.18495000  1.0
  C  C119  1  0.09903000  0.18495000  0.54065000  1.0
  C  C120  1  0.52407000  0.59960000  0.25716000  1.0
  C  C121  1  0.02407000  0.25716000  0.59960000  1.0
  C  C122  1  0.22435000  0.56926000  0.43808000  1.0
  C  C123  1  0.72435000  0.43808000  0.56926000  1.0
  C  C124  1  0.14319000  0.51280000  0.49687000  1.0
  C  C125  1  0.64319000  0.49686000  0.51279000  1.0
  C  C126  1  0.99946000  0.55021000  0.53009000  1.0
  C  C127  1  0.49945000  0.53008000  0.55020000  1.0
  C  C128  1  0.93981000  0.64198000  0.50039000  1.0
  C  C129  1  0.43981000  0.50038000  0.64198000  1.0
  C  C130  1  0.02790000  0.69483000  0.44175000  1.0
  C  C131  1  0.52790000  0.44175000  0.69483000  1.0
  C  C132  1  0.78340000  0.67837000  0.53408000  1.0
  C  C133  1  0.28340000  0.53408000  0.67837000  1.0
  C  C134  1  0.51809000  0.74749000  0.41796000  1.0
  C  C135  1  0.01809000  0.41796000  0.74749000  1.0
  C  C136  1  0.28756000  0.79796000  0.50492000  1.0
  C  C137  1  0.78756000  0.50492000  0.79796000  1.0
  C  C138  1  0.33418000  0.81164000  0.57221000  1.0
  C  C139  1  0.83418000  0.57221000  0.81164000  1.0
  C  C140  1  0.47803000  0.79158000  0.56219000  1.0
  C  C141  1  0.97803000  0.56219000  0.79158000  1.0
  C  C142  1  0.57209000  0.75872000  0.48339000  1.0
  C  C143  1  0.07208000  0.48338000  0.75872000  1.0
  C  C144  1  0.79959000  0.98582000  0.34042000  1.0
  C  C145  1  0.29960000  0.34042000  0.98582000  1.0
  C  C146  1  0.86249000  0.05283000  0.34007000  1.0
  C  C147  1  0.36250000  0.34008000  0.05282000  1.0
  C  C148  1  0.79741000  0.10763000  0.40845000  1.0
  C  C149  1  0.29742000  0.40845000  0.10762000  1.0
  C  C150  1  0.67470000  0.09717000  0.47541000  1.0
  C  C151  1  0.17470000  0.47541000  0.09717000  1.0
  C  C152  1  0.61196000  0.03172000  0.47491000  1.0
  C  C153  1  0.11196000  0.47492000  0.03171000  1.0
  C  C154  1  0.67519000  0.97658000  0.40773000  1.0
  C  C155  1  0.17520000  0.40774000  0.97658000  1.0
  C  C156  1  0.99333000  0.07111000  0.27318000  1.0
  C  C157  1  0.49334000  0.27318000  0.07110000  1.0
  C  C158  1  0.98577000  0.16011000  0.22591000  1.0
  C  C159  1  0.48578000  0.22591000  0.16011000  1.0
  C  C160  1  0.10522000  0.18637000  0.16906000  1.0
  C  C161  1  0.60522000  0.16907000  0.18637000  1.0
  C  C162  1  0.23670000  0.12248000  0.15620000  1.0
  C  C163  1  0.73670000  0.15620000  0.12248000  1.0
  C  C164  1  0.24531000  0.03276000  0.19915000  1.0
  C  C165  1  0.74532000  0.19915000  0.03276000  1.0
  C  C166  1  0.12591000  0.00646000  0.25789000  1.0
  C  C167  1  0.62591000  0.25789000  0.00646000  1.0
  C  C168  1  0.14711000  0.91008000  0.30537000  1.0
  C  C169  1  0.64712000  0.30537000  0.91008000  1.0
  C  C170  1  0.85562000  0.92667000  0.26836000  1.0
  C  C171  1  0.35562000  0.26836000  0.92667000  1.0
  N  N172  1  0.71373000  0.86705000  0.11357000  1.0
  N  N173  1  0.21372000  0.11356000  0.86705000  1.0
  N  N174  1  0.39480000  0.79255000  0.05671000  1.0
  N  N175  1  0.89480000  0.05671000  0.79255000  1.0
  N  N176  1  0.04764000  0.75967000  0.09650000  1.0
  N  N177  1  0.54764000  0.09650000  0.75967000  1.0
  N  N178  1  0.16840000  0.65894000  0.41252000  1.0
  N  N179  1  0.66839000  0.41252000  0.65894000  1.0
  N  N180  1  0.71889000  0.73339000  0.46888000  1.0
  N  N181  1  0.21889000  0.46888000  0.73339000  1.0
  N  N182  1  0.37858000  0.76640000  0.42911000  1.0
  N  N183  1  0.87858000  0.42911000  0.76639000  1.0
  O  O184  1  0.71938000  0.65551000  0.61370000  1.0
  O  O185  1  0.21937000  0.61370000  0.65551000  1.0
  O  O186  1  0.82076000  0.85001000  0.29136000  1.0
  O  O187  1  0.32077000  0.29135000  0.85001000  1.0
  O  O188  1  0.92673000  0.95147000  0.19013000  1.0
  O  O189  1  0.42673000  0.19013000  0.95148000  1.0
  O  O190  1  0.08031000  0.88957000  0.38615000  1.0
  O  O191  1  0.58032000  0.38615000  0.88956000  1.0
  O  O192  1  0.24368000  0.85057000  0.25734000  1.0
  O  O193  1  0.74370000  0.25733000  0.85056000  1.0
  O  O194  1  0.43578000  0.67629000  0.23422000  1.0
  O  O195  1  0.93578000  0.23422000  0.67630000  1.0
  O  O196  1  0.54170000  0.57467000  0.33548000  1.0
  O  O197  1  0.04169000  0.33548000  0.57466000  1.0
  O  O198  1  0.82642000  0.67539000  0.26884000  1.0
  O  O199  1  0.32641000  0.26884000  0.67540000  1.0
  O  O200  1  0.82910000  0.63675000  0.14012000  1.0
  O  O201  1  0.32910000  0.14012000  0.63675000  1.0
  O  O202  1  0.46107000  0.87124000  0.91222000  1.0
  O  O203  1  0.96107000  0.91222000  0.87123000  1.0
