# generated using pymatgen
data_SrH18C24(N2O5)2
_symmetry_space_group_name_H-M   'P 1'
_cell_length_a   14.70998650
_cell_length_b   14.71000000
_cell_length_c   14.71000000
_cell_angle_alpha   108.09670000
_cell_angle_beta   110.16266330
_cell_angle_gamma   110.16296330
_symmetry_Int_Tables_number   1
_chemical_formula_structural   SrH18C24(N2O5)2
_chemical_formula_sum   'Sr4 H72 C96 N16 O40'
_cell_volume   2449.22607665
_cell_formula_units_Z   4
loop_
 _symmetry_equiv_pos_site_id
 _symmetry_equiv_pos_as_xyz
  1  'x, y, z'
loop_
 _atom_site_type_symbol
 _atom_site_label
 _atom_site_symmetry_multiplicity
 _atom_site_fract_x
 _atom_site_fract_y
 _atom_site_fract_z
 _atom_site_occupancy
  Sr  Sr0  1  0.25000000  0.72980000  0.47980000  1.0
  Sr  Sr1  1  0.75000000  0.47980000  0.72980000  1.0
  Sr  Sr2  1  0.75000000  0.27020000  0.52020000  1.0
  Sr  Sr3  1  0.25000000  0.52020000  0.27020000  1.0
  H  H4  1  0.71094000  0.60497000  0.06093000  1.0
  H  H5  1  0.78906000  0.84999000  0.89403000  1.0
  H  H6  1  0.04405000  0.89404000  0.60498000  1.0
  H  H7  1  0.45595000  0.06093000  0.84999000  1.0
  H  H8  1  0.28907000  0.39503000  0.93908000  1.0
  H  H9  1  0.21094000  0.15001000  0.10597000  1.0
  H  H10  1  0.95595000  0.10596000  0.39502000  1.0
  H  H11  1  0.54405000  0.93907000  0.15001000  1.0
  H  H12  1  0.01535000  0.77144000  0.37667000  1.0
  H  H13  1  0.48465000  0.86132000  0.75609000  1.0
  H  H14  1  0.89478000  0.75609000  0.77145000  1.0
  H  H15  1  0.60522000  0.37666000  0.86131000  1.0
  H  H16  1  0.98465000  0.22856000  0.62333000  1.0
  H  H17  1  0.51535000  0.13868000  0.24391000  1.0
  H  H18  1  0.10523000  0.24392000  0.22856000  1.0
  H  H19  1  0.39477000  0.62333000  0.13868000  1.0
  H  H20  1  0.74227000  0.45233000  0.26871000  1.0
  H  H21  1  0.75774000  0.02644000  0.71007000  1.0
  H  H22  1  0.68363000  0.71006000  0.45233000  1.0
  H  H23  1  0.81637000  0.26870000  0.02643000  1.0
  H  H24  1  0.25773000  0.54767000  0.73129000  1.0
  H  H25  1  0.24227000  0.97356000  0.28994000  1.0
  H  H26  1  0.31637000  0.28993000  0.54767000  1.0
  H  H27  1  0.18363000  0.73130000  0.97357000  1.0
  H  H28  1  0.07603000  0.87067000  0.29926000  1.0
  H  H29  1  0.42396000  0.72322000  0.79463000  1.0
  H  H30  1  0.07141000  0.79464000  0.87067000  1.0
  H  H31  1  0.42859000  0.29926000  0.72323000  1.0
  H  H32  1  0.92397000  0.12933000  0.70074000  1.0
  H  H33  1  0.57603000  0.27677000  0.20536000  1.0
  H  H34  1  0.92859000  0.20536000  0.12933000  1.0
  H  H35  1  0.57141000  0.70074000  0.27677000  1.0
  H  H36  1  0.99737000  0.91920000  0.34862000  1.0
  H  H37  1  0.50263000  0.85125000  0.92183000  1.0
  H  H38  1  0.07058000  0.92182000  0.91920000  1.0
  H  H39  1  0.42942000  0.34862000  0.85124000  1.0
  H  H40  1  0.00263000  0.08081000  0.65139000  1.0
  H  H41  1  0.49737000  0.14875000  0.07817000  1.0
  H  H42  1  0.92942000  0.07818000  0.08080000  1.0
  H  H43  1  0.57058000  0.65138000  0.14876000  1.0
  H  H44  1  0.01219000  0.93719000  0.23874000  1.0
  H  H45  1  0.48781000  0.72655000  0.92500000  1.0
  H  H46  1  0.19846000  0.92501000  0.93720000  1.0
  H  H47  1  0.30154000  0.23873000  0.72654000  1.0
  H  H48  1  0.98781000  0.06281000  0.76126000  1.0
  H  H49  1  0.51219000  0.27346000  0.07500000  1.0
  H  H50  1  0.80154000  0.07499000  0.06281000  1.0
  H  H51  1  0.69846000  0.76127000  0.27346000  1.0
  H  H52  1  0.63098000  0.44822000  0.09564000  1.0
  H  H53  1  0.86902000  0.96466000  0.81724000  1.0
  H  H54  1  0.85259000  0.81724000  0.44823000  1.0
  H  H55  1  0.64741000  0.09563000  0.96465000  1.0
  H  H56  1  0.36902000  0.55178000  0.90436000  1.0
  H  H57  1  0.13098000  0.03534000  0.18276000  1.0
  H  H58  1  0.14741000  0.18275000  0.55177000  1.0
  H  H59  1  0.35259000  0.90437000  0.03535000  1.0
  H  H60  1  0.81890000  0.52935000  0.46390000  1.0
  H  H61  1  0.68110000  0.14500000  0.71045000  1.0
  H  H62  1  0.56546000  0.71046000  0.52936000  1.0
  H  H63  1  0.93454000  0.46390000  0.14499000  1.0
  H  H64  1  0.18110000  0.47064000  0.53610000  1.0
  H  H65  1  0.31890000  0.85500000  0.28955000  1.0
  H  H66  1  0.43454000  0.28955000  0.47064000  1.0
  H  H67  1  0.06546000  0.53610000  0.85501000  1.0
  H  H68  1  0.15050000  0.66861000  0.77380000  1.0
  H  H69  1  0.34950000  0.12330000  0.51811000  1.0
  H  H70  1  0.39481000  0.51811000  0.66861000  1.0
  H  H71  1  0.10519000  0.77380000  0.12330000  1.0
  H  H72  1  0.84950000  0.33139000  0.22620000  1.0
  H  H73  1  0.65050000  0.87670000  0.48189000  1.0
  H  H74  1  0.60519000  0.48189000  0.33139000  1.0
  H  H75  1  0.89481000  0.22620000  0.87670000  1.0
  C  C76  1  0.75873000  0.60568000  0.13692000  1.0
  C  C77  1  0.74127000  0.87819000  0.84695000  1.0
  C  C78  1  0.96877000  0.84696000  0.60569000  1.0
  C  C79  1  0.53123000  0.13691000  0.87819000  1.0
  C  C80  1  0.24127000  0.39432000  0.86308000  1.0
  C  C81  1  0.25873000  0.12181000  0.15305000  1.0
  C  C82  1  0.03123000  0.15304000  0.39431000  1.0
  C  C83  1  0.46876000  0.86308000  0.12181000  1.0
  C  C84  1  0.86699000  0.69757000  0.21622000  1.0
  C  C85  1  0.63301000  0.84922000  0.83058000  1.0
  C  C86  1  0.98136000  0.83059000  0.69758000  1.0
  C  C87  1  0.51864000  0.21621000  0.84922000  1.0
  C  C88  1  0.13302000  0.30244000  0.78379000  1.0
  C  C89  1  0.36699000  0.15078000  0.16942000  1.0
  C  C90  1  0.01864000  0.16941000  0.30242000  1.0
  C  C91  1  0.48135000  0.78378000  0.15077000  1.0
  C  C92  1  0.93144000  0.70087000  0.31426000  1.0
  C  C93  1  0.56855000  0.88281000  0.76942000  1.0
  C  C94  1  0.88661000  0.76943000  0.70087000  1.0
  C  C95  1  0.61339000  0.31426000  0.88281000  1.0
  C  C96  1  0.06856000  0.29913000  0.68574000  1.0
  C  C97  1  0.43144000  0.11718000  0.23057000  1.0
  C  C98  1  0.11339000  0.23058000  0.29913000  1.0
  C  C99  1  0.38661000  0.68574000  0.11719000  1.0
  C  C100  1  0.88569000  0.61223000  0.33346000  1.0
  C  C101  1  0.61431000  0.94777000  0.72654000  1.0
  C  C102  1  0.77878000  0.72654000  0.61224000  1.0
  C  C103  1  0.72123000  0.33346000  0.94777000  1.0
  C  C104  1  0.11431000  0.38777000  0.66654000  1.0
  C  C105  1  0.38569000  0.05223000  0.27346000  1.0
  C  C106  1  0.22123000  0.27347000  0.38777000  1.0
  C  C107  1  0.27877000  0.66654000  0.05223000  1.0
  C  C108  1  0.77740000  0.52146000  0.25485000  1.0
  C  C109  1  0.72261000  0.97746000  0.74407000  1.0
  C  C110  1  0.76661000  0.74406000  0.52146000  1.0
  C  C111  1  0.73339000  0.25485000  0.97745000  1.0
  C  C112  1  0.22260000  0.47854000  0.74514000  1.0
  C  C113  1  0.27739000  0.02254000  0.25594000  1.0
  C  C114  1  0.23339000  0.25594000  0.47854000  1.0
  C  C115  1  0.26661000  0.74515000  0.02255000  1.0
  C  C116  1  0.95080000  0.61858000  0.43853000  1.0
  C  C117  1  0.54920000  0.98773000  0.66778000  1.0
  C  C118  1  0.68006000  0.66779000  0.61859000  1.0
  C  C119  1  0.81994000  0.43852000  0.98773000  1.0
  C  C120  1  0.04920000  0.38142000  0.56147000  1.0
  C  C121  1  0.45080000  0.01227000  0.33222000  1.0
  C  C122  1  0.31994000  0.33221000  0.38141000  1.0
  C  C123  1  0.18006000  0.56148000  0.01227000  1.0
  C  C124  1  0.98805000  0.60116000  0.59012000  1.0
  C  C125  1  0.51195000  0.10206000  0.61311000  1.0
  C  C126  1  0.51105000  0.61311000  0.60116000  1.0
  C  C127  1  0.98895000  0.59012000  0.10206000  1.0
  C  C128  1  0.01195000  0.39883000  0.40988000  1.0
  C  C129  1  0.48805000  0.89794000  0.38689000  1.0
  C  C130  1  0.48895000  0.38689000  0.39883000  1.0
  C  C131  1  0.01105000  0.40989000  0.89794000  1.0
  C  C132  1  0.00310000  0.88209000  0.27478000  1.0
  C  C133  1  0.49690000  0.77168000  0.87899000  1.0
  C  C134  1  0.10732000  0.87900000  0.88210000  1.0
  C  C135  1  0.39268000  0.27478000  0.77167000  1.0
  C  C136  1  0.99690000  0.11791000  0.72522000  1.0
  C  C137  1  0.50310000  0.22832000  0.12101000  1.0
  C  C138  1  0.89268000  0.12100000  0.11790000  1.0
  C  C139  1  0.60732000  0.72523000  0.22833000  1.0
  C  C140  1  0.08748000  0.66415000  0.59552000  1.0
  C  C141  1  0.41252000  0.00803000  0.57667000  1.0
  C  C142  1  0.56863000  0.57667000  0.66414000  1.0
  C  C143  1  0.93137000  0.59552000  0.00804000  1.0
  C  C144  1  0.91252000  0.33585000  0.40448000  1.0
  C  C145  1  0.58747000  0.99196000  0.42332000  1.0
  C  C146  1  0.43137000  0.42333000  0.33585000  1.0
  C  C147  1  0.06863000  0.40448000  0.99196000  1.0
  C  C148  1  0.96393000  0.56430000  0.66590000  1.0
  C  C149  1  0.53607000  0.20197000  0.60038000  1.0
  C  C150  1  0.39841000  0.60037000  0.56430000  1.0
  C  C151  1  0.10159000  0.66590000  0.20196000  1.0
  C  C152  1  0.03607000  0.43569000  0.33410000  1.0
  C  C153  1  0.46393000  0.79803000  0.39962000  1.0
  C  C154  1  0.60159000  0.39963000  0.43569000  1.0
  C  C155  1  0.89841000  0.33410000  0.79804000  1.0
  C  C156  1  0.20548000  0.71865000  0.68401000  1.0
  C  C157  1  0.29452000  0.97853000  0.51317000  1.0
  C  C158  1  0.53464000  0.51317000  0.71865000  1.0
  C  C159  1  0.96536000  0.68401000  0.97853000  1.0
  C  C160  1  0.79452000  0.28135000  0.31599000  1.0
  C  C161  1  0.70548000  0.02147000  0.48683000  1.0
  C  C162  1  0.46536000  0.48683000  0.28135000  1.0
  C  C163  1  0.03464000  0.31599000  0.02147000  1.0
  C  C164  1  0.71499000  0.51896000  0.15702000  1.0
  C  C165  1  0.78501000  0.94203000  0.80398000  1.0
  C  C166  1  0.86195000  0.80398000  0.51897000  1.0
  C  C167  1  0.63805000  0.15702000  0.94203000  1.0
  C  C168  1  0.28501000  0.48103000  0.84298000  1.0
  C  C169  1  0.21499000  0.05797000  0.19602000  1.0
  C  C170  1  0.13805000  0.19602000  0.48103000  1.0
  C  C171  1  0.36195000  0.84298000  0.05797000  1.0
  N  N172  1  0.06328000  0.67290000  0.50060000  1.0
  N  N173  1  0.43672000  0.93731000  0.60962000  1.0
  N  N174  1  0.67231000  0.60963000  0.67290000  1.0
  N  N175  1  0.82769000  0.50059000  0.93731000  1.0
  N  N176  1  0.93672000  0.32709000  0.49940000  1.0
  N  N177  1  0.56328000  0.06269000  0.39038000  1.0
  N  N178  1  0.32769000  0.39038000  0.32710000  1.0
  N  N179  1  0.17231000  0.49941000  0.06269000  1.0
  N  N180  1  0.90357000  0.57311000  0.49028000  1.0
  N  N181  1  0.59643000  0.08671000  0.66954000  1.0
  N  N182  1  0.58283000  0.66954000  0.57311000  1.0
  N  N183  1  0.91717000  0.49028000  0.08671000  1.0
  N  N184  1  0.09643000  0.42689000  0.50972000  1.0
  N  N185  1  0.40357000  0.91329000  0.33046000  1.0
  N  N186  1  0.41717000  0.33046000  0.42689000  1.0
  N  N187  1  0.08283000  0.50972000  0.91329000  1.0
  O  O188  1  0.90112000  0.77974000  0.19018000  1.0
  O  O189  1  0.59887000  0.78906000  0.87861000  1.0
  O  O190  1  0.08956000  0.87862000  0.77975000  1.0
  O  O191  1  0.41044000  0.19018000  0.78906000  1.0
  O  O192  1  0.09888000  0.22026000  0.80982000  1.0
  O  O193  1  0.40112000  0.21094000  0.12138000  1.0
  O  O194  1  0.91044000  0.12138000  0.22026000  1.0
  O  O195  1  0.58956000  0.80982000  0.21094000  1.0
  O  O196  1  0.86180000  0.50067000  0.63111000  1.0
  O  O197  1  0.63820000  0.26931000  0.63887000  1.0
  O  O198  1  0.36956000  0.63887000  0.50067000  1.0
  O  O199  1  0.13044000  0.63112000  0.26931000  1.0
  O  O200  1  0.13820000  0.49933000  0.36889000  1.0
  O  O201  1  0.36180000  0.73069000  0.36113000  1.0
  O  O202  1  0.63044000  0.36113000  0.49932000  1.0
  O  O203  1  0.86956000  0.36888000  0.73069000  1.0
  O  O204  1  0.04669000  0.59894000  0.76078000  1.0
  O  O205  1  0.45331000  0.21409000  0.55225000  1.0
  O  O206  1  0.33817000  0.55225000  0.59894000  1.0
  O  O207  1  0.16184000  0.76078000  0.21409000  1.0
  O  O208  1  0.95331000  0.40105000  0.23922000  1.0
  O  O209  1  0.54669000  0.78591000  0.44774000  1.0
  O  O210  1  0.66184000  0.44775000  0.40106000  1.0
  O  O211  1  0.83816000  0.23922000  0.78591000  1.0
  O  O212  1  0.28366000  0.76497000  0.66940000  1.0
  O  O213  1  0.21634000  0.88574000  0.48130000  1.0
  O  O214  1  0.59557000  0.48131000  0.76497000  1.0
  O  O215  1  0.90443000  0.66940000  0.88574000  1.0
  O  O216  1  0.71634000  0.23503000  0.33060000  1.0
  O  O217  1  0.78366000  0.11426000  0.51869000  1.0
  O  O218  1  0.40443000  0.51869000  0.23503000  1.0
  O  O219  1  0.09557000  0.33060000  0.11427000  1.0
  O  O220  1  0.22613000  0.71701000  0.77749000  1.0
  O  O221  1  0.27387000  0.05136000  0.49089000  1.0
  O  O222  1  0.43953000  0.49089000  0.71702000  1.0
  O  O223  1  0.06047000  0.77749000  0.05135000  1.0
  O  O224  1  0.77387000  0.28299000  0.22251000  1.0
  O  O225  1  0.72613000  0.94864000  0.50911000  1.0
  O  O226  1  0.56047000  0.50912000  0.28298000  1.0
  O  O227  1  0.93953000  0.22251000  0.94865000  1.0
