# generated using pymatgen
data_ZnH15C21N5O4
_symmetry_space_group_name_H-M   'P 1'
_cell_length_a   10.84260000
_cell_length_b   13.78800000
_cell_length_c   15.23420000
_cell_angle_alpha   89.72720000
_cell_angle_beta   89.58530000
_cell_angle_gamma   90.86400000
_symmetry_Int_Tables_number   1
_chemical_formula_structural   ZnH15C21N5O4
_chemical_formula_sum   'Zn2 H30 C42 N10 O8'
_cell_volume   2277.13330640
_cell_formula_units_Z   2
loop_
 _symmetry_equiv_pos_site_id
 _symmetry_equiv_pos_as_xyz
  1  'x, y, z'
loop_
 _atom_site_type_symbol
 _atom_site_label
 _atom_site_symmetry_multiplicity
 _atom_site_fract_x
 _atom_site_fract_y
 _atom_site_fract_z
 _atom_site_occupancy
  Zn  Zn0  1  0.49661000  0.40120000  0.50174000  1.0
  Zn  Zn1  1  0.50352000  0.60346000  0.50055000  1.0
  H  H2  1  0.09373000  0.41392000  0.61923000  1.0
  H  H3  1  0.90536000  0.58988000  0.37343000  1.0
  H  H4  1  0.45585000  0.25072000  0.92406000  1.0
  H  H5  1  0.54683000  0.74301000  0.07783000  1.0
  H  H6  1  0.67179000  0.25567000  0.44440000  1.0
  H  H7  1  0.32738000  0.74963000  0.55613000  1.0
  H  H8  1  0.32592000  0.25075000  0.55541000  1.0
  H  H9  1  0.67915000  0.75509000  0.45456000  1.0
  H  H10  1  0.97225000  0.26055000  0.50608000  1.0
  H  H11  1  0.83550000  0.30429000  0.53584000  1.0
  H  H12  1  0.02797000  0.74090000  0.47245000  1.0
  H  H13  1  0.17062000  0.69670000  0.46648000  1.0
  H  H14  1  0.00522000  0.39080000  0.30278000  1.0
  H  H15  1  0.14272000  0.44452000  0.31058000  1.0
  H  H16  1  0.99573000  0.63871000  0.67286000  1.0
  H  H17  1  0.88607000  0.55612000  0.69507000  1.0
  H  H18  1  0.54275000  0.65330000  0.22053000  1.0
  H  H19  1  0.45352000  0.34140000  0.78077000  1.0
  H  H20  1  0.50586000  0.34339000  0.22606000  1.0
  H  H21  1  0.50050000  0.65056000  0.77630000  1.0
  H  H22  1  0.47709000  0.25126000  0.08566000  1.0
  H  H23  1  0.52758000  0.74224000  0.91574000  1.0
  H  H24  1  0.20224000  0.16859000  0.61634000  1.0
  H  H25  1  0.14766000  0.06257000  0.65465000  1.0
  H  H26  1  0.80402000  0.83986000  0.38327000  1.0
  H  H27  1  0.88820000  0.94466000  0.38757000  1.0
  H  H28  1  0.85670000  0.08603000  0.35283000  1.0
  H  H29  1  0.82093000  0.18108000  0.41646000  1.0
  H  H30  1  0.17285000  0.82718000  0.57814000  1.0
  H  H31  1  0.10281000  0.93486000  0.58524000  1.0
  C  C32  1  0.47280000  0.49611000  0.67178000  1.0
  C  C33  1  0.52586000  0.50122000  0.33008000  1.0
  C  C34  1  0.50770000  0.49690000  0.04730000  1.0
  C  C35  1  0.49602000  0.49657000  0.95443000  1.0
  C  C36  1  0.52545000  0.58668000  0.09254000  1.0
  C  C37  1  0.47700000  0.40709000  0.90892000  1.0
  C  C38  1  0.48218000  0.31907000  0.04839000  1.0
  C  C39  1  0.52212000  0.67465000  0.95329000  1.0
  C  C40  1  0.47040000  0.31879000  0.95914000  1.0
  C  C41  1  0.53282000  0.67504000  0.04251000  1.0
  C  C42  1  0.59839000  0.20827000  0.46985000  1.0
  C  C43  1  0.40202000  0.79697000  0.53251000  1.0
  C  C44  1  0.40115000  0.20512000  0.53323000  1.0
  C  C45  1  0.60187000  0.80024000  0.47366000  1.0
  C  C46  1  0.39598000  0.10347000  0.53579000  1.0
  C  C47  1  0.60607000  0.90187000  0.47008000  1.0
  C  C48  1  0.60605000  0.10678000  0.47014000  1.0
  C  C49  1  0.39494000  0.89839000  0.53313000  1.0
  C  C50  1  0.50094000  0.05365000  0.50251000  1.0
  C  C51  1  0.50048000  0.95184000  0.50178000  1.0
  C  C52  1  0.29119000  0.04975000  0.56898000  1.0
  C  C53  1  0.71237000  0.95534000  0.43825000  1.0
  C  C54  1  0.71283000  0.05668000  0.43823000  1.0
  C  C55  1  0.28780000  0.94863000  0.56413000  1.0
  C  C56  1  0.73841000  0.50174000  0.51141000  1.0
  C  C57  1  0.26045000  0.50429000  0.48493000  1.0
  C  C58  1  0.95724000  0.40725000  0.49604000  1.0
  C  C59  1  0.04020000  0.59601000  0.49645000  1.0
  C  C60  1  0.03336000  0.45816000  0.41942000  1.0
  C  C61  1  0.96537000  0.54524000  0.57322000  1.0
  C  C62  1  0.04908000  0.45238000  0.56515000  1.0
  C  C63  1  0.94889000  0.55084000  0.42766000  1.0
  C  C64  1  0.12363000  0.50457000  0.48890000  1.0
  C  C65  1  0.87436000  0.49860000  0.50300000  1.0
  C  C66  1  0.53274000  0.58564000  0.18430000  1.0
  C  C67  1  0.46691000  0.40867000  0.81712000  1.0
  C  C68  1  0.52506000  0.49852000  0.23159000  1.0
  C  C69  1  0.47605000  0.49604000  0.77027000  1.0
  C  C70  1  0.51110000  0.41025000  0.18757000  1.0
  C  C71  1  0.49338000  0.58371000  0.81465000  1.0
  C  C72  1  0.50092000  0.40777000  0.09577000  1.0
  C  C73  1  0.50337000  0.58582000  0.90625000  1.0
  N  N74  1  0.49893000  0.25412000  0.50064000  1.0
  N  N75  1  0.50260000  0.75095000  0.50372000  1.0
  N  N76  1  0.90693000  0.31079000  0.49183000  1.0
  N  N77  1  0.08837000  0.69353000  0.49974000  1.0
  N  N78  1  0.07560000  0.40727000  0.34447000  1.0
  N  N79  1  0.92542000  0.59827000  0.64704000  1.0
  N  N80  1  0.18801000  0.09735000  0.60246000  1.0
  N  N81  1  0.81654000  0.90516000  0.41230000  1.0
  N  N82  1  0.81869000  0.10731000  0.41072000  1.0
  N  N83  1  0.18311000  0.89881000  0.59368000  1.0
  O  O84  1  0.45298000  0.41528000  0.63385000  1.0
  O  O85  1  0.50905000  0.58346000  0.36533000  1.0
  O  O86  1  0.54093000  0.42122000  0.37069000  1.0
  O  O87  1  0.49260000  0.57728000  0.63358000  1.0
  O  O88  1  0.68064000  0.42358000  0.53297000  1.0
  O  O89  1  0.31526000  0.58648000  0.49243000  1.0
  O  O90  1  0.31222000  0.42277000  0.47605000  1.0
  O  O91  1  0.68980000  0.58367000  0.49705000  1.0
