# generated using pymatgen
data_Zn3H68C76(N7O9)2
_symmetry_space_group_name_H-M   'P 1'
_cell_length_a   11.39500000
_cell_length_b   18.80430000
_cell_length_c   23.92220000
_cell_angle_alpha   89.99980000
_cell_angle_beta   90.00000000
_cell_angle_gamma   89.99990000
_symmetry_Int_Tables_number   1
_chemical_formula_structural   Zn3H68C76(N7O9)2
_chemical_formula_sum   'Zn6 H136 C152 N28 O36'
_cell_volume   5125.92936908
_cell_formula_units_Z   2
loop_
 _symmetry_equiv_pos_site_id
 _symmetry_equiv_pos_as_xyz
  1  'x, y, z'
loop_
 _atom_site_type_symbol
 _atom_site_label
 _atom_site_symmetry_multiplicity
 _atom_site_fract_x
 _atom_site_fract_y
 _atom_site_fract_z
 _atom_site_occupancy
  Zn  Zn0  1  0.53589000  0.50000000  0.50000000  1.0
  Zn  Zn1  1  0.46411000  0.00000000  0.00000000  1.0
  Zn  Zn2  1  0.53029000  0.69961000  0.51812000  1.0
  Zn  Zn3  1  0.53030000  0.30039000  0.48188000  1.0
  Zn  Zn4  1  0.46971000  0.80039000  0.01812000  1.0
  Zn  Zn5  1  0.46970000  0.19961000  0.98188000  1.0
  H  H6  1  0.57859000  0.51836000  0.64200000  1.0
  H  H7  1  0.57859000  0.48164000  0.35800000  1.0
  H  H8  1  0.42141000  0.98164000  0.14200000  1.0
  H  H9  1  0.42142000  0.01836000  0.85800000  1.0
  H  H10  1  0.35245000  0.59418000  0.67971000  1.0
  H  H11  1  0.35245000  0.40582000  0.32029000  1.0
  H  H12  1  0.64755000  0.90582000  0.17971000  1.0
  H  H13  1  0.64755000  0.09418000  0.82029000  1.0
  H  H14  1  0.40201000  0.50983000  0.70424000  1.0
  H  H15  1  0.40200000  0.49017000  0.29576000  1.0
  H  H16  1  0.59799000  0.99018000  0.20424000  1.0
  H  H17  1  0.59800000  0.00983000  0.79576000  1.0
  H  H18  1  0.36214000  0.51989000  0.63321000  1.0
  H  H19  1  0.36214000  0.48011000  0.36679000  1.0
  H  H20  1  0.63786000  0.98011000  0.13321000  1.0
  H  H21  1  0.63787000  0.01989000  0.86679000  1.0
  H  H22  1  0.92089000  0.60600000  0.74837000  1.0
  H  H23  1  0.92089000  0.39400000  0.25163000  1.0
  H  H24  1  0.07911000  0.89400000  0.24837000  1.0
  H  H25  1  0.07911000  0.10600000  0.75163000  1.0
  H  H26  1  0.87279000  0.78704000  0.85746000  1.0
  H  H27  1  0.87279000  0.21296000  0.14254000  1.0
  H  H28  1  0.12721000  0.71296000  0.35746000  1.0
  H  H29  1  0.12722000  0.28704000  0.64254000  1.0
  H  H30  1  0.59591000  0.72116000  0.74719000  1.0
  H  H31  1  0.59591000  0.27884000  0.25280000  1.0
  H  H32  1  0.40409000  0.77884000  0.24719000  1.0
  H  H33  1  0.40409000  0.22116000  0.75281000  1.0
  H  H34  1  0.23409000  0.53655000  0.78547000  1.0
  H  H35  1  0.23409000  0.46345000  0.21453000  1.0
  H  H36  1  0.76590000  0.96345000  0.28546000  1.0
  H  H37  1  0.76591000  0.03654000  0.71453000  1.0
  H  H38  1  0.20762000  0.54770000  0.85834000  1.0
  H  H39  1  0.20762000  0.45229000  0.14166000  1.0
  H  H40  1  0.79238000  0.95230000  0.35833000  1.0
  H  H41  1  0.79238000  0.04770000  0.64166000  1.0
  H  H42  1  0.35266000  0.55927000  0.83028000  1.0
  H  H43  1  0.35266000  0.44072000  0.16973000  1.0
  H  H44  1  0.64733000  0.94073000  0.33027000  1.0
  H  H45  1  0.64734000  0.05927000  0.66973000  1.0
  H  H46  1  0.25144000  0.67674000  0.85155000  1.0
  H  H47  1  0.25144000  0.32325000  0.14845000  1.0
  H  H48  1  0.74856000  0.82326000  0.35155000  1.0
  H  H49  1  0.74857000  0.17674000  0.64845000  1.0
  H  H50  1  0.29580000  0.80204000  0.84358000  1.0
  H  H51  1  0.29580000  0.19796000  0.15642000  1.0
  H  H52  1  0.70420000  0.69796000  0.34358000  1.0
  H  H53  1  0.70420000  0.30204000  0.65642000  1.0
  H  H54  1  0.32267000  0.84641000  0.77938000  1.0
  H  H55  1  0.32267000  0.15359000  0.22061000  1.0
  H  H56  1  0.67733000  0.65360000  0.27938000  1.0
  H  H57  1  0.67733000  0.34641000  0.72062000  1.0
  H  H58  1  0.27294000  0.89584000  0.83836000  1.0
  H  H59  1  0.27294000  0.10416000  0.16164000  1.0
  H  H60  1  0.72706000  0.60416000  0.33836000  1.0
  H  H61  1  0.72707000  0.39585000  0.66164000  1.0
  H  H62  1  0.48513000  0.91687000  0.82562000  1.0
  H  H63  1  0.48513000  0.08313000  0.17438000  1.0
  H  H64  1  0.51487000  0.58313000  0.32562000  1.0
  H  H65  1  0.51487000  0.41687000  0.67438000  1.0
  H  H66  1  0.11227000  0.75396000  0.44258000  1.0
  H  H67  1  0.11228000  0.24604000  0.55742000  1.0
  H  H68  1  0.88773000  0.74604000  0.94258000  1.0
  H  H69  1  0.88772000  0.25396000  0.05742000  1.0
  H  H70  1  0.33197000  0.74588000  0.44376000  1.0
  H  H71  1  0.33198000  0.25412000  0.55624000  1.0
  H  H72  1  0.66802000  0.75412000  0.94377000  1.0
  H  H73  1  0.66802000  0.24588000  0.05624000  1.0
  H  H74  1  0.33226000  0.67406000  0.60765000  1.0
  H  H75  1  0.33226000  0.32594000  0.39235000  1.0
  H  H76  1  0.66774000  0.82594000  0.10766000  1.0
  H  H77  1  0.66774000  0.17406000  0.89235000  1.0
  H  H78  1  0.11625000  0.66931000  0.61094000  1.0
  H  H79  1  0.11625000  0.33069000  0.38906000  1.0
  H  H80  1  0.88375000  0.83069000  0.11094000  1.0
  H  H81  1  0.88375000  0.16931000  0.88906000  1.0
  H  H82  1  0.94018000  0.72864000  0.61317000  1.0
  H  H83  1  0.94018000  0.27136000  0.38683000  1.0
  H  H84  1  0.05982000  0.77136000  0.11317000  1.0
  H  H85  1  0.05982000  0.22865000  0.88684000  1.0
  H  H86  1  0.72235000  0.72079000  0.60639000  1.0
  H  H87  1  0.72235000  0.27920000  0.39362000  1.0
  H  H88  1  0.27765000  0.77921000  0.10639000  1.0
  H  H89  1  0.27765000  0.22080000  0.89362000  1.0
  H  H90  1  0.73664000  0.67634000  0.43730000  1.0
  H  H91  1  0.73664000  0.32366000  0.56270000  1.0
  H  H92  1  0.26336000  0.82366000  0.93730000  1.0
  H  H93  1  0.26336000  0.17633000  0.06270000  1.0
  H  H94  1  0.95379000  0.68294000  0.43600000  1.0
  H  H95  1  0.95379000  0.31706000  0.56400000  1.0
  H  H96  1  0.04621000  0.81706000  0.93600000  1.0
  H  H97  1  0.04621000  0.18294000  0.06400000  1.0
  H  H98  1  0.49068000  0.82616000  0.59558000  1.0
  H  H99  1  0.49068000  0.17385000  0.40442000  1.0
  H  H100  1  0.50931000  0.67384000  0.09558000  1.0
  H  H101  1  0.50932000  0.32616000  0.90442000  1.0
  H  H102  1  0.48931000  0.95897000  0.59045000  1.0
  H  H103  1  0.48931000  0.04103000  0.40955000  1.0
  H  H104  1  0.51067000  0.54102000  0.09045000  1.0
  H  H105  1  0.51068000  0.45898000  0.90955000  1.0
  H  H106  1  0.59200000  0.93936000  0.41685000  1.0
  H  H107  1  0.59201000  0.06064000  0.58315000  1.0
  H  H108  1  0.40799000  0.56065000  0.91685000  1.0
  H  H109  1  0.40799000  0.43935000  0.08315000  1.0
  H  H110  1  0.58415000  0.80783000  0.42904000  1.0
  H  H111  1  0.58416000  0.19218000  0.57096000  1.0
  H  H112  1  0.41584000  0.69218000  0.92905000  1.0
  H  H113  1  0.41584000  0.30782000  0.07095000  1.0
  H  H114  1  0.73464000  0.52664000  0.58464000  1.0
  H  H115  1  0.73464000  0.47336000  0.41536000  1.0
  H  H116  1  0.26536000  0.97336000  0.08464000  1.0
  H  H117  1  0.26536000  0.02663000  0.91536000  1.0
  H  H118  1  0.94973000  0.52739000  0.58804000  1.0
  H  H119  1  0.94973000  0.47261000  0.41195000  1.0
  H  H120  1  0.05027000  0.97261000  0.08804000  1.0
  H  H121  1  0.05027000  0.02739000  0.91195000  1.0
  H  H122  1  0.12134000  0.43521000  0.57495000  1.0
  H  H123  1  0.12134000  0.56479000  0.42505000  1.0
  H  H124  1  0.87865000  0.06479000  0.07494000  1.0
  H  H125  1  0.87866000  0.93520000  0.92505000  1.0
  H  H126  1  0.33637000  0.43555000  0.57086000  1.0
  H  H127  1  0.33637000  0.56444000  0.42915000  1.0
  H  H128  1  0.66363000  0.06444000  0.07085000  1.0
  H  H129  1  0.66363000  0.93555000  0.92914000  1.0
  H  H130  1  0.53571000  0.62799000  0.72873000  1.0
  H  H131  1  0.53571000  0.37202000  0.27126000  1.0
  H  H132  1  0.46429000  0.87202000  0.22874000  1.0
  H  H133  1  0.46429000  0.12798000  0.77126000  1.0
  H  H134  1  0.10494000  0.66464000  0.75427000  1.0
  H  H135  1  0.10494000  0.33536000  0.24573000  1.0
  H  H136  1  0.89506000  0.83536000  0.25427000  1.0
  H  H137  1  0.89506000  0.16464000  0.74573000  1.0
  H  H138  1  0.49683000  0.76406000  0.80641000  1.0
  H  H139  1  0.49683000  0.23594000  0.19359000  1.0
  H  H140  1  0.50317000  0.73594000  0.30641000  1.0
  H  H141  1  0.50317000  0.26406000  0.69359000  1.0
  C  C142  1  0.53275000  0.61701000  0.60448000  1.0
  C  C143  1  0.53276000  0.38299000  0.39551000  1.0
  C  C144  1  0.46724000  0.88299000  0.10449000  1.0
  C  C145  1  0.46724000  0.11701000  0.89551000  1.0
  C  C146  1  0.53034000  0.56625000  0.65445000  1.0
  C  C147  1  0.53034000  0.43376000  0.34555000  1.0
  C  C148  1  0.46966000  0.93376000  0.15445000  1.0
  C  C149  1  0.46966000  0.06624000  0.84555000  1.0
  C  C150  1  0.40354000  0.54671000  0.66865000  1.0
  C  C151  1  0.40354000  0.45329000  0.33135000  1.0
  C  C152  1  0.59646000  0.95330000  0.16865000  1.0
  C  C153  1  0.59646000  0.04670000  0.83135000  1.0
  C  C154  1  0.70590000  0.60800000  0.70141000  1.0
  C  C155  1  0.70590000  0.39201000  0.29859000  1.0
  C  C156  1  0.29410000  0.89201000  0.20141000  1.0
  C  C157  1  0.29410000  0.10799000  0.79859000  1.0
  C  C158  1  0.75316000  0.65796000  0.74447000  1.0
  C  C159  1  0.75315000  0.34204000  0.25553000  1.0
  C  C160  1  0.24684000  0.84204000  0.24447000  1.0
  C  C161  1  0.24685000  0.15796000  0.75553000  1.0
  C  C162  1  0.86792000  0.64986000  0.76430000  1.0
  C  C163  1  0.86792000  0.35015000  0.23570000  1.0
  C  C164  1  0.13208000  0.85015000  0.26430000  1.0
  C  C165  1  0.13208000  0.14986000  0.73570000  1.0
  C  C166  1  0.91148000  0.69604000  0.80528000  1.0
  C  C167  1  0.91148000  0.30396000  0.19472000  1.0
  C  C168  1  0.08852000  0.80396000  0.30528000  1.0
  C  C169  1  0.08852000  0.19604000  0.69472000  1.0
  C  C170  1  0.83992000  0.75074000  0.82565000  1.0
  C  C171  1  0.83991000  0.24926000  0.17435000  1.0
  C  C172  1  0.16008000  0.74926000  0.32565000  1.0
  C  C173  1  0.16009000  0.25074000  0.67435000  1.0
  C  C174  1  0.72592000  0.75967000  0.80537000  1.0
  C  C175  1  0.72591000  0.24034000  0.19462000  1.0
  C  C176  1  0.27409000  0.74033000  0.30537000  1.0
  C  C177  1  0.27409000  0.25967000  0.69463000  1.0
  C  C178  1  0.68365000  0.71366000  0.76419000  1.0
  C  C179  1  0.68365000  0.28634000  0.23581000  1.0
  C  C180  1  0.31635000  0.78634000  0.26419000  1.0
  C  C181  1  0.31635000  0.21366000  0.73581000  1.0
  C  C182  1  0.03024000  0.68539000  0.83117000  1.0
  C  C183  1  0.03024000  0.31462000  0.16883000  1.0
  C  C184  1  0.96976000  0.81461000  0.33117000  1.0
  C  C185  1  0.96976000  0.18539000  0.66883000  1.0
  C  C186  1  0.25862000  0.56758000  0.82262000  1.0
  C  C187  1  0.25862000  0.43242000  0.17738000  1.0
  C  C188  1  0.74138000  0.93242000  0.32261000  1.0
  C  C189  1  0.74139000  0.06758000  0.67738000  1.0
  C  C190  1  0.23470000  0.64701000  0.81278000  1.0
  C  C191  1  0.23470000  0.35299000  0.18722000  1.0
  C  C192  1  0.76530000  0.85299000  0.31278000  1.0
  C  C193  1  0.76531000  0.14701000  0.68722000  1.0
  C  C194  1  0.31588000  0.67547000  0.76563000  1.0
  C  C195  1  0.31588000  0.32453000  0.23438000  1.0
  C  C196  1  0.68412000  0.82453000  0.26562000  1.0
  C  C197  1  0.68412000  0.17547000  0.73437000  1.0
  C  C198  1  0.65070000  0.81752000  0.82893000  1.0
  C  C199  1  0.65070000  0.18248000  0.17107000  1.0
  C  C200  1  0.34930000  0.68248000  0.32893000  1.0
  C  C201  1  0.34931000  0.31752000  0.67107000  1.0
  C  C202  1  0.32904000  0.85153000  0.82500000  1.0
  C  C203  1  0.32904000  0.14847000  0.17500000  1.0
  C  C204  1  0.67096000  0.64847000  0.32500000  1.0
  C  C205  1  0.67096000  0.35153000  0.67500000  1.0
  C  C206  1  0.45608000  0.86552000  0.84252000  1.0
  C  C207  1  0.45608000  0.13448000  0.15748000  1.0
  C  C208  1  0.54393000  0.63448000  0.34252000  1.0
  C  C209  1  0.54393000  0.36552000  0.65748000  1.0
  C  C210  1  0.46384000  0.87235000  0.90670000  1.0
  C  C211  1  0.46384000  0.12765000  0.09330000  1.0
  C  C212  1  0.53617000  0.62765000  0.40669000  1.0
  C  C213  1  0.53617000  0.37235000  0.59330000  1.0
  C  C214  1  0.15833000  0.73294000  0.47901000  1.0
  C  C215  1  0.15834000  0.26706000  0.52099000  1.0
  C  C216  1  0.84167000  0.76706000  0.97901000  1.0
  C  C217  1  0.84166000  0.23294000  0.02099000  1.0
  C  C218  1  0.28004000  0.73036000  0.48003000  1.0
  C  C219  1  0.28005000  0.26964000  0.51997000  1.0
  C  C220  1  0.71995000  0.76964000  0.98003000  1.0
  C  C221  1  0.71995000  0.23036000  0.01997000  1.0
  C  C222  1  0.28112000  0.68843000  0.57097000  1.0
  C  C223  1  0.28113000  0.31157000  0.42903000  1.0
  C  C224  1  0.71888000  0.81157000  0.07098000  1.0
  C  C225  1  0.71888000  0.18843000  0.92903000  1.0
  C  C226  1  0.15937000  0.68759000  0.57292000  1.0
  C  C227  1  0.15937000  0.31241000  0.42708000  1.0
  C  C228  1  0.84063000  0.81241000  0.07293000  1.0
  C  C229  1  0.84063000  0.18759000  0.92708000  1.0
  C  C230  1  0.09544000  0.70916000  0.52587000  1.0
  C  C231  1  0.09544000  0.29084000  0.47413000  1.0
  C  C232  1  0.90456000  0.79084000  0.02588000  1.0
  C  C233  1  0.90456000  0.20916000  0.97413000  1.0
  C  C234  1  0.96642000  0.70596000  0.52487000  1.0
  C  C235  1  0.96642000  0.29404000  0.47513000  1.0
  C  C236  1  0.03358000  0.79404000  0.02487000  1.0
  C  C237  1  0.03358000  0.20596000  0.97513000  1.0
  C  C238  1  0.89905000  0.71660000  0.57316000  1.0
  C  C239  1  0.89906000  0.28340000  0.42684000  1.0
  C  C240  1  0.10095000  0.78340000  0.07316000  1.0
  C  C241  1  0.10094000  0.21660000  0.92684000  1.0
  C  C242  1  0.77764000  0.71279000  0.56981000  1.0
  C  C243  1  0.77764000  0.28721000  0.43019000  1.0
  C  C244  1  0.22236000  0.78721000  0.06981000  1.0
  C  C245  1  0.22236000  0.21280000  0.93019000  1.0
  C  C246  1  0.78524000  0.68761000  0.47538000  1.0
  C  C247  1  0.78525000  0.31239000  0.52462000  1.0
  C  C248  1  0.21475000  0.81239000  0.97538000  1.0
  C  C249  1  0.21475000  0.18761000  0.02462000  1.0
  C  C250  1  0.90672000  0.69109000  0.47502000  1.0
  C  C251  1  0.90672000  0.30891000  0.52498000  1.0
  C  C252  1  0.09328000  0.80891000  0.97502000  1.0
  C  C253  1  0.09328000  0.19109000  0.02498000  1.0
  C  C254  1  0.51249000  0.85402000  0.55690000  1.0
  C  C255  1  0.51250000  0.14599000  0.44310000  1.0
  C  C256  1  0.48750000  0.64598000  0.05691000  1.0
  C  C257  1  0.48750000  0.35402000  0.94309000  1.0
  C  C258  1  0.51279000  0.92780000  0.55372000  1.0
  C  C259  1  0.51279000  0.07220000  0.44627000  1.0
  C  C260  1  0.48720000  0.57220000  0.05373000  1.0
  C  C261  1  0.48720000  0.42781000  0.94627000  1.0
  C  C262  1  0.54038000  0.96093000  0.50278000  1.0
  C  C263  1  0.54038000  0.03907000  0.49722000  1.0
  C  C264  1  0.45961000  0.53907000  0.00278000  1.0
  C  C265  1  0.45961000  0.46093000  0.99722000  1.0
  C  C266  1  0.56745000  0.91706000  0.45717000  1.0
  C  C267  1  0.56746000  0.08295000  0.54283000  1.0
  C  C268  1  0.43254000  0.58295000  0.95718000  1.0
  C  C269  1  0.43254000  0.41705000  0.04283000  1.0
  C  C270  1  0.56521000  0.84370000  0.46372000  1.0
  C  C271  1  0.56522000  0.15630000  0.53628000  1.0
  C  C272  1  0.43479000  0.65630000  0.96373000  1.0
  C  C273  1  0.43478000  0.34370000  0.03627000  1.0
  C  C274  1  0.78425000  0.51418000  0.54700000  1.0
  C  C275  1  0.78425000  0.48582000  0.45300000  1.0
  C  C276  1  0.21575000  0.98582000  0.04700000  1.0
  C  C277  1  0.21575000  0.01418000  0.95300000  1.0
  C  C278  1  0.90633000  0.51431000  0.54877000  1.0
  C  C279  1  0.90633000  0.48569000  0.45123000  1.0
  C  C280  1  0.09367000  0.98569000  0.04877000  1.0
  C  C281  1  0.09367000  0.01431000  0.95123000  1.0
  C  C282  1  0.97047000  0.50000000  0.50000000  1.0
  C  C283  1  0.02953000  0.00000000  0.00000000  1.0
  C  C284  1  0.10031000  0.50000000  0.50000000  1.0
  C  C285  1  0.89968000  0.00000000  0.00000000  1.0
  C  C286  1  0.16455000  0.46452000  0.54149000  1.0
  C  C287  1  0.16455000  0.53547000  0.45851000  1.0
  C  C288  1  0.83545000  0.03548000  0.04149000  1.0
  C  C289  1  0.83545000  0.96452000  0.95851000  1.0
  C  C290  1  0.28659000  0.46475000  0.53951000  1.0
  C  C291  1  0.28659000  0.53525000  0.46049000  1.0
  C  C292  1  0.71341000  0.03525000  0.03951000  1.0
  C  C293  1  0.71341000  0.96475000  0.96049000  1.0
  N  N294  1  0.58786000  0.59876000  0.70200000  1.0
  N  N295  1  0.58786000  0.40125000  0.29799000  1.0
  N  N296  1  0.41214000  0.90125000  0.20201000  1.0
  N  N297  1  0.41214000  0.09875000  0.79799000  1.0
  N  N298  1  0.11344000  0.65884000  0.79661000  1.0
  N  N299  1  0.11344000  0.34116000  0.20339000  1.0
  N  N300  1  0.88656000  0.84116000  0.29661000  1.0
  N  N301  1  0.88657000  0.15884000  0.70339000  1.0
  N  N302  1  0.53332000  0.81064000  0.82120000  1.0
  N  N303  1  0.53332000  0.18936000  0.17879000  1.0
  N  N304  1  0.46668000  0.68936000  0.32120000  1.0
  N  N305  1  0.46668000  0.31064000  0.67880000  1.0
  N  N306  1  0.34105000  0.70774000  0.52491000  1.0
  N  N307  1  0.34106000  0.29226000  0.47509000  1.0
  N  N308  1  0.65895000  0.79226000  0.02491000  1.0
  N  N309  1  0.65894000  0.20774000  0.97509000  1.0
  N  N310  1  0.72094000  0.69836000  0.52173000  1.0
  N  N311  1  0.72095000  0.30164000  0.47827000  1.0
  N  N312  1  0.27906000  0.80164000  0.02173000  1.0
  N  N313  1  0.27905000  0.19836000  0.97828000  1.0
  N  N314  1  0.53799000  0.81269000  0.51269000  1.0
  N  N315  1  0.53799000  0.18732000  0.48731000  1.0
  N  N316  1  0.46201000  0.68731000  0.01269000  1.0
  N  N317  1  0.46201000  0.31269000  0.98731000  1.0
  N  N318  1  0.72349000  0.50000000  0.50000000  1.0
  N  N319  1  0.27650000  0.00000000  0.00000000  1.0
  N  N320  1  0.34763000  0.50000000  0.50000000  1.0
  N  N321  1  0.65236000  0.00000000  1.00000000  1.0
  O  O322  1  0.52671000  0.59195000  0.55437000  1.0
  O  O323  1  0.52671000  0.40806000  0.44563000  1.0
  O  O324  1  0.47329000  0.90806000  0.05437000  1.0
  O  O325  1  0.47329000  0.09194000  0.94563000  1.0
  O  O326  1  0.53685000  0.68345000  0.61227000  1.0
  O  O327  1  0.53685000  0.31655000  0.38773000  1.0
  O  O328  1  0.46315000  0.81655000  0.11227000  1.0
  O  O329  1  0.46315000  0.18345000  0.88773000  1.0
  O  O330  1  0.77203000  0.57790000  0.66713000  1.0
  O  O331  1  0.77202000  0.42210000  0.33287000  1.0
  O  O332  1  0.22797000  0.92210000  0.16713000  1.0
  O  O333  1  0.22798000  0.07790000  0.83287000  1.0
  O  O334  1  0.26893000  0.68956000  0.71929000  1.0
  O  O335  1  0.26893000  0.31044000  0.28071000  1.0
  O  O336  1  0.73107000  0.81044000  0.21929000  1.0
  O  O337  1  0.73107000  0.18956000  0.78071000  1.0
  O  O338  1  0.42477000  0.67917000  0.77827000  1.0
  O  O339  1  0.42477000  0.32083000  0.22173000  1.0
  O  O340  1  0.57523000  0.82083000  0.27827000  1.0
  O  O341  1  0.57523000  0.17916000  0.72173000  1.0
  O  O342  1  0.04729000  0.69892000  0.88162000  1.0
  O  O343  1  0.04729000  0.30108000  0.11838000  1.0
  O  O344  1  0.95271000  0.80108000  0.38162000  1.0
  O  O345  1  0.95272000  0.19892000  0.61838000  1.0
  O  O346  1  0.47566000  0.81444000  0.93399000  1.0
  O  O347  1  0.47566000  0.18557000  0.06601000  1.0
  O  O348  1  0.52435000  0.68557000  0.43398000  1.0
  O  O349  1  0.52435000  0.31444000  0.56602000  1.0
  O  O350  1  0.45254000  0.93394000  0.92691000  1.0
  O  O351  1  0.45254000  0.06606000  0.07309000  1.0
  O  O352  1  0.54745000  0.56606000  0.42691000  1.0
  O  O353  1  0.54746000  0.43394000  0.57309000  1.0
  O  O354  1  0.69423000  0.86893000  0.85467000  1.0
  O  O355  1  0.69423000  0.13107000  0.14533000  1.0
  O  O356  1  0.30577000  0.63107000  0.35467000  1.0
  O  O357  1  0.30577000  0.36893000  0.64533000  1.0
