# generated using pymatgen
data_ZnH14C18(NO2)2
_symmetry_space_group_name_H-M   'P 1'
_cell_length_a   5.77622000
_cell_length_b   9.39925896
_cell_length_c   17.60963668
_cell_angle_alpha   82.06269255
_cell_angle_beta   80.57715094
_cell_angle_gamma   72.21710096
_symmetry_Int_Tables_number   1
_chemical_formula_structural   ZnH14C18(NO2)2
_chemical_formula_sum   'Zn2 H28 C36 N4 O8'
_cell_volume   894.14417624
_cell_formula_units_Z   2
loop_
 _symmetry_equiv_pos_site_id
 _symmetry_equiv_pos_as_xyz
  1  'x, y, z'
loop_
 _atom_site_type_symbol
 _atom_site_label
 _atom_site_symmetry_multiplicity
 _atom_site_fract_x
 _atom_site_fract_y
 _atom_site_fract_z
 _atom_site_occupancy
  Zn  Zn0  1  0.51171000  0.75059000  0.25017000  1.0
  Zn  Zn1  1  0.48830000  0.24940000  0.74984000  1.0
  H  H2  1  0.60894000  0.05600000  0.30523000  1.0
  H  H3  1  0.96709000  0.44596000  0.19487000  1.0
  H  H4  1  0.39105000  0.94400000  0.69476000  1.0
  H  H5  1  0.03288000  0.55407000  0.80514000  1.0
  H  H6  1  0.36126000  0.77575000  0.41688000  1.0
  H  H7  1  0.55531000  0.72413000  0.08323000  1.0
  H  H8  1  0.63871000  0.22425000  0.58312000  1.0
  H  H9  1  0.44469000  0.27588000  0.91678000  1.0
  H  H10  1  0.97935000  0.86117000  0.50628000  1.0
  H  H11  1  0.34831000  0.63838000  0.99380000  1.0
  H  H12  1  0.02060000  0.13883000  0.49371000  1.0
  H  H13  1  0.65165000  0.36166000  0.00621000  1.0
  H  H14  1  0.00982000  0.95763000  0.22397000  1.0
  H  H15  1  0.18899000  0.54424000  0.27617000  1.0
  H  H16  1  0.99020000  0.04236000  0.77602000  1.0
  H  H17  1  0.81101000  0.45576000  0.72384000  1.0
  H  H18  1  0.57457000  0.10941000  0.02214000  1.0
  H  H19  1  0.70848000  0.38861000  0.47720000  1.0
  H  H20  1  0.42546000  0.89056000  0.97784000  1.0
  H  H21  1  0.29160000  0.61136000  0.52279000  1.0
  H  H22  1  0.37627000  0.09734000  0.43138000  1.0
  H  H23  1  0.90259000  0.40380000  0.06878000  1.0
  H  H24  1  0.62370000  0.90266000  0.56861000  1.0
  H  H25  1  0.09738000  0.59624000  0.93122000  1.0
  H  H26  1  0.04975000  0.89143000  0.07506000  1.0
  H  H27  1  0.01286000  0.61083000  0.42566000  1.0
  H  H28  1  0.95026000  0.10857000  0.92495000  1.0
  H  H29  1  0.98724000  0.38913000  0.57433000  1.0
  C  C30  1  0.77132000  0.99485000  0.33280000  1.0
  C  C31  1  0.09690000  0.50663000  0.16733000  1.0
  C  C32  1  0.22866000  0.00515000  0.66720000  1.0
  C  C33  1  0.90309000  0.49338000  0.83268000  1.0
  C  C34  1  0.18938000  0.83796000  0.39490000  1.0
  C  C35  1  0.42289000  0.66226000  0.10524000  1.0
  C  C36  1  0.81058000  0.16204000  0.60510000  1.0
  C  C37  1  0.57712000  0.33776000  0.89476000  1.0
  C  C38  1  0.56662000  0.96537000  0.12987000  1.0
  C  C39  1  0.66138000  0.53478000  0.37018000  1.0
  C  C40  1  0.43337000  0.03464000  0.87012000  1.0
  C  C41  1  0.33866000  0.46521000  0.62982000  1.0
  C  C42  1  0.75655000  0.96719000  0.41367000  1.0
  C  C43  1  0.13668000  0.53344000  0.08641000  1.0
  C  C44  1  0.24342000  0.03281000  0.58632000  1.0
  C  C45  1  0.86331000  0.46659000  0.91359000  1.0
  C  C46  1  0.97508000  0.88690000  0.44431000  1.0
  C  C47  1  0.30687000  0.61309000  0.05581000  1.0
  C  C48  1  0.02489000  0.11310000  0.55568000  1.0
  C  C49  1  0.69311000  0.38693000  0.94420000  1.0
  C  C50  1  0.99288000  0.94020000  0.28677000  1.0
  C  C51  1  0.21807000  0.56130000  0.21337000  1.0
  C  C52  1  0.00712000  0.05979000  0.71323000  1.0
  C  C53  1  0.78193000  0.43870000  0.78663000  1.0
  C  C54  1  0.93894000  0.97494000  0.03601000  1.0
  C  C55  1  0.94898000  0.52557000  0.46417000  1.0
  C  C56  1  0.06108000  0.02505000  0.96399000  1.0
  C  C57  1  0.05109000  0.47439000  0.53583000  1.0
  C  C58  1  0.69484000  0.02530000  0.05847000  1.0
  C  C59  1  0.77879000  0.47434000  0.44143000  1.0
  C  C60  1  0.30516000  0.97469000  0.94153000  1.0
  C  C61  1  0.22128000  0.52563000  0.55857000  1.0
  C  C62  1  0.52259000  0.01991000  0.46171000  1.0
  C  C63  1  0.00337000  0.48057000  0.03835000  1.0
  C  C64  1  0.47737000  0.98009000  0.53828000  1.0
  C  C65  1  0.99660000  0.51946000  0.96165000  1.0
  N  N66  1  0.19945000  0.86227000  0.31728000  1.0
  N  N67  1  0.37855000  0.63863000  0.18286000  1.0
  N  N68  1  0.80054000  0.13772000  0.68272000  1.0
  N  N69  1  0.62147000  0.36137000  0.81715000  1.0
  O  O70  1  0.70247000  0.85586000  0.17223000  1.0
  O  O71  1  0.72820000  0.64577000  0.32845000  1.0
  O  O72  1  0.29752000  0.14415000  0.82777000  1.0
  O  O73  1  0.27181000  0.35423000  0.67156000  1.0
  O  O74  1  0.33826000  0.01589000  0.14441000  1.0
  O  O75  1  0.50006000  0.48292000  0.35513000  1.0
  O  O76  1  0.66173000  0.98412000  0.85558000  1.0
  O  O77  1  0.49997000  0.51707000  0.64488000  1.0
