# generated using pymatgen
data_CuH18C24(NO4)2
_symmetry_space_group_name_H-M   'P 1'
_cell_length_a   8.18210000
_cell_length_b   11.03300000
_cell_length_c   15.56010000
_cell_angle_alpha   89.99980000
_cell_angle_beta   81.06310000
_cell_angle_gamma   89.99990000
_symmetry_Int_Tables_number   1
_chemical_formula_structural   CuH18C24(NO4)2
_chemical_formula_sum   'Cu2 H36 C48 N4 O16'
_cell_volume   1387.60608524
_cell_formula_units_Z   2
loop_
 _symmetry_equiv_pos_site_id
 _symmetry_equiv_pos_as_xyz
  1  'x, y, z'
loop_
 _atom_site_type_symbol
 _atom_site_label
 _atom_site_symmetry_multiplicity
 _atom_site_fract_x
 _atom_site_fract_y
 _atom_site_fract_z
 _atom_site_occupancy
  Cu  Cu0  1  1.00000000  0.90342000  0.25000000  1.0
  Cu  Cu1  1  0.00000000  0.09658000  0.75000000  1.0
  H  H2  1  0.20605000  0.08998000  0.31250000  1.0
  H  H3  1  0.20603000  0.91002000  0.81252000  1.0
  H  H4  1  0.79397000  0.91002000  0.68748000  1.0
  H  H5  1  0.79395000  0.08998000  0.18750000  1.0
  H  H6  1  0.21202000  0.31369000  0.31881000  1.0
  H  H7  1  0.21200000  0.68631000  0.81882000  1.0
  H  H8  1  0.78800000  0.68631000  0.68118000  1.0
  H  H9  1  0.78798000  0.31369000  0.18119000  1.0
  H  H10  1  0.24989000  0.71629000  0.25797000  1.0
  H  H11  1  0.24989000  0.28371000  0.75797000  1.0
  H  H12  1  0.75011000  0.28371000  0.74203000  1.0
  H  H13  1  0.75011000  0.71629000  0.24203000  1.0
  H  H14  1  0.26238000  0.49010000  0.25608000  1.0
  H  H15  1  0.26238000  0.50989000  0.75608000  1.0
  H  H16  1  0.73762000  0.50989000  0.74392000  1.0
  H  H17  1  0.73762000  0.49011000  0.24392000  1.0
  H  H18  1  0.24951000  0.81348000  0.96143000  1.0
  H  H19  1  0.24950000  0.18653000  0.46143000  1.0
  H  H20  1  0.75050000  0.18653000  0.03857000  1.0
  H  H21  1  0.75049000  0.81347000  0.53857000  1.0
  H  H22  1  0.67176000  0.78102000  0.86707000  1.0
  H  H23  1  0.67175000  0.21899000  0.36707000  1.0
  H  H24  1  0.32825000  0.21899000  0.13293000  1.0
  H  H25  1  0.32825000  0.78101000  0.63293000  1.0
  H  H26  1  0.89535000  0.82778000  0.95396000  1.0
  H  H27  1  0.89535000  0.17222000  0.45395000  1.0
  H  H28  1  0.10465000  0.17222000  0.04605000  1.0
  H  H29  1  0.10465000  0.82778000  0.54605000  1.0
  H  H30  1  0.96129000  0.88312000  0.08611000  1.0
  H  H31  1  0.96129000  0.11688000  0.58610000  1.0
  H  H32  1  0.03871000  0.11688000  0.91390000  1.0
  H  H33  1  0.03871000  0.88312000  0.41389000  1.0
  H  H34  1  0.52895000  0.91628000  0.17440000  1.0
  H  H35  1  0.52895000  0.08372000  0.67440000  1.0
  H  H36  1  0.47105000  0.08372000  0.82560000  1.0
  H  H37  1  0.47105000  0.91628000  0.32560000  1.0
  C  C38  1  0.11584000  0.14396000  0.28479000  1.0
  C  C39  1  0.11583000  0.85603000  0.78480000  1.0
  C  C40  1  0.88417000  0.85603000  0.71520000  1.0
  C  C41  1  0.88416000  0.14396000  0.21521000  1.0
  C  C42  1  0.11832000  0.26983000  0.28693000  1.0
  C  C43  1  0.11831000  0.73017000  0.78693000  1.0
  C  C44  1  0.88169000  0.73017000  0.71306000  1.0
  C  C45  1  0.88168000  0.26983000  0.21307000  1.0
  C  C46  1  0.00000000  0.33585000  0.25000000  1.0
  C  C47  1  1.00000000  0.66415000  0.75000000  1.0
  C  C48  1  0.14028000  0.66153000  0.25457000  1.0
  C  C49  1  0.14028000  0.33847000  0.75457000  1.0
  C  C50  1  0.85972000  0.33847000  0.74543000  1.0
  C  C51  1  0.85972000  0.66153000  0.24543000  1.0
  C  C52  1  0.14501000  0.53579000  0.25423000  1.0
  C  C53  1  0.14501000  0.46421000  0.75423000  1.0
  C  C54  1  0.85499000  0.46421000  0.74577000  1.0
  C  C55  1  0.85499000  0.53579000  0.24577000  1.0
  C  C56  1  0.00000000  0.46953000  0.25000000  1.0
  C  C57  1  0.00000000  0.53047000  0.75000000  1.0
  C  C58  1  0.25835000  0.87344000  0.09839000  1.0
  C  C59  1  0.25835000  0.12657000  0.59838000  1.0
  C  C60  1  0.74165000  0.12657000  0.90162000  1.0
  C  C61  1  0.74165000  0.87343000  0.40162000  1.0
  C  C62  1  0.43385000  0.85934000  0.05894000  1.0
  C  C63  1  0.43384000  0.14066000  0.55894000  1.0
  C  C64  1  0.56616000  0.14066000  0.94106000  1.0
  C  C65  1  0.56615000  0.85934000  0.44106000  1.0
  C  C66  1  0.47482000  0.82079000  0.97126000  1.0
  C  C67  1  0.47482000  0.17921000  0.47126000  1.0
  C  C68  1  0.52518000  0.17921000  0.02874000  1.0
  C  C69  1  0.52518000  0.82078000  0.52874000  1.0
  C  C70  1  0.64168000  0.80889000  0.93481000  1.0
  C  C71  1  0.64167000  0.19111000  0.43481000  1.0
  C  C72  1  0.35833000  0.19111000  0.06519000  1.0
  C  C73  1  0.35832000  0.80889000  0.56519000  1.0
  C  C74  1  0.76585000  0.83513000  0.98340000  1.0
  C  C75  1  0.76584000  0.16487000  0.48340000  1.0
  C  C76  1  0.23415000  0.16487000  0.01660000  1.0
  C  C77  1  0.23415000  0.83513000  0.51660000  1.0
  C  C78  1  0.72636000  0.87375000  0.07038000  1.0
  C  C79  1  0.72636000  0.12625000  0.57037000  1.0
  C  C80  1  0.27364000  0.12625000  0.92963000  1.0
  C  C81  1  0.27363000  0.87375000  0.42963000  1.0
  C  C82  1  0.56105000  0.88502000  0.10751000  1.0
  C  C83  1  0.56104000  0.11497000  0.60751000  1.0
  C  C84  1  0.43896000  0.11498000  0.89249000  1.0
  C  C85  1  0.43895000  0.88502000  0.39249000  1.0
  N  N86  1  0.00000000  0.08254000  0.25000000  1.0
  N  N87  1  0.00000000  0.91745000  0.75000000  1.0
  N  N88  1  0.00000000  0.72332000  0.25000000  1.0
  N  N89  1  0.00000000  0.27668000  0.75000000  1.0
  O  O90  1  0.22587000  0.90518000  0.17853000  1.0
  O  O91  1  0.22586000  0.09483000  0.67852000  1.0
  O  O92  1  0.77414000  0.09483000  0.82148000  1.0
  O  O93  1  0.77413000  0.90517000  0.32148000  1.0
  O  O94  1  0.14656000  0.85174000  0.05069000  1.0
  O  O95  1  0.14656000  0.14827000  0.55069000  1.0
  O  O96  1  0.85344000  0.14827000  0.94930000  1.0
  O  O97  1  0.85344000  0.85174000  0.44931000  1.0
  O  O98  1  0.35706000  0.79543000  0.92132000  1.0
  O  O99  1  0.35705000  0.20458000  0.42132000  1.0
  O  O100  1  0.64295000  0.20458000  0.07868000  1.0
  O  O101  1  0.64294000  0.79542000  0.57868000  1.0
  O  O102  1  0.84689000  0.90296000  0.11851000  1.0
  O  O103  1  0.84689000  0.09703000  0.61850000  1.0
  O  O104  1  0.15311000  0.09703000  0.88150000  1.0
  O  O105  1  0.15311000  0.90296000  0.38150000  1.0
