# generated using pymatgen
data_CoH6C6(NO3)2
_symmetry_space_group_name_H-M   'P 1'
_cell_length_a   7.06824000
_cell_length_b   7.06999000
_cell_length_c   9.49422282
_cell_angle_alpha   76.10328788
_cell_angle_beta   76.13767901
_cell_angle_gamma   66.25100000
_symmetry_Int_Tables_number   1
_chemical_formula_structural   CoH6C6(NO3)2
_chemical_formula_sum   'Co2 H12 C12 N4 O12'
_cell_volume   416.07593117
_cell_formula_units_Z   2
loop_
 _symmetry_equiv_pos_site_id
 _symmetry_equiv_pos_as_xyz
  1  'x, y, z'
loop_
 _atom_site_type_symbol
 _atom_site_label
 _atom_site_symmetry_multiplicity
 _atom_site_fract_x
 _atom_site_fract_y
 _atom_site_fract_z
 _atom_site_occupancy
  Co  Co0  1  0.50000000  0.00000000  0.00000000  1.0
  Co  Co1  1  0.00000000  0.50000000  0.50000000  1.0
  H  H2  1  0.66386000  0.14338000  0.16748000  1.0
  H  H3  1  0.85660000  0.33621000  0.33250000  1.0
  H  H4  1  0.33614000  0.85662000  0.83251000  1.0
  H  H5  1  0.14340000  0.66378000  0.66750000  1.0
  H  H6  1  0.50266000  0.05891000  0.28514000  1.0
  H  H7  1  0.94149000  0.49715000  0.21488000  1.0
  H  H8  1  0.49733000  0.94110000  0.71486000  1.0
  H  H9  1  0.05852000  0.50284000  0.78512000  1.0
  H  H10  1  0.63697000  0.55029000  0.14353000  1.0
  H  H11  1  0.44973000  0.36304000  0.35671000  1.0
  H  H12  1  0.36304000  0.44972000  0.85647000  1.0
  H  H13  1  0.55029000  0.63696000  0.64329000  1.0
  C  C14  1  0.07509000  0.13146000  0.09058000  1.0
  C  C15  1  0.86855000  0.92484000  0.40920000  1.0
  C  C16  1  0.92490000  0.86855000  0.90943000  1.0
  C  C17  1  0.13145000  0.07516000  0.59079000  1.0
  C  C18  1  0.16977000  0.92726000  0.18810000  1.0
  C  C19  1  0.07264000  0.83018000  0.31171000  1.0
  C  C20  1  0.83023000  0.07274000  0.81190000  1.0
  C  C21  1  0.92736000  0.16981000  0.68828000  1.0
  C  C22  1  0.47562000  0.62705000  0.19206000  1.0
  C  C23  1  0.37287000  0.52435000  0.30801000  1.0
  C  C24  1  0.52439000  0.37295000  0.80794000  1.0
  C  C25  1  0.62714000  0.47565000  0.69199000  1.0
  N  N26  1  0.37550000  0.82637000  0.13458000  1.0
  N  N27  1  0.17359000  0.62447000  0.36538000  1.0
  N  N28  1  0.62450000  0.17363000  0.86542000  1.0
  N  N29  1  0.82641000  0.37552000  0.63462000  1.0
  O  O30  1  0.88216000  0.22165000  0.09134000  1.0
  O  O31  1  0.77833000  0.11775000  0.40831000  1.0
  O  O32  1  0.11784000  0.77835000  0.90866000  1.0
  O  O33  1  0.22167000  0.88223000  0.59169000  1.0
  O  O34  1  0.21482000  0.19426000  0.99938000  1.0
  O  O35  1  0.80582000  0.78516000  0.50051000  1.0
  O  O36  1  0.78518000  0.80575000  0.00062000  1.0
  O  O37  1  0.19420000  0.21483000  0.49948000  1.0
  O  O38  1  0.52662000  0.12689000  0.18373000  1.0
  O  O39  1  0.87310000  0.47344000  0.31618000  1.0
  O  O40  1  0.47336000  0.87312000  0.81627000  1.0
  O  O41  1  0.12691000  0.52655000  0.68382000  1.0
