# generated using pymatgen
data_ZnH6(C3O4)2
_symmetry_space_group_name_H-M   'P 1'
_cell_length_a   5.79959000
_cell_length_b   19.61480000
_cell_length_c   19.61490000
_cell_angle_alpha   90.00180000
_cell_angle_beta   90.00070000
_cell_angle_gamma   89.99780000
_symmetry_Int_Tables_number   1
_chemical_formula_structural   ZnH6(C3O4)2
_chemical_formula_sum   'Zn8 H48 C48 O64'
_cell_volume   2231.34782774
_cell_formula_units_Z   8
loop_
 _symmetry_equiv_pos_site_id
 _symmetry_equiv_pos_as_xyz
  1  'x, y, z'
loop_
 _atom_site_type_symbol
 _atom_site_label
 _atom_site_symmetry_multiplicity
 _atom_site_fract_x
 _atom_site_fract_y
 _atom_site_fract_z
 _atom_site_occupancy
  Zn  Zn0  1  0.75000000  0.70820000  0.70821000  1.0
  Zn  Zn1  1  0.24996000  0.29180000  0.29180000  1.0
  Zn  Zn2  1  1.00000000  0.20821000  0.79180000  1.0
  Zn  Zn3  1  0.50000000  0.79180000  0.20821000  1.0
  Zn  Zn4  1  0.24997000  0.75600000  0.75599000  1.0
  Zn  Zn5  1  0.74998000  0.24401000  0.24401000  1.0
  Zn  Zn6  1  0.50001000  0.25599000  0.74401000  1.0
  Zn  Zn7  1  1.00000000  0.74401000  0.25599000  1.0
  H  H8  1  0.56030000  0.58410000  0.72627000  1.0
  H  H9  1  0.09606000  0.48722000  0.64259000  1.0
  H  H10  1  0.56803000  0.44596000  0.78731000  1.0
  H  H11  1  0.25018000  0.37791000  0.76403000  1.0
  H  H12  1  0.88299000  0.51690000  0.74391000  1.0
  H  H13  1  0.46643000  0.46466000  0.66209000  1.0
  H  H14  1  0.06026000  0.41590000  0.27374000  1.0
  H  H15  1  0.59611000  0.51276000  0.35740000  1.0
  H  H16  1  0.06807000  0.55405000  0.21270000  1.0
  H  H17  1  0.75025000  0.62210000  0.23598000  1.0
  H  H18  1  0.38296000  0.48310000  0.25609000  1.0
  H  H19  1  0.96648000  0.53536000  0.33792000  1.0
  H  H20  1  0.81031000  0.22628000  0.91590000  1.0
  H  H21  1  0.34603000  0.14259000  0.01277000  1.0
  H  H22  1  0.81807000  0.28730000  0.05404000  1.0
  H  H23  1  0.50021000  0.26403000  0.12209000  1.0
  H  H24  1  0.13302000  0.24390000  0.98310000  1.0
  H  H25  1  0.71642000  0.16208000  0.03534000  1.0
  H  H26  1  0.31029000  0.77373000  0.08410000  1.0
  H  H27  1  0.84614000  0.85739000  0.98725000  1.0
  H  H28  1  0.31806000  0.71270000  0.94597000  1.0
  H  H29  1  0.00022000  0.73597000  0.87791000  1.0
  H  H30  1  0.63300000  0.75609000  0.01690000  1.0
  H  H31  1  0.21644000  0.83792000  0.96466000  1.0
  H  H32  1  0.68970000  0.91591000  0.22626000  1.0
  H  H33  1  0.15388000  0.01276000  0.14259000  1.0
  H  H34  1  0.68194000  0.05405000  0.28731000  1.0
  H  H35  1  0.99979000  0.12209000  0.26402000  1.0
  H  H36  1  0.36699000  0.98311000  0.24391000  1.0
  H  H37  1  0.78354000  0.03533000  0.16209000  1.0
  H  H38  1  0.18973000  0.08410000  0.77375000  1.0
  H  H39  1  0.65382000  0.98727000  0.85739000  1.0
  H  H40  1  0.18193000  0.94596000  0.71269000  1.0
  H  H41  1  0.49976000  0.87791000  0.73598000  1.0
  H  H42  1  0.86702000  0.01690000  0.75608000  1.0
  H  H43  1  0.28356000  0.96467000  0.83791000  1.0
  H  H44  1  0.43968000  0.27373000  0.41589000  1.0
  H  H45  1  0.90387000  0.35739000  0.51277000  1.0
  H  H46  1  0.43196000  0.21270000  0.55404000  1.0
  H  H47  1  0.74980000  0.23596000  0.62209000  1.0
  H  H48  1  0.11699000  0.25609000  0.48310000  1.0
  H  H49  1  0.53355000  0.33790000  0.53535000  1.0
  H  H50  1  0.93971000  0.72625000  0.58410000  1.0
  H  H51  1  0.40381000  0.64260000  0.48725000  1.0
  H  H52  1  0.93192000  0.78730000  0.44597000  1.0
  H  H53  1  0.24977000  0.76404000  0.37791000  1.0
  H  H54  1  0.61699000  0.74390000  0.51690000  1.0
  H  H55  1  0.03351000  0.66209000  0.46466000  1.0
  C  C56  1  0.10798000  0.60315000  0.73787000  1.0
  C  C57  1  0.00087000  0.53638000  0.63986000  1.0
  C  C58  1  0.59816000  0.40409000  0.75098000  1.0
  C  C59  1  0.82203000  0.36638000  0.76994000  1.0
  C  C60  1  0.90605000  0.56134000  0.71048000  1.0
  C  C61  1  0.61212000  0.43094000  0.67712000  1.0
  C  C62  1  0.60796000  0.39685000  0.26213000  1.0
  C  C63  1  0.50078000  0.46363000  0.36015000  1.0
  C  C64  1  0.09818000  0.59591000  0.24903000  1.0
  C  C65  1  0.32203000  0.63361000  0.23005000  1.0
  C  C66  1  0.40600000  0.43865000  0.28953000  1.0
  C  C67  1  0.11213000  0.56908000  0.32288000  1.0
  C  C68  1  0.35807000  0.23788000  0.89685000  1.0
  C  C69  1  0.25091000  0.13985000  0.96360000  1.0
  C  C70  1  0.84820000  0.25097000  0.09591000  1.0
  C  C71  1  0.07206000  0.26994000  0.13361000  1.0
  C  C72  1  0.15608000  0.21047000  0.93865000  1.0
  C  C73  1  0.86212000  0.17711000  0.06907000  1.0
  C  C74  1  0.85802000  0.76213000  0.10316000  1.0
  C  C75  1  0.75081000  0.86014000  0.03638000  1.0
  C  C76  1  0.34818000  0.74902000  0.90409000  1.0
  C  C77  1  0.57205000  0.73004000  0.86640000  1.0
  C  C78  1  0.65605000  0.78952000  0.06135000  1.0
  C  C79  1  0.36209000  0.82288000  0.93093000  1.0
  C  C80  1  0.14200000  0.89686000  0.23787000  1.0
  C  C81  1  0.24916000  0.96362000  0.13985000  1.0
  C  C82  1  0.65180000  0.09591000  0.25098000  1.0
  C  C83  1  0.42792000  0.13361000  0.26994000  1.0
  C  C84  1  0.34395000  0.93867000  0.21048000  1.0
  C  C85  1  0.63788000  0.06907000  0.17712000  1.0
  C  C86  1  0.64199000  0.10315000  0.76214000  1.0
  C  C87  1  0.74929000  0.03637000  0.86015000  1.0
  C  C88  1  0.15181000  0.90409000  0.74902000  1.0
  C  C89  1  0.92796000  0.86639000  0.73005000  1.0
  C  C90  1  0.84399000  0.06135000  0.78952000  1.0
  C  C91  1  0.13792000  0.93094000  0.82288000  1.0
  C  C92  1  0.89193000  0.26213000  0.39685000  1.0
  C  C93  1  0.99914000  0.36014000  0.46363000  1.0
  C  C94  1  0.40184000  0.24903000  0.59590000  1.0
  C  C95  1  0.17798000  0.23005000  0.63359000  1.0
  C  C96  1  0.09391000  0.28952000  0.43865000  1.0
  C  C97  1  0.38792000  0.32287000  0.56906000  1.0
  C  C98  1  0.39196000  0.73785000  0.60315000  1.0
  C  C99  1  0.49924000  0.63984000  0.53636000  1.0
  C  C100  1  0.90180000  0.75098000  0.40409000  1.0
  C  C101  1  0.67795000  0.76997000  0.36639000  1.0
  C  C102  1  0.59395000  0.71047000  0.56134000  1.0
  C  C103  1  0.88786000  0.67712000  0.43093000  1.0
  O  O104  1  0.06832000  0.66811000  0.73983000  1.0
  O  O105  1  0.29263000  0.57377000  0.75200000  1.0
  O  O106  1  0.70567000  0.60251000  0.70582000  1.0
  O  O107  1  0.98517000  0.56913000  0.58795000  1.0
  O  O108  1  0.75671000  0.41199000  0.63642000  1.0
  O  O109  1  0.40630000  0.35882000  0.74878000  1.0
  O  O110  1  0.81040000  0.30071000  0.77315000  1.0
  O  O111  1  0.99790000  0.40213000  0.77863000  1.0
  O  O112  1  0.56834000  0.33190000  0.26017000  1.0
  O  O113  1  0.79263000  0.42623000  0.24800000  1.0
  O  O114  1  0.20565000  0.39748000  0.29418000  1.0
  O  O115  1  0.48494000  0.43090000  0.41207000  1.0
  O  O116  1  0.25674000  0.58804000  0.36357000  1.0
  O  O117  1  0.90637000  0.64118000  0.25121000  1.0
  O  O118  1  0.31051000  0.69927000  0.22684000  1.0
  O  O119  1  0.49795000  0.59788000  0.22139000  1.0
  O  O120  1  0.31837000  0.23985000  0.83189000  1.0
  O  O121  1  0.54270000  0.25201000  0.92623000  1.0
  O  O122  1  0.95571000  0.20582000  0.89747000  1.0
  O  O123  1  0.23533000  0.08796000  0.93081000  1.0
  O  O124  1  0.00673000  0.13641000  0.08801000  1.0
  O  O125  1  0.65634000  0.24879000  0.14118000  1.0
  O  O126  1  0.06044000  0.27315000  0.19927000  1.0
  O  O127  1  0.24795000  0.27862000  0.09787000  1.0
  O  O128  1  0.81835000  0.76018000  0.16812000  1.0
  O  O129  1  0.04266000  0.74799000  0.07377000  1.0
  O  O130  1  0.45569000  0.79418000  0.10252000  1.0
  O  O131  1  0.73496000  0.91207000  0.06910000  1.0
  O  O132  1  0.50672000  0.86358000  0.91198000  1.0
  O  O133  1  0.15635000  0.75121000  0.85883000  1.0
  O  O134  1  0.56048000  0.72684000  0.80073000  1.0
  O  O135  1  0.74794000  0.72138000  0.90213000  1.0
  O  O136  1  0.18164000  0.83190000  0.23983000  1.0
  O  O137  1  0.95732000  0.92624000  0.25199000  1.0
  O  O138  1  0.54430000  0.89749000  0.20582000  1.0
  O  O139  1  0.26497000  0.93088000  0.08793000  1.0
  O  O140  1  0.49325000  0.08802000  0.13642000  1.0
  O  O141  1  0.84365000  0.14118000  0.24878000  1.0
  O  O142  1  0.43954000  0.19928000  0.27315000  1.0
  O  O143  1  0.25204000  0.09787000  0.27863000  1.0
  O  O144  1  0.68162000  0.16811000  0.76018000  1.0
  O  O145  1  0.45736000  0.07377000  0.74801000  1.0
  O  O146  1  0.04431000  0.10253000  0.79417000  1.0
  O  O147  1  0.76534000  0.06906000  0.91209000  1.0
  O  O148  1  0.99329000  0.91199000  0.86358000  1.0
  O  O149  1  0.34365000  0.85882000  0.75121000  1.0
  O  O150  1  0.93952000  0.80072000  0.72685000  1.0
  O  O151  1  0.75206000  0.90214000  0.72138000  1.0
  O  O152  1  0.93158000  0.26017000  0.33189000  1.0
  O  O153  1  0.70730000  0.24800000  0.42624000  1.0
  O  O154  1  0.29427000  0.29418000  0.39747000  1.0
  O  O155  1  0.01495000  0.41206000  0.43090000  1.0
  O  O156  1  0.24326000  0.36357000  0.58802000  1.0
  O  O157  1  0.59366000  0.25120000  0.64117000  1.0
  O  O158  1  0.18951000  0.22684000  0.69925000  1.0
  O  O159  1  0.00204000  0.22137000  0.59788000  1.0
  O  O160  1  0.43161000  0.73981000  0.66811000  1.0
  O  O161  1  0.20735000  0.75199000  0.57376000  1.0
  O  O162  1  0.79431000  0.70582000  0.60252000  1.0
  O  O163  1  0.51521000  0.58791000  0.56906000  1.0
  O  O164  1  0.74326000  0.63642000  0.41196000  1.0
  O  O165  1  0.09365000  0.74879000  0.35882000  1.0
  O  O166  1  0.68954000  0.77317000  0.30073000  1.0
  O  O167  1  0.50205000  0.77862000  0.40214000  1.0
