# generated using pymatgen
data_Al3H21C48NO16
_symmetry_space_group_name_H-M   'P 1'
_cell_length_a   12.39710000
_cell_length_b   12.44090000
_cell_length_c   27.80620000
_cell_angle_alpha   89.49490000
_cell_angle_beta   88.81420000
_cell_angle_gamma   60.76630000
_symmetry_Int_Tables_number   1
_chemical_formula_structural   Al3H21C48NO16
_chemical_formula_sum   'Al6 H42 C96 N2 O32'
_cell_volume   3741.55962506
_cell_formula_units_Z   2
loop_
 _symmetry_equiv_pos_site_id
 _symmetry_equiv_pos_as_xyz
  1  'x, y, z'
loop_
 _atom_site_type_symbol
 _atom_site_label
 _atom_site_symmetry_multiplicity
 _atom_site_fract_x
 _atom_site_fract_y
 _atom_site_fract_z
 _atom_site_occupancy
  Al  Al0  1  0.18895000  0.41084000  0.49607000  1.0
  Al  Al1  1  0.92372000  0.65640000  0.49955000  1.0
  Al  Al2  1  0.92792000  0.41381000  0.49988000  1.0
  Al  Al3  1  0.15900000  0.91613000  0.98393000  1.0
  Al  Al4  1  0.41961000  0.91266000  0.98312000  1.0
  Al  Al5  1  0.42473000  0.66938000  0.98324000  1.0
  H  H6  1  0.70966000  0.82938000  0.21064000  1.0
  H  H7  1  0.53035000  0.85977000  0.28224000  1.0
  H  H8  1  0.88468000  0.61241000  0.25770000  1.0
  H  H9  1  0.81159000  0.47130000  0.20069000  1.0
  H  H10  1  0.63227000  0.50181000  0.27231000  1.0
  H  H11  1  0.45730000  0.71871000  0.22527000  1.0
  H  H12  1  0.97402000  0.19666000  0.20542000  1.0
  H  H13  1  0.11033000  0.01602000  0.27584000  1.0
  H  H14  1  0.00267000  0.37326000  0.25979000  1.0
  H  H15  1  0.22389000  0.31211000  0.20647000  1.0
  H  H16  1  0.36037000  0.13127000  0.27685000  1.0
  H  H17  1  0.33163000  0.95472000  0.22251000  1.0
  H  H18  1  0.33258000  0.46108000  0.21744000  1.0
  H  H19  1  0.35569000  0.62491000  0.28158000  1.0
  H  H20  1  0.10729000  0.51328000  0.26481000  1.0
  H  H21  1  0.97688000  0.70940000  0.19859000  1.0
  H  H22  1  0.99997000  0.87334000  0.26266000  1.0
  H  H23  1  0.22556000  0.82088000  0.21526000  1.0
  H  H24  1  0.57486000  0.88612000  0.85596000  1.0
  H  H25  1  0.68137000  0.81984000  0.61468000  1.0
  H  H26  1  0.58514000  0.97517000  0.77582000  1.0
  H  H27  1  0.61517000  0.95396000  0.68817000  1.0
  H  H28  1  0.66119000  0.50745000  0.86633000  1.0
  H  H29  1  0.73066000  0.37294000  0.79327000  1.0
  H  H30  1  0.75981000  0.35197000  0.70507000  1.0
  H  H31  1  0.76885000  0.44088000  0.62556000  1.0
  H  H32  1  0.05854000  0.07255000  0.86247000  1.0
  H  H33  1  0.97175000  0.21490000  0.62594000  1.0
  H  H34  1  0.94053000  0.09880000  0.78781000  1.0
  H  H35  1  0.91336000  0.14605000  0.70060000  1.0
  H  H36  1  0.37775000  0.12240000  0.85975000  1.0
  H  H37  1  0.44316000  0.18298000  0.78376000  1.0
  H  H38  1  0.29085000  0.26333000  0.62033000  1.0
  H  H39  1  0.41970000  0.57692000  0.84594000  1.0
  H  H40  1  0.31810000  0.52881000  0.61057000  1.0
  H  H41  1  0.50084000  0.50289000  0.76342000  1.0
  H  H42  1  0.46493000  0.48913000  0.67728000  1.0
  H  H43  1  0.87870000  0.79834000  0.80764000  1.0
  H  H44  1  0.84514000  0.78584000  0.72207000  1.0
  H  H45  1  0.92607000  0.73064000  0.63821000  1.0
  H  H46  1  0.38997000  0.31844000  0.46312000  1.0
  H  H47  1  0.95309000  0.96742000  0.00241000  1.0
  C  C48  1  0.09767000  0.63033000  0.43030000  1.0
  C  C49  1  0.78941000  0.60276000  0.43053000  1.0
  C  C50  1  0.10079000  0.27540000  0.43060000  1.0
  C  C51  1  0.09727000  0.61581000  0.56856000  1.0
  C  C52  1  0.77408000  0.60545000  0.56468000  1.0
  C  C53  1  0.10585000  0.28534000  0.56845000  1.0
  C  C54  1  0.59272000  0.77371000  0.26367000  1.0
  C  C55  1  0.69261000  0.75658000  0.22472000  1.0
  C  C56  1  0.60644000  0.70399000  0.09967000  1.0
  C  C57  1  0.73984000  0.62621000  0.38289000  1.0
  C  C58  1  0.55246000  0.69507000  0.23301000  1.0
  C  C59  1  0.65208000  0.67840000  0.19252000  1.0
  C  C60  1  0.64941000  0.57454000  0.25824000  1.0
  C  C61  1  0.69007000  0.65268000  0.29040000  1.0
  C  C62  1  0.74933000  0.55736000  0.21928000  1.0
  C  C63  1  0.78959000  0.63605000  0.24990000  1.0
  C  C64  1  0.62900000  0.69163000  0.14252000  1.0
  C  C65  1  0.71464000  0.63915000  0.34028000  1.0
  C  C66  1  0.13563000  0.08145000  0.25988000  1.0
  C  C67  1  0.05943000  0.18233000  0.22184000  1.0
  C  C68  1  0.21848000  0.10011000  0.09962000  1.0
  C  C69  1  0.11990000  0.22426000  0.38304000  1.0
  C  C70  1  0.25839000  0.04770000  0.23156000  1.0
  C  C71  1  0.18236000  0.14845000  0.19223000  1.0
  C  C72  1  0.27495000  0.14565000  0.26044000  1.0
  C  C73  1  0.15212000  0.17950000  0.29009000  1.0
  C  C74  1  0.19870000  0.24659000  0.22243000  1.0
  C  C75  1  0.07595000  0.28029000  0.25076000  1.0
  C  C76  1  0.20138000  0.12600000  0.14226000  1.0
  C  C77  1  0.13441000  0.20068000  0.34017000  1.0
  C  C78  1  0.27207000  0.64365000  0.26249000  1.0
  C  C79  1  0.25871000  0.55255000  0.22793000  1.0
  C  C80  1  0.22254000  0.66709000  0.09792000  1.0
  C  C81  1  0.11360000  0.66540000  0.38241000  1.0
  C  C82  1  0.19917000  0.75272000  0.22705000  1.0
  C  C83  1  0.18646000  0.66100000  0.19120000  1.0
  C  C84  1  0.07390000  0.78186000  0.25220000  1.0
  C  C85  1  0.14603000  0.67348000  0.28895000  1.0
  C  C86  1  0.06055000  0.69072000  0.21764000  1.0
  C  C87  1  0.13346000  0.58167000  0.25309000  1.0
  C  C88  1  0.20627000  0.66100000  0.14101000  1.0
  C  C89  1  0.12731000  0.67315000  0.33922000  1.0
  C  C90  1  0.68831000  0.74389000  0.63675000  1.0
  C  C91  1  0.66214000  0.76070000  0.68634000  1.0
  C  C92  1  0.62510000  0.78641000  0.78833000  1.0
  C  C93  1  0.60935000  0.88773000  0.75863000  1.0
  C  C94  1  0.62581000  0.87598000  0.70984000  1.0
  C  C95  1  0.60415000  0.79804000  0.83828000  1.0
  C  C96  1  0.61488000  0.69850000  0.86583000  1.0
  C  C97  1  0.73793000  0.52951000  0.64300000  1.0
  C  C98  1  0.71560000  0.54169000  0.69282000  1.0
  C  C99  1  0.67885000  0.65790000  0.71513000  1.0
  C  C100  1  0.73289000  0.43984000  0.72245000  1.0
  C  C101  1  0.71638000  0.45163000  0.77120000  1.0
  C  C102  1  0.67827000  0.56740000  0.79460000  1.0
  C  C103  1  0.66083000  0.67053000  0.76588000  1.0
  C  C104  1  0.65318000  0.58375000  0.84423000  1.0
  C  C105  1  0.72735000  0.62877000  0.61533000  1.0
  C  C106  1  0.04942000  0.21272000  0.64448000  1.0
  C  C107  1  0.06743000  0.18219000  0.69337000  1.0
  C  C108  1  0.09992000  0.12680000  0.79313000  1.0
  C  C109  1  0.00185000  0.12373000  0.76790000  1.0
  C  C110  1  0.98709000  0.14981000  0.71997000  1.0
  C  C111  1  0.11934000  0.09745000  0.84214000  1.0
  C  C112  1  0.21929000  0.09530000  0.86556000  1.0
  C  C113  1  0.23109000  0.23981000  0.64168000  1.0
  C  C114  1  0.25135000  0.21271000  0.69075000  1.0
  C  C115  1  0.16758000  0.18431000  0.71737000  1.0
  C  C116  1  0.35236000  0.20858000  0.71741000  1.0
  C  C117  1  0.36588000  0.18362000  0.76560000  1.0
  C  C118  1  0.28244000  0.15714000  0.79209000  1.0
  C  C119  1  0.18268000  0.15679000  0.76734000  1.0
  C  C120  1  0.29988000  0.12579000  0.84095000  1.0
  C  C121  1  0.13009000  0.24169000  0.61922000  1.0
  C  C122  1  0.24151000  0.57799000  0.63600000  1.0
  C  C123  1  0.26445000  0.58559000  0.68471000  1.0
  C  C124  1  0.30647000  0.60014000  0.78415000  1.0
  C  C125  1  0.40704000  0.54158000  0.75031000  1.0
  C  C126  1  0.38728000  0.53457000  0.70259000  1.0
  C  C127  1  0.32612000  0.61109000  0.83302000  1.0
  C  C128  1  0.22722000  0.67131000  0.86531000  1.0
  C  C129  1  0.01976000  0.69100000  0.65167000  1.0
  C  C130  1  0.03904000  0.69558000  0.70090000  1.0
  C  C131  1  0.16226000  0.64411000  0.71785000  1.0
  C  C132  1  0.93878000  0.74921000  0.73504000  1.0
  C  C133  1  0.95743000  0.75587000  0.78281000  1.0
  C  C134  1  0.07989000  0.71028000  0.80063000  1.0
  C  C135  1  0.18282000  0.65131000  0.76760000  1.0
  C  C136  1  0.10601000  0.71856000  0.84900000  1.0
  C  C137  1  0.12026000  0.63165000  0.61964000  1.0
  C  C138  1  0.24060000  0.04681000  0.05238000  1.0
  C  C139  1  0.55924000  0.72714000  0.05166000  1.0
  C  C140  1  0.24565000  0.69559000  0.04994000  1.0
  C  C141  1  0.24476000  0.04830000  0.91576000  1.0
  C  C142  1  0.57013000  0.71995000  0.91677000  1.0
  C  C143  1  0.25194000  0.70285000  0.91404000  1.0
  N  N144  1  0.44893000  0.22896000  0.69450000  1.0
  N  N145  1  0.00260000  0.77300000  0.88426000  1.0
  O  O146  1  0.17826000  0.30586000  0.44456000  1.0
  O  O147  1  0.17578000  0.52268000  0.44293000  1.0
  O  O148  1  0.00325000  0.70824000  0.45543000  1.0
  O  O149  1  0.81312000  0.68326000  0.44839000  1.0
  O  O150  1  0.81137000  0.50118000  0.45041000  1.0
  O  O151  1  0.00317000  0.29073000  0.45413000  1.0
  O  O152  1  0.18397000  0.30770000  0.54759000  1.0
  O  O153  1  0.18061000  0.52503000  0.54570000  1.0
  O  O154  1  0.99057000  0.69370000  0.55180000  1.0
  O  O155  1  0.79235000  0.68712000  0.54348000  1.0
  O  O156  1  0.80195000  0.50091000  0.54612000  1.0
  O  O157  1  0.00375000  0.30250000  0.55011000  1.0
  O  O158  1  0.01138000  0.49455000  0.49830000  1.0
  O  O159  1  0.16468000  0.79590000  0.03218000  1.0
  O  O160  1  0.16678000  0.01098000  0.03895000  1.0
  O  O161  1  0.33635000  0.03561000  0.02871000  1.0
  O  O162  1  0.53491000  0.83047000  0.03263000  1.0
  O  O163  1  0.53951000  0.64538000  0.03256000  1.0
  O  O164  1  0.35007000  0.61900000  0.03001000  1.0
  O  O165  1  0.17513000  0.80785000  0.92996000  1.0
  O  O166  1  0.16556000  0.02815000  0.93688000  1.0
  O  O167  1  0.34963000  0.02552000  0.93320000  1.0
  O  O168  1  0.54544000  0.82204000  0.93654000  1.0
  O  O169  1  0.55019000  0.63794000  0.93693000  1.0
  O  O170  1  0.35307000  0.62500000  0.93425000  1.0
  O  O171  1  0.33669000  0.83120000  0.98369000  1.0
  O  O172  1  0.42417000  0.29249000  0.65756000  1.0
  O  O173  1  0.55204000  0.18083000  0.71391000  1.0
  O  O174  1  0.91633000  0.87753000  0.87601000  1.0
  O  O175  1  0.00795000  0.70766000  0.91902000  1.0
  O  O176  1  0.35096000  0.33277000  0.49462000  1.0
  O  O177  1  0.99743000  0.99644000  0.98196000  1.0
