# generated using pymatgen
data_Zn2H33C40N5O8
_symmetry_space_group_name_H-M   'P 1'
_cell_length_a   9.59257000
_cell_length_b   11.00530000
_cell_length_c   14.11430000
_cell_angle_alpha   90.57620000
_cell_angle_beta   99.79250000
_cell_angle_gamma   91.70820000
_symmetry_Int_Tables_number   1
_chemical_formula_structural   Zn2H33C40N5O8
_chemical_formula_sum   'Zn2 H33 C40 N5 O8'
_cell_volume   1467.49896450
_cell_formula_units_Z   1
loop_
 _symmetry_equiv_pos_site_id
 _symmetry_equiv_pos_as_xyz
  1  'x, y, z'
loop_
 _atom_site_type_symbol
 _atom_site_label
 _atom_site_symmetry_multiplicity
 _atom_site_fract_x
 _atom_site_fract_y
 _atom_site_fract_z
 _atom_site_occupancy
  Zn  Zn0  1  0.87007000  0.49721000  0.51980000  1.0
  Zn  Zn1  1  0.13934000  0.50347000  0.47973000  1.0
  H  H2  1  0.00638000  0.50726000  0.99016000  1.0
  H  H3  1  0.18023000  0.10771000  0.41220000  1.0
  H  H4  1  0.66771000  0.10284000  0.50753000  1.0
  H  H5  1  0.78212000  0.90395000  0.64734000  1.0
  H  H6  1  0.67591000  0.88039000  0.53074000  1.0
  H  H7  1  0.35424000  0.36639000  0.38573000  1.0
  H  H8  1  0.62066000  0.35121000  0.41248000  1.0
  H  H9  1  0.66171000  0.61349000  0.72394000  1.0
  H  H10  1  0.67310000  0.73042000  0.63782000  1.0
  H  H11  1  0.39657000  0.62847000  0.69800000  1.0
  H  H12  1  0.40548000  0.74694000  0.61356000  1.0
  H  H13  1  0.81820000  0.45580000  0.85654000  1.0
  H  H14  1  0.94632000  0.31158000  0.80873000  1.0
  H  H15  1  0.34458000  0.45922000  0.76196000  1.0
  H  H16  1  0.51334000  0.33395000  0.16691000  1.0
  H  H17  1  0.35189000  0.20206000  0.19449000  1.0
  H  H18  1  0.18714000  0.27089000  0.16301000  1.0
  H  H19  1  0.22335000  0.13472000  0.10239000  1.0
  H  H20  1  0.18538000  0.78966000  0.37396000  1.0
  H  H21  1  0.27452000  0.93437000  0.37190000  1.0
  H  H22  1  0.30640000  0.84091000  0.47521000  1.0
  H  H23  1  0.85944000  0.12239000  0.70630000  1.0
  H  H24  1  0.78729000  0.24738000  0.63842000  1.0
  H  H25  1  0.67250000  0.13873000  0.68337000  1.0
  H  H26  1  0.52597000  0.54498000  0.17921000  1.0
  H  H27  1  0.60494000  0.45763000  0.27804000  1.0
  H  H28  1  0.66099000  0.60917000  0.27025000  1.0
  H  H29  1  0.15809000  0.54662000  0.23978000  1.0
  H  H30  1  0.18990000  0.53315000  0.12082000  1.0
  H  H31  1  0.92302000  0.24433000  0.95457000  1.0
  H  H32  1  0.04983000  0.23778000  0.05151000  1.0
  H  H33  1  0.48261000  0.33232000  0.74879000  1.0
  H  H34  1  0.65226000  0.36743000  0.73878000  1.0
  C  C35  1  0.00645000  0.73572000  0.51644000  1.0
  C  C36  1  0.35050000  0.37283000  0.89995000  1.0
  C  C37  1  0.26486000  0.31797000  0.96403000  1.0
  C  C38  1  0.50011000  0.40057000  0.93195000  1.0
  C  C39  1  0.55096000  0.40767000  0.03213000  1.0
  C  C40  1  0.46566000  0.34837000  0.09241000  1.0
  C  C41  1  0.33282000  0.29693000  0.06141000  1.0
  C  C42  1  0.60241000  0.41458000  0.86788000  1.0
  C  C43  1  0.74140000  0.44754000  0.90524000  1.0
  C  C44  1  0.78946000  0.46938000  0.00493000  1.0
  C  C45  1  0.69143000  0.45625000  0.07039000  1.0
  C  C46  1  0.07680000  0.43773000  0.68066000  1.0
  C  C47  1  0.93201000  0.49923000  0.04050000  1.0
  C  C48  1  0.98303000  0.51029000  0.13893000  1.0
  C  C49  1  0.73673000  0.49295000  0.16805000  1.0
  C  C50  1  0.89798000  0.93941000  0.52656000  1.0
  C  C51  1  0.00429000  0.86954000  0.49959000  1.0
  C  C52  1  0.10746000  0.93339000  0.45548000  1.0
  C  C53  1  0.09999000  0.05992000  0.44528000  1.0
  C  C54  1  0.99495000  0.12971000  0.47568000  1.0
  C  C55  1  0.89291000  0.06501000  0.51571000  1.0
  C  C56  1  0.75964000  0.07577000  0.56014000  1.0
  C  C57  1  0.99595000  0.26479000  0.46965000  1.0
  C  C58  1  0.76569000  0.93293000  0.57201000  1.0
  C  C59  1  0.44244000  0.56390000  0.55877000  1.0
  C  C60  1  0.42230000  0.42246000  0.43988000  1.0
  C  C61  1  0.56893000  0.41370000  0.45468000  1.0
  C  C62  1  0.58934000  0.55510000  0.57341000  1.0
  C  C63  1  0.61417000  0.64858000  0.65375000  1.0
  C  C64  1  0.44671000  0.65851000  0.63762000  1.0
  C  C65  1  0.93316000  0.52559000  0.31041000  1.0
  C  C66  1  0.14060000  0.39011000  0.77666000  1.0
  C  C67  1  0.88282000  0.51138000  0.20481000  1.0
  C  C68  1  0.11728000  0.29187000  0.92727000  1.0
  C  C69  1  0.05863000  0.32918000  0.83506000  1.0
  C  C70  1  0.28490000  0.40843000  0.80788000  1.0
  C  C71  1  0.26913000  0.22192000  0.13328000  1.0
  C  C72  1  0.22455000  0.87125000  0.41682000  1.0
  C  C73  1  0.76988000  0.15063000  0.65249000  1.0
  C  C74  1  0.62576000  0.52737000  0.22693000  1.0
  N  N75  1  0.35588000  0.50080000  0.49124000  1.0
  N  N76  1  0.65632000  0.48314000  0.52135000  1.0
  N  N77  1  0.12635000  0.51869000  0.17020000  1.0
  N  N78  1  0.02713000  0.23036000  0.97904000  1.0
  N  N79  1  0.56759000  0.38972000  0.76932000  1.0
  O  O80  1  0.88959000  0.68256000  0.52708000  1.0
  O  O81  1  0.12329000  0.68284000  0.51925000  1.0
  O  O82  1  0.94495000  0.45968000  0.66364000  1.0
  O  O83  1  0.16189000  0.45295000  0.62127000  1.0
  O  O84  1  0.88913000  0.31522000  0.49421000  1.0
  O  O85  1  0.10191000  0.32011000  0.44407000  1.0
  O  O86  1  0.84606000  0.50904000  0.36808000  1.0
  O  O87  1  0.06652000  0.54946000  0.34095000  1.0
