# generated using pymatgen
data_NdH14C15O7
_symmetry_space_group_name_H-M   'P 1'
_cell_length_a   7.76760000
_cell_length_b   15.37280000
_cell_length_c   15.37270000
_cell_angle_alpha   62.71250000
_cell_angle_beta   86.81870000
_cell_angle_gamma   86.81870000
_symmetry_Int_Tables_number   1
_chemical_formula_structural   NdH14C15O7
_chemical_formula_sum   'Nd4 H56 C60 O28'
_cell_volume   1627.92569538
_cell_formula_units_Z   4
loop_
 _symmetry_equiv_pos_site_id
 _symmetry_equiv_pos_as_xyz
  1  'x, y, z'
loop_
 _atom_site_type_symbol
 _atom_site_label
 _atom_site_symmetry_multiplicity
 _atom_site_fract_x
 _atom_site_fract_y
 _atom_site_fract_z
 _atom_site_occupancy
  Nd  Nd0  1  0.03092000  0.36001000  0.28141000  1.0
  Nd  Nd1  1  0.46908000  0.71858000  0.63998000  1.0
  Nd  Nd2  1  0.96908000  0.63999000  0.71859000  1.0
  Nd  Nd3  1  0.53092000  0.28142000  0.36002000  1.0
  H  H4  1  0.34330000  0.48050000  0.16278000  1.0
  H  H5  1  0.15669000  0.83722000  0.51950000  1.0
  H  H6  1  0.65670000  0.51950000  0.83722000  1.0
  H  H7  1  0.84331000  0.16278000  0.48050000  1.0
  H  H8  1  0.18017000  0.55610000  0.12896000  1.0
  H  H9  1  0.31982000  0.87104000  0.44388000  1.0
  H  H10  1  0.81983000  0.44390000  0.87104000  1.0
  H  H11  1  0.68018000  0.12896000  0.55611000  1.0
  H  H12  1  0.30388000  0.19910000  0.60638000  1.0
  H  H13  1  0.19612000  0.39362000  0.80090000  1.0
  H  H14  1  0.69612000  0.80090000  0.39362000  1.0
  H  H15  1  0.80388000  0.60638000  0.19910000  1.0
  H  H16  1  0.42515000  0.18706000  0.75522000  1.0
  H  H17  1  0.07485000  0.24478000  0.81295000  1.0
  H  H18  1  0.57485000  0.81295000  0.24478000  1.0
  H  H19  1  0.92515000  0.75521000  0.18706000  1.0
  H  H20  1  0.40820000  0.03183000  0.91128000  1.0
  H  H21  1  0.09181000  0.08872000  0.96817000  1.0
  H  H22  1  0.59181000  0.96817000  0.08872000  1.0
  H  H23  1  0.90818000  0.91127000  0.03183000  1.0
  H  H24  1  0.26068000  0.88975000  0.91530000  1.0
  H  H25  1  0.23934000  0.08469000  0.11025000  1.0
  H  H26  1  0.73933000  0.11025000  0.08470000  1.0
  H  H27  1  0.76066000  0.91530000  0.88976000  1.0
  H  H28  1  0.08924000  0.82055000  0.84107000  1.0
  H  H29  1  0.41079000  0.15893000  0.17945000  1.0
  H  H30  1  0.91076000  0.17945000  0.15893000  1.0
  H  H31  1  0.58921000  0.84107000  0.82055000  1.0
  H  H32  1  0.00269000  0.89176000  0.72639000  1.0
  H  H33  1  0.49733000  0.27361000  0.10825000  1.0
  H  H34  1  0.99732000  0.10825000  0.27361000  1.0
  H  H35  1  0.50268000  0.72639000  0.89175000  1.0
  H  H36  1  0.99938000  0.04218000  0.59386000  1.0
  H  H37  1  0.50063000  0.40614000  0.95782000  1.0
  H  H38  1  0.00062000  0.95782000  0.40614000  1.0
  H  H39  1  0.49937000  0.59386000  0.04218000  1.0
  H  H40  1  0.19980000  0.99518000  0.57008000  1.0
  H  H41  1  0.30021000  0.42992000  0.00483000  1.0
  H  H42  1  0.80020000  0.00482000  0.42992000  1.0
  H  H43  1  0.69979000  0.57008000  0.99517000  1.0
  H  H44  1  0.42950000  0.66752000  0.16981000  1.0
  H  H45  1  0.07051000  0.83020000  0.33246000  1.0
  H  H46  1  0.57051000  0.33248000  0.83020000  1.0
  H  H47  1  0.92949000  0.16980000  0.66754000  1.0
  H  H48  1  0.34120000  0.84197000  0.07552000  1.0
  H  H49  1  0.15883000  0.92447000  0.15801000  1.0
  H  H50  1  0.65880000  0.15803000  0.92448000  1.0
  H  H51  1  0.84117000  0.07553000  0.84199000  1.0
  H  H52  1  0.37252000  0.51559000  0.43544000  1.0
  H  H53  1  0.12746000  0.56456000  0.48441000  1.0
  H  H54  1  0.62748000  0.48441000  0.56456000  1.0
  H  H55  1  0.87253000  0.43544000  0.51559000  1.0
  H  H56  1  0.48028000  0.52902000  0.32728000  1.0
  H  H57  1  0.01970000  0.67272000  0.47096000  1.0
  H  H58  1  0.51972000  0.47098000  0.67272000  1.0
  H  H59  1  0.98030000  0.32728000  0.52903000  1.0
  C  C60  1  0.20068000  0.96349000  0.76278000  1.0
  C  C61  1  0.29934000  0.23722000  0.03652000  1.0
  C  C62  1  0.79932000  0.03652000  0.23722000  1.0
  C  C63  1  0.70066000  0.76278000  0.96348000  1.0
  C  C64  1  0.21260000  0.05085000  0.67435000  1.0
  C  C65  1  0.28741000  0.32565000  0.94915000  1.0
  C  C66  1  0.78741000  0.94915000  0.32565000  1.0
  C  C67  1  0.71259000  0.67435000  0.05085000  1.0
  C  C68  1  0.29252000  0.13066000  0.67366000  1.0
  C  C69  1  0.20748000  0.32634000  0.86934000  1.0
  C  C70  1  0.70748000  0.86934000  0.32634000  1.0
  C  C71  1  0.79252000  0.67366000  0.13066000  1.0
  C  C72  1  0.36292000  0.12406000  0.75803000  1.0
  C  C73  1  0.13708000  0.24196000  0.87594000  1.0
  C  C74  1  0.63709000  0.87594000  0.24197000  1.0
  C  C75  1  0.86291000  0.75803000  0.12406000  1.0
  C  C76  1  0.35301000  0.03721000  0.84522000  1.0
  C  C77  1  0.14700000  0.15478000  0.96278000  1.0
  C  C78  1  0.64699000  0.96279000  0.15478000  1.0
  C  C79  1  0.85300000  0.84522000  0.03722000  1.0
  C  C80  1  0.27048000  0.95798000  0.84728000  1.0
  C  C81  1  0.22954000  0.15272000  0.04203000  1.0
  C  C82  1  0.72952000  0.04202000  0.15272000  1.0
  C  C83  1  0.77046000  0.84727000  0.95798000  1.0
  C  C84  1  0.12391000  0.87459000  0.76584000  1.0
  C  C85  1  0.37611000  0.23416000  0.12542000  1.0
  C  C86  1  0.87609000  0.12542000  0.23416000  1.0
  C  C87  1  0.62389000  0.76584000  0.87459000  1.0
  C  C88  1  0.24495000  0.82259000  0.72233000  1.0
  C  C89  1  0.25508000  0.27766000  0.17742000  1.0
  C  C90  1  0.75507000  0.17741000  0.27766000  1.0
  C  C91  1  0.74492000  0.72235000  0.82258000  1.0
  C  C92  1  0.13877000  0.05489000  0.58315000  1.0
  C  C93  1  0.36123000  0.41686000  0.94511000  1.0
  C  C94  1  0.86123000  0.94511000  0.41685000  1.0
  C  C95  1  0.63877000  0.58314000  0.05489000  1.0
  C  C96  1  0.17374000  0.14838000  0.49044000  1.0
  C  C97  1  0.32627000  0.50956000  0.85162000  1.0
  C  C98  1  0.82625000  0.85162000  0.50956000  1.0
  C  C99  1  0.67374000  0.49044000  0.14838000  1.0
  C  C100  1  0.30044000  0.64881000  0.30472000  1.0
  C  C101  1  0.19956000  0.69528000  0.35117000  1.0
  C  C102  1  0.69956000  0.35118000  0.69528000  1.0
  C  C103  1  0.80044000  0.30472000  0.64883000  1.0
  C  C104  1  0.34878000  0.70301000  0.20552000  1.0
  C  C105  1  0.15124000  0.79448000  0.29698000  1.0
  C  C106  1  0.65123000  0.29699000  0.79449000  1.0
  C  C107  1  0.84876000  0.20552000  0.70302000  1.0
  C  C108  1  0.29987000  0.80158000  0.15226000  1.0
  C  C109  1  0.20014000  0.84773000  0.19841000  1.0
  C  C110  1  0.70013000  0.19842000  0.84774000  1.0
  C  C111  1  0.79986000  0.15227000  0.80160000  1.0
  C  C112  1  0.35461000  0.54197000  0.35672000  1.0
  C  C113  1  0.14538000  0.64328000  0.45802000  1.0
  C  C114  1  0.64539000  0.45802000  0.64328000  1.0
  C  C115  1  0.85462000  0.35672000  0.54198000  1.0
  C  C116  1  0.22803000  0.47476000  0.34737000  1.0
  C  C117  1  0.27196000  0.65263000  0.52523000  1.0
  C  C118  1  0.77197000  0.52523000  0.65263000  1.0
  C  C119  1  0.72804000  0.34737000  0.47477000  1.0
  O  O120  1  0.39614000  0.85026000  0.69334000  1.0
  O  O121  1  0.10386000  0.30664000  0.14975000  1.0
  O  O122  1  0.60386000  0.14974000  0.30666000  1.0
  O  O123  1  0.89614000  0.69336000  0.85024000  1.0
  O  O124  1  0.19031000  0.74752000  0.71610000  1.0
  O  O125  1  0.30971000  0.28389000  0.25248000  1.0
  O  O126  1  0.80970000  0.25248000  0.28389000  1.0
  O  O127  1  0.69029000  0.71611000  0.74751000  1.0
  O  O128  1  0.32989000  0.16791000  0.46548000  1.0
  O  O129  1  0.17010000  0.53452000  0.83209000  1.0
  O  O130  1  0.67011000  0.83209000  0.53452000  1.0
  O  O131  1  0.82990000  0.46548000  0.16791000  1.0
  O  O132  1  0.04589000  0.20212000  0.44189000  1.0
  O  O133  1  0.45409000  0.55811000  0.79788000  1.0
  O  O134  1  0.95411000  0.79788000  0.55811000  1.0
  O  O135  1  0.54590000  0.44189000  0.20212000  1.0
  O  O136  1  0.28203000  0.38688000  0.36580000  1.0
  O  O137  1  0.21794000  0.63420000  0.61311000  1.0
  O  O138  1  0.71797000  0.61312000  0.63420000  1.0
  O  O139  1  0.78205000  0.36580000  0.38689000  1.0
  O  O140  1  0.07608000  0.50343000  0.32035000  1.0
  O  O141  1  0.42390000  0.67965000  0.49657000  1.0
  O  O142  1  0.92393000  0.49657000  0.67966000  1.0
  O  O143  1  0.57609000  0.32035000  0.50343000  1.0
  O  O144  1  0.21857000  0.48923000  0.14530000  1.0
  O  O145  1  0.28143000  0.85470000  0.51076000  1.0
  O  O146  1  0.78143000  0.51077000  0.85470000  1.0
  O  O147  1  0.71857000  0.14530000  0.48924000  1.0
