# generated using pymatgen
data_CuH16C10NO5
_symmetry_space_group_name_H-M   'P 1'
_cell_length_a   7.45655000
_cell_length_b   7.86768000
_cell_length_c   10.81250000
_cell_angle_alpha   84.49280000
_cell_angle_beta   87.97620000
_cell_angle_gamma   71.38060000
_symmetry_Int_Tables_number   1
_chemical_formula_structural   CuH16C10NO5
_chemical_formula_sum   'Cu2 H32 C20 N2 O10'
_cell_volume   598.34111491
_cell_formula_units_Z   2
loop_
 _symmetry_equiv_pos_site_id
 _symmetry_equiv_pos_as_xyz
  1  'x, y, z'
loop_
 _atom_site_type_symbol
 _atom_site_label
 _atom_site_symmetry_multiplicity
 _atom_site_fract_x
 _atom_site_fract_y
 _atom_site_fract_z
 _atom_site_occupancy
  Cu  Cu0  1  0.02758000  0.97759000  0.13831000  1.0
  Cu  Cu1  1  0.97243000  0.02240000  0.86169000  1.0
  H  H2  1  0.27005000  0.20549000  0.04580000  1.0
  H  H3  1  0.72995000  0.79450000  0.95420000  1.0
  H  H4  1  0.86032000  0.77516000  0.27281000  1.0
  H  H5  1  0.13967000  0.22484000  0.72718000  1.0
  H  H6  1  0.09572000  0.42034000  0.15950000  1.0
  H  H7  1  0.90428000  0.57967000  0.84050000  1.0
  H  H8  1  0.28558000  0.32271000  0.26417000  1.0
  H  H9  1  0.71443000  0.67729000  0.73583000  1.0
  H  H10  1  0.13658000  0.10712000  0.36030000  1.0
  H  H11  1  0.86343000  0.89288000  0.63970000  1.0
  H  H12  1  0.99054000  0.33576000  0.36917000  1.0
  H  H13  1  0.00946000  0.66424000  0.63082000  1.0
  H  H14  1  0.69819000  0.21417000  0.39749000  1.0
  H  H15  1  0.30182000  0.78584000  0.60251000  1.0
  H  H16  1  0.89091000  0.00986000  0.40647000  1.0
  H  H17  1  0.10909000  0.99015000  0.59352000  1.0
  H  H18  1  0.58478000  0.96789000  0.36786000  1.0
  H  H19  1  0.41523000  0.03212000  0.63214000  1.0
  H  H20  1  0.55409000  0.10499000  0.22602000  1.0
  H  H21  1  0.44592000  0.89502000  0.77398000  1.0
  H  H22  1  0.77004000  0.46590000  0.20189000  1.0
  H  H23  1  0.22997000  0.53411000  0.79811000  1.0
  H  H24  1  0.62492000  0.33104000  0.18138000  1.0
  H  H25  1  0.37508000  0.66897000  0.81862000  1.0
  H  H26  1  0.94383000  0.37525000  0.00849000  1.0
  H  H27  1  0.05618000  0.62475000  0.99151000  1.0
  H  H28  1  0.70228000  0.40987000  0.97391000  1.0
  H  H29  1  0.29773000  0.59013000  0.02609000  1.0
  H  H30  1  0.19854000  0.42751000  0.52560000  1.0
  H  H31  1  0.80144000  0.57248000  0.47441000  1.0
  H  H32  1  0.53093000  0.72407000  0.32889000  1.0
  H  H33  1  0.46905000  0.27592000  0.67111000  1.0
  C  C34  1  0.17610000  0.29360000  0.21172000  1.0
  C  C35  1  0.82391000  0.70640000  0.78828000  1.0
  C  C36  1  0.05015000  0.22938000  0.30606000  1.0
  C  C37  1  0.94985000  0.77062000  0.69394000  1.0
  C  C38  1  0.78758000  0.10660000  0.34285000  1.0
  C  C39  1  0.21243000  0.89341000  0.65715000  1.0
  C  C40  1  0.66187000  0.01235000  0.28850000  1.0
  C  C41  1  0.33814000  0.98766000  0.71149000  1.0
  C  C42  1  0.76911000  0.33782000  0.16912000  1.0
  C  C43  1  0.23089000  0.66219000  0.83088000  1.0
  C  C44  1  0.82292000  0.32438000  0.03179000  1.0
  C  C45  1  0.17709000  0.67562000  0.96822000  1.0
  C  C46  1  0.18191000  0.68591000  0.33750000  1.0
  C  C47  1  0.81809000  0.31409000  0.66250000  1.0
  C  C48  1  0.34870000  0.58569000  0.41891000  1.0
  C  C49  1  0.65128000  0.41429000  0.58109000  1.0
  C  C50  1  0.33154000  0.45746000  0.51428000  1.0
  C  C51  1  0.66844000  0.54252000  0.48573000  1.0
  C  C52  1  0.51846000  0.62672000  0.40478000  1.0
  C  C53  1  0.48152000  0.37326000  0.59522000  1.0
  N  N54  1  0.89705000  0.18192000  0.24787000  1.0
  N  N55  1  0.10295000  0.81809000  0.75213000  1.0
  O  O56  1  0.86599000  0.14298000  0.00896000  1.0
  O  O57  1  0.13402000  0.85702000  0.99104000  1.0
  O  O58  1  0.26195000  0.15512000  0.13083000  1.0
  O  O59  1  0.73805000  0.84488000  0.86917000  1.0
  O  O60  1  0.20496000  0.81172000  0.26020000  1.0
  O  O61  1  0.79502000  0.18828000  0.73981000  1.0
  O  O62  1  0.76071000  0.86647000  0.21817000  1.0
  O  O63  1  0.23930000  0.13354000  0.78182000  1.0
  O  O64  1  0.03216000  0.64291000  0.35252000  1.0
  O  O65  1  0.96781000  0.35710000  0.64749000  1.0
