# generated using pymatgen
data_ErCdH7C5SN2O11
_symmetry_space_group_name_H-M   'P 1'
_cell_length_a   8.49329000
_cell_length_b   10.48910000
_cell_length_c   13.82950000
_cell_angle_alpha   89.99990000
_cell_angle_beta   77.92100000
_cell_angle_gamma   89.99990000
_symmetry_Int_Tables_number   1
_chemical_formula_structural   ErCdH7C5SN2O11
_chemical_formula_sum   'Er4 Cd4 H28 C20 S4 N8 O44'
_cell_volume   1204.75112132
_cell_formula_units_Z   4
loop_
 _symmetry_equiv_pos_site_id
 _symmetry_equiv_pos_as_xyz
  1  'x, y, z'
loop_
 _atom_site_type_symbol
 _atom_site_label
 _atom_site_symmetry_multiplicity
 _atom_site_fract_x
 _atom_site_fract_y
 _atom_site_fract_z
 _atom_site_occupancy
  Er  Er0  1  0.93209000  0.10423000  0.89222000  1.0
  Er  Er1  1  0.06792000  0.60423000  0.60778000  1.0
  Er  Er2  1  0.06791000  0.89577000  0.10778000  1.0
  Er  Er3  1  0.93207000  0.39577000  0.39222000  1.0
  Cd  Cd4  1  0.62625000  0.51575000  0.86591000  1.0
  Cd  Cd5  1  0.37375000  0.01575000  0.63409000  1.0
  Cd  Cd6  1  0.37374000  0.48425000  0.13410000  1.0
  Cd  Cd7  1  0.62625000  0.98424000  0.36591000  1.0
  H  H8  1  0.63055000  0.73970000  0.66131000  1.0
  H  H9  1  0.36945000  0.23969000  0.83869000  1.0
  H  H10  1  0.36945000  0.26030000  0.33870000  1.0
  H  H11  1  0.63055000  0.76030000  0.16132000  1.0
  H  H12  1  0.98785000  0.10354000  0.66969000  1.0
  H  H13  1  0.01215000  0.60354000  0.83031000  1.0
  H  H14  1  0.01218000  0.89646000  0.33031000  1.0
  H  H15  1  0.98782000  0.39647000  0.16969000  1.0
  H  H16  1  0.79804000  0.08994000  0.70708000  1.0
  H  H17  1  0.20196000  0.58995000  0.79292000  1.0
  H  H18  1  0.20198000  0.91006000  0.29292000  1.0
  H  H19  1  0.79801000  0.41006000  0.20709000  1.0
  H  H20  1  0.02255000  0.36143000  0.83607000  1.0
  H  H21  1  0.97747000  0.86143000  0.66393000  1.0
  H  H22  1  0.97745000  0.63857000  0.16393000  1.0
  H  H23  1  0.02251000  0.13858000  0.33608000  1.0
  H  H24  1  0.05309000  0.31137000  0.72786000  1.0
  H  H25  1  0.94691000  0.81137000  0.77213000  1.0
  H  H26  1  0.94691000  0.68863000  0.27214000  1.0
  H  H27  1  0.05308000  0.18863000  0.22787000  1.0
  H  H28  1  0.55936000  0.11388000  0.93033000  1.0
  H  H29  1  0.44064000  0.61387000  0.56967000  1.0
  H  H30  1  0.44065000  0.88613000  0.06966000  1.0
  H  H31  1  0.55935000  0.38614000  0.43033000  1.0
  H  H32  1  0.62521000  0.97255000  0.91747000  1.0
  H  H33  1  0.37480000  0.47253000  0.58253000  1.0
  H  H34  1  0.37480000  0.02746000  0.08253000  1.0
  H  H35  1  0.62519000  0.52748000  0.41747000  1.0
  C  C36  1  0.53386000  0.75705000  0.72489000  1.0
  C  C37  1  0.46614000  0.25705000  0.77511000  1.0
  C  C38  1  0.46614000  0.24295000  0.27511000  1.0
  C  C39  1  0.53386000  0.74294000  0.22489000  1.0
  C  C40  1  0.33345000  0.84736000  0.82449000  1.0
  C  C41  1  0.66656000  0.34736000  0.67551000  1.0
  C  C42  1  0.66654000  0.15263000  0.17552000  1.0
  C  C43  1  0.33346000  0.65264000  0.32449000  1.0
  C  C44  1  0.37791000  0.73800000  0.87066000  1.0
  C  C45  1  0.62209000  0.23800000  0.62933000  1.0
  C  C46  1  0.62209000  0.26199000  0.12934000  1.0
  C  C47  1  0.37792000  0.76200000  0.37067000  1.0
  C  C48  1  0.21225000  0.94520000  0.85607000  1.0
  C  C49  1  0.78776000  0.44519000  0.64393000  1.0
  C  C50  1  0.78775000  0.05480000  0.14394000  1.0
  C  C51  1  0.21224000  0.55480000  0.35607000  1.0
  C  C52  1  0.31711000  0.67693000  0.96775000  1.0
  C  C53  1  0.68290000  0.17693000  0.53224000  1.0
  C  C54  1  0.68290000  0.32307000  0.03225000  1.0
  C  C55  1  0.31709000  0.82306000  0.46776000  1.0
  S  S56  1  0.80104000  0.78089000  0.95530000  1.0
  S  S57  1  0.19895000  0.28089000  0.54470000  1.0
  S  S58  1  0.19896000  0.21911000  0.04471000  1.0
  S  S59  1  0.80104000  0.71911000  0.45530000  1.0
  N  N60  1  0.50442000  0.68305000  0.80607000  1.0
  N  N61  1  0.49558000  0.18305000  0.69393000  1.0
  N  N62  1  0.49558000  0.31695000  0.19393000  1.0
  N  N63  1  0.50443000  0.81694000  0.30607000  1.0
  N  N64  1  0.43127000  0.85591000  0.73192000  1.0
  N  N65  1  0.56874000  0.35591000  0.76808000  1.0
  N  N66  1  0.56872000  0.14408000  0.26809000  1.0
  N  N67  1  0.43127000  0.64408000  0.23191000  1.0
  O  O68  1  0.17623000  0.02135000  0.79131000  1.0
  O  O69  1  0.82378000  0.52135000  0.70869000  1.0
  O  O70  1  0.82377000  0.97865000  0.20869000  1.0
  O  O71  1  0.17623000  0.47865000  0.29131000  1.0
  O  O72  1  0.13953000  0.95782000  0.94608000  1.0
  O  O73  1  0.86047000  0.45782000  0.55392000  1.0
  O  O74  1  0.86047000  0.04218000  0.05393000  1.0
  O  O75  1  0.13952000  0.54219000  0.44608000  1.0
  O  O76  1  0.21211000  0.72863000  0.03404000  1.0
  O  O77  1  0.78789000  0.22864000  0.46597000  1.0
  O  O78  1  0.78790000  0.27136000  0.96596000  1.0
  O  O79  1  0.21211000  0.77135000  0.53404000  1.0
  O  O80  1  0.37786000  0.56761000  0.98043000  1.0
  O  O81  1  0.62213000  0.06761000  0.51957000  1.0
  O  O82  1  0.62213000  0.43238000  0.01957000  1.0
  O  O83  1  0.37787000  0.93239000  0.48043000  1.0
  O  O84  1  0.62800000  0.81230000  0.98546000  1.0
  O  O85  1  0.37201000  0.31229000  0.51453000  1.0
  O  O86  1  0.37201000  0.18771000  0.01454000  1.0
  O  O87  1  0.62799000  0.68772000  0.48546000  1.0
  O  O88  1  0.82674000  0.65406000  0.90493000  1.0
  O  O89  1  0.17324000  0.15406000  0.59506000  1.0
  O  O90  1  0.17324000  0.34594000  0.09507000  1.0
  O  O91  1  0.82677000  0.84594000  0.40493000  1.0
  O  O92  1  0.87976000  0.87898000  0.88075000  1.0
  O  O93  1  0.12023000  0.37900000  0.61925000  1.0
  O  O94  1  0.12024000  0.12101000  0.11926000  1.0
  O  O95  1  0.87976000  0.62101000  0.38074000  1.0
  O  O96  1  0.87902000  0.77928000  0.04162000  1.0
  O  O97  1  0.12097000  0.27929000  0.45837000  1.0
  O  O98  1  0.12099000  0.22071000  0.95838000  1.0
  O  O99  1  0.87903000  0.72070000  0.54162000  1.0
  O  O100  1  0.90145000  0.06395000  0.72075000  1.0
  O  O101  1  0.09856000  0.56394000  0.77925000  1.0
  O  O102  1  0.09857000  0.93605000  0.27925000  1.0
  O  O103  1  0.90142000  0.43607000  0.22075000  1.0
  O  O104  1  0.00583000  0.28675000  0.79754000  1.0
  O  O105  1  0.99419000  0.78675000  0.70246000  1.0
  O  O106  1  0.99418000  0.71325000  0.20247000  1.0
  O  O107  1  0.00581000  0.21325000  0.29754000  1.0
  O  O108  1  0.64968000  0.06135000  0.89584000  1.0
  O  O109  1  0.35032000  0.56133000  0.60415000  1.0
  O  O110  1  0.35033000  0.93866000  0.10415000  1.0
  O  O111  1  0.64967000  0.43868000  0.39585000  1.0
