# generated using pymatgen
data_PrH7C7NO6
_symmetry_space_group_name_H-M   'P 1'
_cell_length_a   5.96267000
_cell_length_b   8.72095000
_cell_length_c   18.41700000
_cell_angle_alpha   89.99920000
_cell_angle_beta   89.98990000
_cell_angle_gamma   96.39670000
_symmetry_Int_Tables_number   1
_chemical_formula_structural   PrH7C7NO6
_chemical_formula_sum   'Pr4 H28 C28 N4 O24'
_cell_volume   951.72445674
_cell_formula_units_Z   4
loop_
 _symmetry_equiv_pos_site_id
 _symmetry_equiv_pos_as_xyz
  1  'x, y, z'
loop_
 _atom_site_type_symbol
 _atom_site_label
 _atom_site_symmetry_multiplicity
 _atom_site_fract_x
 _atom_site_fract_y
 _atom_site_fract_z
 _atom_site_occupancy
  Pr  Pr0  1  0.47719000  0.61259000  0.60339000  1.0
  Pr  Pr1  1  0.02280000  0.38737000  0.10341000  1.0
  Pr  Pr2  1  0.52282000  0.38738000  0.39659000  1.0
  Pr  Pr3  1  0.97718000  0.61261000  0.89662000  1.0
  H  H4  1  0.68978000  0.04138000  0.71338000  1.0
  H  H5  1  0.81019000  0.95859000  0.21338000  1.0
  H  H6  1  0.31022000  0.95862000  0.28662000  1.0
  H  H7  1  0.18980000  0.04142000  0.78661000  1.0
  H  H8  1  0.66498000  0.26001000  0.80159000  1.0
  H  H9  1  0.83498000  0.73995000  0.30157000  1.0
  H  H10  1  0.33501000  0.74001000  0.19842000  1.0
  H  H11  1  0.16499000  0.26005000  0.69842000  1.0
  H  H12  1  0.81197000  0.95115000  0.97422000  1.0
  H  H13  1  0.68808000  0.04879000  0.47419000  1.0
  H  H14  1  0.18791000  0.04884000  0.02580000  1.0
  H  H15  1  0.31206000  0.95120000  0.52579000  1.0
  H  H16  1  0.68444000  0.47995000  0.72727000  1.0
  H  H17  1  0.81556000  0.52005000  0.22726000  1.0
  H  H18  1  0.31554000  0.52003000  0.27273000  1.0
  H  H19  1  0.18446000  0.48001000  0.77273000  1.0
  H  H20  1  0.52257000  0.32900000  0.70036000  1.0
  H  H21  1  0.97741000  0.67098000  0.20035000  1.0
  H  H22  1  0.47745000  0.67098000  0.29963000  1.0
  H  H23  1  0.02259000  0.32902000  0.79964000  1.0
  H  H24  1  0.14940000  0.60584000  0.43990000  1.0
  H  H25  1  0.35063000  0.39418000  0.93992000  1.0
  H  H26  1  0.85064000  0.39418000  0.56009000  1.0
  H  H27  1  0.64937000  0.60583000  0.06009000  1.0
  H  H28  1  0.19161000  0.48157000  0.50310000  1.0
  H  H29  1  0.30842000  0.51846000  0.00309000  1.0
  H  H30  1  0.80840000  0.51840000  0.49690000  1.0
  H  H31  1  0.69156000  0.48159000  0.99692000  1.0
  C  C32  1  0.74372000  0.74410000  0.75245000  1.0
  C  C33  1  0.75627000  0.25587000  0.25245000  1.0
  C  C34  1  0.25623000  0.25593000  0.24756000  1.0
  C  C35  1  0.24375000  0.74410000  0.74756000  1.0
  C  C36  1  0.74577000  0.87904000  0.79804000  1.0
  C  C37  1  0.75422000  0.12094000  0.29800000  1.0
  C  C38  1  0.25417000  0.12095000  0.20196000  1.0
  C  C39  1  0.24580000  0.87909000  0.70197000  1.0
  C  C40  1  0.71152000  0.02657000  0.77155000  1.0
  C  C41  1  0.78845000  0.97339000  0.27154000  1.0
  C  C42  1  0.28845000  0.97343000  0.22845000  1.0
  C  C43  1  0.21157000  0.02660000  0.72847000  1.0
  C  C44  1  0.70198000  0.14668000  0.81967000  1.0
  C  C45  1  0.79803000  0.85330000  0.31965000  1.0
  C  C46  1  0.29800000  0.85331000  0.18033000  1.0
  C  C47  1  0.20200000  0.14671000  0.68035000  1.0
  C  C48  1  0.73798000  0.12265000  0.89536000  1.0
  C  C49  1  0.76198000  0.87730000  0.39535000  1.0
  C  C50  1  0.26196000  0.87736000  0.10465000  1.0
  C  C51  1  0.23806000  0.12268000  0.60465000  1.0
  C  C52  1  0.77927000  0.97327000  0.91701000  1.0
  C  C53  1  0.72075000  0.02670000  0.41700000  1.0
  C  C54  1  0.22064000  0.02671000  0.08299000  1.0
  C  C55  1  0.27936000  0.97330000  0.58298000  1.0
  C  C56  1  0.74449000  0.24636000  0.94779000  1.0
  C  C57  1  0.75551000  0.75362000  0.44777000  1.0
  C  C58  1  0.25549000  0.75364000  0.05222000  1.0
  C  C59  1  0.24451000  0.24643000  0.55222000  1.0
  N  N60  1  0.78172000  0.85562000  0.87144000  1.0
  N  N61  1  0.71832000  0.14438000  0.37145000  1.0
  N  N62  1  0.21821000  0.14438000  0.12856000  1.0
  N  N63  1  0.28176000  0.85562000  0.62855000  1.0
  O  O64  1  0.63242000  0.41288000  0.68348000  1.0
  O  O65  1  0.86757000  0.58712000  0.18347000  1.0
  O  O66  1  0.36758000  0.58712000  0.31654000  1.0
  O  O67  1  0.13244000  0.41290000  0.81653000  1.0
  O  O68  1  0.80823000  0.22856000  0.01335000  1.0
  O  O69  1  0.69180000  0.77141000  0.51335000  1.0
  O  O70  1  0.19174000  0.77145000  0.98664000  1.0
  O  O71  1  0.30820000  0.22856000  0.48666000  1.0
  O  O72  1  0.68672000  0.38123000  0.92539000  1.0
  O  O73  1  0.81325000  0.61874000  0.42538000  1.0
  O  O74  1  0.31326000  0.61877000  0.07461000  1.0
  O  O75  1  0.18678000  0.38124000  0.57462000  1.0
  O  O76  1  0.71939000  0.75187000  0.68304000  1.0
  O  O77  1  0.78056000  0.24810000  0.18303000  1.0
  O  O78  1  0.28064000  0.24814000  0.31695000  1.0
  O  O79  1  0.21942000  0.75192000  0.81697000  1.0
  O  O80  1  0.76049000  0.61145000  0.78458000  1.0
  O  O81  1  0.73956000  0.38850000  0.28458000  1.0
  O  O82  1  0.23945000  0.38853000  0.21541000  1.0
  O  O83  1  0.26047000  0.61148000  0.71542000  1.0
  O  O84  1  0.26722000  0.56395000  0.46898000  1.0
  O  O85  1  0.23282000  0.43607000  0.96898000  1.0
  O  O86  1  0.73287000  0.43607000  0.53103000  1.0
  O  O87  1  0.76716000  0.56393000  0.03102000  1.0
