# generated using pymatgen
data_NiH11C5SNO7
_symmetry_space_group_name_H-M   'P 1'
_cell_length_a   7.55214000
_cell_length_b   11.36720000
_cell_length_c   11.86800000
_cell_angle_alpha   110.82500000
_cell_angle_beta   90.00000000
_cell_angle_gamma   90.00000000
_symmetry_Int_Tables_number   1
_chemical_formula_structural   NiH11C5SNO7
_chemical_formula_sum   'Ni4 H44 C20 S4 N4 O28'
_cell_volume   952.26905828
_cell_formula_units_Z   4
loop_
 _symmetry_equiv_pos_site_id
 _symmetry_equiv_pos_as_xyz
  1  'x, y, z'
loop_
 _atom_site_type_symbol
 _atom_site_label
 _atom_site_symmetry_multiplicity
 _atom_site_fract_x
 _atom_site_fract_y
 _atom_site_fract_z
 _atom_site_occupancy
  Ni  Ni0  1  0.58975000  0.21026000  0.65707000  1.0
  Ni  Ni1  1  0.08975000  0.28974000  0.34293000  1.0
  Ni  Ni2  1  0.41025000  0.78974000  0.34293000  1.0
  Ni  Ni3  1  0.91025000  0.71026000  0.65707000  1.0
  H  H4  1  0.25670000  0.12653000  0.61478000  1.0
  H  H5  1  0.75670000  0.37348000  0.38522000  1.0
  H  H6  1  0.74331000  0.87347000  0.38522000  1.0
  H  H7  1  0.24330000  0.62653000  0.61478000  1.0
  H  H8  1  0.38533000  0.01292000  0.60321000  1.0
  H  H9  1  0.88533000  0.48707000  0.39679000  1.0
  H  H10  1  0.61467000  0.98708000  0.39679000  1.0
  H  H11  1  0.11468000  0.51292000  0.60321000  1.0
  H  H12  1  0.32384000  0.36712000  0.69521000  1.0
  H  H13  1  0.82384000  0.13288000  0.30479000  1.0
  H  H14  1  0.67617000  0.63288000  0.30479000  1.0
  H  H15  1  0.17616000  0.86712000  0.69521000  1.0
  H  H16  1  0.45024000  0.37711000  0.59014000  1.0
  H  H17  1  0.95024000  0.12289000  0.40986000  1.0
  H  H18  1  0.54976000  0.62289000  0.40986000  1.0
  H  H19  1  0.04976000  0.87711000  0.59014000  1.0
  H  H20  1  0.73340000  0.97112000  0.63276000  1.0
  H  H21  1  0.23340000  0.52888000  0.36724000  1.0
  H  H22  1  0.26660000  0.02888000  0.36724000  1.0
  H  H23  1  0.76660000  0.47112000  0.63276000  1.0
  H  H24  1  0.87062000  0.07039000  0.60774000  1.0
  H  H25  1  0.37061000  0.42961000  0.39227000  1.0
  H  H26  1  0.12938000  0.92962000  0.39227000  1.0
  H  H27  1  0.62938000  0.57039000  0.60773000  1.0
  H  H28  1  0.69209000  0.44621000  0.85341000  1.0
  H  H29  1  0.19210000  0.05379000  0.14660000  1.0
  H  H30  1  0.30790000  0.55379000  0.14660000  1.0
  H  H31  1  0.80791000  0.94621000  0.85340000  1.0
  H  H32  1  0.72046000  0.52143000  0.07875000  1.0
  H  H33  1  0.22046000  0.97857000  0.92125000  1.0
  H  H34  1  0.27954000  0.47857000  0.92125000  1.0
  H  H35  1  0.77954000  0.02142000  0.07875000  1.0
  H  H36  1  0.64970000  0.37120000  0.18465000  1.0
  H  H37  1  0.14970000  0.12880000  0.81535000  1.0
  H  H38  1  0.35030000  0.62880000  0.81535000  1.0
  H  H39  1  0.85030000  0.87120000  0.18465000  1.0
  H  H40  1  0.55366000  0.15292000  0.06138000  1.0
  H  H41  1  0.05366000  0.34708000  0.93862000  1.0
  H  H42  1  0.44633000  0.84708000  0.93862000  1.0
  H  H43  1  0.94633000  0.65292000  0.06138000  1.0
  H  H44  1  0.53470000  0.09144000  0.83623000  1.0
  H  H45  1  0.03470000  0.40856000  0.16377000  1.0
  H  H46  1  0.46530000  0.90856000  0.16377000  1.0
  H  H47  1  0.96530000  0.59143000  0.83623000  1.0
  C  C48  1  0.66431000  0.38464000  0.90360000  1.0
  C  C49  1  0.16432000  0.11537000  0.09640000  1.0
  C  C50  1  0.33568000  0.61536000  0.09640000  1.0
  C  C51  1  0.83569000  0.88463000  0.90360000  1.0
  C  C52  1  0.67876000  0.42546000  0.02843000  1.0
  C  C53  1  0.17876000  0.07454000  0.97158000  1.0
  C  C54  1  0.32123000  0.57454000  0.97157000  1.0
  C  C55  1  0.82124000  0.92545000  0.02843000  1.0
  C  C56  1  0.63876000  0.34207000  0.08710000  1.0
  C  C57  1  0.13876000  0.15793000  0.91290000  1.0
  C  C58  1  0.36123000  0.65793000  0.91290000  1.0
  C  C59  1  0.86124000  0.84207000  0.08710000  1.0
  C  C60  1  0.58708000  0.21990000  0.01821000  1.0
  C  C61  1  0.08708000  0.28010000  0.98179000  1.0
  C  C62  1  0.41292000  0.78010000  0.98179000  1.0
  C  C63  1  0.91291000  0.71990000  0.01821000  1.0
  C  C64  1  0.57639000  0.18544000  0.89367000  1.0
  C  C65  1  0.07640000  0.31456000  0.10633000  1.0
  C  C66  1  0.42360000  0.81456000  0.10633000  1.0
  C  C67  1  0.92360000  0.68544000  0.89367000  1.0
  S  S68  1  0.51164000  0.20428000  0.37766000  1.0
  S  S69  1  0.01164000  0.29572000  0.62234000  1.0
  S  S70  1  0.48836000  0.79572000  0.62234000  1.0
  S  S71  1  0.98836000  0.70428000  0.37766000  1.0
  N  N72  1  0.61327000  0.26674000  0.83751000  1.0
  N  N73  1  0.11328000  0.23326000  0.16249000  1.0
  N  N74  1  0.38672000  0.73326000  0.16249000  1.0
  N  N75  1  0.88672000  0.76674000  0.83751000  1.0
  O  O76  1  0.58059000  0.14271000  0.46221000  1.0
  O  O77  1  0.08059000  0.35729000  0.53779000  1.0
  O  O78  1  0.41941000  0.85730000  0.53779000  1.0
  O  O79  1  0.91941000  0.64271000  0.46221000  1.0
  O  O80  1  0.31846000  0.17514000  0.35761000  1.0
  O  O81  1  0.81847000  0.32486000  0.64239000  1.0
  O  O82  1  0.68154000  0.82486000  0.64239000  1.0
  O  O83  1  0.18154000  0.67514000  0.35761000  1.0
  O  O84  1  0.61157000  0.15415000  0.26379000  1.0
  O  O85  1  0.11157000  0.34585000  0.73621000  1.0
  O  O86  1  0.38843000  0.84586000  0.73622000  1.0
  O  O87  1  0.88843000  0.65416000  0.26378000  1.0
  O  O88  1  0.53659000  0.34415000  0.43561000  1.0
  O  O89  1  0.03658000  0.15585000  0.56440000  1.0
  O  O90  1  0.46341000  0.65584000  0.56439000  1.0
  O  O91  1  0.96342000  0.84416000  0.43562000  1.0
  O  O92  1  0.36306000  0.10360000  0.65117000  1.0
  O  O93  1  0.86307000  0.39640000  0.34884000  1.0
  O  O94  1  0.63695000  0.89641000  0.34883000  1.0
  O  O95  1  0.13695000  0.60359000  0.65116000  1.0
  O  O96  1  0.44966000  0.37261000  0.67177000  1.0
  O  O97  1  0.94966000  0.12740000  0.32823000  1.0
  O  O98  1  0.55034000  0.62739000  0.32823000  1.0
  O  O99  1  0.05034000  0.87261000  0.67177000  1.0
  O  O100  1  0.75375000  0.05951000  0.63970000  1.0
  O  O101  1  0.25375000  0.44049000  0.36031000  1.0
  O  O102  1  0.24625000  0.94049000  0.36031000  1.0
  O  O103  1  0.74625000  0.55951000  0.63968000  1.0
