# generated using pymatgen
data_Cu2H32C39(N2O5)2
_symmetry_space_group_name_H-M   'P 1'
_cell_length_a   12.82190000
_cell_length_b   13.69720000
_cell_length_c   18.80440000
_cell_angle_alpha   103.99600000
_cell_angle_beta   99.88830000
_cell_angle_gamma   113.63500000
_symmetry_Int_Tables_number   1
_chemical_formula_structural   Cu2H32C39(N2O5)2
_chemical_formula_sum   'Cu4 H64 C78 N8 O20'
_cell_volume   2798.34812242
_cell_formula_units_Z   2
loop_
 _symmetry_equiv_pos_site_id
 _symmetry_equiv_pos_as_xyz
  1  'x, y, z'
loop_
 _atom_site_type_symbol
 _atom_site_label
 _atom_site_symmetry_multiplicity
 _atom_site_fract_x
 _atom_site_fract_y
 _atom_site_fract_z
 _atom_site_occupancy
  Cu  Cu0  1  0.94714000  0.89158000  0.96875000  1.0
  Cu  Cu1  1  0.43601000  0.52568000  0.45428000  1.0
  Cu  Cu2  1  0.05286000  0.10842000  0.03125000  1.0
  Cu  Cu3  1  0.56399000  0.47432000  0.54572000  1.0
  H  H4  1  0.77546000  0.70220000  0.00571000  1.0
  H  H5  1  0.74890000  0.38617000  0.56426000  1.0
  H  H6  1  0.70171000  0.33986000  0.82692000  1.0
  H  H7  1  0.85167000  0.39691000  0.82878000  1.0
  H  H8  1  0.98870000  0.75467000  0.83482000  1.0
  H  H9  1  0.98937000  0.62054000  0.80820000  1.0
  H  H10  1  0.87183000  0.63650000  0.75642000  1.0
  H  H11  1  0.59328000  0.48220000  0.97155000  1.0
  H  H12  1  0.62633000  0.37422000  0.92452000  1.0
  H  H13  1  0.71410000  0.46620000  0.01980000  1.0
  H  H14  1  0.48984000  0.44852000  0.68966000  1.0
  H  H15  1  0.52749000  0.40449000  0.76829000  1.0
  H  H16  1  0.60950000  0.54684000  0.77432000  1.0
  H  H17  1  0.94334000  0.38593000  0.64307000  1.0
  H  H18  1  0.94940000  0.38230000  0.73745000  1.0
  H  H19  1  0.85496000  0.25789000  0.65689000  1.0
  H  H20  1  0.43386000  0.81486000  0.61476000  1.0
  H  H21  1  0.69829000  0.76293000  0.39956000  1.0
  H  H22  1  0.45900000  0.96992000  0.73040000  1.0
  H  H23  1  0.87281000  0.90196000  0.37410000  1.0
  H  H24  1  0.68414000  0.88334000  0.87322000  1.0
  H  H25  1  0.10779000  0.82136000  0.51347000  1.0
  H  H26  1  0.65777000  0.72943000  0.75832000  1.0
  H  H27  1  0.93138000  0.68205000  0.53907000  1.0
  H  H28  1  0.20992000  0.83305000  0.88466000  1.0
  H  H29  1  0.16131000  0.15509000  0.27382000  1.0
  H  H30  1  0.37945000  0.83396000  0.83622000  1.0
  H  H31  1  0.18141000  0.13403000  0.40353000  1.0
  H  H32  1  0.58694000  0.19200000  0.96303000  1.0
  H  H33  1  0.98199000  0.77134000  0.29501000  1.0
  H  H34  1  0.41449000  0.19062000  0.00995000  1.0
  H  H35  1  0.96881000  0.79263000  0.16578000  1.0
  H  H36  1  0.22454000  0.29780000  0.99429000  1.0
  H  H37  1  0.25110000  0.61383000  0.43574000  1.0
  H  H38  1  0.29829000  0.66014000  0.17308000  1.0
  H  H39  1  0.14833000  0.60309000  0.17121000  1.0
  H  H40  1  0.01131000  0.24533000  0.16518000  1.0
  H  H41  1  0.01062000  0.37945000  0.19179000  1.0
  H  H42  1  0.12817000  0.36349000  0.24357000  1.0
  H  H43  1  0.40672000  0.51780000  0.02845000  1.0
  H  H44  1  0.37366000  0.62578000  0.07548000  1.0
  H  H45  1  0.28589000  0.53380000  0.98020000  1.0
  H  H46  1  0.51015000  0.55147000  0.31035000  1.0
  H  H47  1  0.47251000  0.59550000  0.23172000  1.0
  H  H48  1  0.39050000  0.45316000  0.22569000  1.0
  H  H49  1  0.05666000  0.61407000  0.35692000  1.0
  H  H50  1  0.05060000  0.61769000  0.26254000  1.0
  H  H51  1  0.14503000  0.74211000  0.34311000  1.0
  H  H52  1  0.56614000  0.18515000  0.38525000  1.0
  H  H53  1  0.30170000  0.23708000  0.60044000  1.0
  H  H54  1  0.54101000  0.03008000  0.26960000  1.0
  H  H55  1  0.12719000  0.09805000  0.62590000  1.0
  H  H56  1  0.31588000  0.11667000  0.12678000  1.0
  H  H57  1  0.89220000  0.17865000  0.48652000  1.0
  H  H58  1  0.34224000  0.27058000  0.24169000  1.0
  H  H59  1  0.06861000  0.31796000  0.46093000  1.0
  H  H60  1  0.79008000  0.16695000  0.11534000  1.0
  H  H61  1  0.83869000  0.84491000  0.72618000  1.0
  H  H62  1  0.62055000  0.16605000  0.16378000  1.0
  H  H63  1  0.81859000  0.86596000  0.59647000  1.0
  H  H64  1  0.41306000  0.80800000  0.03697000  1.0
  H  H65  1  0.01800000  0.22866000  0.70499000  1.0
  H  H66  1  0.58551000  0.80939000  0.99004000  1.0
  H  H67  1  0.03118000  0.20736000  0.83422000  1.0
  C  C68  1  0.86420000  0.63072000  0.86862000  1.0
  C  C69  1  0.79463000  0.52151000  0.87163000  1.0
  C  C70  1  0.74737000  0.54079000  0.93206000  1.0
  C  C71  1  0.64746000  0.42777000  0.70021000  1.0
  C  C72  1  0.73699000  0.40294000  0.73468000  1.0
  C  C73  1  0.79134000  0.38209000  0.67866000  1.0
  C  C74  1  0.77177000  0.40983000  0.81689000  1.0
  C  C75  1  0.93252000  0.66258000  0.81413000  1.0
  C  C76  1  0.66643000  0.46216000  0.96374000  1.0
  C  C77  1  0.56357000  0.45839000  0.73476000  1.0
  C  C78  1  0.88960000  0.35051000  0.67873000  1.0
  C  C79  1  0.54278000  0.76165000  0.67975000  1.0
  C  C80  1  0.80394000  0.71212000  0.46918000  1.0
  C  C81  1  0.48755000  0.83015000  0.67170000  1.0
  C  C82  1  0.78807000  0.77517000  0.42334000  1.0
  C  C83  1  0.50186000  0.91637000  0.73557000  1.0
  C  C84  1  0.88483000  0.85252000  0.40935000  1.0
  C  C85  1  0.57186000  0.93375000  0.80773000  1.0
  C  C86  1  0.99924000  0.86676000  0.44112000  1.0
  C  C87  1  0.62878000  0.86780000  0.81681000  1.0
  C  C88  1  0.01734000  0.80707000  0.48866000  1.0
  C  C89  1  0.61380000  0.78176000  0.75246000  1.0
  C  C90  1  0.91948000  0.72987000  0.50250000  1.0
  C  C91  1  0.30054000  0.01190000  0.94920000  1.0
  C  C92  1  0.06420000  0.97492000  0.21183000  1.0
  C  C93  1  0.29220000  0.91170000  0.90089000  1.0
  C  C94  1  0.12421000  0.07118000  0.27875000  1.0
  C  C95  1  0.38657000  0.91210000  0.87379000  1.0
  C  C96  1  0.13538000  0.06010000  0.35104000  1.0
  C  C97  1  0.49179000  0.01420000  0.89565000  1.0
  C  C98  1  0.08384000  0.95194000  0.35607000  1.0
  C  C99  1  0.50286000  0.11453000  0.94544000  1.0
  C  C100  1  0.02293000  0.85491000  0.28983000  1.0
  C  C101  1  0.40739000  0.11304000  0.97157000  1.0
  C  C102  1  0.01444000  0.86685000  0.21816000  1.0
  C  C103  1  0.52620000  0.66752000  0.61171000  1.0
  C  C104  1  0.69726000  0.62940000  0.48254000  1.0
  C  C105  1  0.04889000  0.98561000  0.13411000  1.0
  C  C106  1  0.19568000  0.01023000  0.97406000  1.0
  C  C107  1  0.13580000  0.36928000  0.13138000  1.0
  C  C108  1  0.20536000  0.47848000  0.12837000  1.0
  C  C109  1  0.25262000  0.45920000  0.06794000  1.0
  C  C110  1  0.35254000  0.57223000  0.29979000  1.0
  C  C111  1  0.26301000  0.59705000  0.26532000  1.0
  C  C112  1  0.20865000  0.61790000  0.32134000  1.0
  C  C113  1  0.22822000  0.59017000  0.18311000  1.0
  C  C114  1  0.06748000  0.33742000  0.18587000  1.0
  C  C115  1  0.33357000  0.53784000  0.03626000  1.0
  C  C116  1  0.43642000  0.54161000  0.26524000  1.0
  C  C117  1  0.11039000  0.64949000  0.32126000  1.0
  C  C118  1  0.45724000  0.23836000  0.32026000  1.0
  C  C119  1  0.19606000  0.28788000  0.53082000  1.0
  C  C120  1  0.51246000  0.16985000  0.32831000  1.0
  C  C121  1  0.21193000  0.22484000  0.57666000  1.0
  C  C122  1  0.49816000  0.08364000  0.26443000  1.0
  C  C123  1  0.11516000  0.14748000  0.59065000  1.0
  C  C124  1  0.42815000  0.06626000  0.19228000  1.0
  C  C125  1  0.00076000  0.13325000  0.55888000  1.0
  C  C126  1  0.37123000  0.13221000  0.18319000  1.0
  C  C127  1  0.98266000  0.19293000  0.51134000  1.0
  C  C128  1  0.38622000  0.21825000  0.24755000  1.0
  C  C129  1  0.08052000  0.27014000  0.49750000  1.0
  C  C130  1  0.69946000  0.98809000  0.05080000  1.0
  C  C131  1  0.93579000  0.02508000  0.78817000  1.0
  C  C132  1  0.70781000  0.08830000  0.09911000  1.0
  C  C133  1  0.87579000  0.92882000  0.72125000  1.0
  C  C134  1  0.61344000  0.08791000  0.12622000  1.0
  C  C135  1  0.86462000  0.93990000  0.64896000  1.0
  C  C136  1  0.50822000  0.98581000  0.10436000  1.0
  C  C137  1  0.91616000  0.04806000  0.64393000  1.0
  C  C138  1  0.49715000  0.88547000  0.05456000  1.0
  C  C139  1  0.97706000  0.14509000  0.71017000  1.0
  C  C140  1  0.59261000  0.88696000  0.02843000  1.0
  C  C141  1  0.98555000  0.13315000  0.78184000  1.0
  C  C142  1  0.47382000  0.33249000  0.38829000  1.0
  C  C143  1  0.30274000  0.37061000  0.51746000  1.0
  C  C144  1  0.95111000  0.01438000  0.86589000  1.0
  C  C145  1  0.80432000  0.98977000  0.02594000  1.0
  N  N146  1  0.85981000  0.71051000  0.92372000  1.0
  N  N147  1  0.78931000  0.65510000  0.96121000  1.0
  N  N148  1  0.64735000  0.42239000  0.62802000  1.0
  N  N149  1  0.73440000  0.39477000  0.61622000  1.0
  N  N150  1  0.14019000  0.28948000  0.07628000  1.0
  N  N151  1  0.21069000  0.34490000  0.03879000  1.0
  N  N152  1  0.35265000  0.57761000  0.37198000  1.0
  N  N153  1  0.26560000  0.60523000  0.38378000  1.0
  O  O154  1  0.45836000  0.65050000  0.54693000  1.0
  O  O155  1  0.59725000  0.62074000  0.44836000  1.0
  O  O156  1  0.71338000  0.57559000  0.52648000  1.0
  O  O157  1  0.58153000  0.61115000  0.62455000  1.0
  O  O158  1  0.10615000  0.91326000  0.95642000  1.0
  O  O159  1  0.99269000  0.89323000  0.07647000  1.0
  O  O160  1  0.20231000  0.10574000  0.01016000  1.0
  O  O161  1  0.09107000  0.08579000  0.13129000  1.0
  O  O162  1  0.58964000  0.02143000  0.87212000  1.0
  O  O163  1  0.09831000  0.94259000  0.42865000  1.0
  O  O164  1  0.54165000  0.34951000  0.45308000  1.0
  O  O165  1  0.40274000  0.37926000  0.55164000  1.0
  O  O166  1  0.28662000  0.42442000  0.47352000  1.0
  O  O167  1  0.41847000  0.38885000  0.37545000  1.0
  O  O168  1  0.89386000  0.08674000  0.04358000  1.0
  O  O169  1  0.00730000  0.10677000  0.92353000  1.0
  O  O170  1  0.79769000  0.89425000  0.98984000  1.0
  O  O171  1  0.90893000  0.91421000  0.86871000  1.0
  O  O172  1  0.41037000  0.97858000  0.12788000  1.0
  O  O173  1  0.90169000  0.05741000  0.57135000  1.0
