# generated using pymatgen
data_MnH32C54S2(N5O4)2
_symmetry_space_group_name_H-M   'P 1'
_cell_length_a   13.24300000
_cell_length_b   15.58020000
_cell_length_c   15.62522813
_cell_angle_alpha   77.83374405
_cell_angle_beta   64.93994147
_cell_angle_gamma   89.97330000
_symmetry_Int_Tables_number   1
_chemical_formula_structural   MnH32C54S2(N5O4)2
_chemical_formula_sum   'Mn2 H64 C108 S4 N20 O16'
_cell_volume   2840.46075106
_cell_formula_units_Z   2
loop_
 _symmetry_equiv_pos_site_id
 _symmetry_equiv_pos_as_xyz
  1  'x, y, z'
loop_
 _atom_site_type_symbol
 _atom_site_label
 _atom_site_symmetry_multiplicity
 _atom_site_fract_x
 _atom_site_fract_y
 _atom_site_fract_z
 _atom_site_occupancy
  Mn  Mn0  1  0.77007000  0.24982000  0.00006000  1.0
  Mn  Mn1  1  0.22993000  0.75017000  0.99994000  1.0
  H  H2  1  0.00207000  0.17087000  0.93912000  1.0
  H  H3  1  0.94107000  0.32914000  0.06089000  1.0
  H  H4  1  0.99792000  0.82913000  0.06086000  1.0
  H  H5  1  0.05892000  0.67087000  0.93911000  1.0
  H  H6  1  0.51774000  0.39584000  0.83037000  1.0
  H  H7  1  0.34801000  0.10390000  0.16968000  1.0
  H  H8  1  0.48224000  0.60416000  0.16965000  1.0
  H  H9  1  0.65198000  0.89608000  0.83033000  1.0
  H  H10  1  0.06853000  0.92567000  0.14604000  1.0
  H  H11  1  0.21427000  0.57421000  0.85413000  1.0
  H  H12  1  0.93147000  0.07435000  0.85394000  1.0
  H  H13  1  0.78572000  0.42577000  0.14589000  1.0
  H  H14  1  0.08644000  0.00403000  0.20868000  1.0
  H  H15  1  0.29468000  0.49570000  0.79159000  1.0
  H  H16  1  0.91357000  0.99599000  0.79129000  1.0
  H  H17  1  0.70531000  0.50429000  0.20843000  1.0
  H  H18  1  0.67253000  0.57695000  0.92443000  1.0
  H  H19  1  0.59662000  0.92248000  0.07578000  1.0
  H  H20  1  0.32745000  0.42304000  0.07556000  1.0
  H  H21  1  0.40333000  0.07752000  0.92423000  1.0
  H  H22  1  0.10307000  0.06502000  0.00802000  1.0
  H  H23  1  0.11068000  0.43513000  0.99207000  1.0
  H  H24  1  0.89691000  0.93497000  0.99197000  1.0
  H  H25  1  0.88930000  0.56488000  0.00792000  1.0
  H  H26  1  0.80292000  0.84704000  0.70834000  1.0
  H  H27  1  0.51125000  0.65283000  0.29188000  1.0
  H  H28  1  0.19710000  0.15296000  0.29165000  1.0
  H  H29  1  0.48874000  0.34717000  0.70812000  1.0
  H  H30  1  0.61088000  0.27667000  0.89201000  1.0
  H  H31  1  0.50288000  0.22283000  0.10827000  1.0
  H  H32  1  0.38910000  0.72333000  0.10799000  1.0
  H  H33  1  0.49712000  0.77715000  0.89175000  1.0
  H  H34  1  0.75754000  0.44821000  0.98629000  1.0
  H  H35  1  0.74355000  0.05099000  0.01426000  1.0
  H  H36  1  0.24246000  0.55180000  0.01370000  1.0
  H  H37  1  0.25643000  0.94899000  0.98575000  1.0
  H  H38  1  0.81053000  0.02005000  0.28433000  1.0
  H  H39  1  0.09443000  0.48009000  0.71572000  1.0
  H  H40  1  0.18950000  0.97998000  0.71567000  1.0
  H  H41  1  0.90560000  0.51989000  0.28429000  1.0
  H  H42  1  0.72150000  0.12803000  0.20497000  1.0
  H  H43  1  0.92637000  0.37194000  0.79498000  1.0
  H  H44  1  0.27853000  0.87200000  0.79503000  1.0
  H  H45  1  0.07368000  0.62804000  0.20499000  1.0
  H  H46  1  0.46359000  0.54667000  0.82571000  1.0
  H  H47  1  0.28911000  0.95323000  0.17418000  1.0
  H  H48  1  0.53641000  0.45333000  0.17428000  1.0
  H  H49  1  0.71087000  0.04678000  0.82583000  1.0
  H  H50  1  0.50506000  0.61489000  0.88676000  1.0
  H  H51  1  0.39150000  0.88484000  0.11324000  1.0
  H  H52  1  0.49494000  0.38511000  0.11323000  1.0
  H  H53  1  0.60849000  0.11516000  0.88676000  1.0
  H  H54  1  0.91869000  0.94866000  0.55044000  1.0
  H  H55  1  0.46898000  0.55117000  0.44980000  1.0
  H  H56  1  0.08132000  0.05134000  0.44956000  1.0
  H  H57  1  0.53104000  0.44882000  0.55019000  1.0
  H  H58  1  0.64856000  0.58501000  0.48125000  1.0
  H  H59  1  0.12959000  0.91502000  0.51864000  1.0
  H  H60  1  0.35146000  0.41499000  0.51873000  1.0
  H  H61  1  0.87040000  0.08498000  0.48139000  1.0
  H  H62  1  0.76742000  0.68618000  0.32147000  1.0
  H  H63  1  0.08875000  0.81392000  0.67850000  1.0
  H  H64  1  0.23259000  0.31383000  0.67852000  1.0
  H  H65  1  0.91126000  0.18608000  0.32152000  1.0
  C  C66  1  0.81777000  0.79591000  0.46950000  1.0
  C  C67  1  0.28700000  0.70393000  0.53056000  1.0
  C  C68  1  0.18223000  0.20409000  0.53050000  1.0
  C  C69  1  0.71300000  0.29606000  0.46945000  1.0
  C  C70  1  0.75005000  0.73801000  0.56092000  1.0
  C  C71  1  0.31081000  0.76186000  0.43912000  1.0
  C  C72  1  0.24996000  0.26198000  0.43908000  1.0
  C  C73  1  0.68919000  0.23814000  0.56089000  1.0
  C  C74  1  0.96276000  0.13718000  0.01583000  1.0
  C  C75  1  0.97838000  0.36286000  0.98420000  1.0
  C  C76  1  0.03724000  0.86281000  0.98416000  1.0
  C  C77  1  0.02162000  0.63715000  0.01580000  1.0
  C  C78  1  0.58771000  0.49651000  0.87260000  1.0
  C  C79  1  0.46011000  0.00313000  0.12745000  1.0
  C  C80  1  0.41230000  0.50348000  0.12739000  1.0
  C  C81  1  0.53986000  0.99686000  0.87256000  1.0
  C  C82  1  0.57027000  0.41084000  0.86431000  1.0
  C  C83  1  0.43448000  0.08880000  0.13584000  1.0
  C  C84  1  0.42971000  0.58915000  0.13570000  1.0
  C  C85  1  0.56550000  0.91118000  0.86418000  1.0
  C  C86  1  0.87763000  0.87272000  0.46670000  1.0
  C  C87  1  0.34403000  0.62707000  0.53344000  1.0
  C  C88  1  0.12238000  0.12728000  0.53329000  1.0
  C  C89  1  0.65596000  0.37292000  0.46657000  1.0
  C  C90  1  0.68894000  0.66191000  0.56403000  1.0
  C  C91  1  0.25268000  0.83792000  0.43594000  1.0
  C  C92  1  0.31106000  0.33809000  0.43596000  1.0
  C  C93  1  0.74733000  0.16208000  0.56406000  1.0
  C  C94  1  0.02486000  0.96768000  0.19599000  1.0
  C  C95  1  0.22053000  0.53223000  0.80416000  1.0
  C  C96  1  0.97515000  0.03233000  0.80400000  1.0
  C  C97  1  0.77947000  0.46776000  0.19585000  1.0
  C  C98  1  0.82270000  0.77618000  0.38349000  1.0
  C  C99  1  0.20602000  0.72378000  0.61652000  1.0
  C  C100  1  0.17731000  0.22383000  0.61650000  1.0
  C  C101  1  0.79400000  0.27621000  0.38348000  1.0
  C  C102  1  0.65707000  0.51098000  0.91656000  1.0
  C  C103  1  0.57338000  0.98846000  0.08374000  1.0
  C  C104  1  0.34290000  0.48902000  0.08344000  1.0
  C  C105  1  0.42658000  0.01153000  0.91628000  1.0
  C  C106  1  0.94332000  0.93519000  0.37333000  1.0
  C  C107  1  0.31650000  0.56464000  0.62684000  1.0
  C  C108  1  0.05669000  0.06482000  0.62667000  1.0
  C  C109  1  0.68348000  0.43535000  0.37317000  1.0
  C  C110  1  0.01859000  0.07729000  0.05499000  1.0
  C  C111  1  0.07323000  0.42280000  0.94508000  1.0
  C  C112  1  0.98139000  0.92271000  0.94501000  1.0
  C  C113  1  0.92678000  0.57720000  0.05491000  1.0
  C  C114  1  0.80682000  0.83278000  0.64182000  1.0
  C  C115  1  0.44851000  0.66708000  0.35833000  1.0
  C  C116  1  0.19320000  0.16722000  0.35817000  1.0
  C  C117  1  0.55148000  0.33292000  0.64167000  1.0
  C  C118  1  0.62268000  0.34377000  0.89860000  1.0
  C  C119  1  0.52126000  0.15572000  0.10170000  1.0
  C  C120  1  0.37729000  0.65623000  0.10141000  1.0
  C  C121  1  0.47872000  0.84426000  0.89831000  1.0
  C  C122  1  0.70502000  0.44029000  0.94981000  1.0
  C  C123  1  0.65461000  0.05905000  0.05059000  1.0
  C  C124  1  0.29499000  0.55972000  0.05017000  1.0
  C  C125  1  0.34536000  0.94092000  0.94942000  1.0
  C  C126  1  0.85663000  0.05193000  0.20759000  1.0
  C  C127  1  0.06392000  0.44814000  0.79244000  1.0
  C  C128  1  0.14339000  0.94809000  0.79241000  1.0
  C  C129  1  0.93611000  0.55185000  0.20756000  1.0
  C  C130  1  0.96517000  0.03278000  0.15292000  1.0
  C  C131  1  0.11772000  0.46731000  0.84715000  1.0
  C  C132  1  0.03484000  0.96722000  0.84707000  1.0
  C  C133  1  0.88228000  0.53269000  0.15285000  1.0
  C  C134  1  0.89187000  0.83584000  0.28873000  1.0
  C  C135  1  0.18050000  0.66415000  0.71130000  1.0
  C  C136  1  0.10814000  0.16416000  0.71126000  1.0
  C  C137  1  0.81952000  0.33585000  0.28871000  1.0
  C  C138  1  0.80625000  0.11252000  0.16338000  1.0
  C  C139  1  0.96944000  0.38750000  0.83662000  1.0
  C  C140  1  0.19376000  0.88750000  0.83662000  1.0
  C  C141  1  0.03058000  0.61250000  0.16337000  1.0
  C  C142  1  0.67250000  0.70060000  0.74219000  1.0
  C  C143  1  0.41453000  0.79927000  0.25787000  1.0
  C  C144  1  0.32751000  0.29940000  0.25780000  1.0
  C  C145  1  0.58544000  0.20073000  0.74214000  1.0
  C  C146  1  0.53395000  0.57177000  0.83584000  1.0
  C  C147  1  0.36956000  0.92802000  0.16410000  1.0
  C  C148  1  0.46604000  0.42822000  0.16417000  1.0
  C  C149  1  0.63041000  0.07198000  0.83592000  1.0
  C  C150  1  0.63872000  0.26629000  0.20913000  1.0
  C  C151  1  0.84787000  0.23370000  0.79090000  1.0
  C  C152  1  0.36128000  0.73370000  0.79087000  1.0
  C  C153  1  0.15212000  0.76630000  0.20912000  1.0
  C  C154  1  0.87235000  0.89021000  0.55224000  1.0
  C  C155  1  0.42447000  0.60967000  0.44795000  1.0
  C  C156  1  0.12766000  0.10979000  0.44775000  1.0
  C  C157  1  0.57554000  0.39034000  0.55205000  1.0
  C  C158  1  0.61719000  0.60251000  0.65832000  1.0
  C  C159  1  0.27527000  0.89734000  0.34163000  1.0
  C  C160  1  0.38282000  0.39749000  0.34167000  1.0
  C  C161  1  0.72472000  0.10266000  0.65839000  1.0
  C  C162  1  0.74486000  0.75806000  0.64700000  1.0
  C  C163  1  0.39171000  0.74180000  0.35307000  1.0
  C  C164  1  0.25514000  0.24194000  0.35300000  1.0
  C  C165  1  0.60829000  0.25821000  0.64693000  1.0
  C  C166  1  0.69576000  0.64364000  0.47820000  1.0
  C  C167  1  0.17370000  0.85630000  0.52172000  1.0
  C  C168  1  0.30425000  0.35636000  0.52178000  1.0
  C  C169  1  0.82631000  0.14370000  0.47829000  1.0
  C  C170  1  0.76220000  0.70052000  0.38844000  1.0
  C  C171  1  0.15043000  0.79947000  0.61153000  1.0
  C  C172  1  0.23782000  0.29949000  0.61154000  1.0
  C  C173  1  0.84959000  0.20054000  0.38847000  1.0
  S  S174  1  0.55908000  0.23020000  0.32252000  1.0
  S  S175  1  0.88168000  0.26995000  0.67750000  1.0
  S  S176  1  0.44093000  0.76981000  0.67748000  1.0
  S  S177  1  0.11833000  0.73003000  0.32250000  1.0
  N  N178  1  0.68880000  0.35789000  0.94088000  1.0
  N  N179  1  0.62962000  0.14150000  0.05948000  1.0
  N  N180  1  0.31117000  0.64213000  0.05911000  1.0
  N  N181  1  0.37036000  0.85847000  0.94053000  1.0
  N  N182  1  0.95168000  0.90997000  0.28956000  1.0
  N  N183  1  0.24106000  0.58994000  0.71054000  1.0
  N  N184  1  0.04832000  0.09003000  0.71044000  1.0
  N  N185  1  0.75894000  0.41006000  0.28948000  1.0
  N  N186  1  0.61289000  0.62669000  0.74166000  1.0
  N  N187  1  0.35423000  0.87311000  0.25834000  1.0
  N  N188  1  0.38711000  0.37331000  0.25834000  1.0
  N  N189  1  0.64575000  0.12690000  0.74167000  1.0
  N  N190  1  0.85765000  0.15453000  0.06896000  1.0
  N  N191  1  0.92653000  0.34539000  0.93101000  1.0
  N  N192  1  0.14236000  0.84548000  0.93104000  1.0
  N  N193  1  0.07351000  0.65461000  0.06897000  1.0
  N  N194  1  0.69926000  0.29290000  0.12431000  1.0
  N  N195  1  0.82347000  0.20691000  0.87573000  1.0
  N  N196  1  0.30075000  0.70709000  0.87569000  1.0
  N  N197  1  0.17653000  0.79309000  0.12427000  1.0
  O  O198  1  0.98866000  0.00752000  0.36588000  1.0
  O  O199  1  0.35448000  0.49233000  0.63434000  1.0
  O  O200  1  0.01133000  0.99250000  0.63412000  1.0
  O  O201  1  0.64550000  0.50767000  0.36567000  1.0
  O  O202  1  0.56224000  0.53457000  0.66709000  1.0
  O  O203  1  0.22922000  0.96539000  0.33283000  1.0
  O  O204  1  0.43776000  0.46545000  0.33290000  1.0
  O  O205  1  0.77077000  0.03460000  0.66718000  1.0
  O  O206  1  0.66264000  0.71545000  0.82016000  1.0
  O  O207  1  0.48280000  0.78450000  0.17994000  1.0
  O  O208  1  0.33736000  0.28456000  0.17983000  1.0
  O  O209  1  0.51717000  0.21550000  0.82007000  1.0
  O  O210  1  0.89756000  0.82429000  0.21101000  1.0
  O  O211  1  0.10856000  0.67581000  0.78899000  1.0
  O  O212  1  0.10245000  0.17572000  0.78898000  1.0
  O  O213  1  0.89150000  0.32422000  0.21102000  1.0
