# generated using pymatgen
data_ZnPH7C3NO3
_symmetry_space_group_name_H-M   'P 1'
_cell_length_a   10.15547892
_cell_length_b   10.15860000
_cell_length_c   13.26040000
_cell_angle_alpha   90.01770000
_cell_angle_beta   89.99999983
_cell_angle_gamma   119.99048865
_symmetry_Int_Tables_number   1
_chemical_formula_structural   ZnPH7C3NO3
_chemical_formula_sum   'Zn6 P6 H42 C18 N6 O18'
_cell_volume   1184.84929316
_cell_formula_units_Z   6
loop_
 _symmetry_equiv_pos_site_id
 _symmetry_equiv_pos_as_xyz
  1  'x, y, z'
loop_
 _atom_site_type_symbol
 _atom_site_label
 _atom_site_symmetry_multiplicity
 _atom_site_fract_x
 _atom_site_fract_y
 _atom_site_fract_z
 _atom_site_occupancy
  Zn  Zn0  1  0.77160000  0.36136000  0.59086000  1.0
  Zn  Zn1  1  0.58972000  0.22833000  0.92425000  1.0
  Zn  Zn2  1  0.63854000  0.41021000  0.25745000  1.0
  Zn  Zn3  1  0.41024000  0.63864000  0.40914000  1.0
  Zn  Zn4  1  0.36139000  0.77166000  0.07575000  1.0
  Zn  Zn5  1  0.22833000  0.58980000  0.74255000  1.0
  P  P6  1  0.89020000  0.35859000  0.82082000  1.0
  P  P7  1  0.46824000  0.10973000  0.15420000  1.0
  P  P8  1  0.64144000  0.53153000  0.48740000  1.0
  P  P9  1  0.53161000  0.64141000  0.17919000  1.0
  P  P10  1  0.35851000  0.89028000  0.84579000  1.0
  P  P11  1  0.10990000  0.46846000  0.51260000  1.0
  H  H12  1  0.92692000  0.24093000  0.81476000  1.0
  H  H13  1  0.31390000  0.07327000  0.14823000  1.0
  H  H14  1  0.75924000  0.68583000  0.48140000  1.0
  H  H15  1  0.68599000  0.75908000  0.18524000  1.0
  H  H16  1  0.24063000  0.92673000  0.85177000  1.0
  H  H17  1  0.07340000  0.31417000  0.51860000  1.0
  H  H18  1  0.47832000  0.16091000  0.46940000  1.0
  H  H19  1  0.68266000  0.52161000  0.80288000  1.0
  H  H20  1  0.83909000  0.31755000  0.13576000  1.0
  H  H21  1  0.31741000  0.83908000  0.53061000  1.0
  H  H22  1  0.16105000  0.47838000  0.19712000  1.0
  H  H23  1  0.52154000  0.68245000  0.86424000  1.0
  H  H24  1  0.44277000  0.08674000  0.59508000  1.0
  H  H25  1  0.64384000  0.55702000  0.92859000  1.0
  H  H26  1  0.91330000  0.35596000  0.26148000  1.0
  H  H27  1  0.35603000  0.91326000  0.40492000  1.0
  H  H28  1  0.08682000  0.44298000  0.07141000  1.0
  H  H29  1  0.55734000  0.64404000  0.73852000  1.0
  H  H30  1  0.84033000  0.17459000  0.44514000  1.0
  H  H31  1  0.33451000  0.15980000  0.77821000  1.0
  H  H32  1  0.82523000  0.66562000  0.11183000  1.0
  H  H33  1  0.66575000  0.82542000  0.55486000  1.0
  H  H34  1  0.17471000  0.84020000  0.22179000  1.0
  H  H35  1  0.15961000  0.33438000  0.88816000  1.0
  H  H36  1  0.70255000  0.20584000  0.38339000  1.0
  H  H37  1  0.50359000  0.29765000  0.71666000  1.0
  H  H38  1  0.79413000  0.49671000  0.05002000  1.0
  H  H39  1  0.49672000  0.79416000  0.61661000  1.0
  H  H40  1  0.20594000  0.70234000  0.28334000  1.0
  H  H41  1  0.29742000  0.50329000  0.94997000  1.0
  H  H42  1  0.62495000  0.04152000  0.67937000  1.0
  H  H43  1  0.41638000  0.37490000  0.01268000  1.0
  H  H44  1  0.95849000  0.58332000  0.34608000  1.0
  H  H45  1  0.58343000  0.95848000  0.32063000  1.0
  H  H46  1  0.04149000  0.62510000  0.98732000  1.0
  H  H47  1  0.37517000  0.41668000  0.65392000  1.0
  H  H48  1  0.79336000  0.07685000  0.61541000  1.0
  H  H49  1  0.28338000  0.20659000  0.94860000  1.0
  H  H50  1  0.92316000  0.71638000  0.28215000  1.0
  H  H51  1  0.71651000  0.92315000  0.38459000  1.0
  H  H52  1  0.07679000  0.79341000  0.05140000  1.0
  H  H53  1  0.20678000  0.28362000  0.71785000  1.0
  C  C54  1  0.48852000  0.08218000  0.52104000  1.0
  C  C55  1  0.59363000  0.51136000  0.85449000  1.0
  C  C56  1  0.91784000  0.40638000  0.18749000  1.0
  C  C57  1  0.40634000  0.91781000  0.47897000  1.0
  C  C58  1  0.08227000  0.48864000  0.14550000  1.0
  C  C59  1  0.51146000  0.59362000  0.81251000  1.0
  C  C60  1  0.71818000  0.13042000  0.43474000  1.0
  C  C61  1  0.41241000  0.28194000  0.76796000  1.0
  C  C62  1  0.86952000  0.58775000  0.10144000  1.0
  C  C63  1  0.58777000  0.86959000  0.56525000  1.0
  C  C64  1  0.13047000  0.71806000  0.23204000  1.0
  C  C65  1  0.28177000  0.41225000  0.89856000  1.0
  C  C66  1  0.67102000  0.03398000  0.60615000  1.0
  C  C67  1  0.36284000  0.32889000  0.93942000  1.0
  C  C68  1  0.96605000  0.63693000  0.27288000  1.0
  C  C69  1  0.63704000  0.96603000  0.39385000  1.0
  C  C70  1  0.03395000  0.67111000  0.06058000  1.0
  C  C71  1  0.32912000  0.36308000  0.72712000  1.0
  N  N72  1  0.65396000  0.13742000  0.53438000  1.0
  N  N73  1  0.48345000  0.34598000  0.86769000  1.0
  N  N74  1  0.86256000  0.51650000  0.20102000  1.0
  N  N75  1  0.51654000  0.86258000  0.46562000  1.0
  N  N76  1  0.13748000  0.65403000  0.13231000  1.0
  N  N77  1  0.34605000  0.48349000  0.79898000  1.0
  O  O78  1  0.77921000  0.33084000  0.73454000  1.0
  O  O79  1  0.55153000  0.22057000  0.06791000  1.0
  O  O80  1  0.66908000  0.44815000  0.40117000  1.0
  O  O81  1  0.44837000  0.66917000  0.26546000  1.0
  O  O82  1  0.33097000  0.77945000  0.93209000  1.0
  O  O83  1  0.22093000  0.55184000  0.59884000  1.0
  O  O84  1  0.04003000  0.50967000  0.81682000  1.0
  O  O85  1  0.46923000  0.95977000  0.15019000  1.0
  O  O86  1  0.49039000  0.53042000  0.48327000  1.0
  O  O87  1  0.53035000  0.49032000  0.18319000  1.0
  O  O88  1  0.50945000  0.04024000  0.84980000  1.0
  O  O89  1  0.95997000  0.46958000  0.51673000  1.0
  O  O90  1  0.81177000  0.34075000  0.92321000  1.0
  O  O91  1  0.52898000  0.18822000  0.25657000  1.0
  O  O92  1  0.65918000  0.47096000  0.58981000  1.0
  O  O93  1  0.47101000  0.65924000  0.07679000  1.0
  O  O94  1  0.34076000  0.81178000  0.74343000  1.0
  O  O95  1  0.18822000  0.52904000  0.41019000  1.0
