# generated using pymatgen
data_CoH10(C3N2)4
_symmetry_space_group_name_H-M   'P 1'
_cell_length_a   8.15914000
_cell_length_b   8.19448000
_cell_length_c   10.19540000
_cell_angle_alpha   67.18450000
_cell_angle_beta   86.03180000
_cell_angle_gamma   78.51120000
_symmetry_Int_Tables_number   1
_chemical_formula_structural   CoH10(C3N2)4
_chemical_formula_sum   'Co2 H20 C24 N16'
_cell_volume   615.71524822
_cell_formula_units_Z   2
loop_
 _symmetry_equiv_pos_site_id
 _symmetry_equiv_pos_as_xyz
  1  'x, y, z'
loop_
 _atom_site_type_symbol
 _atom_site_label
 _atom_site_symmetry_multiplicity
 _atom_site_fract_x
 _atom_site_fract_y
 _atom_site_fract_z
 _atom_site_occupancy
  Co  Co0  1  0.48897000  0.69689000  0.51847000  1.0
  Co  Co1  1  0.51755000  0.30745000  0.47807000  1.0
  H  H2  1  0.46781000  0.87144000  0.21736000  1.0
  H  H3  1  0.52279000  0.13392000  0.78694000  1.0
  H  H4  1  0.60514000  0.08454000  0.01848000  1.0
  H  H5  1  0.39126000  0.90845000  0.98331000  1.0
  H  H6  1  0.88114000  0.14316000  0.06263000  1.0
  H  H7  1  0.11644000  0.84940000  0.93851000  1.0
  H  H8  1  0.02156000  0.95834000  0.29783000  1.0
  H  H9  1  0.97454000  0.03434000  0.70342000  1.0
  H  H10  1  0.84997000  0.58320000  0.58316000  1.0
  H  H11  1  0.15035000  0.41519000  0.42119000  1.0
  H  H12  1  0.12300000  0.81792000  0.48163000  1.0
  H  H13  1  0.87658000  0.18166000  0.51332000  1.0
  H  H14  1  0.94244000  0.48285000  0.79371000  1.0
  H  H15  1  0.06074000  0.52218000  0.20342000  1.0
  H  H16  1  0.09601000  0.30743000  0.02228000  1.0
  H  H17  1  0.90598000  0.69851000  0.97493000  1.0
  H  H18  1  0.39445000  0.34137000  0.03844000  1.0
  H  H19  1  0.60863000  0.66350000  0.95803000  1.0
  H  H20  1  0.52528000  0.53140000  0.82046000  1.0
  H  H21  1  0.47889000  0.46850000  0.17552000  1.0
  C  C22  1  0.59203000  0.89073000  0.23200000  1.0
  C  C23  1  0.40005000  0.11068000  0.77207000  1.0
  C  C24  1  0.66716000  0.01283000  0.12157000  1.0
  C  C25  1  0.32847000  0.98275000  0.88080000  1.0
  C  C26  1  0.82165000  0.04423000  0.14636000  1.0
  C  C27  1  0.17444000  0.95049000  0.85530000  1.0
  C  C28  1  0.89783000  0.94262000  0.27731000  1.0
  C  C29  1  0.09702000  0.05276000  0.72472000  1.0
  C  C30  1  0.82049000  0.81317000  0.38411000  1.0
  C  C31  1  0.17326000  0.18579000  0.62022000  1.0
  C  C32  1  0.91011000  0.69334000  0.51559000  1.0
  C  C33  1  0.08797000  0.30568000  0.48657000  1.0
  C  C34  1  0.06132000  0.70964000  0.55115000  1.0
  C  C35  1  0.93984000  0.28943000  0.44543000  1.0
  C  C36  1  0.15352000  0.59562000  0.68224000  1.0
  C  C37  1  0.85082000  0.40403000  0.31293000  1.0
  C  C38  1  0.07323000  0.48827000  0.80208000  1.0
  C  C39  1  0.93059000  0.51467000  0.19446000  1.0
  C  C40  1  0.15826000  0.39165000  0.93018000  1.0
  C  C41  1  0.84476000  0.61222000  0.06668000  1.0
  C  C42  1  0.32299000  0.40939000  0.93939000  1.0
  C  C43  1  0.68009000  0.59378000  0.05697000  1.0
  C  C44  1  0.39683000  0.51529000  0.81731000  1.0
  C  C45  1  0.60747000  0.48487000  0.17820000  1.0
  N  N46  1  0.66130000  0.79602000  0.36292000  1.0
  N  N47  1  0.32886000  0.20882000  0.64291000  1.0
  N  N48  1  0.31865000  0.60253000  0.69012000  1.0
  N  N49  1  0.68654000  0.39476000  0.30487000  1.0
  N  N50  1  0.62632000  0.42422000  0.58936000  1.0
  N  N51  1  0.38484000  0.57691000  0.40805000  1.0
  N  N52  1  0.69974000  0.34776000  0.70172000  1.0
  N  N53  1  0.30416000  0.65743000  0.29958000  1.0
  N  N54  1  0.77226000  0.27428000  0.81024000  1.0
  N  N55  1  0.22555000  0.73113000  0.19418000  1.0
  N  N56  1  0.62512000  0.92277000  0.60820000  1.0
  N  N57  1  0.37634000  0.07450000  0.39513000  1.0
  N  N58  1  0.59317000  0.77524000  0.64496000  1.0
  N  N59  1  0.40895000  0.22085000  0.35812000  1.0
  N  N60  1  0.66122000  0.06659000  0.57531000  1.0
  N  N61  1  0.33723000  0.93063000  0.42956000  1.0
