# generated using pymatgen
data_CdH24C34S(NO3)2
_symmetry_space_group_name_H-M   'P 1'
_cell_length_a   8.22760000
_cell_length_b   12.84130000
_cell_length_c   15.08230000
_cell_angle_alpha   85.84100000
_cell_angle_beta   78.17700000
_cell_angle_gamma   89.26380000
_symmetry_Int_Tables_number   1
_chemical_formula_structural   CdH24C34S(NO3)2
_chemical_formula_sum   'Cd2 H48 C68 S2 N4 O12'
_cell_volume   1555.57534640
_cell_formula_units_Z   2
loop_
 _symmetry_equiv_pos_site_id
 _symmetry_equiv_pos_as_xyz
  1  'x, y, z'
loop_
 _atom_site_type_symbol
 _atom_site_label
 _atom_site_symmetry_multiplicity
 _atom_site_fract_x
 _atom_site_fract_y
 _atom_site_fract_z
 _atom_site_occupancy
  Cd  Cd0  1  0.65322000  0.16686000  0.38484000  1.0
  Cd  Cd1  1  0.34679000  0.83315000  0.61516000  1.0
  H  H2  1  0.42911000  0.33674000  0.31540000  1.0
  H  H3  1  0.57091000  0.66326000  0.68461000  1.0
  H  H4  1  0.14789000  0.41336000  0.35402000  1.0
  H  H5  1  0.85213000  0.58664000  0.64597000  1.0
  H  H6  1  0.07669000  0.22971000  0.61126000  1.0
  H  H7  1  0.92328000  0.77030000  0.38872000  1.0
  H  H8  1  0.35842000  0.15738000  0.56110000  1.0
  H  H9  1  0.64154000  0.84263000  0.43890000  1.0
  H  H10  1  0.86417000  0.35539000  0.58749000  1.0
  H  H11  1  0.13580000  0.64463000  0.41249000  1.0
  H  H12  1  0.88602000  0.42853000  0.38614000  1.0
  H  H13  1  0.11401000  0.57149000  0.61382000  1.0
  H  H14  1  0.61535000  0.41455000  0.62700000  1.0
  H  H15  1  0.38467000  0.58548000  0.37297000  1.0
  H  H16  1  0.66725000  0.51305000  0.34260000  1.0
  H  H17  1  0.33279000  0.48697000  0.65736000  1.0
  H  H18  1  0.60561000  0.24566000  0.59278000  1.0
  H  H19  1  0.39440000  0.75435000  0.40723000  1.0
  H  H20  1  0.71731000  0.20330000  0.73114000  1.0
  H  H21  1  0.28267000  0.79670000  0.26886000  1.0
  H  H22  1  0.91943000  0.92036000  0.61268000  1.0
  H  H23  1  0.08055000  0.07963000  0.38733000  1.0
  H  H24  1  0.80202000  0.97787000  0.47625000  1.0
  H  H25  1  0.19797000  0.02213000  0.52375000  1.0
  H  H26  1  0.96430000  0.94766000  0.75580000  1.0
  H  H27  1  0.03569000  0.05234000  0.24420000  1.0
  H  H28  1  0.83695000  0.15264000  0.84149000  1.0
  H  H29  1  0.16303000  0.84736000  0.15852000  1.0
  H  H30  1  0.86666000  0.17410000  0.98928000  1.0
  H  H31  1  0.13333000  0.82589000  0.01072000  1.0
  H  H32  1  0.05016000  0.88841000  0.86905000  1.0
  H  H33  1  0.94983000  0.11158000  0.13095000  1.0
  H  H34  1  0.73885000  0.81235000  0.28194000  1.0
  H  H35  1  0.26115000  0.18763000  0.71807000  1.0
  H  H36  1  0.68419000  0.66608000  0.18939000  1.0
  H  H37  1  0.31581000  0.33391000  0.81062000  1.0
  H  H38  1  0.43568000  0.88268000  0.03035000  1.0
  H  H39  1  0.56430000  0.11730000  0.96968000  1.0
  H  H40  1  0.48887000  0.02695000  0.12452000  1.0
  H  H41  1  0.51111000  0.97303000  0.87551000  1.0
  H  H42  1  0.77548000  0.80303000  0.74357000  1.0
  H  H43  1  0.22454000  0.19698000  0.25643000  1.0
  H  H44  1  0.53010000  0.77144000  0.86921000  1.0
  H  H45  1  0.46992000  0.22858000  0.13080000  1.0
  H  H46  1  0.82503000  0.56664000  0.01315000  1.0
  H  H47  1  0.17498000  0.43335000  0.98684000  1.0
  H  H48  1  0.07135000  0.59726000  0.88330000  1.0
  H  H49  1  0.92864000  0.40272000  0.11669000  1.0
  C  C50  1  0.34574000  0.31457000  0.37993000  1.0
  C  C51  1  0.65426000  0.68543000  0.62007000  1.0
  C  C52  1  0.18827000  0.35672000  0.40224000  1.0
  C  C53  1  0.81174000  0.64329000  0.59774000  1.0
  C  C54  1  0.08499000  0.32806000  0.48685000  1.0
  C  C55  1  0.91502000  0.67195000  0.51313000  1.0
  C  C56  1  0.15072000  0.25611000  0.54510000  1.0
  C  C57  1  0.84926000  0.74389000  0.45489000  1.0
  C  C58  1  0.30881000  0.21590000  0.51754000  1.0
  C  C59  1  0.69116000  0.78410000  0.48246000  1.0
  C  C60  1  0.91881000  0.36910000  0.51531000  1.0
  C  C61  1  0.08121000  0.63091000  0.48467000  1.0
  C  C62  1  0.83042000  0.41847000  0.45845000  1.0
  C  C63  1  0.16961000  0.58154000  0.54152000  1.0
  C  C64  1  0.66314000  0.45864000  0.48191000  1.0
  C  C65  1  0.33686000  0.54139000  0.51806000  1.0
  C  C66  1  0.56512000  0.45061000  0.57062000  1.0
  C  C67  1  0.43488000  0.54942000  0.42934000  1.0
  C  C68  1  0.59403000  0.50897000  0.41184000  1.0
  C  C69  1  0.40596000  0.49106000  0.58812000  1.0
  C  C70  1  0.67884000  0.17509000  0.59900000  1.0
  C  C71  1  0.32115000  0.82491000  0.40100000  1.0
  C  C72  1  0.74219000  0.15093000  0.67619000  1.0
  C  C73  1  0.25780000  0.84906000  0.32381000  1.0
  C  C74  1  0.83364000  0.05804000  0.68348000  1.0
  C  C75  1  0.16636000  0.94196000  0.31652000  1.0
  C  C76  1  0.85229000  0.99393000  0.60995000  1.0
  C  C77  1  0.14768000  0.00607000  0.39006000  1.0
  C  C78  1  0.78647000  0.02482000  0.53468000  1.0
  C  C79  1  0.21352000  0.97518000  0.46532000  1.0
  C  C80  1  0.90344000  0.02360000  0.76123000  1.0
  C  C81  1  0.09654000  0.97639000  0.23878000  1.0
  C  C82  1  0.89510000  0.07559000  0.83721000  1.0
  C  C83  1  0.10489000  0.92441000  0.16280000  1.0
  C  C84  1  0.95173000  0.03632000  0.91816000  1.0
  C  C85  1  0.04826000  0.96368000  0.08184000  1.0
  C  C86  1  0.92594000  0.09785000  0.99391000  1.0
  C  C87  1  0.07406000  0.90215000  0.00609000  1.0
  C  C88  1  0.02723000  0.93764000  0.92615000  1.0
  C  C89  1  0.97277000  0.06236000  0.07385000  1.0
  C  C90  1  0.62729000  0.01099000  0.27234000  1.0
  C  C91  1  0.37271000  0.98898000  0.72767000  1.0
  C  C92  1  0.61480000  0.92750000  0.20929000  1.0
  C  C93  1  0.38518000  0.07248000  0.79073000  1.0
  C  C94  1  0.67354000  0.82661000  0.22642000  1.0
  C  C95  1  0.32646000  0.17338000  0.77360000  1.0
  C  C96  1  0.64366000  0.74562000  0.17531000  1.0
  C  C97  1  0.35634000  0.25436000  0.82471000  1.0
  C  C98  1  0.55505000  0.76666000  0.10617000  1.0
  C  C99  1  0.44495000  0.23334000  0.89385000  1.0
  C  C100  1  0.50371000  0.86797000  0.08484000  1.0
  C  C101  1  0.49626000  0.13203000  0.91518000  1.0
  C  C102  1  0.53379000  0.94818000  0.13680000  1.0
  C  C103  1  0.46619000  0.05180000  0.86323000  1.0
  C  C104  1  0.08830000  0.72686000  0.73298000  1.0
  C  C105  1  0.91169000  0.27311000  0.26702000  1.0
  C  C106  1  0.93775000  0.70168000  0.80622000  1.0
  C  C107  1  0.06225000  0.29831000  0.19378000  1.0
  C  C108  1  0.78561000  0.75071000  0.80222000  1.0
  C  C109  1  0.21441000  0.24930000  0.19779000  1.0
  C  C110  1  0.64853000  0.73402000  0.87293000  1.0
  C  C111  1  0.35149000  0.26599000  0.12707000  1.0
  C  C112  1  0.66676000  0.66869000  0.94851000  1.0
  C  C113  1  0.33328000  0.33131000  0.05148000  1.0
  C  C114  1  0.81622000  0.61770000  0.95340000  1.0
  C  C115  1  0.18380000  0.38230000  0.04659000  1.0
  C  C116  1  0.95170000  0.63390000  0.88146000  1.0
  C  C117  1  0.04831000  0.36609000  0.11853000  1.0
  S  S118  1  0.50237000  0.66114000  0.04588000  1.0
  S  S119  1  0.49762000  0.33886000  0.95412000  1.0
  N  N120  1  0.40580000  0.24473000  0.43623000  1.0
  N  N121  1  0.59417000  0.75528000  0.56378000  1.0
  N  N122  1  0.70113000  0.11435000  0.52822000  1.0
  N  N123  1  0.29888000  0.88566000  0.47179000  1.0
  O  O124  1  0.68139000  0.98565000  0.34457000  1.0
  O  O125  1  0.31864000  0.01435000  0.65544000  1.0
  O  O126  1  0.57952000  0.10314000  0.25300000  1.0
  O  O127  1  0.42048000  0.89684000  0.74704000  1.0
  O  O128  1  0.22027000  0.67480000  0.72955000  1.0
  O  O129  1  0.77971000  0.32518000  0.27042000  1.0
  O  O130  1  0.07481000  0.80605000  0.67708000  1.0
  O  O131  1  0.92525000  0.19395000  0.32293000  1.0
  O  O132  1  0.34727000  0.68826000  0.01823000  1.0
  O  O133  1  0.65275000  0.31174000  0.98177000  1.0
  O  O134  1  0.51741000  0.56504000  0.10044000  1.0
  O  O135  1  0.48261000  0.43493000  0.89956000  1.0
