# generated using pymatgen
data_Ag2H3C7NO4
_symmetry_space_group_name_H-M   'P 1'
_cell_length_a   6.71349000
_cell_length_b   10.22310000
_cell_length_c   10.96490000
_cell_angle_alpha   89.99990000
_cell_angle_beta   89.99960000
_cell_angle_gamma   81.46540000
_symmetry_Int_Tables_number   1
_chemical_formula_structural   Ag2H3C7NO4
_chemical_formula_sum   'Ag8 H12 C28 N4 O16'
_cell_volume   744.21704340
_cell_formula_units_Z   4
loop_
 _symmetry_equiv_pos_site_id
 _symmetry_equiv_pos_as_xyz
  1  'x, y, z'
loop_
 _atom_site_type_symbol
 _atom_site_label
 _atom_site_symmetry_multiplicity
 _atom_site_fract_x
 _atom_site_fract_y
 _atom_site_fract_z
 _atom_site_occupancy
  Ag  Ag0  1  0.73480000  0.38057000  0.95028000  1.0
  Ag  Ag1  1  0.76520000  0.61943000  0.45028000  1.0
  Ag  Ag2  1  0.26521000  0.61943000  0.04972000  1.0
  Ag  Ag3  1  0.23480000  0.38057000  0.54972000  1.0
  Ag  Ag4  1  0.05724000  0.33762000  0.30949000  1.0
  Ag  Ag5  1  0.44276000  0.66238000  0.80949000  1.0
  Ag  Ag6  1  0.94276000  0.66238000  0.69051000  1.0
  Ag  Ag7  1  0.55724000  0.33761000  0.19051000  1.0
  H  H8  1  0.64090000  0.98522000  0.55100000  1.0
  H  H9  1  0.85909000  0.01478000  0.05100000  1.0
  H  H10  1  0.35909000  0.01478000  0.44900000  1.0
  H  H11  1  0.14091000  0.98523000  0.94900000  1.0
  H  H12  1  0.60074000  0.92714000  0.76963000  1.0
  H  H13  1  0.89926000  0.07286000  0.26963000  1.0
  H  H14  1  0.39926000  0.07287000  0.23038000  1.0
  H  H15  1  0.10074000  0.92714000  0.73038000  1.0
  H  H16  1  0.62556000  0.09993000  0.92853000  1.0
  H  H17  1  0.87443000  0.90007000  0.42853000  1.0
  H  H18  1  0.37444000  0.90007000  0.07147000  1.0
  H  H19  1  0.12556000  0.09993000  0.57147000  1.0
  C  C20  1  0.70603000  0.27514000  0.68714000  1.0
  C  C21  1  0.79398000  0.72485000  0.18713000  1.0
  C  C22  1  0.29397000  0.72486000  0.31286000  1.0
  C  C23  1  0.20603000  0.27515000  0.81287000  1.0
  C  C24  1  0.68961000  0.18530000  0.59161000  1.0
  C  C25  1  0.81039000  0.81469000  0.09161000  1.0
  C  C26  1  0.31039000  0.81470000  0.40839000  1.0
  C  C27  1  0.18961000  0.18531000  0.90839000  1.0
  C  C28  1  0.65297000  0.05823000  0.62181000  1.0
  C  C29  1  0.84703000  0.94177000  0.12181000  1.0
  C  C30  1  0.34704000  0.94177000  0.37819000  1.0
  C  C31  1  0.15296000  0.05823000  0.87819000  1.0
  C  C32  1  0.63158000  0.02469000  0.74311000  1.0
  C  C33  1  0.86842000  0.97531000  0.24311000  1.0
  C  C34  1  0.36841000  0.97531000  0.25689000  1.0
  C  C35  1  0.13158000  0.02469000  0.75689000  1.0
  C  C36  1  0.64913000  0.11912000  0.83236000  1.0
  C  C37  1  0.85087000  0.88088000  0.33236000  1.0
  C  C38  1  0.35087000  0.88088000  0.16764000  1.0
  C  C39  1  0.14913000  0.11912000  0.66764000  1.0
  C  C40  1  0.74717000  0.41267000  0.65837000  1.0
  C  C41  1  0.75284000  0.58733000  0.15837000  1.0
  C  C42  1  0.25284000  0.58733000  0.34163000  1.0
  C  C43  1  0.24716000  0.41268000  0.84163000  1.0
  C  C44  1  0.72008000  0.21823000  0.45905000  1.0
  C  C45  1  0.77992000  0.78177000  0.95905000  1.0
  C  C46  1  0.27992000  0.78177000  0.54095000  1.0
  C  C47  1  0.22008000  0.21824000  0.04095000  1.0
  N  N48  1  0.68769000  0.24123000  0.80531000  1.0
  N  N49  1  0.81231000  0.75876000  0.30531000  1.0
  N  N50  1  0.31232000  0.75877000  0.19469000  1.0
  N  N51  1  0.18768000  0.24124000  0.69469000  1.0
  O  O52  1  0.81460000  0.48006000  0.74247000  1.0
  O  O53  1  0.68541000  0.51993000  0.24247000  1.0
  O  O54  1  0.18540000  0.51994000  0.25753000  1.0
  O  O55  1  0.31460000  0.48006000  0.75753000  1.0
  O  O56  1  0.71257000  0.44798000  0.54896000  1.0
  O  O57  1  0.78744000  0.55201000  0.04897000  1.0
  O  O58  1  0.28744000  0.55202000  0.45103000  1.0
  O  O59  1  0.21257000  0.44799000  0.95103000  1.0
  O  O60  1  0.56508000  0.23882000  0.39272000  1.0
  O  O61  1  0.93491000  0.76118000  0.89272000  1.0
  O  O62  1  0.43492000  0.76118000  0.60728000  1.0
  O  O63  1  0.06509000  0.23882000  0.10728000  1.0
  O  O64  1  0.90442000  0.20892000  0.42620000  1.0
  O  O65  1  0.59558000  0.79108000  0.92620000  1.0
  O  O66  1  0.09558000  0.79108000  0.57380000  1.0
  O  O67  1  0.40442000  0.20892000  0.07380000  1.0
