# generated using pymatgen
data_CaZnH10C6NCl3O2
_symmetry_space_group_name_H-M   'P 1'
_cell_length_a   6.84598000
_cell_length_b   7.98696000
_cell_length_c   10.70780000
_cell_angle_alpha   93.80360000
_cell_angle_beta   100.89270000
_cell_angle_gamma   90.35780000
_symmetry_Int_Tables_number   1
_chemical_formula_structural   CaZnH10C6NCl3O2
_chemical_formula_sum   'Ca2 Zn2 H20 C12 N2 Cl6 O4'
_cell_volume   573.56653052
_cell_formula_units_Z   2
loop_
 _symmetry_equiv_pos_site_id
 _symmetry_equiv_pos_as_xyz
  1  'x, y, z'
loop_
 _atom_site_type_symbol
 _atom_site_label
 _atom_site_symmetry_multiplicity
 _atom_site_fract_x
 _atom_site_fract_y
 _atom_site_fract_z
 _atom_site_occupancy
  Ca  Ca0  1  0.31553000  0.82699000  0.08635000  1.0
  Ca  Ca1  1  0.68447000  0.17302000  0.91365000  1.0
  Zn  Zn2  1  0.60473000  0.73418000  0.85203000  1.0
  Zn  Zn3  1  0.39527000  0.26582000  0.14797000  1.0
  H  H4  1  0.62615000  0.60733000  0.20489000  1.0
  H  H5  1  0.37385000  0.39268000  0.79511000  1.0
  H  H6  1  0.75013000  0.95544000  0.28679000  1.0
  H  H7  1  0.24987000  0.04456000  0.71322000  1.0
  H  H8  1  0.42337000  0.62296000  0.35961000  1.0
  H  H9  1  0.57663000  0.37704000  0.64039000  1.0
  H  H10  1  0.52130000  0.82729000  0.41146000  1.0
  H  H11  1  0.47871000  0.17271000  0.58854000  1.0
  H  H12  1  0.75857000  0.50255000  0.42320000  1.0
  H  H13  1  0.24143000  0.49745000  0.57680000  1.0
  H  H14  1  0.69544000  0.62156000  0.55528000  1.0
  H  H15  1  0.30456000  0.37844000  0.44471000  1.0
  H  H16  1  0.04661000  0.68901000  0.53057000  1.0
  H  H17  1  0.95340000  0.31098000  0.46942000  1.0
  H  H18  1  0.89297000  0.86503000  0.51355000  1.0
  H  H19  1  0.10704000  0.13496000  0.48645000  1.0
  H  H20  1  0.09052000  0.84760000  0.34096000  1.0
  H  H21  1  0.90948000  0.15239000  0.65903000  1.0
  H  H22  1  0.00313000  0.63935000  0.29367000  1.0
  H  H23  1  0.99687000  0.36065000  0.70632000  1.0
  C  C24  1  0.78201000  0.82816000  0.24881000  1.0
  C  C25  1  0.21799000  0.17185000  0.75119000  1.0
  C  C26  1  0.55739000  0.70328000  0.37182000  1.0
  C  C27  1  0.44262000  0.29672000  0.62818000  1.0
  C  C28  1  0.73233000  0.63067000  0.46042000  1.0
  C  C29  1  0.26767000  0.36932000  0.53958000  1.0
  C  C30  1  0.91824000  0.74089000  0.46858000  1.0
  C  C31  1  0.08176000  0.25911000  0.53142000  1.0
  C  C32  1  0.96353000  0.76101000  0.33577000  1.0
  C  C33  1  0.03647000  0.23898000  0.66422000  1.0
  C  C34  1  0.81238000  0.85118000  0.11322000  1.0
  C  C35  1  0.18762000  0.14883000  0.88678000  1.0
  N  N36  1  0.59907000  0.72504000  0.24253000  1.0
  N  N37  1  0.40093000  0.27496000  0.75746000  1.0
  Cl  Cl38  1  0.27105000  0.69770000  0.83491000  1.0
  Cl  Cl39  1  0.72895000  0.30230000  0.16510000  1.0
  Cl  Cl40  1  0.79068000  0.50917000  0.87688000  1.0
  Cl  Cl41  1  0.20933000  0.49083000  0.12313000  1.0
  Cl  Cl42  1  0.66391000  0.92188000  0.71722000  1.0
  Cl  Cl43  1  0.33609000  0.07813000  0.28279000  1.0
  O  O44  1  0.98022000  0.85175000  0.08511000  1.0
  O  O45  1  0.01977000  0.14826000  0.91489000  1.0
  O  O46  1  0.64918000  0.87468000  0.02940000  1.0
  O  O47  1  0.35082000  0.12534000  0.97061000  1.0
