# generated using pymatgen
data_CuH18C17N2O5
_symmetry_space_group_name_H-M   'P 1'
_cell_length_a   10.17800000
_cell_length_b   19.31360000
_cell_length_c   20.83450000
_cell_angle_alpha   89.99990000
_cell_angle_beta   90.00030000
_cell_angle_gamma   89.99990000
_symmetry_Int_Tables_number   1
_chemical_formula_structural   CuH18C17N2O5
_chemical_formula_sum   'Cu8 H144 C136 N16 O40'
_cell_volume   4095.51726939
_cell_formula_units_Z   8
loop_
 _symmetry_equiv_pos_site_id
 _symmetry_equiv_pos_as_xyz
  1  'x, y, z'
loop_
 _atom_site_type_symbol
 _atom_site_label
 _atom_site_symmetry_multiplicity
 _atom_site_fract_x
 _atom_site_fract_y
 _atom_site_fract_z
 _atom_site_occupancy
  Cu  Cu0  1  0.77276000  0.68812000  0.97189000  1.0
  Cu  Cu1  1  0.72724000  0.68812000  0.52811000  1.0
  Cu  Cu2  1  0.27276000  0.81187000  0.02811000  1.0
  Cu  Cu3  1  0.22724000  0.81188000  0.47189000  1.0
  Cu  Cu4  1  0.22724000  0.31188000  0.02810000  1.0
  Cu  Cu5  1  0.27276000  0.31188000  0.47189000  1.0
  Cu  Cu6  1  0.72724000  0.18812000  0.97190000  1.0
  Cu  Cu7  1  0.77276000  0.18812000  0.52811000  1.0
  H  H8  1  0.03861000  0.12356000  0.54010000  1.0
  H  H9  1  0.46138000  0.12356000  0.95990000  1.0
  H  H10  1  0.53862000  0.37644000  0.45990000  1.0
  H  H11  1  0.96138000  0.37644000  0.04010000  1.0
  H  H12  1  0.96138000  0.87644000  0.45990000  1.0
  H  H13  1  0.53861000  0.87644000  0.04010000  1.0
  H  H14  1  0.46139000  0.62356000  0.54010000  1.0
  H  H15  1  0.03861000  0.62356000  0.95990000  1.0
  H  H16  1  0.87342000  0.82517000  0.93372000  1.0
  H  H17  1  0.62659000  0.82517000  0.56628000  1.0
  H  H18  1  0.37342000  0.67483000  0.06628000  1.0
  H  H19  1  0.12658000  0.67483000  0.43372000  1.0
  H  H20  1  0.12658000  0.17484000  0.06628000  1.0
  H  H21  1  0.37342000  0.17483000  0.43373000  1.0
  H  H22  1  0.62658000  0.32516000  0.93372000  1.0
  H  H23  1  0.87342000  0.32516000  0.56628000  1.0
  H  H24  1  0.97070000  0.92745000  0.72506000  1.0
  H  H25  1  0.52930000  0.92745000  0.77494000  1.0
  H  H26  1  0.47071000  0.57255000  0.27494000  1.0
  H  H27  1  0.02929000  0.57255000  0.22506000  1.0
  H  H28  1  0.02930000  0.07255000  0.27494000  1.0
  H  H29  1  0.47071000  0.07255000  0.22507000  1.0
  H  H30  1  0.52929000  0.42745000  0.72506000  1.0
  H  H31  1  0.97070000  0.42745000  0.77494000  1.0
  H  H32  1  0.83011000  0.88430000  0.69489000  1.0
  H  H33  1  0.66989000  0.88430000  0.80511000  1.0
  H  H34  1  0.33011000  0.61570000  0.30511000  1.0
  H  H35  1  0.16989000  0.61569000  0.19489000  1.0
  H  H36  1  0.16989000  0.11570000  0.30511000  1.0
  H  H37  1  0.33011000  0.11570000  0.19490000  1.0
  H  H38  1  0.66989000  0.38430000  0.69490000  1.0
  H  H39  1  0.83011000  0.38430000  0.80511000  1.0
  H  H40  1  0.96374000  0.88029000  0.83460000  1.0
  H  H41  1  0.53626000  0.88029000  0.66541000  1.0
  H  H42  1  0.46374000  0.61971000  0.16541000  1.0
  H  H43  1  0.03625000  0.61971000  0.33459000  1.0
  H  H44  1  0.03626000  0.11971000  0.16541000  1.0
  H  H45  1  0.46375000  0.11971000  0.33460000  1.0
  H  H46  1  0.53625000  0.38029000  0.83460000  1.0
  H  H47  1  0.96375000  0.38029000  0.66540000  1.0
  H  H48  1  0.81085000  0.63954000  0.83954000  1.0
  H  H49  1  0.68916000  0.63954000  0.66046000  1.0
  H  H50  1  0.31086000  0.86046000  0.16046000  1.0
  H  H51  1  0.18916000  0.86046000  0.33953000  1.0
  H  H52  1  0.18915000  0.36046000  0.16046000  1.0
  H  H53  1  0.31085000  0.36046000  0.33954000  1.0
  H  H54  1  0.68915000  0.13954000  0.83954000  1.0
  H  H55  1  0.81084000  0.13954000  0.66046000  1.0
  H  H56  1  0.10143000  0.81991000  0.72036000  1.0
  H  H57  1  0.39858000  0.81991000  0.77964000  1.0
  H  H58  1  0.60143000  0.68009000  0.27964000  1.0
  H  H59  1  0.89858000  0.68009000  0.22036000  1.0
  H  H60  1  0.89857000  0.18009000  0.27964000  1.0
  H  H61  1  0.60143000  0.18010000  0.22036000  1.0
  H  H62  1  0.39857000  0.31991000  0.72036000  1.0
  H  H63  1  0.10142000  0.31991000  0.77964000  1.0
  H  H64  1  0.97673000  0.77705000  0.67739000  1.0
  H  H65  1  0.52327000  0.77705000  0.82260000  1.0
  H  H66  1  0.47673000  0.72295000  0.32261000  1.0
  H  H67  1  0.02327000  0.72295000  0.17739000  1.0
  H  H68  1  0.02327000  0.22295000  0.32261000  1.0
  H  H69  1  0.47672000  0.22296000  0.17740000  1.0
  H  H70  1  0.52327000  0.27705000  0.67740000  1.0
  H  H71  1  0.97673000  0.27705000  0.82260000  1.0
  H  H72  1  0.90118000  0.68620000  0.73712000  1.0
  H  H73  1  0.59881000  0.68620000  0.76288000  1.0
  H  H74  1  0.40119000  0.81380000  0.26288000  1.0
  H  H75  1  0.09882000  0.81380000  0.23712000  1.0
  H  H76  1  0.09882000  0.31380000  0.26288000  1.0
  H  H77  1  0.40119000  0.31380000  0.23713000  1.0
  H  H78  1  0.59881000  0.18620000  0.73712000  1.0
  H  H79  1  0.90118000  0.18620000  0.76287000  1.0
  H  H80  1  0.12823000  0.01236000  0.58352000  1.0
  H  H81  1  0.37177000  0.01236000  0.91648000  1.0
  H  H82  1  0.62823000  0.48764000  0.41648000  1.0
  H  H83  1  0.87177000  0.48764000  0.08352000  1.0
  H  H84  1  0.87177000  0.98764000  0.41648000  1.0
  H  H85  1  0.62823000  0.98764000  0.08352000  1.0
  H  H86  1  0.37177000  0.51236000  0.58351000  1.0
  H  H87  1  0.12823000  0.51236000  0.91648000  1.0
  H  H88  1  0.65488000  0.05656000  0.56007000  1.0
  H  H89  1  0.84512000  0.05656000  0.93993000  1.0
  H  H90  1  0.15489000  0.44345000  0.43994000  1.0
  H  H91  1  0.34512000  0.44345000  0.06007000  1.0
  H  H92  1  0.34512000  0.94344000  0.43993000  1.0
  H  H93  1  0.15488000  0.94345000  0.06007000  1.0
  H  H94  1  0.84513000  0.55656000  0.56007000  1.0
  H  H95  1  0.65488000  0.55656000  0.93993000  1.0
  H  H96  1  0.09217000  0.89834000  0.62194000  1.0
  H  H97  1  0.40784000  0.89834000  0.87806000  1.0
  H  H98  1  0.59217000  0.60166000  0.37806000  1.0
  H  H99  1  0.90783000  0.60166000  0.12194000  1.0
  H  H100  1  0.90784000  0.10166000  0.37806000  1.0
  H  H101  1  0.59216000  0.10166000  0.12194000  1.0
  H  H102  1  0.40784000  0.39834000  0.62194000  1.0
  H  H103  1  0.09216000  0.39834000  0.87806000  1.0
  H  H104  1  0.94928000  0.85770000  0.59311000  1.0
  H  H105  1  0.55073000  0.85770000  0.90689000  1.0
  H  H106  1  0.44927000  0.64231000  0.40689000  1.0
  H  H107  1  0.05072000  0.64230000  0.09311000  1.0
  H  H108  1  0.05073000  0.14230000  0.40689000  1.0
  H  H109  1  0.44927000  0.14231000  0.09311000  1.0
  H  H110  1  0.55073000  0.35770000  0.59311000  1.0
  H  H111  1  0.94927000  0.35770000  0.90689000  1.0
  H  H112  1  0.72839000  0.94076000  0.60148000  1.0
  H  H113  1  0.77161000  0.94076000  0.89852000  1.0
  H  H114  1  0.22839000  0.55925000  0.39853000  1.0
  H  H115  1  0.27162000  0.55925000  0.10147000  1.0
  H  H116  1  0.27162000  0.05924000  0.39852000  1.0
  H  H117  1  0.22838000  0.05924000  0.10148000  1.0
  H  H118  1  0.77162000  0.44076000  0.60148000  1.0
  H  H119  1  0.72838000  0.44076000  0.89852000  1.0
  H  H120  1  0.12717000  0.70057000  0.90105000  1.0
  H  H121  1  0.37284000  0.70057000  0.59895000  1.0
  H  H122  1  0.62716000  0.79942000  0.09895000  1.0
  H  H123  1  0.87283000  0.79943000  0.40105000  1.0
  H  H124  1  0.87284000  0.29944000  0.09895000  1.0
  H  H125  1  0.62716000  0.29943000  0.40105000  1.0
  H  H126  1  0.37284000  0.20057000  0.90105000  1.0
  H  H127  1  0.12716000  0.20057000  0.59895000  1.0
  H  H128  1  0.31953000  0.62675000  0.91630000  1.0
  H  H129  1  0.18047000  0.62676000  0.58370000  1.0
  H  H130  1  0.81952000  0.87324000  0.08371000  1.0
  H  H131  1  0.68047000  0.87325000  0.41630000  1.0
  H  H132  1  0.68047000  0.37325000  0.08370000  1.0
  H  H133  1  0.81952000  0.37325000  0.41630000  1.0
  H  H134  1  0.18047000  0.12675000  0.91630000  1.0
  H  H135  1  0.31953000  0.12676000  0.58370000  1.0
  H  H136  1  0.34305000  0.68402000  0.85139000  1.0
  H  H137  1  0.15695000  0.68403000  0.64861000  1.0
  H  H138  1  0.84304000  0.81597000  0.14861000  1.0
  H  H139  1  0.65695000  0.81598000  0.35139000  1.0
  H  H140  1  0.65696000  0.31598000  0.14861000  1.0
  H  H141  1  0.84304000  0.31597000  0.35139000  1.0
  H  H142  1  0.15695000  0.18402000  0.85139000  1.0
  H  H143  1  0.34305000  0.18402000  0.64861000  1.0
  H  H144  1  0.09946000  0.72960000  0.00645000  1.0
  H  H145  1  0.40054000  0.72960000  0.49355000  1.0
  H  H146  1  0.59946000  0.77040000  0.99355000  1.0
  H  H147  1  0.90054000  0.77040000  0.50645000  1.0
  H  H148  1  0.90054000  0.27040000  0.99355000  1.0
  H  H149  1  0.59946000  0.27040000  0.50645000  1.0
  H  H150  1  0.40054000  0.22960000  0.00645000  1.0
  H  H151  1  0.09946000  0.22960000  0.49355000  1.0
  C  C152  1  0.97343000  0.08210000  0.55568000  1.0
  C  C153  1  0.52656000  0.08210000  0.94433000  1.0
  C  C154  1  0.47344000  0.41790000  0.44432000  1.0
  C  C155  1  0.02656000  0.41790000  0.05568000  1.0
  C  C156  1  0.02656000  0.91790000  0.44432000  1.0
  C  C157  1  0.47344000  0.91790000  0.05568000  1.0
  C  C158  1  0.52657000  0.58210000  0.55567000  1.0
  C  C159  1  0.97344000  0.58210000  0.94432000  1.0
  C  C160  1  0.87983000  0.79690000  0.88861000  1.0
  C  C161  1  0.62018000  0.79691000  0.61139000  1.0
  C  C162  1  0.37983000  0.70309000  0.11140000  1.0
  C  C163  1  0.12017000  0.70309000  0.38860000  1.0
  C  C164  1  0.12017000  0.20310000  0.11140000  1.0
  C  C165  1  0.37982000  0.20309000  0.38861000  1.0
  C  C166  1  0.62017000  0.29690000  0.88861000  1.0
  C  C167  1  0.87983000  0.29690000  0.61139000  1.0
  C  C168  1  0.93828000  0.88538000  0.69309000  1.0
  C  C169  1  0.56172000  0.88538000  0.80691000  1.0
  C  C170  1  0.43828000  0.61462000  0.30691000  1.0
  C  C171  1  0.06172000  0.61462000  0.19308000  1.0
  C  C172  1  0.06172000  0.11462000  0.30691000  1.0
  C  C173  1  0.43828000  0.11462000  0.19309000  1.0
  C  C174  1  0.56172000  0.38538000  0.69309000  1.0
  C  C175  1  0.93828000  0.38538000  0.80691000  1.0
  C  C176  1  0.93551000  0.96739000  0.59786000  1.0
  C  C177  1  0.56449000  0.96739000  0.90214000  1.0
  C  C178  1  0.43551000  0.53261000  0.40214000  1.0
  C  C179  1  0.06449000  0.53261000  0.09786000  1.0
  C  C180  1  0.06449000  0.03261000  0.40214000  1.0
  C  C181  1  0.43550000  0.03261000  0.09786000  1.0
  C  C182  1  0.56449000  0.46739000  0.59786000  1.0
  C  C183  1  0.93551000  0.46739000  0.90214000  1.0
  C  C184  1  0.92855000  0.82706000  0.83299000  1.0
  C  C185  1  0.57145000  0.82706000  0.66701000  1.0
  C  C186  1  0.42855000  0.67294000  0.16701000  1.0
  C  C187  1  0.07144000  0.67294000  0.33299000  1.0
  C  C188  1  0.07145000  0.17294000  0.16701000  1.0
  C  C189  1  0.42856000  0.17294000  0.33300000  1.0
  C  C190  1  0.57145000  0.32706000  0.83299000  1.0
  C  C191  1  0.92855000  0.32706000  0.66701000  1.0
  C  C192  1  0.84674000  0.69252000  0.83653000  1.0
  C  C193  1  0.65326000  0.69252000  0.66347000  1.0
  C  C194  1  0.34675000  0.80748000  0.16347000  1.0
  C  C195  1  0.15326000  0.80748000  0.33653000  1.0
  C  C196  1  0.15326000  0.30748000  0.16347000  1.0
  C  C197  1  0.34674000  0.30748000  0.33654000  1.0
  C  C198  1  0.65325000  0.19252000  0.83653000  1.0
  C  C199  1  0.84674000  0.19252000  0.66347000  1.0
  C  C200  1  0.99390000  0.81563000  0.71532000  1.0
  C  C201  1  0.50610000  0.81563000  0.78468000  1.0
  C  C202  1  0.49390000  0.68438000  0.28468000  1.0
  C  C203  1  0.00610000  0.68437000  0.21532000  1.0
  C  C204  1  0.00610000  0.18437000  0.28468000  1.0
  C  C205  1  0.49390000  0.18438000  0.21533000  1.0
  C  C206  1  0.50610000  0.31563000  0.71532000  1.0
  C  C207  1  0.99390000  0.31563000  0.78468000  1.0
  C  C208  1  0.93838000  0.78791000  0.77651000  1.0
  C  C209  1  0.56163000  0.78791000  0.72349000  1.0
  C  C210  1  0.43838000  0.71209000  0.22349000  1.0
  C  C211  1  0.06162000  0.71209000  0.27651000  1.0
  C  C212  1  0.06162000  0.21209000  0.22349000  1.0
  C  C213  1  0.43837000  0.21209000  0.27652000  1.0
  C  C214  1  0.56162000  0.28791000  0.77652000  1.0
  C  C215  1  0.93838000  0.28791000  0.72349000  1.0
  C  C216  1  0.89615000  0.71904000  0.77965000  1.0
  C  C217  1  0.60385000  0.71903000  0.72035000  1.0
  C  C218  1  0.39616000  0.78097000  0.22035000  1.0
  C  C219  1  0.10385000  0.78097000  0.27965000  1.0
  C  C220  1  0.10385000  0.28097000  0.22035000  1.0
  C  C221  1  0.39616000  0.28097000  0.27965000  1.0
  C  C222  1  0.60385000  0.21903000  0.77965000  1.0
  C  C223  1  0.89615000  0.21903000  0.72035000  1.0
  C  C224  1  0.02235000  0.02017000  0.57975000  1.0
  C  C225  1  0.47765000  0.02017000  0.92025000  1.0
  C  C226  1  0.52235000  0.47983000  0.42024000  1.0
  C  C227  1  0.97765000  0.47983000  0.07975000  1.0
  C  C228  1  0.97765000  0.97983000  0.42024000  1.0
  C  C229  1  0.52234000  0.97983000  0.07976000  1.0
  C  C230  1  0.47766000  0.52017000  0.57975000  1.0
  C  C231  1  0.02235000  0.52017000  0.92024000  1.0
  C  C232  1  0.75857000  0.04366000  0.56567000  1.0
  C  C233  1  0.74143000  0.04366000  0.93433000  1.0
  C  C234  1  0.25857000  0.45634000  0.43433000  1.0
  C  C235  1  0.24143000  0.45634000  0.06566000  1.0
  C  C236  1  0.24143000  0.95634000  0.43433000  1.0
  C  C237  1  0.25856000  0.95634000  0.06567000  1.0
  C  C238  1  0.74144000  0.54366000  0.56567000  1.0
  C  C239  1  0.75857000  0.54366000  0.93433000  1.0
  C  C240  1  0.98436000  0.90005000  0.62415000  1.0
  C  C241  1  0.51564000  0.90005000  0.87584000  1.0
  C  C242  1  0.48436000  0.59995000  0.37585000  1.0
  C  C243  1  0.01564000  0.59995000  0.12415000  1.0
  C  C244  1  0.01564000  0.09995000  0.37584000  1.0
  C  C245  1  0.48436000  0.09995000  0.12416000  1.0
  C  C246  1  0.51565000  0.40005000  0.62415000  1.0
  C  C247  1  0.98435000  0.40005000  0.87584000  1.0
  C  C248  1  0.80083000  0.98025000  0.58937000  1.0
  C  C249  1  0.69917000  0.98025000  0.91063000  1.0
  C  C250  1  0.30083000  0.51976000  0.41063000  1.0
  C  C251  1  0.19917000  0.51975000  0.08937000  1.0
  C  C252  1  0.19917000  0.01975000  0.41063000  1.0
  C  C253  1  0.30083000  0.01975000  0.08938000  1.0
  C  C254  1  0.69917000  0.48024000  0.58937000  1.0
  C  C255  1  0.80083000  0.48025000  0.91063000  1.0
  C  C256  1  0.21429000  0.72364000  0.92423000  1.0
  C  C257  1  0.28570000  0.72364000  0.57577000  1.0
  C  C258  1  0.71430000  0.77635000  0.07577000  1.0
  C  C259  1  0.78571000  0.77636000  0.42423000  1.0
  C  C260  1  0.78571000  0.27636000  0.07577000  1.0
  C  C261  1  0.71429000  0.27636000  0.42423000  1.0
  C  C262  1  0.28570000  0.22364000  0.92423000  1.0
  C  C263  1  0.21429000  0.22364000  0.57577000  1.0
  C  C264  1  0.21875000  0.79925000  0.90051000  1.0
  C  C265  1  0.28124000  0.79925000  0.59949000  1.0
  C  C266  1  0.71875000  0.70075000  0.09949000  1.0
  C  C267  1  0.78125000  0.70075000  0.40051000  1.0
  C  C268  1  0.78125000  0.20076000  0.09950000  1.0
  C  C269  1  0.71875000  0.20075000  0.40051000  1.0
  C  C270  1  0.28125000  0.29925000  0.90051000  1.0
  C  C271  1  0.21875000  0.29925000  0.59949000  1.0
  C  C272  1  0.46659000  0.70329000  0.93244000  1.0
  C  C273  1  0.03341000  0.70329000  0.56755000  1.0
  C  C274  1  0.96659000  0.79670000  0.06756000  1.0
  C  C275  1  0.53340000  0.79670000  0.43244000  1.0
  C  C276  1  0.53341000  0.29671000  0.06756000  1.0
  C  C277  1  0.96659000  0.29671000  0.43244000  1.0
  C  C278  1  0.03340000  0.20330000  0.93244000  1.0
  C  C279  1  0.46659000  0.20329000  0.56756000  1.0
  C  C280  1  0.33424000  0.68166000  0.90399000  1.0
  C  C281  1  0.16575000  0.68167000  0.59600000  1.0
  C  C282  1  0.83425000  0.81833000  0.09600000  1.0
  C  C283  1  0.66575000  0.81833000  0.40400000  1.0
  C  C284  1  0.66576000  0.31834000  0.09600000  1.0
  C  C285  1  0.83424000  0.31833000  0.40400000  1.0
  C  C286  1  0.16576000  0.18167000  0.90400000  1.0
  C  C287  1  0.33424000  0.18167000  0.59600000  1.0
  N  N288  1  0.83926000  0.73043000  0.89065000  1.0
  N  N289  1  0.66074000  0.73043000  0.60935000  1.0
  N  N290  1  0.33927000  0.76957000  0.10935000  1.0
  N  N291  1  0.16074000  0.76957000  0.39065000  1.0
  N  N292  1  0.16073000  0.26958000  0.10935000  1.0
  N  N293  1  0.33927000  0.26957000  0.39066000  1.0
  N  N294  1  0.66073000  0.23043000  0.89065000  1.0
  N  N295  1  0.83926000  0.23043000  0.60935000  1.0
  N  N296  1  0.84390000  0.09422000  0.54981000  1.0
  N  N297  1  0.65610000  0.09422000  0.95020000  1.0
  N  N298  1  0.34390000  0.40578000  0.45019000  1.0
  N  N299  1  0.15610000  0.40578000  0.04981000  1.0
  N  N300  1  0.15610000  0.90578000  0.45019000  1.0
  N  N301  1  0.34390000  0.90578000  0.04981000  1.0
  N  N302  1  0.65611000  0.59422000  0.54981000  1.0
  N  N303  1  0.84390000  0.59422000  0.95019000  1.0
  O  O304  1  0.56527000  0.66745000  0.91757000  1.0
  O  O305  1  0.93473000  0.66744000  0.58242000  1.0
  O  O306  1  0.06527000  0.83255000  0.08243000  1.0
  O  O307  1  0.43472000  0.83255000  0.41757000  1.0
  O  O308  1  0.43473000  0.33256000  0.08243000  1.0
  O  O309  1  0.06527000  0.33255000  0.41758000  1.0
  O  O310  1  0.93472000  0.16745000  0.91758000  1.0
  O  O311  1  0.56527000  0.16745000  0.58243000  1.0
  O  O312  1  0.21689000  0.84693000  0.94455000  1.0
  O  O313  1  0.28311000  0.84694000  0.55545000  1.0
  O  O314  1  0.71688000  0.65306000  0.05545000  1.0
  O  O315  1  0.78311000  0.65307000  0.44455000  1.0
  O  O316  1  0.78311000  0.15307000  0.05545000  1.0
  O  O317  1  0.71688000  0.15307000  0.44455000  1.0
  O  O318  1  0.28311000  0.34693000  0.94455000  1.0
  O  O319  1  0.21687000  0.34693000  0.55545000  1.0
  O  O320  1  0.46927000  0.75692000  0.96940000  1.0
  O  O321  1  0.03073000  0.75692000  0.53060000  1.0
  O  O322  1  0.96928000  0.74308000  0.03060000  1.0
  O  O323  1  0.53072000  0.74308000  0.46940000  1.0
  O  O324  1  0.53073000  0.24308000  0.03061000  1.0
  O  O325  1  0.96928000  0.24308000  0.46939000  1.0
  O  O326  1  0.03073000  0.25692000  0.96940000  1.0
  O  O327  1  0.46927000  0.25692000  0.53060000  1.0
  O  O328  1  0.19872000  0.72002000  0.99284000  1.0
  O  O329  1  0.30128000  0.72002000  0.50716000  1.0
  O  O330  1  0.69872000  0.77998000  0.00716000  1.0
  O  O331  1  0.80128000  0.77998000  0.49284000  1.0
  O  O332  1  0.80128000  0.27998000  0.00716000  1.0
  O  O333  1  0.69872000  0.27998000  0.49284000  1.0
  O  O334  1  0.30128000  0.22002000  0.99284000  1.0
  O  O335  1  0.19872000  0.22002000  0.50716000  1.0
  O  O336  1  0.22000000  0.81105000  0.84198000  1.0
  O  O337  1  0.28000000  0.81104000  0.65802000  1.0
  O  O338  1  0.72000000  0.68895000  0.15802000  1.0
  O  O339  1  0.78000000  0.68895000  0.34198000  1.0
  O  O340  1  0.78002000  0.18896000  0.15803000  1.0
  O  O341  1  0.72000000  0.18895000  0.34198000  1.0
  O  O342  1  0.28000000  0.31104000  0.84197000  1.0
  O  O343  1  0.21999000  0.31105000  0.65803000  1.0
