# generated using pymatgen
data_ZnH12C10N2O5
_symmetry_space_group_name_H-M   'P 1'
_cell_length_a   5.20929000
_cell_length_b   9.19729000
_cell_length_c   14.71450000
_cell_angle_alpha   84.17480000
_cell_angle_beta   85.34470000
_cell_angle_gamma   79.66540000
_symmetry_Int_Tables_number   1
_chemical_formula_structural   ZnH12C10N2O5
_chemical_formula_sum   'Zn2 H24 C20 N4 O10'
_cell_volume   688.54414002
_cell_formula_units_Z   2
loop_
 _symmetry_equiv_pos_site_id
 _symmetry_equiv_pos_as_xyz
  1  'x, y, z'
loop_
 _atom_site_type_symbol
 _atom_site_label
 _atom_site_symmetry_multiplicity
 _atom_site_fract_x
 _atom_site_fract_y
 _atom_site_fract_z
 _atom_site_occupancy
  Zn  Zn0  1  0.76240000  0.61881000  0.65323000  1.0
  Zn  Zn1  1  0.23760000  0.38119000  0.34677000  1.0
  H  H2  1  0.69845000  0.15560000  0.59866000  1.0
  H  H3  1  0.30155000  0.84440000  0.40134000  1.0
  H  H4  1  0.46259000  0.26003000  0.52863000  1.0
  H  H5  1  0.53741000  0.73996000  0.47137000  1.0
  H  H6  1  0.12127000  0.26024000  0.65594000  1.0
  H  H7  1  0.87873000  0.73976000  0.34406000  1.0
  H  H8  1  0.35427000  0.16949000  0.73305000  1.0
  H  H9  1  0.64573000  0.83051000  0.26695000  1.0
  H  H10  1  0.07465000  0.00175000  0.66952000  1.0
  H  H11  1  0.92534000  0.99825000  0.33048000  1.0
  H  H12  1  0.23259000  0.03345000  0.56188000  1.0
  H  H13  1  0.76741000  0.96655000  0.43812000  1.0
  H  H14  1  0.03360000  0.78463000  0.76330000  1.0
  H  H15  1  0.96640000  0.21537000  0.23670000  1.0
  H  H16  1  0.85447000  0.36219000  0.79627000  1.0
  H  H17  1  0.14552000  0.63781000  0.20373000  1.0
  H  H18  1  0.15524000  0.28606000  0.92612000  1.0
  H  H19  1  0.84475000  0.71393000  0.07388000  1.0
  H  H20  1  0.34807000  0.72612000  0.88920000  1.0
  H  H21  1  0.65193000  0.27388000  0.11080000  1.0
  H  H22  1  0.18436000  0.73439000  0.59296000  1.0
  H  H23  1  0.81564000  0.26561000  0.40704000  1.0
  H  H24  1  0.11171000  0.64016000  0.51503000  1.0
  H  H25  1  0.88830000  0.35984000  0.48497000  1.0
  C  C26  1  0.58854000  0.37860000  0.62892000  1.0
  C  C27  1  0.41146000  0.62140000  0.37108000  1.0
  C  C28  1  0.51786000  0.23905000  0.59998000  1.0
  C  C29  1  0.48214000  0.76095000  0.40002000  1.0
  C  C30  1  0.30329000  0.17944000  0.66144000  1.0
  C  C31  1  0.69671000  0.82056000  0.33856000  1.0
  C  C32  1  0.25836000  0.02996000  0.63579000  1.0
  C  C33  1  0.74163000  0.97004000  0.36421000  1.0
  C  C34  1  0.47579000  0.90176000  0.66040000  1.0
  C  C35  1  0.52421000  0.09824000  0.33960000  1.0
  C  C36  1  0.07162000  0.67560000  0.80080000  1.0
  C  C37  1  0.92838000  0.32440000  0.19920000  1.0
  C  C38  1  0.96857000  0.43813000  0.81934000  1.0
  C  C39  1  0.03143000  0.56187000  0.18066000  1.0
  C  C40  1  0.13304000  0.39705000  0.89076000  1.0
  C  C41  1  0.86696000  0.60295000  0.10924000  1.0
  C  C42  1  0.27375000  0.50055000  0.91642000  1.0
  C  C43  1  0.72625000  0.49945000  0.08358000  1.0
  C  C44  1  0.24032000  0.64353000  0.87087000  1.0
  C  C45  1  0.75968000  0.35647000  0.12913000  1.0
  N  N46  1  0.94045000  0.57440000  0.77454000  1.0
  N  N47  1  0.05955000  0.42560000  0.22546000  1.0
  N  N48  1  0.44476000  0.45018000  0.98743000  1.0
  N  N49  1  0.55524000  0.54982000  0.01257000  1.0
  O  O50  1  0.75317000  0.44459000  0.57522000  1.0
  O  O51  1  0.24684000  0.55541000  0.42478000  1.0
  O  O52  1  0.49971000  0.43058000  0.70309000  1.0
  O  O53  1  0.50028000  0.56943000  0.29690000  1.0
  O  O54  1  0.03446000  0.70210000  0.56640000  1.0
  O  O55  1  0.96554000  0.29790000  0.43360000  1.0
  O  O56  1  0.66368000  0.91608000  0.70382000  1.0
  O  O57  1  0.33632000  0.08392000  0.29618000  1.0
  O  O58  1  0.44866000  0.77343000  0.63365000  1.0
  O  O59  1  0.55133000  0.22657000  0.36635000  1.0
