# generated using pymatgen
data_Dy2H14C18S3O16
_symmetry_space_group_name_H-M   'P 1'
_cell_length_a   5.75353000
_cell_length_b   12.88110000
_cell_length_c   15.99280000
_cell_angle_alpha   80.58500000
_cell_angle_beta   79.70140000
_cell_angle_gamma   77.10350000
_symmetry_Int_Tables_number   1
_chemical_formula_structural   Dy2H14C18S3O16
_chemical_formula_sum   'Dy4 H28 C36 S6 O32'
_cell_volume   1127.25119720
_cell_formula_units_Z   2
loop_
 _symmetry_equiv_pos_site_id
 _symmetry_equiv_pos_as_xyz
  1  'x, y, z'
loop_
 _atom_site_type_symbol
 _atom_site_label
 _atom_site_symmetry_multiplicity
 _atom_site_fract_x
 _atom_site_fract_y
 _atom_site_fract_z
 _atom_site_occupancy
  Dy  Dy0  1  0.97439000  0.84735000  0.88780000  1.0
  Dy  Dy1  1  0.70887000  0.65265000  0.61226000  1.0
  Dy  Dy2  1  0.02560000  0.15265000  0.11219000  1.0
  Dy  Dy3  1  0.29114000  0.34735000  0.38774000  1.0
  H  H4  1  0.05522000  0.67913000  0.08760000  1.0
  H  H5  1  0.82090000  0.82132000  0.41199000  1.0
  H  H6  1  0.94477000  0.32087000  0.91240000  1.0
  H  H7  1  0.17910000  0.17868000  0.58801000  1.0
  H  H8  1  0.13144000  0.49247000  0.18868000  1.0
  H  H9  1  0.81224000  0.00796000  0.31102000  1.0
  H  H10  1  0.86856000  0.50753000  0.81132000  1.0
  H  H11  1  0.18776000  0.99204000  0.68898000  1.0
  H  H12  1  0.24260000  0.15238000  0.79501000  1.0
  H  H13  1  0.18992000  0.34788000  0.70496000  1.0
  H  H14  1  0.75740000  0.84762000  0.20499000  1.0
  H  H15  1  0.81008000  0.65212000  0.29504000  1.0
  H  H16  1  0.43941000  0.91090000  0.81677000  1.0
  H  H17  1  0.16673000  0.58906000  0.68340000  1.0
  H  H18  1  0.56059000  0.08910000  0.18323000  1.0
  H  H19  1  0.83327000  0.41094000  0.31661000  1.0
  H  H20  1  0.42071000  0.81584000  0.76617000  1.0
  H  H21  1  0.00257000  0.68399000  0.73405000  1.0
  H  H22  1  0.57929000  0.18416000  0.23383000  1.0
  H  H23  1  0.99743000  0.31601000  0.26595000  1.0
  H  H24  1  0.94442000  0.91650000  0.06102000  1.0
  H  H25  1  0.92123000  0.58358000  0.43922000  1.0
  H  H26  1  0.05558000  0.08350000  0.93898000  1.0
  H  H27  1  0.07877000  0.41642000  0.56079000  1.0
  H  H28  1  0.67322000  0.95390000  0.04988000  1.0
  H  H29  1  0.67687000  0.54577000  0.45003000  1.0
  H  H30  1  0.32678000  0.04610000  0.95012000  1.0
  H  H31  1  0.32313000  0.45422000  0.54998000  1.0
  C  C32  1  0.46858000  0.74706000  0.98204000  1.0
  C  C33  1  0.19656000  0.75300000  0.51787000  1.0
  C  C34  1  0.53141000  0.25294000  0.01796000  1.0
  C  C35  1  0.80344000  0.24700000  0.48213000  1.0
  C  C36  1  0.44194000  0.65073000  0.04380000  1.0
  C  C37  1  0.13568000  0.84930000  0.45607000  1.0
  C  C38  1  0.55806000  0.34927000  0.95620000  1.0
  C  C39  1  0.86432000  0.15069000  0.54394000  1.0
  C  C40  1  0.23036000  0.62663000  0.09206000  1.0
  C  C41  1  0.94822000  0.87369000  0.40767000  1.0
  C  C42  1  0.76964000  0.37337000  0.90794000  1.0
  C  C43  1  0.05178000  0.12631000  0.59233000  1.0
  C  C44  1  0.26970000  0.52822000  0.14563000  1.0
  C  C45  1  0.94314000  0.97209000  0.35416000  1.0
  C  C46  1  0.73029000  0.47178000  0.85437000  1.0
  C  C47  1  0.05686000  0.02791000  0.64584000  1.0
  C  C48  1  0.51128000  0.47806000  0.13674000  1.0
  C  C49  1  0.12607000  0.02201000  0.36317000  1.0
  C  C50  1  0.48872000  0.52194000  0.86326000  1.0
  C  C51  1  0.87393000  0.97800000  0.63684000  1.0
  C  C52  1  0.62121000  0.37170000  0.17776000  1.0
  C  C53  1  0.17107000  0.12829000  0.32215000  1.0
  C  C54  1  0.37878000  0.62830000  0.82224000  1.0
  C  C55  1  0.82894000  0.87171000  0.67785000  1.0
  C  C56  1  0.72084000  0.05873000  0.83976000  1.0
  C  C57  1  0.61956000  0.44129000  0.66029000  1.0
  C  C58  1  0.27916000  0.94128000  0.16024000  1.0
  C  C59  1  0.38044000  0.55871000  0.33971000  1.0
  C  C60  1  0.61773000  0.16091000  0.79253000  1.0
  C  C61  1  0.57124000  0.33913000  0.70743000  1.0
  C  C62  1  0.38228000  0.83909000  0.20747000  1.0
  C  C63  1  0.42876000  0.66087000  0.29257000  1.0
  C  C64  1  0.38368000  0.19885000  0.77407000  1.0
  C  C65  1  0.35655000  0.30132000  0.72590000  1.0
  C  C66  1  0.61632000  0.80114000  0.22592000  1.0
  C  C67  1  0.64346000  0.69869000  0.27410000  1.0
  S  S68  1  0.68777000  0.55095000  0.06222000  1.0
  S  S69  1  0.30073000  0.94886000  0.43779000  1.0
  S  S70  1  0.31222000  0.44905000  0.93778000  1.0
  S  S71  1  0.69926000  0.05114000  0.56221000  1.0
  S  S72  1  0.80040000  0.24996000  0.74998000  1.0
  S  S73  1  0.19960000  0.75005000  0.25002000  1.0
  O  O74  1  0.32929000  0.88076000  0.79119000  1.0
  O  O75  1  0.00099000  0.61912000  0.70894000  1.0
  O  O76  1  0.67071000  0.11924000  0.20881000  1.0
  O  O77  1  0.99902000  0.38088000  0.29106000  1.0
  O  O78  1  0.67957000  0.75389000  0.94336000  1.0
  O  O79  1  0.37602000  0.74599000  0.55656000  1.0
  O  O80  1  0.32043000  0.24610000  0.05664000  1.0
  O  O81  1  0.62398000  0.25401000  0.44343000  1.0
  O  O82  1  0.82661000  0.91137000  0.02492000  1.0
  O  O83  1  0.76232000  0.58838000  0.47519000  1.0
  O  O84  1  0.17339000  0.08863000  0.97508000  1.0
  O  O85  1  0.23768000  0.41161000  0.52481000  1.0
  O  O86  1  0.27797000  0.81767000  0.97089000  1.0
  O  O87  1  0.06495000  0.68257000  0.52907000  1.0
  O  O88  1  0.72202000  0.18233000  0.02910000  1.0
  O  O89  1  0.93505000  0.31743000  0.47093000  1.0
  O  O90  1  0.81549000  0.32281000  0.13747000  1.0
  O  O91  1  0.27643000  0.17714000  0.36251000  1.0
  O  O92  1  0.18450000  0.67719000  0.86254000  1.0
  O  O93  1  0.72358000  0.82286000  0.63749000  1.0
  O  O94  1  0.51896000  0.33294000  0.25049000  1.0
  O  O95  1  0.10269000  0.16705000  0.24939000  1.0
  O  O96  1  0.48104000  0.66706000  0.74951000  1.0
  O  O97  1  0.89732000  0.83294000  0.75061000  1.0
  O  O98  1  0.59358000  0.98660000  0.86840000  1.0
  O  O99  1  0.44875000  0.51354000  0.63168000  1.0
  O  O100  1  0.40642000  0.01340000  0.13160000  1.0
  O  O101  1  0.55125000  0.48646000  0.36832000  1.0
  O  O102  1  0.94313000  0.04006000  0.85038000  1.0
  O  O103  1  0.83380000  0.45983000  0.64964000  1.0
  O  O104  1  0.05687000  0.95995000  0.14962000  1.0
  O  O105  1  0.16621000  0.54017000  0.35036000  1.0
