# generated using pymatgen
data_HgH10C14(SN3)2
_symmetry_space_group_name_H-M   'P 1'
_cell_length_a   7.64538000
_cell_length_b   8.17444517
_cell_length_c   15.28080000
_cell_angle_alpha   87.51222103
_cell_angle_beta   89.97150000
_cell_angle_gamma   62.18079001
_symmetry_Int_Tables_number   1
_chemical_formula_structural   HgH10C14(SN3)2
_chemical_formula_sum   'Hg2 H20 C28 S4 N12'
_cell_volume   843.61852879
_cell_formula_units_Z   2
loop_
 _symmetry_equiv_pos_site_id
 _symmetry_equiv_pos_as_xyz
  1  'x, y, z'
loop_
 _atom_site_type_symbol
 _atom_site_label
 _atom_site_symmetry_multiplicity
 _atom_site_fract_x
 _atom_site_fract_y
 _atom_site_fract_z
 _atom_site_occupancy
  Hg  Hg0  1  0.56737000  0.00025000  0.25019000  1.0
  Hg  Hg1  1  0.43263000  0.99975000  0.74980000  1.0
  H  H2  1  0.94499000  0.66529000  0.38659000  1.0
  H  H3  1  0.61077000  0.33486000  0.11337000  1.0
  H  H4  1  0.05501000  0.33473000  0.61342000  1.0
  H  H5  1  0.38926000  0.66511000  0.88662000  1.0
  H  H6  1  0.25800000  0.62009000  0.46018000  1.0
  H  H7  1  0.87901000  0.37990000  0.03987000  1.0
  H  H8  1  0.74200000  0.37996000  0.53982000  1.0
  H  H9  1  0.12104000  0.62004000  0.96012000  1.0
  H  H10  1  0.09030000  0.19178000  0.38663000  1.0
  H  H11  1  0.28141000  0.80826000  0.11358000  1.0
  H  H12  1  0.90966000  0.80827000  0.61336000  1.0
  H  H13  1  0.71860000  0.19170000  0.88644000  1.0
  H  H14  1  0.78457000  0.21445000  0.31782000  1.0
  H  H15  1  0.99794000  0.78566000  0.18215000  1.0
  H  H16  1  0.21538000  0.78558000  0.68217000  1.0
  H  H17  1  0.00205000  0.21433000  0.81786000  1.0
  H  H18  1  0.46836000  0.75246000  0.51202000  1.0
  H  H19  1  0.22146000  0.24756000  0.98814000  1.0
  H  H20  1  0.53163000  0.24759000  0.48797000  1.0
  H  H21  1  0.77859000  0.75237000  0.01186000  1.0
  C  C22  1  0.98465000  0.77725000  0.38685000  1.0
  C  C23  1  0.76216000  0.22288000  0.11315000  1.0
  C  C24  1  0.01536000  0.22277000  0.61315000  1.0
  C  C25  1  0.23787000  0.77709000  0.88684000  1.0
  C  C26  1  0.15948000  0.75215000  0.42688000  1.0
  C  C27  1  0.91212000  0.24793000  0.07320000  1.0
  C  C28  1  0.84049000  0.24790000  0.57312000  1.0
  C  C29  1  0.08791000  0.75203000  0.92679000  1.0
  C  C30  1  0.20220000  0.90155000  0.42718000  1.0
  C  C31  1  0.10393000  0.09849000  0.07299000  1.0
  C  C32  1  0.79778000  0.09850000  0.57282000  1.0
  C  C33  1  0.89610000  0.90146000  0.92701000  1.0
  C  C34  1  0.06566000  0.07107000  0.38649000  1.0
  C  C35  1  0.13634000  0.92901000  0.11367000  1.0
  C  C36  1  0.93430000  0.92898000  0.61351000  1.0
  C  C37  1  0.86368000  0.07095000  0.88634000  1.0
  C  C38  1  0.89524000  0.08380000  0.34829000  1.0
  C  C39  1  0.97839000  0.91632000  0.15175000  1.0
  C  C40  1  0.10473000  0.91623000  0.65172000  1.0
  C  C41  1  0.02162000  0.08366000  0.84826000  1.0
  C  C42  1  0.37683000  0.88252000  0.47434000  1.0
  C  C43  1  0.25965000  0.11748000  0.02579000  1.0
  C  C44  1  0.62314000  0.11755000  0.52566000  1.0
  C  C45  1  0.74040000  0.88245000  0.97421000  1.0
  C  C46  1  0.67194000  0.59378000  0.31434000  1.0
  C  C47  1  0.26624000  0.40671000  0.18617000  1.0
  C  C48  1  0.32802000  0.40625000  0.68566000  1.0
  C  C49  1  0.73377000  0.59327000  0.81383000  1.0
  S  S50  1  0.64232000  0.68435000  0.21242000  1.0
  S  S51  1  0.32759000  0.31626000  0.28809000  1.0
  S  S52  1  0.35766000  0.31565000  0.78758000  1.0
  S  S53  1  0.67240000  0.68374000  0.71190000  1.0
  N  N54  1  0.85459000  0.94033000  0.34826000  1.0
  N  N55  1  0.79461000  0.05988000  0.15175000  1.0
  N  N56  1  0.14539000  0.05969000  0.65174000  1.0
  N  N57  1  0.20540000  0.94010000  0.84825000  1.0
  N  N58  1  0.41842000  0.01915000  0.47367000  1.0
  N  N59  1  0.43757000  0.98084000  0.02637000  1.0
  N  N60  1  0.58155000  0.98092000  0.52632000  1.0
  N  N61  1  0.56248000  0.01908000  0.97363000  1.0
  N  N62  1  0.69356000  0.52547000  0.38574000  1.0
  N  N63  1  0.21926000  0.47486000  0.11478000  1.0
  N  N64  1  0.30640000  0.47456000  0.61428000  1.0
  N  N65  1  0.78075000  0.52511000  0.88520000  1.0
