# generated using pymatgen
data_ZnH18C8(SO4)2
_symmetry_space_group_name_H-M   'P 1'
_cell_length_a   7.77097000
_cell_length_b   8.98563000
_cell_length_c   10.60260000
_cell_angle_alpha   90.00000000
_cell_angle_beta   102.68000000
_cell_angle_gamma   89.99990000
_symmetry_Int_Tables_number   1
_chemical_formula_structural   ZnH18C8(SO4)2
_chemical_formula_sum   'Zn2 H36 C16 S4 O16'
_cell_volume   722.29220838
_cell_formula_units_Z   2
loop_
 _symmetry_equiv_pos_site_id
 _symmetry_equiv_pos_as_xyz
  1  'x, y, z'
loop_
 _atom_site_type_symbol
 _atom_site_label
 _atom_site_symmetry_multiplicity
 _atom_site_fract_x
 _atom_site_fract_y
 _atom_site_fract_z
 _atom_site_occupancy
  Zn  Zn0  1  0.00000000  0.00000000  0.00000000  1.0
  Zn  Zn1  1  0.50000000  0.50000000  0.50000000  1.0
  H  H2  1  0.14185000  0.56167000  0.11179000  1.0
  H  H3  1  0.35814000  0.06167000  0.38821000  1.0
  H  H4  1  0.85814000  0.43833000  0.88821000  1.0
  H  H5  1  0.64185000  0.93833000  0.61179000  1.0
  H  H6  1  0.60147000  0.80638000  0.02399000  1.0
  H  H7  1  0.89853000  0.30638000  0.47601000  1.0
  H  H8  1  0.39853000  0.19362000  0.97601000  1.0
  H  H9  1  0.10147000  0.69362000  0.52399000  1.0
  H  H10  1  0.52310000  0.63365000  0.94334000  1.0
  H  H11  1  0.97690000  0.13365000  0.55666000  1.0
  H  H12  1  0.47690000  0.36635000  0.05666000  1.0
  H  H13  1  0.02310000  0.86635000  0.44334000  1.0
  H  H14  1  0.45681000  0.68503000  0.09022000  1.0
  H  H15  1  0.04319000  0.18502000  0.40978000  1.0
  H  H16  1  0.54319000  0.31497000  0.90978000  1.0
  H  H17  1  0.95681000  0.81497000  0.59022000  1.0
  H  H18  1  0.29404000  0.96212000  0.72363000  1.0
  H  H19  1  0.20596000  0.46212000  0.77637000  1.0
  H  H20  1  0.70596000  0.03788000  0.27637000  1.0
  H  H21  1  0.79404000  0.53788000  0.22363000  1.0
  H  H22  1  0.43199000  0.80153000  0.72586000  1.0
  H  H23  1  0.06801000  0.30153000  0.77414000  1.0
  H  H24  1  0.56802000  0.19847000  0.27414000  1.0
  H  H25  1  0.93199000  0.69847000  0.22586000  1.0
  H  H26  1  0.51204000  0.96023000  0.82826000  1.0
  H  H27  1  0.98797000  0.46023000  0.67174000  1.0
  H  H28  1  0.48797000  0.03977000  0.17174000  1.0
  H  H29  1  0.01204000  0.53977000  0.32826000  1.0
  H  H30  1  0.82883000  0.07421000  0.76434000  1.0
  H  H31  1  0.67117000  0.57421000  0.73566000  1.0
  H  H32  1  0.17117000  0.92579000  0.23566000  1.0
  H  H33  1  0.32883000  0.42579000  0.26434000  1.0
  H  H34  1  0.85609000  0.89606000  0.78600000  1.0
  H  H35  1  0.64391000  0.39606000  0.71399000  1.0
  H  H36  1  0.14391000  0.10394000  0.21399000  1.0
  H  H37  1  0.35609000  0.60394000  0.28600000  1.0
  C  C38  1  0.06576000  0.47828000  0.04853000  1.0
  C  C39  1  0.43422000  0.97828000  0.45146000  1.0
  C  C40  1  0.93423000  0.52172000  0.95147000  1.0
  C  C41  1  0.56577000  0.02172000  0.54854000  1.0
  C  C42  1  0.10413000  0.31836000  0.07800000  1.0
  C  C43  1  0.39587000  0.81836000  0.42200000  1.0
  C  C44  1  0.89587000  0.68164000  0.92200000  1.0
  C  C45  1  0.60413000  0.18165000  0.57800000  1.0
  C  C46  1  0.49205000  0.72654000  0.00191000  1.0
  C  C47  1  0.00795000  0.22654000  0.49809000  1.0
  C  C48  1  0.50795000  0.27346000  0.99809000  1.0
  C  C49  1  0.99205000  0.77346000  0.50191000  1.0
  C  C50  1  0.39654000  0.89327000  0.78382000  1.0
  C  C51  1  0.10346000  0.39327000  0.71618000  1.0
  C  C52  1  0.60346000  0.10673000  0.21618000  1.0
  C  C53  1  0.89654000  0.60673000  0.28382000  1.0
  S  S54  1  0.30025000  0.81828000  0.90881000  1.0
  S  S55  1  0.19976000  0.31828000  0.59119000  1.0
  S  S56  1  0.69976000  0.18172000  0.09119000  1.0
  S  S57  1  0.80024000  0.68172000  0.40881000  1.0
  O  O58  1  0.19211000  0.28534000  0.19121000  1.0
  O  O59  1  0.30788000  0.78534000  0.30879000  1.0
  O  O60  1  0.80789000  0.71466000  0.80879000  1.0
  O  O61  1  0.69211000  0.21466000  0.69121000  1.0
  O  O62  1  0.91873000  0.99430000  0.79332000  1.0
  O  O63  1  0.58127000  0.49430000  0.70668000  1.0
  O  O64  1  0.08127000  0.00570000  0.20668000  1.0
  O  O65  1  0.41873000  0.50570000  0.29332000  1.0
  O  O66  1  0.04271000  0.22551000  0.98867000  1.0
  O  O67  1  0.45728000  0.72552000  0.51133000  1.0
  O  O68  1  0.95728000  0.77449000  0.01133000  1.0
  O  O69  1  0.54272000  0.27448000  0.48867000  1.0
  O  O70  1  0.26941000  0.95235000  0.99033000  1.0
  O  O71  1  0.23059000  0.45236000  0.50967000  1.0
  O  O72  1  0.73059000  0.04764000  0.00967000  1.0
  O  O73  1  0.76941000  0.54765000  0.49033000  1.0
