# generated using pymatgen
data_MnH14C16(NO3)2
_symmetry_space_group_name_H-M   'P 1'
_cell_length_a   8.58812000
_cell_length_b   8.58812000
_cell_length_c   10.74190000
_cell_angle_alpha   105.27500000
_cell_angle_beta   105.27400000
_cell_angle_gamma   93.00930000
_symmetry_Int_Tables_number   1
_chemical_formula_structural   MnH14C16(NO3)2
_chemical_formula_sum   'Mn2 H28 C32 N4 O12'
_cell_volume   730.93845386
_cell_formula_units_Z   2
loop_
 _symmetry_equiv_pos_site_id
 _symmetry_equiv_pos_as_xyz
  1  'x, y, z'
loop_
 _atom_site_type_symbol
 _atom_site_label
 _atom_site_symmetry_multiplicity
 _atom_site_fract_x
 _atom_site_fract_y
 _atom_site_fract_z
 _atom_site_occupancy
  Mn  Mn0  1  0.94277000  0.05724000  0.74999000  1.0
  Mn  Mn1  1  0.07006000  0.92996000  0.25003000  1.0
  H  H2  1  0.01885000  0.26110000  0.06666000  1.0
  H  H3  1  0.73891000  0.98114000  0.43332000  1.0
  H  H4  1  0.96169000  0.74249000  0.94322000  1.0
  H  H5  1  0.25760000  0.03828000  0.55688000  1.0
  H  H6  1  0.91248000  0.48656000  0.20559000  1.0
  H  H7  1  0.51346000  0.08752000  0.29440000  1.0
  H  H8  1  0.06595000  0.52382000  0.80024000  1.0
  H  H9  1  0.47625000  0.93397000  0.69982000  1.0
  H  H10  1  0.68504000  0.61718000  0.08989000  1.0
  H  H11  1  0.38281000  0.31493000  0.41010000  1.0
  H  H12  1  0.29752000  0.38900000  0.90721000  1.0
  H  H13  1  0.61103000  0.70238000  0.59278000  1.0
  H  H14  1  0.48817000  0.62759000  0.87375000  1.0
  H  H15  1  0.37236000  0.51178000  0.62626000  1.0
  H  H16  1  0.50306000  0.37839000  0.12681000  1.0
  H  H17  1  0.62159000  0.49687000  0.37313000  1.0
  H  H18  1  0.08155000  0.61242000  0.44451000  1.0
  H  H19  1  0.38756000  0.91843000  0.05545000  1.0
  H  H20  1  0.91574000  0.35678000  0.53900000  1.0
  H  H21  1  0.64324000  0.08424000  0.96099000  1.0
  H  H22  1  0.83520000  0.91622000  0.91591000  1.0
  H  H23  1  0.08379000  0.16481000  0.58408000  1.0
  H  H24  1  0.17311000  0.05432000  0.08295000  1.0
  H  H25  1  0.94570000  0.82691000  0.41707000  1.0
  H  H26  1  0.82660000  0.78574000  0.76878000  1.0
  H  H27  1  0.21427000  0.17341000  0.73122000  1.0
  H  H28  1  0.17149000  0.18903000  0.22589000  1.0
  H  H29  1  0.81100000  0.82851000  0.27412000  1.0
  C  C30  1  0.91880000  0.31777000  0.01927000  1.0
  C  C31  1  0.68224000  0.08119000  0.48071000  1.0
  C  C32  1  0.06427000  0.68755000  0.98800000  1.0
  C  C33  1  0.31249000  0.93571000  0.51204000  1.0
  C  C34  1  0.85808000  0.44450000  0.09708000  1.0
  C  C35  1  0.55550000  0.14190000  0.40290000  1.0
  C  C36  1  0.12428000  0.56312000  0.90832000  1.0
  C  C37  1  0.43692000  0.87568000  0.59169000  1.0
  C  C38  1  0.73333000  0.51649000  0.03295000  1.0
  C  C39  1  0.48351000  0.26665000  0.46703000  1.0
  C  C40  1  0.25178000  0.48863000  0.96743000  1.0
  C  C41  1  0.51141000  0.74816000  0.53255000  1.0
  C  C42  1  0.66783000  0.45959000  0.89170000  1.0
  C  C43  1  0.54040000  0.33216000  0.60829000  1.0
  C  C44  1  0.32135000  0.54438000  0.10770000  1.0
  C  C45  1  0.45563000  0.67863000  0.39228000  1.0
  C  C46  1  0.53709000  0.52617000  0.81814000  1.0
  C  C47  1  0.47380000  0.46288000  0.68187000  1.0
  C  C48  1  0.45429000  0.48038000  0.18191000  1.0
  C  C49  1  0.51960000  0.54570000  0.31807000  1.0
  C  C50  1  0.73531000  0.32883000  0.82188000  1.0
  C  C51  1  0.67116000  0.26467000  0.67811000  1.0
  C  C52  1  0.25698000  0.67500000  0.18031000  1.0
  C  C53  1  0.32504000  0.74304000  0.31975000  1.0
  C  C54  1  0.94024000  0.68546000  0.59063000  1.0
  C  C55  1  0.31455000  0.05979000  0.90935000  1.0
  C  C56  1  0.05198000  0.28516000  0.38895000  1.0
  C  C57  1  0.71486000  0.94800000  0.11105000  1.0
  C  C58  1  0.01024000  0.56547000  0.50011000  1.0
  C  C59  1  0.43454000  0.98975000  0.99986000  1.0
  C  C60  1  0.98644000  0.40384000  0.48314000  1.0
  C  C61  1  0.59617000  0.01353000  0.01684000  1.0
  N  N62  1  0.85979000  0.26100000  0.88571000  1.0
  N  N63  1  0.73901000  0.14020000  0.61429000  1.0
  N  N64  1  0.12694000  0.74503000  0.12294000  1.0
  N  N65  1  0.25504000  0.87307000  0.37711000  1.0
  O  O66  1  0.95196000  0.83393000  0.58311000  1.0
  O  O67  1  0.16610000  0.04813000  0.91692000  1.0
  O  O68  1  0.03357000  0.13413000  0.39049000  1.0
  O  O69  1  0.86588000  0.96642000  0.10950000  1.0
  O  O70  1  0.87313000  0.63868000  0.66882000  1.0
  O  O71  1  0.36134000  0.12687000  0.83115000  1.0
  O  O72  1  0.12223000  0.33465000  0.31355000  1.0
  O  O73  1  0.66534000  0.87773000  0.18643000  1.0
  O  O74  1  0.80407000  0.89776000  0.81760000  1.0
  O  O75  1  0.10225000  0.19595000  0.68240000  1.0
  O  O76  1  0.19985000  0.07546000  0.18300000  1.0
  O  O77  1  0.92456000  0.80018000  0.31703000  1.0
