# generated using pymatgen
data_CdH24C18(NO)6
_symmetry_space_group_name_H-M   'P 1'
_cell_length_a   5.42999000
_cell_length_b   8.85818000
_cell_length_c   10.83780000
_cell_angle_alpha   71.99020000
_cell_angle_beta   85.22620000
_cell_angle_gamma   78.01900000
_symmetry_Int_Tables_number   1
_chemical_formula_structural   CdH24C18(NO)6
_chemical_formula_sum   'Cd1 H24 C18 N6 O6'
_cell_volume   484.85384400
_cell_formula_units_Z   1
loop_
 _symmetry_equiv_pos_site_id
 _symmetry_equiv_pos_as_xyz
  1  'x, y, z'
loop_
 _atom_site_type_symbol
 _atom_site_label
 _atom_site_symmetry_multiplicity
 _atom_site_fract_x
 _atom_site_fract_y
 _atom_site_fract_z
 _atom_site_occupancy
  Cd  Cd0  1  0.00000000  0.50000000  0.00000000  1.0
  H  H1  1  0.77251000  0.69240000  0.78507000  1.0
  H  H2  1  0.22749000  0.30760000  0.21492000  1.0
  H  H3  1  0.33333333  0.56668000  0.27898000  1.0
  H  H4  1  0.66666667  0.43334000  0.72101000  1.0
  H  H5  1  0.93305000  0.34191000  0.54766000  1.0
  H  H6  1  0.06694000  0.65810000  0.45232000  1.0
  H  H7  1  0.77662000  0.00749000  0.50957000  1.0
  H  H8  1  0.22339000  0.99249000  0.49044000  1.0
  H  H9  1  0.55701000  0.15693000  0.40398000  1.0
  H  H10  1  0.44300000  0.84306000  0.59604000  1.0
  H  H11  1  0.70585000  0.80343000  0.40404000  1.0
  H  H12  1  0.29416000  0.19656000  0.59597000  1.0
  H  H13  1  0.51184000  0.96054000  0.28859000  1.0
  H  H14  1  0.48816000  0.03946000  0.71142000  1.0
  H  H15  1  0.71595000  0.74564000  0.19000000  1.0
  H  H16  1  0.28405000  0.25436000  0.81000000  1.0
  H  H17  1  0.86772000  0.10920000  0.21663000  1.0
  H  H18  1  0.13227000  0.89079000  0.78337000  1.0
  H  H19  1  0.06054000  0.96412000  0.33822000  1.0
  H  H20  1  0.93946000  0.03588000  0.66178000  1.0
  H  H21  1  0.40971000  0.78029000  0.98841000  1.0
  H  H22  1  0.59030000  0.21970000  0.01160000  1.0
  H  H23  1  0.53328000  0.61595000  0.84935000  1.0
  H  H24  1  0.46672000  0.38405000  0.15064000  1.0
  C  C25  1  0.40572000  0.53819000  0.37578000  1.0
  C  C26  1  0.59428000  0.46182000  0.62421000  1.0
  C  C27  1  0.74225000  0.41032000  0.52848000  1.0
  C  C28  1  0.25773000  0.58968000  0.47151000  1.0
  C  C29  1  0.81655000  0.39403000  0.30113000  1.0
  C  C30  1  0.18345000  0.60597000  0.69886000  1.0
  C  C31  1  0.64983000  0.44792000  0.40346000  1.0
  C  C32  1  0.35015000  0.55208000  0.59653000  1.0
  C  C33  1  0.60698000  0.02641000  0.45359000  1.0
  C  C34  1  0.39304000  0.97358000  0.54642000  1.0
  C  C35  1  0.67150000  0.93428000  0.35318000  1.0
  C  C36  1  0.32851000  0.06571000  0.64683000  1.0
  C  C37  1  0.89571000  0.77773000  0.15338000  1.0
  C  C38  1  0.10430000  0.22227000  0.84663000  1.0
  C  C39  1  0.90397000  0.98110000  0.27426000  1.0
  C  C40  1  0.09603000  0.01890000  0.72575000  1.0
  C  C41  1  0.24737000  0.79877000  0.05192000  1.0
  C  C42  1  0.75263000  0.20123000  0.94809000  1.0
  N  N43  1  0.99704000  0.88609000  0.18535000  1.0
  N  N44  1  0.00296000  0.11391000  0.81466000  1.0
  N  N45  1  0.05076000  0.71896000  0.06910000  1.0
  N  N46  1  0.94924000  0.28104000  0.93091000  1.0
  N  N47  1  0.22181000  0.90156000  0.12124000  1.0
  N  N48  1  0.77819000  0.09844000  0.87877000  1.0
  O  O49  1  0.73038000  0.44215000  0.18467000  1.0
  O  O50  1  0.26962000  0.55786000  0.81532000  1.0
  O  O51  1  0.03072000  0.30820000  0.33381000  1.0
  O  O52  1  0.96928000  0.69180000  0.66618000  1.0
  O  O53  1  0.66636000  0.66779000  0.86784000  1.0
  O  O54  1  0.33363000  0.33222000  0.13215000  1.0
