# generated using pymatgen
data_CdH9C14SN3Cl2O
_symmetry_space_group_name_H-M   'P 1'
_cell_length_a   7.66858000
_cell_length_b   13.11560000
_cell_length_c   16.91100000
_cell_angle_alpha   111.93000000
_cell_angle_beta   90.00000000
_cell_angle_gamma   90.00000000
_symmetry_Int_Tables_number   1
_chemical_formula_structural   CdH9C14SN3Cl2O
_chemical_formula_sum   'Cd4 H36 C56 S4 N12 Cl8 O4'
_cell_volume   1577.80112489
_cell_formula_units_Z   4
loop_
 _symmetry_equiv_pos_site_id
 _symmetry_equiv_pos_as_xyz
  1  'x, y, z'
loop_
 _atom_site_type_symbol
 _atom_site_label
 _atom_site_symmetry_multiplicity
 _atom_site_fract_x
 _atom_site_fract_y
 _atom_site_fract_z
 _atom_site_occupancy
  Cd  Cd0  1  0.67850000  0.56312000  0.46763000  1.0
  Cd  Cd1  1  0.17850000  0.43688000  0.03237000  1.0
  Cd  Cd2  1  0.32150000  0.43687000  0.53237000  1.0
  Cd  Cd3  1  0.82149000  0.56313000  0.96763000  1.0
  H  H4  1  0.78484000  0.03935000  0.32051000  1.0
  H  H5  1  0.28484000  0.96065000  0.17948000  1.0
  H  H6  1  0.21515000  0.96065000  0.67949000  1.0
  H  H7  1  0.71516000  0.03935000  0.82051000  1.0
  H  H8  1  0.51921000  0.20151000  0.17586000  1.0
  H  H9  1  0.01921000  0.79849000  0.32414000  1.0
  H  H10  1  0.48079000  0.79849000  0.82414000  1.0
  H  H11  1  0.98079000  0.20151000  0.67586000  1.0
  H  H12  1  0.42506000  0.37596000  0.23252000  1.0
  H  H13  1  0.92506000  0.62404000  0.26748000  1.0
  H  H14  1  0.57494000  0.62404000  0.76748000  1.0
  H  H15  1  0.07495000  0.37596000  0.73252000  1.0
  H  H16  1  0.29318000  0.60055000  0.35820000  1.0
  H  H17  1  0.79318000  0.39946000  0.14181000  1.0
  H  H18  1  0.70682000  0.39945000  0.64181000  1.0
  H  H19  1  0.20683000  0.60055000  0.85819000  1.0
  H  H20  1  0.39282000  0.55404000  0.25540000  1.0
  H  H21  1  0.89282000  0.44596000  0.24460000  1.0
  H  H22  1  0.60718000  0.44596000  0.74460000  1.0
  H  H23  1  0.10718000  0.55404000  0.75540000  1.0
  H  H24  1  0.39856000  0.74836000  0.26643000  1.0
  H  H25  1  0.89856000  0.25164000  0.23357000  1.0
  H  H26  1  0.60145000  0.25164000  0.73357000  1.0
  H  H27  1  0.10145000  0.74836000  0.76643000  1.0
  H  H28  1  0.54814000  0.93000000  0.32634000  1.0
  H  H29  1  0.04814000  0.07000000  0.17366000  1.0
  H  H30  1  0.45187000  0.07000000  0.67366000  1.0
  H  H31  1  0.95187000  0.93000000  0.82634000  1.0
  H  H32  1  0.76466000  0.96363000  0.44609000  1.0
  H  H33  1  0.26466000  0.03637000  0.05391000  1.0
  H  H34  1  0.23534000  0.03637000  0.55391000  1.0
  H  H35  1  0.73534000  0.96363000  0.94609000  1.0
  H  H36  1  0.82414000  0.80868000  0.49613000  1.0
  H  H37  1  0.32414000  0.19132000  0.00387000  1.0
  H  H38  1  0.17585000  0.19132000  0.50387000  1.0
  H  H39  1  0.67586000  0.80868000  0.99613000  1.0
  C  C40  1  0.56313000  0.30098000  0.30872000  1.0
  C  C41  1  0.06313000  0.69902000  0.19127000  1.0
  C  C42  1  0.43687000  0.69902000  0.69127000  1.0
  C  C43  1  0.93687000  0.30098000  0.80872000  1.0
  C  C44  1  0.62342000  0.30453000  0.39045000  1.0
  C  C45  1  0.12343000  0.69547000  0.10955000  1.0
  C  C46  1  0.37658000  0.69547000  0.60955000  1.0
  C  C47  1  0.87658000  0.30453000  0.89045000  1.0
  C  C48  1  0.70329000  0.20581000  0.39031000  1.0
  C  C49  1  0.20329000  0.79419000  0.10969000  1.0
  C  C50  1  0.29671000  0.79419000  0.60969000  1.0
  C  C51  1  0.79672000  0.20581000  0.89031000  1.0
  C  C52  1  0.71817000  0.11110000  0.31762000  1.0
  C  C53  1  0.21818000  0.88890000  0.18238000  1.0
  C  C54  1  0.28182000  0.88890000  0.68238000  1.0
  C  C55  1  0.78183000  0.11110000  0.81762000  1.0
  C  C56  1  0.64777000  0.10933000  0.24071000  1.0
  C  C57  1  0.14777000  0.89067000  0.25928000  1.0
  C  C58  1  0.35223000  0.89067000  0.75928000  1.0
  C  C59  1  0.85223000  0.10933000  0.74071000  1.0
  C  C60  1  0.57126000  0.20269000  0.23621000  1.0
  C  C61  1  0.07127000  0.79731000  0.26379000  1.0
  C  C62  1  0.42874000  0.79731000  0.76379000  1.0
  C  C63  1  0.92874000  0.20269000  0.73621000  1.0
  C  C64  1  0.49050000  0.39519000  0.29461000  1.0
  C  C65  1  0.99050000  0.60481000  0.20539000  1.0
  C  C66  1  0.50950000  0.60481000  0.70539000  1.0
  C  C67  1  0.00950000  0.39519000  0.79460000  1.0
  C  C68  1  0.41961000  0.58088000  0.32428000  1.0
  C  C69  1  0.91961000  0.41912000  0.17572000  1.0
  C  C70  1  0.58039000  0.41913000  0.67572000  1.0
  C  C71  1  0.08039000  0.58088000  0.82428000  1.0
  C  C72  1  0.52367000  0.68666000  0.35356000  1.0
  C  C73  1  0.02367000  0.31335000  0.14644000  1.0
  C  C74  1  0.47633000  0.31335000  0.64644000  1.0
  C  C75  1  0.97633000  0.68666000  0.85356000  1.0
  C  C76  1  0.49095000  0.76595000  0.31864000  1.0
  C  C77  1  0.99095000  0.23405000  0.18136000  1.0
  C  C78  1  0.50905000  0.23406000  0.68136000  1.0
  C  C79  1  0.00905000  0.76595000  0.81864000  1.0
  C  C80  1  0.57576000  0.86684000  0.35190000  1.0
  C  C81  1  0.07576000  0.13316000  0.14810000  1.0
  C  C82  1  0.42424000  0.13316000  0.64810000  1.0
  C  C83  1  0.92424000  0.86684000  0.85190000  1.0
  C  C84  1  0.69611000  0.88560000  0.41785000  1.0
  C  C85  1  0.19611000  0.11440000  0.08216000  1.0
  C  C86  1  0.30389000  0.11440000  0.58215000  1.0
  C  C87  1  0.80389000  0.88560000  0.91784000  1.0
  C  C88  1  0.72741000  0.80105000  0.44682000  1.0
  C  C89  1  0.22741000  0.19895000  0.05318000  1.0
  C  C90  1  0.27258000  0.19896000  0.55318000  1.0
  C  C91  1  0.77259000  0.80105000  0.94682000  1.0
  C  C92  1  0.96895000  0.58157000  0.60512000  1.0
  C  C93  1  0.46895000  0.41843000  0.89488000  1.0
  C  C94  1  0.03104000  0.41843000  0.39488000  1.0
  C  C95  1  0.53105000  0.58157000  0.10512000  1.0
  S  S96  1  0.83756000  0.68121000  0.60866000  1.0
  S  S97  1  0.33755000  0.31878000  0.89133000  1.0
  S  S98  1  0.16244000  0.31878000  0.39134000  1.0
  S  S99  1  0.66244000  0.68122000  0.10866000  1.0
  N  N100  1  0.50134000  0.49582000  0.34661000  1.0
  N  N101  1  0.00134000  0.50418000  0.15339000  1.0
  N  N102  1  0.49866000  0.50418000  0.65339000  1.0
  N  N103  1  0.99866000  0.49581000  0.84661000  1.0
  N  N104  1  0.64214000  0.70459000  0.41588000  1.0
  N  N105  1  0.14214000  0.29542000  0.08412000  1.0
  N  N106  1  0.35786000  0.29542000  0.58412000  1.0
  N  N107  1  0.85786000  0.70458000  0.91588000  1.0
  N  N108  1  0.06430000  0.51083000  0.60590000  1.0
  N  N109  1  0.56430000  0.48917000  0.89410000  1.0
  N  N110  1  0.93570000  0.48917000  0.39410000  1.0
  N  N111  1  0.43569000  0.51082000  0.10590000  1.0
  Cl  Cl112  1  0.78363000  0.20495000  0.48571000  1.0
  Cl  Cl113  1  0.28364000  0.79505000  0.01429000  1.0
  Cl  Cl114  1  0.21637000  0.79505000  0.51429000  1.0
  Cl  Cl115  1  0.71638000  0.20495000  0.98571000  1.0
  Cl  Cl116  1  0.66141000  0.98937000  0.15057000  1.0
  Cl  Cl117  1  0.16142000  0.01063000  0.34943000  1.0
  Cl  Cl118  1  0.33858000  0.01063000  0.84943000  1.0
  Cl  Cl119  1  0.83858000  0.98937000  0.65057000  1.0
  O  O120  1  0.60562000  0.38931000  0.46180000  1.0
  O  O121  1  0.10562000  0.61069000  0.03820000  1.0
  O  O122  1  0.39438000  0.61069000  0.53820000  1.0
  O  O123  1  0.89438000  0.38931000  0.96180000  1.0
