# generated using pymatgen
data_K2H8C12N4O11
_symmetry_space_group_name_H-M   'P 1'
_cell_length_a   7.22183000
_cell_length_b   12.07200000
_cell_length_c   12.07190000
_cell_angle_alpha   60.55740000
_cell_angle_beta   73.41420000
_cell_angle_gamma   73.41370000
_symmetry_Int_Tables_number   1
_chemical_formula_structural   K2H8C12N4O11
_chemical_formula_sum   'K4 H16 C24 N8 O22'
_cell_volume   865.00750280
_cell_formula_units_Z   2
loop_
 _symmetry_equiv_pos_site_id
 _symmetry_equiv_pos_as_xyz
  1  'x, y, z'
loop_
 _atom_site_type_symbol
 _atom_site_label
 _atom_site_symmetry_multiplicity
 _atom_site_fract_x
 _atom_site_fract_y
 _atom_site_fract_z
 _atom_site_occupancy
  K  K0  1  0.25000000  0.37365000  0.62636000  1.0
  K  K1  1  0.74999000  0.62635000  0.37365000  1.0
  K  K2  1  0.75001000  0.14667000  0.85333000  1.0
  K  K3  1  0.24995000  0.85333000  0.14667000  1.0
  H  H4  1  0.59666000  0.68191000  0.81710000  1.0
  H  H5  1  0.90334000  0.18290000  0.31808000  1.0
  H  H6  1  0.40333000  0.31808000  0.18290000  1.0
  H  H7  1  0.09668000  0.81711000  0.68191000  1.0
  H  H8  1  0.80143000  0.41756000  0.17647000  1.0
  H  H9  1  0.69857000  0.82354000  0.58244000  1.0
  H  H10  1  0.19858000  0.58245000  0.82353000  1.0
  H  H11  1  0.30144000  0.17646000  0.41755000  1.0
  H  H12  1  0.96589000  0.25774000  0.08845000  1.0
  H  H13  1  0.53412000  0.91155000  0.74226000  1.0
  H  H14  1  0.03411000  0.74226000  0.91156000  1.0
  H  H15  1  0.46589000  0.08844000  0.25774000  1.0
  H  H16  1  0.65495000  0.91620000  0.14871000  1.0
  H  H17  1  0.84502000  0.85129000  0.08380000  1.0
  H  H18  1  0.34504000  0.08379000  0.85129000  1.0
  H  H19  1  0.15497000  0.14871000  0.91621000  1.0
  C  C20  1  0.88722000  0.37811000  0.89929000  1.0
  C  C21  1  0.61279000  0.10072000  0.62189000  1.0
  C  C22  1  0.11277000  0.62189000  0.10072000  1.0
  C  C23  1  0.38721000  0.89927000  0.37810000  1.0
  C  C24  1  0.77375000  0.50290000  0.82471000  1.0
  C  C25  1  0.72626000  0.17529000  0.49710000  1.0
  C  C26  1  0.22625000  0.49710000  0.17528000  1.0
  C  C27  1  0.27375000  0.82471000  0.50290000  1.0
  C  C28  1  0.68129000  0.59068000  0.87501000  1.0
  C  C29  1  0.81871000  0.12500000  0.40932000  1.0
  C  C30  1  0.31870000  0.40932000  0.12499000  1.0
  C  C31  1  0.18131000  0.87500000  0.59067000  1.0
  C  C32  1  0.69399000  0.56028000  0.99963000  1.0
  C  C33  1  0.80600000  0.00038000  0.43972000  1.0
  C  C34  1  0.30600000  0.43972000  0.00037000  1.0
  C  C35  1  0.19402000  0.99962000  0.56027000  1.0
  C  C36  1  0.79536000  0.43881000  0.07870000  1.0
  C  C37  1  0.70463000  0.92131000  0.56119000  1.0
  C  C38  1  0.20463000  0.56120000  0.92131000  1.0
  C  C39  1  0.29538000  0.07869000  0.43880000  1.0
  C  C40  1  0.88658000  0.35191000  0.02988000  1.0
  C  C41  1  0.61343000  0.97013000  0.64809000  1.0
  C  C42  1  0.11341000  0.64809000  0.97014000  1.0
  C  C43  1  0.38659000  0.02986000  0.35190000  1.0
  N  N44  1  0.74621000  0.54072000  0.69657000  1.0
  N  N45  1  0.75379000  0.30343000  0.45929000  1.0
  N  N46  1  0.25379000  0.45929000  0.30343000  1.0
  N  N47  1  0.24621000  0.69657000  0.54071000  1.0
  N  N48  1  0.59672000  0.65220000  0.04877000  1.0
  N  N49  1  0.90327000  0.95123000  0.34779000  1.0
  N  N50  1  0.40328000  0.34780000  0.95123000  1.0
  N  N51  1  0.09674000  0.04877000  0.65220000  1.0
  O  O52  1  0.97710000  0.29549000  0.85713000  1.0
  O  O53  1  0.52291000  0.14287000  0.70451000  1.0
  O  O54  1  0.02288000  0.70450000  0.14288000  1.0
  O  O55  1  0.47709000  0.85712000  0.29548000  1.0
  O  O56  1  0.85019000  0.47894000  0.63577000  1.0
  O  O57  1  0.64981000  0.36424000  0.52105000  1.0
  O  O58  1  0.14980000  0.52105000  0.36425000  1.0
  O  O59  1  0.35020000  0.63575000  0.47895000  1.0
  O  O60  1  0.61633000  0.63576000  0.64885000  1.0
  O  O61  1  0.88367000  0.35115000  0.36424000  1.0
  O  O62  1  0.38367000  0.36424000  0.35116000  1.0
  O  O63  1  0.11633000  0.64885000  0.63576000  1.0
  O  O64  1  0.50851000  0.75910000  0.97654000  1.0
  O  O65  1  0.99148000  0.02346000  0.24090000  1.0
  O  O66  1  0.49149000  0.24090000  0.02345000  1.0
  O  O67  1  0.00852000  0.97655000  0.75909000  1.0
  O  O68  1  0.59934000  0.62225000  0.16386000  1.0
  O  O69  1  0.90063000  0.83615000  0.37774000  1.0
  O  O70  1  0.40065000  0.37776000  0.83614000  1.0
  O  O71  1  0.09938000  0.16385000  0.62224000  1.0
  O  O72  1  0.75000000  0.93237000  0.06763000  1.0
  O  O73  1  0.25000000  0.06763000  0.93237000  1.0
