# generated using pymatgen
data_ZnH18C17N4O5
_symmetry_space_group_name_H-M   'P 1'
_cell_length_a   7.70276000
_cell_length_b   10.64734450
_cell_length_c   11.96560000
_cell_angle_alpha   87.50049793
_cell_angle_beta   89.07870000
_cell_angle_gamma   69.18738359
_symmetry_Int_Tables_number   1
_chemical_formula_structural   ZnH18C17N4O5
_chemical_formula_sum   'Zn2 H36 C34 N8 O10'
_cell_volume   916.43776561
_cell_formula_units_Z   2
loop_
 _symmetry_equiv_pos_site_id
 _symmetry_equiv_pos_as_xyz
  1  'x, y, z'
loop_
 _atom_site_type_symbol
 _atom_site_label
 _atom_site_symmetry_multiplicity
 _atom_site_fract_x
 _atom_site_fract_y
 _atom_site_fract_z
 _atom_site_occupancy
  Zn  Zn0  1  0.94448000  0.37657000  0.84576000  1.0
  Zn  Zn1  1  0.05552000  0.62344000  0.15422000  1.0
  H  H2  1  0.75443000  0.06879000  0.68491000  1.0
  H  H3  1  0.24556000  0.93123000  0.31508000  1.0
  H  H4  1  0.54333000  0.20184000  0.69946000  1.0
  H  H5  1  0.45666000  0.79817000  0.30053000  1.0
  H  H6  1  0.55547000  0.99680000  0.81865000  1.0
  H  H7  1  0.44452000  0.00320000  0.18133000  1.0
  H  H8  1  0.74607000  0.00827000  0.89331000  1.0
  H  H9  1  0.25392000  0.99173000  0.10667000  1.0
  H  H10  1  0.47286000  0.11323000  0.00690000  1.0
  H  H11  1  0.52713000  0.88676000  0.99309000  1.0
  H  H12  1  0.54303000  0.24114000  0.94973000  1.0
  H  H13  1  0.45696000  0.75885000  0.05027000  1.0
  H  H14  1  0.83233000  0.68078000  0.85017000  1.0
  H  H15  1  0.16766000  0.31923000  0.14982000  1.0
  H  H16  1  0.86001000  0.86700000  0.72609000  1.0
  H  H17  1  0.13998000  0.13300000  0.27390000  1.0
  H  H18  1  0.18536000  0.56799000  0.49990000  1.0
  H  H19  1  0.81467000  0.43202000  0.50010000  1.0
  H  H20  1  0.14307000  0.39146000  0.63420000  1.0
  H  H21  1  0.85696000  0.60854000  0.36580000  1.0
  H  H22  1  0.12333000  0.79687000  0.44499000  1.0
  H  H23  1  0.87667000  0.20314000  0.55500000  1.0
  H  H24  1  0.75342000  0.56248000  0.98920000  1.0
  H  H25  1  0.24659000  0.43752000  0.01079000  1.0
  H  H26  1  0.60649000  0.52511000  0.91393000  1.0
  H  H27  1  0.39350000  0.47489000  0.08608000  1.0
  H  H28  1  0.43836000  0.30322000  0.43381000  1.0
  H  H29  1  0.56165000  0.69677000  0.56621000  1.0
  H  H30  1  0.42307000  0.49951000  0.30458000  1.0
  H  H31  1  0.57694000  0.50049000  0.69544000  1.0
  H  H32  1  0.75778000  0.24953000  0.07004000  1.0
  H  H33  1  0.24219000  0.75046000  0.92997000  1.0
  H  H34  1  0.78429000  0.04218000  0.18890000  1.0
  H  H35  1  0.21569000  0.95782000  0.81111000  1.0
  H  H36  1  0.68363000  0.93985000  0.35838000  1.0
  H  H37  1  0.31637000  0.06014000  0.64162000  1.0
  C  C38  1  0.77675000  0.22843000  0.77379000  1.0
  C  C39  1  0.22326000  0.77157000  0.22620000  1.0
  C  C40  1  0.66876000  0.13997000  0.74579000  1.0
  C  C41  1  0.33123000  0.86004000  0.25420000  1.0
  C  C42  1  0.61875000  0.06748000  0.84726000  1.0
  C  C43  1  0.38124000  0.93251000  0.15272000  1.0
  C  C44  1  0.48613000  0.16449000  0.92713000  1.0
  C  C45  1  0.51386000  0.83550000  0.07286000  1.0
  C  C46  1  0.29172000  0.23725000  0.88341000  1.0
  C  C47  1  0.70828000  0.76275000  0.11659000  1.0
  C  C48  1  0.90761000  0.66002000  0.77115000  1.0
  C  C49  1  0.09239000  0.33998000  0.22886000  1.0
  C  C50  1  0.92438000  0.76327000  0.70233000  1.0
  C  C51  1  0.07561000  0.23675000  0.29767000  1.0
  C  C52  1  0.02415000  0.73249000  0.60176000  1.0
  C  C53  1  0.97586000  0.26751000  0.39824000  1.0
  C  C54  1  0.10566000  0.59611000  0.57680000  1.0
  C  C55  1  0.89436000  0.40389000  0.42321000  1.0
  C  C56  1  0.08221000  0.49841000  0.65004000  1.0
  C  C57  1  0.91781000  0.50160000  0.34997000  1.0
  C  C58  1  0.04767000  0.83366000  0.52265000  1.0
  C  C59  1  0.95233000  0.16633000  0.47735000  1.0
  C  C60  1  0.51027000  0.28859000  0.35361000  1.0
  C  C61  1  0.48974000  0.71141000  0.64642000  1.0
  C  C62  1  0.50331000  0.39645000  0.28254000  1.0
  C  C63  1  0.49669000  0.60355000  0.71748000  1.0
  C  C64  1  0.68848000  0.25718000  0.15121000  1.0
  C  C65  1  0.31150000  0.74282000  0.84881000  1.0
  C  C66  1  0.70344000  0.14232000  0.21717000  1.0
  C  C67  1  0.29654000  0.85768000  0.78285000  1.0
  C  C68  1  0.60183000  0.04107000  0.38569000  1.0
  C  C69  1  0.39816000  0.95892000  0.61432000  1.0
  C  C70  1  0.60660000  0.15757000  0.31905000  1.0
  C  C71  1  0.39340000  0.84242000  0.68097000  1.0
  N  N72  1  0.98359000  0.52950000  0.74539000  1.0
  N  N73  1  0.01644000  0.47051000  0.25461000  1.0
  N  N74  1  0.98136000  0.96053000  0.54311000  1.0
  N  N75  1  0.01863000  0.03947000  0.45689000  1.0
  N  N76  1  0.58463000  0.38221000  0.18075000  1.0
  N  N77  1  0.41536000  0.61779000  0.81927000  1.0
  N  N78  1  0.49594000  0.05983000  0.47333000  1.0
  N  N79  1  0.50406000  0.94016000  0.52668000  1.0
  O  O80  1  0.79038000  0.31587000  0.70110000  1.0
  O  O81  1  0.20964000  0.68413000  0.29889000  1.0
  O  O82  1  0.85378000  0.21511000  0.86996000  1.0
  O  O83  1  0.14623000  0.78488000  0.13004000  1.0
  O  O84  1  0.73275000  0.48862000  0.94845000  1.0
  O  O85  1  0.26725000  0.51138000  0.05155000  1.0
  O  O86  1  0.17863000  0.32639000  0.94772000  1.0
  O  O87  1  0.82138000  0.67361000  0.05228000  1.0
  O  O88  1  0.23780000  0.21403000  0.79067000  1.0
  O  O89  1  0.76219000  0.78598000  0.20933000  1.0
