# generated using pymatgen
data_InPH9C2N2O4F
_symmetry_space_group_name_H-M   'P 1'
_cell_length_a   7.83491000
_cell_length_b   9.20894000
_cell_length_c   10.00830000
_cell_angle_alpha   100.94200000
_cell_angle_beta   90.00000000
_cell_angle_gamma   89.99970000
_symmetry_Int_Tables_number   1
_chemical_formula_structural   InPH9C2N2O4F
_chemical_formula_sum   'In4 P4 H36 C8 N8 O16 F4'
_cell_volume   708.98291839
_cell_formula_units_Z   4
loop_
 _symmetry_equiv_pos_site_id
 _symmetry_equiv_pos_as_xyz
  1  'x, y, z'
loop_
 _atom_site_type_symbol
 _atom_site_label
 _atom_site_symmetry_multiplicity
 _atom_site_fract_x
 _atom_site_fract_y
 _atom_site_fract_z
 _atom_site_occupancy
  In  In0  1  0.38593000  0.48890000  0.73816000  1.0
  In  In1  1  0.88593000  0.51110000  0.76184000  1.0
  In  In2  1  0.61407000  0.51110000  0.26183000  1.0
  In  In3  1  0.11407000  0.48890000  0.23817000  1.0
  P  P4  1  0.36737000  0.28385000  0.42168000  1.0
  P  P5  1  0.86736000  0.71614000  0.07832000  1.0
  P  P6  1  0.63263000  0.71614000  0.57832000  1.0
  P  P7  1  0.13263000  0.28386000  0.92168000  1.0
  H  H8  1  0.36380000  0.60447000  0.00600000  1.0
  H  H9  1  0.86381000  0.39552000  0.49400000  1.0
  H  H10  1  0.63619000  0.39552000  0.99400000  1.0
  H  H11  1  0.13619000  0.60448000  0.50600000  1.0
  H  H12  1  0.53267000  0.68072000  0.95586000  1.0
  H  H13  1  0.03267000  0.31927000  0.54414000  1.0
  H  H14  1  0.46733000  0.31928000  0.04414000  1.0
  H  H15  1  0.96734000  0.68073000  0.45586000  1.0
  H  H16  1  0.17352000  0.77212000  0.92812000  1.0
  H  H17  1  0.67352000  0.22788000  0.57188000  1.0
  H  H18  1  0.82648000  0.22788000  0.07187000  1.0
  H  H19  1  0.32648000  0.77212000  0.42813000  1.0
  H  H20  1  0.35143000  0.86141000  0.87005000  1.0
  H  H21  1  0.85143000  0.13859000  0.62995000  1.0
  H  H22  1  0.64856000  0.13859000  0.12995000  1.0
  H  H23  1  0.14857000  0.86141000  0.37005000  1.0
  H  H24  1  0.45612000  0.94514000  0.10254000  1.0
  H  H25  1  0.95613000  0.05486000  0.39745000  1.0
  H  H26  1  0.54387000  0.05486000  0.89745000  1.0
  H  H27  1  0.04387000  0.94514000  0.60255000  1.0
  H  H28  1  0.32779000  0.81394000  0.16387000  1.0
  H  H29  1  0.82779000  0.18606000  0.33613000  1.0
  H  H30  1  0.67221000  0.18606000  0.83613000  1.0
  H  H31  1  0.17221000  0.81394000  0.66387000  1.0
  H  H32  1  0.18759000  0.07733000  0.06695000  1.0
  H  H33  1  0.68759000  0.92268000  0.43305000  1.0
  H  H34  1  0.81241000  0.92267000  0.93305000  1.0
  H  H35  1  0.31241000  0.07733000  0.56695000  1.0
  H  H36  1  0.23650000  0.06256000  0.22910000  1.0
  H  H37  1  0.73650000  0.93744000  0.27090000  1.0
  H  H38  1  0.76350000  0.93744000  0.77090000  1.0
  H  H39  1  0.26350000  0.06256000  0.72910000  1.0
  H  H40  1  0.07498000  0.95523000  0.13716000  1.0
  H  H41  1  0.57498000  0.04477000  0.36284000  1.0
  H  H42  1  0.92502000  0.04477000  0.86284000  1.0
  H  H43  1  0.42502000  0.95523000  0.63716000  1.0
  C  C44  1  0.30845000  0.79997000  0.94764000  1.0
  C  C45  1  0.80845000  0.20003000  0.55236000  1.0
  C  C46  1  0.69155000  0.20003000  0.05236000  1.0
  C  C47  1  0.19155000  0.79997000  0.44764000  1.0
  C  C48  1  0.33163000  0.88924000  0.09120000  1.0
  C  C49  1  0.83163000  0.11076000  0.40880000  1.0
  C  C50  1  0.66837000  0.11076000  0.90880000  1.0
  C  C51  1  0.16837000  0.88924000  0.59120000  1.0
  N  N52  1  0.40579000  0.66072000  0.93272000  1.0
  N  N53  1  0.90579000  0.33928000  0.56728000  1.0
  N  N54  1  0.59421000  0.33928000  0.06728000  1.0
  N  N55  1  0.09421000  0.66072000  0.43272000  1.0
  N  N56  1  0.19769000  0.00317000  0.13270000  1.0
  N  N57  1  0.69769000  0.99683000  0.36730000  1.0
  N  N58  1  0.80231000  0.99682000  0.86730000  1.0
  N  N59  1  0.30231000  0.00318000  0.63270000  1.0
  O  O60  1  0.36124000  0.30236000  0.58059000  1.0
  O  O61  1  0.86123000  0.69764000  0.91941000  1.0
  O  O62  1  0.63877000  0.69764000  0.41941000  1.0
  O  O63  1  0.13879000  0.30236000  0.08060000  1.0
  O  O64  1  0.29646000  0.35422000  0.87595000  1.0
  O  O65  1  0.79646000  0.64578000  0.62404000  1.0
  O  O66  1  0.70354000  0.64578000  0.12404000  1.0
  O  O67  1  0.20354000  0.35422000  0.37596000  1.0
  O  O68  1  0.46718000  0.64534000  0.62113000  1.0
  O  O69  1  0.96718000  0.35467000  0.87888000  1.0
  O  O70  1  0.53281000  0.35465000  0.37886000  1.0
  O  O71  1  0.03281000  0.64534000  0.12113000  1.0
  O  O72  1  0.36905000  0.11477000  0.36686000  1.0
  O  O73  1  0.86905000  0.88523000  0.13314000  1.0
  O  O74  1  0.63095000  0.88522000  0.63314000  1.0
  O  O75  1  0.13095000  0.11478000  0.86686000  1.0
  F  F76  1  0.63662000  0.42497000  0.79456000  1.0
  F  F77  1  0.13662000  0.57502000  0.70543000  1.0
  F  F78  1  0.36338000  0.57502000  0.20544000  1.0
  F  F79  1  0.86338000  0.42497000  0.29456000  1.0
