# generated using pymatgen
data_CoH18C12O7
_symmetry_space_group_name_H-M   'P 1'
_cell_length_a   7.80948000
_cell_length_b   22.16030000
_cell_length_c   22.16030000
_cell_angle_alpha   90.00000000
_cell_angle_beta   90.00000000
_cell_angle_gamma   89.99980000
_symmetry_Int_Tables_number   1
_chemical_formula_structural   CoH18C12O7
_chemical_formula_sum   'Co8 H144 C96 O56'
_cell_volume   3835.07081741
_cell_formula_units_Z   8
loop_
 _symmetry_equiv_pos_site_id
 _symmetry_equiv_pos_as_xyz
  1  'x, y, z'
loop_
 _atom_site_type_symbol
 _atom_site_label
 _atom_site_symmetry_multiplicity
 _atom_site_fract_x
 _atom_site_fract_y
 _atom_site_fract_z
 _atom_site_occupancy
  Co  Co0  1  0.76337000  0.25591000  0.75518000  1.0
  Co  Co1  1  0.76336000  0.74409000  0.24482000  1.0
  Co  Co2  1  0.23663000  0.75518000  0.74409000  1.0
  Co  Co3  1  0.23663000  0.24482000  0.25591000  1.0
  Co  Co4  1  0.73663000  0.24409000  0.25518000  1.0
  Co  Co5  1  0.73663000  0.75591000  0.74482000  1.0
  Co  Co6  1  0.26336000  0.74482000  0.24409000  1.0
  Co  Co7  1  0.26337000  0.25518000  0.75591000  1.0
  H  H8  1  0.98558000  0.34733000  0.75778000  1.0
  H  H9  1  0.98557000  0.65267000  0.24222000  1.0
  H  H10  1  0.01443000  0.75777000  0.65267000  1.0
  H  H11  1  0.01443000  0.24222000  0.34733000  1.0
  H  H12  1  0.51443000  0.15267000  0.25778000  1.0
  H  H13  1  0.51443000  0.84733000  0.74222000  1.0
  H  H14  1  0.48557000  0.74222000  0.15267000  1.0
  H  H15  1  0.48557000  0.25778000  0.84733000  1.0
  H  H16  1  0.82034000  0.36884000  0.72017000  1.0
  H  H17  1  0.82034000  0.63116000  0.27983000  1.0
  H  H18  1  0.17966000  0.72017000  0.63115000  1.0
  H  H19  1  0.17966000  0.27983000  0.36884000  1.0
  H  H20  1  0.67967000  0.13116000  0.22017000  1.0
  H  H21  1  0.67967000  0.86884000  0.77983000  1.0
  H  H22  1  0.32033000  0.77983000  0.13116000  1.0
  H  H23  1  0.32034000  0.22016000  0.86884000  1.0
  H  H24  1  0.54204000  0.16240000  0.75171000  1.0
  H  H25  1  0.54203000  0.83760000  0.24829000  1.0
  H  H26  1  0.45797000  0.75171000  0.83760000  1.0
  H  H27  1  0.45797000  0.24829000  0.16240000  1.0
  H  H28  1  0.95796000  0.33760000  0.25171000  1.0
  H  H29  1  0.95796000  0.66240000  0.74829000  1.0
  H  H30  1  0.04203000  0.74829000  0.33760000  1.0
  H  H31  1  0.04204000  0.25171000  0.66241000  1.0
  H  H32  1  0.72027000  0.13679000  0.77883000  1.0
  H  H33  1  0.72026000  0.86321000  0.22117000  1.0
  H  H34  1  0.27973000  0.77883000  0.86321000  1.0
  H  H35  1  0.27974000  0.22117000  0.13679000  1.0
  H  H36  1  0.77973000  0.36321000  0.27883000  1.0
  H  H37  1  0.77973000  0.63679000  0.72117000  1.0
  H  H38  1  0.22027000  0.72117000  0.36321000  1.0
  H  H39  1  0.22027000  0.27883000  0.63679000  1.0
  H  H40  1  0.03155000  0.18160000  0.77823000  1.0
  H  H41  1  0.03155000  0.81840000  0.22178000  1.0
  H  H42  1  0.96846000  0.77822000  0.81840000  1.0
  H  H43  1  0.96845000  0.22177000  0.18160000  1.0
  H  H44  1  0.46845000  0.31840000  0.27823000  1.0
  H  H45  1  0.46846000  0.68160000  0.72178000  1.0
  H  H46  1  0.53154000  0.72177000  0.31840000  1.0
  H  H47  1  0.53155000  0.27822000  0.68160000  1.0
  H  H48  1  0.99440000  0.23580000  0.83003000  1.0
  H  H49  1  0.99440000  0.76421000  0.16997000  1.0
  H  H50  1  0.00560000  0.83003000  0.76420000  1.0
  H  H51  1  0.00560000  0.16997000  0.23579000  1.0
  H  H52  1  0.50560000  0.26420000  0.33003000  1.0
  H  H53  1  0.50560000  0.73579000  0.66997000  1.0
  H  H54  1  0.49440000  0.66997000  0.26420000  1.0
  H  H55  1  0.49441000  0.33003000  0.73580000  1.0
  H  H56  1  0.61455000  0.26387000  0.50539000  1.0
  H  H57  1  0.61452000  0.73613000  0.49460000  1.0
  H  H58  1  0.38547000  0.50539000  0.73613000  1.0
  H  H59  1  0.38546000  0.49460000  0.26387000  1.0
  H  H60  1  0.88547000  0.23614000  0.00539000  1.0
  H  H61  1  0.88546000  0.76387000  0.99460000  1.0
  H  H62  1  0.11454000  0.99460000  0.23612000  1.0
  H  H63  1  0.11453000  0.00539000  0.76387000  1.0
  H  H64  1  0.99899000  0.16449000  0.40871000  1.0
  H  H65  1  0.99898000  0.83550000  0.59129000  1.0
  H  H66  1  0.00101000  0.40871000  0.83551000  1.0
  H  H67  1  0.00100000  0.59129000  0.16449000  1.0
  H  H68  1  0.50099000  0.33551000  0.90871000  1.0
  H  H69  1  0.50101000  0.66450000  0.09129000  1.0
  H  H70  1  0.49900000  0.09129000  0.33550000  1.0
  H  H71  1  0.49899000  0.90871000  0.66450000  1.0
  H  H72  1  0.01679000  0.17411000  0.60244000  1.0
  H  H73  1  0.01678000  0.82588000  0.39756000  1.0
  H  H74  1  0.98321000  0.60244000  0.82588000  1.0
  H  H75  1  0.98321000  0.39755000  0.17411000  1.0
  H  H76  1  0.48322000  0.32589000  0.10245000  1.0
  H  H77  1  0.48322000  0.67412000  0.89755000  1.0
  H  H78  1  0.51679000  0.89756000  0.32588000  1.0
  H  H79  1  0.51678000  0.10244000  0.67412000  1.0
  H  H80  1  0.34919000  0.21107000  0.50383000  1.0
  H  H81  1  0.34918000  0.78892000  0.49617000  1.0
  H  H82  1  0.65082000  0.50383000  0.78893000  1.0
  H  H83  1  0.65081000  0.49617000  0.21107000  1.0
  H  H84  1  0.15082000  0.28893000  0.00383000  1.0
  H  H85  1  0.15083000  0.71107000  0.99617000  1.0
  H  H86  1  0.84918000  0.99617000  0.28893000  1.0
  H  H87  1  0.84918000  0.00382000  0.71107000  1.0
  H  H88  1  0.46195000  0.14730000  0.53089000  1.0
  H  H89  1  0.46194000  0.85269000  0.46911000  1.0
  H  H90  1  0.53806000  0.53089000  0.85270000  1.0
  H  H91  1  0.53805000  0.46911000  0.14730000  1.0
  H  H92  1  0.03805000  0.35270000  0.03089000  1.0
  H  H93  1  0.03806000  0.64731000  0.96911000  1.0
  H  H94  1  0.96195000  0.96911000  0.35270000  1.0
  H  H95  1  0.96194000  0.03088000  0.64731000  1.0
  H  H96  1  0.31225000  0.18417000  0.57852000  1.0
  H  H97  1  0.31224000  0.81583000  0.42148000  1.0
  H  H98  1  0.68775000  0.57852000  0.81583000  1.0
  H  H99  1  0.68774000  0.42148000  0.18416000  1.0
  H  H100  1  0.18775000  0.31584000  0.07852000  1.0
  H  H101  1  0.18776000  0.68417000  0.92148000  1.0
  H  H102  1  0.81225000  0.92148000  0.31584000  1.0
  H  H103  1  0.81225000  0.07851000  0.68417000  1.0
  H  H104  1  0.29879000  0.04827000  0.55061000  1.0
  H  H105  1  0.29880000  0.95172000  0.44939000  1.0
  H  H106  1  0.70121000  0.55061000  0.95172000  1.0
  H  H107  1  0.70120000  0.44939000  0.04827000  1.0
  H  H108  1  0.20120000  0.45173000  0.05061000  1.0
  H  H109  1  0.20121000  0.54828000  0.94939000  1.0
  H  H110  1  0.79879000  0.94939000  0.45173000  1.0
  H  H111  1  0.79880000  0.05060000  0.54828000  1.0
  H  H112  1  0.07849000  0.04248000  0.53177000  1.0
  H  H113  1  0.07849000  0.95752000  0.46823000  1.0
  H  H114  1  0.92151000  0.53177000  0.95752000  1.0
  H  H115  1  0.92151000  0.46823000  0.04247000  1.0
  H  H116  1  0.42151000  0.45753000  0.03177000  1.0
  H  H117  1  0.42152000  0.54248000  0.96823000  1.0
  H  H118  1  0.57849000  0.96823000  0.45753000  1.0
  H  H119  1  0.57849000  0.03177000  0.54248000  1.0
  H  H120  1  0.14448000  0.08634000  0.59484000  1.0
  H  H121  1  0.14449000  0.91366000  0.40517000  1.0
  H  H122  1  0.85552000  0.59484000  0.91366000  1.0
  H  H123  1  0.85551000  0.40517000  0.08633000  1.0
  H  H124  1  0.35551000  0.41367000  0.09483000  1.0
  H  H125  1  0.35552000  0.58634000  0.90517000  1.0
  H  H126  1  0.64448000  0.90517000  0.41366000  1.0
  H  H127  1  0.64449000  0.09483000  0.58634000  1.0
  H  H128  1  0.27757000  0.14484000  0.41347000  1.0
  H  H129  1  0.27757000  0.85516000  0.58653000  1.0
  H  H130  1  0.72244000  0.41347000  0.85516000  1.0
  H  H131  1  0.72243000  0.58653000  0.14484000  1.0
  H  H132  1  0.22243000  0.35516000  0.91348000  1.0
  H  H133  1  0.22243000  0.64484000  0.08652000  1.0
  H  H134  1  0.77757000  0.08653000  0.35516000  1.0
  H  H135  1  0.77756000  0.91347000  0.64484000  1.0
  H  H136  1  0.15533000  0.07747000  0.42298000  1.0
  H  H137  1  0.15533000  0.92253000  0.57702000  1.0
  H  H138  1  0.84468000  0.42298000  0.92253000  1.0
  H  H139  1  0.84468000  0.57702000  0.07747000  1.0
  H  H140  1  0.34467000  0.42253000  0.92298000  1.0
  H  H141  1  0.34468000  0.57747000  0.07702000  1.0
  H  H142  1  0.65532000  0.07702000  0.42253000  1.0
  H  H143  1  0.65532000  0.92298000  0.57747000  1.0
  H  H144  1  0.36995000  0.08062000  0.44829000  1.0
  H  H145  1  0.36995000  0.91938000  0.55170000  1.0
  H  H146  1  0.63006000  0.44829000  0.91938000  1.0
  H  H147  1  0.63005000  0.55171000  0.08062000  1.0
  H  H148  1  0.13005000  0.41938000  0.94829000  1.0
  H  H149  1  0.13005000  0.58062000  0.05170000  1.0
  H  H150  1  0.86995000  0.05171000  0.41938000  1.0
  H  H151  1  0.86994000  0.94829000  0.58062000  1.0
  C  C152  1  0.81057000  0.22188000  0.55980000  1.0
  C  C153  1  0.81056000  0.77812000  0.44020000  1.0
  C  C154  1  0.18944000  0.55980000  0.77812000  1.0
  C  C155  1  0.18943000  0.44020000  0.22188000  1.0
  C  C156  1  0.68944000  0.27813000  0.05980000  1.0
  C  C157  1  0.68944000  0.72188000  0.94020000  1.0
  C  C158  1  0.31057000  0.94020000  0.27812000  1.0
  C  C159  1  0.31056000  0.05980000  0.72189000  1.0
  C  C160  1  0.72998000  0.23646000  0.50535000  1.0
  C  C161  1  0.72996000  0.76354000  0.49465000  1.0
  C  C162  1  0.27003000  0.50535000  0.76354000  1.0
  C  C163  1  0.27002000  0.49465000  0.23646000  1.0
  C  C164  1  0.77003000  0.26355000  0.00535000  1.0
  C  C165  1  0.77002000  0.73646000  0.99465000  1.0
  C  C166  1  0.22998000  0.99465000  0.26354000  1.0
  C  C167  1  0.22997000  0.00534000  0.73646000  1.0
  C  C168  1  0.79968000  0.21611000  0.45112000  1.0
  C  C169  1  0.79966000  0.78389000  0.54888000  1.0
  C  C170  1  0.20033000  0.45112000  0.78389000  1.0
  C  C171  1  0.20032000  0.54888000  0.21611000  1.0
  C  C172  1  0.70033000  0.28390000  0.95112000  1.0
  C  C173  1  0.70033000  0.71611000  0.04888000  1.0
  C  C174  1  0.29968000  0.04888000  0.28388000  1.0
  C  C175  1  0.29967000  0.95111000  0.71611000  1.0
  C  C176  1  0.94813000  0.18034000  0.45152000  1.0
  C  C177  1  0.94812000  0.81966000  0.54848000  1.0
  C  C178  1  0.05188000  0.45152000  0.81966000  1.0
  C  C179  1  0.05187000  0.54848000  0.18034000  1.0
  C  C180  1  0.55187000  0.31967000  0.95152000  1.0
  C  C181  1  0.55188000  0.68034000  0.04848000  1.0
  C  C182  1  0.44813000  0.04848000  0.31966000  1.0
  C  C183  1  0.44813000  0.95152000  0.68034000  1.0
  C  C184  1  0.02951000  0.16462000  0.50545000  1.0
  C  C185  1  0.02950000  0.83538000  0.49455000  1.0
  C  C186  1  0.97049000  0.50545000  0.83538000  1.0
  C  C187  1  0.97049000  0.49455000  0.16461000  1.0
  C  C188  1  0.47049000  0.33539000  0.00545000  1.0
  C  C189  1  0.47049000  0.66462000  0.99455000  1.0
  C  C190  1  0.52952000  0.99455000  0.33538000  1.0
  C  C191  1  0.52951000  0.00545000  0.66462000  1.0
  C  C192  1  0.95789000  0.18590000  0.55948000  1.0
  C  C193  1  0.95787000  0.81410000  0.44052000  1.0
  C  C194  1  0.04212000  0.55948000  0.81410000  1.0
  C  C195  1  0.04211000  0.44052000  0.18590000  1.0
  C  C196  1  0.54212000  0.31410000  0.05948000  1.0
  C  C197  1  0.54212000  0.68590000  0.94052000  1.0
  C  C198  1  0.45788000  0.94052000  0.31410000  1.0
  C  C199  1  0.45788000  0.05948000  0.68591000  1.0
  C  C200  1  0.73701000  0.24516000  0.61756000  1.0
  C  C201  1  0.73700000  0.75484000  0.38244000  1.0
  C  C202  1  0.26300000  0.61756000  0.75484000  1.0
  C  C203  1  0.26299000  0.38244000  0.24517000  1.0
  C  C204  1  0.76300000  0.25484000  0.11756000  1.0
  C  C205  1  0.76300000  0.74517000  0.88244000  1.0
  C  C206  1  0.23700000  0.88244000  0.25483000  1.0
  C  C207  1  0.23701000  0.11756000  0.74517000  1.0
  C  C208  1  0.71590000  0.23349000  0.39302000  1.0
  C  C209  1  0.71588000  0.76651000  0.60698000  1.0
  C  C210  1  0.28411000  0.39302000  0.76651000  1.0
  C  C211  1  0.28410000  0.60698000  0.23349000  1.0
  C  C212  1  0.78410000  0.26651000  0.89302000  1.0
  C  C213  1  0.78411000  0.73349000  0.10698000  1.0
  C  C214  1  0.21590000  0.10698000  0.26651000  1.0
  C  C215  1  0.21589000  0.89302000  0.73349000  1.0
  C  C216  1  0.19661000  0.12858000  0.50695000  1.0
  C  C217  1  0.19661000  0.87142000  0.49305000  1.0
  C  C218  1  0.80340000  0.50695000  0.87142000  1.0
  C  C219  1  0.80339000  0.49305000  0.12858000  1.0
  C  C220  1  0.30339000  0.37143000  0.00695000  1.0
  C  C221  1  0.30340000  0.62858000  0.99305000  1.0
  C  C222  1  0.69661000  0.99305000  0.37142000  1.0
  C  C223  1  0.69661000  0.00695000  0.62858000  1.0
  C  C224  1  0.33764000  0.17038000  0.53180000  1.0
  C  C225  1  0.33763000  0.82962000  0.46820000  1.0
  C  C226  1  0.66237000  0.53180000  0.82962000  1.0
  C  C227  1  0.66236000  0.46820000  0.17038000  1.0
  C  C228  1  0.16237000  0.32962000  0.03180000  1.0
  C  C229  1  0.16237000  0.67038000  0.96820000  1.0
  C  C230  1  0.83764000  0.96820000  0.32962000  1.0
  C  C231  1  0.83763000  0.03180000  0.67039000  1.0
  C  C232  1  0.17773000  0.07337000  0.54850000  1.0
  C  C233  1  0.17773000  0.92663000  0.45150000  1.0
  C  C234  1  0.82228000  0.54850000  0.92663000  1.0
  C  C235  1  0.82227000  0.45150000  0.07337000  1.0
  C  C236  1  0.32227000  0.42663000  0.04850000  1.0
  C  C237  1  0.32228000  0.57337000  0.95149000  1.0
  C  C238  1  0.67772000  0.95150000  0.42663000  1.0
  C  C239  1  0.67773000  0.04850000  0.57338000  1.0
  C  C240  1  0.25138000  0.10695000  0.44411000  1.0
  C  C241  1  0.25138000  0.89305000  0.55589000  1.0
  C  C242  1  0.74863000  0.44411000  0.89305000  1.0
  C  C243  1  0.74862000  0.55589000  0.10695000  1.0
  C  C244  1  0.24862000  0.39305000  0.94411000  1.0
  C  C245  1  0.24863000  0.60695000  0.05589000  1.0
  C  C246  1  0.75138000  0.05589000  0.39305000  1.0
  C  C247  1  0.75137000  0.94411000  0.60695000  1.0
  O  O248  1  0.83652000  0.24620000  0.66444000  1.0
  O  O249  1  0.83651000  0.75379000  0.33556000  1.0
  O  O250  1  0.16349000  0.66444000  0.75379000  1.0
  O  O251  1  0.16348000  0.33556000  0.24620000  1.0
  O  O252  1  0.66349000  0.25380000  0.16444000  1.0
  O  O253  1  0.66349000  0.74621000  0.83556000  1.0
  O  O254  1  0.33651000  0.83556000  0.25379000  1.0
  O  O255  1  0.33651000  0.16444000  0.74621000  1.0
  O  O256  1  0.58330000  0.26292000  0.61821000  1.0
  O  O257  1  0.58330000  0.73707000  0.38179000  1.0
  O  O258  1  0.41671000  0.61821000  0.73708000  1.0
  O  O259  1  0.41669000  0.38179000  0.26293000  1.0
  O  O260  1  0.91671000  0.23707000  0.11821000  1.0
  O  O261  1  0.91670000  0.76293000  0.88179000  1.0
  O  O262  1  0.08330000  0.88179000  0.23707000  1.0
  O  O263  1  0.08330000  0.11820000  0.76293000  1.0
  O  O264  1  0.81147000  0.23359000  0.34504000  1.0
  O  O265  1  0.81147000  0.76641000  0.65496000  1.0
  O  O266  1  0.18853000  0.34504000  0.76641000  1.0
  O  O267  1  0.18852000  0.65496000  0.23359000  1.0
  O  O268  1  0.68853000  0.26641000  0.84504000  1.0
  O  O269  1  0.68852000  0.73359000  0.15496000  1.0
  O  O270  1  0.31148000  0.15496000  0.26641000  1.0
  O  O271  1  0.31147000  0.84504000  0.73358000  1.0
  O  O272  1  0.55947000  0.24778000  0.39307000  1.0
  O  O273  1  0.55946000  0.75222000  0.60693000  1.0
  O  O274  1  0.44054000  0.39307000  0.75223000  1.0
  O  O275  1  0.44053000  0.60693000  0.24778000  1.0
  O  O276  1  0.94053000  0.25222000  0.89307000  1.0
  O  O277  1  0.94053000  0.74779000  0.10693000  1.0
  O  O278  1  0.05947000  0.10693000  0.25221000  1.0
  O  O279  1  0.05946000  0.89306000  0.74778000  1.0
  O  O280  1  0.85650000  0.34355000  0.75362000  1.0
  O  O281  1  0.85649000  0.65645000  0.24637000  1.0
  O  O282  1  0.14351000  0.75362000  0.65645000  1.0
  O  O283  1  0.14351000  0.24637000  0.34355000  1.0
  O  O284  1  0.64351000  0.15645000  0.25362000  1.0
  O  O285  1  0.64351000  0.84355000  0.74637000  1.0
  O  O286  1  0.35649000  0.74637000  0.15645000  1.0
  O  O287  1  0.35649000  0.25362000  0.84356000  1.0
  O  O288  1  0.67069000  0.16799000  0.75349000  1.0
  O  O289  1  0.67068000  0.83201000  0.24651000  1.0
  O  O290  1  0.32931000  0.75349000  0.83201000  1.0
  O  O291  1  0.32931000  0.24651000  0.16799000  1.0
  O  O292  1  0.82931000  0.33201000  0.25350000  1.0
  O  O293  1  0.82931000  0.66799000  0.74651000  1.0
  O  O294  1  0.17068000  0.74650000  0.33201000  1.0
  O  O295  1  0.17069000  0.25349000  0.66799000  1.0
  O  O296  1  0.01290000  0.22754000  0.78436000  1.0
  O  O297  1  0.01289000  0.77246000  0.21564000  1.0
  O  O298  1  0.98710000  0.78436000  0.77246000  1.0
  O  O299  1  0.98710000  0.21564000  0.22754000  1.0
  O  O300  1  0.48710000  0.27246000  0.28436000  1.0
  O  O301  1  0.48710000  0.72754000  0.71564000  1.0
  O  O302  1  0.51289000  0.71564000  0.27246000  1.0
  O  O303  1  0.51290000  0.28436000  0.72754000  1.0
