# generated using pymatgen
data_CdH20C18(N2O3)2
_symmetry_space_group_name_H-M   'P 1'
_cell_length_a   9.03275000
_cell_length_b   9.28155000
_cell_length_c   14.49030000
_cell_angle_alpha   75.53500000
_cell_angle_beta   81.02210000
_cell_angle_gamma   78.14610000
_symmetry_Int_Tables_number   1
_chemical_formula_structural   CdH20C18(N2O3)2
_chemical_formula_sum   'Cd2 H40 C36 N8 O12'
_cell_volume   1144.18739142
_cell_formula_units_Z   2
loop_
 _symmetry_equiv_pos_site_id
 _symmetry_equiv_pos_as_xyz
  1  'x, y, z'
loop_
 _atom_site_type_symbol
 _atom_site_label
 _atom_site_symmetry_multiplicity
 _atom_site_fract_x
 _atom_site_fract_y
 _atom_site_fract_z
 _atom_site_occupancy
  Cd  Cd0  1  0.12053000  0.30534000  0.02904000  1.0
  Cd  Cd1  1  0.87948000  0.69465000  0.97096000  1.0
  H  H2  1  0.63194000  0.01168000  0.43426000  1.0
  H  H3  1  0.36807000  0.98833000  0.56574000  1.0
  H  H4  1  0.59128000  0.83053000  0.48758000  1.0
  H  H5  1  0.40872000  0.16948000  0.51243000  1.0
  H  H6  1  0.64041000  0.90310000  0.64502000  1.0
  H  H7  1  0.35958000  0.09690000  0.35499000  1.0
  H  H8  1  0.62432000  0.82726000  0.76946000  1.0
  H  H9  1  0.37568000  0.17273000  0.23054000  1.0
  H  H10  1  0.87970000  0.08626000  0.04120000  1.0
  H  H11  1  0.12031000  0.91372000  0.95880000  1.0
  H  H12  1  0.74282000  0.90207000  0.16006000  1.0
  H  H13  1  0.25718000  0.09792000  0.83994000  1.0
  H  H14  1  0.88445000  0.05917000  0.38390000  1.0
  H  H15  1  0.11555000  0.94085000  0.61610000  1.0
  H  H16  1  0.02256000  0.23470000  0.25407000  1.0
  H  H17  1  0.97744000  0.76531000  0.74593000  1.0
  H  H18  1  0.21824000  0.36669000  0.80238000  1.0
  H  H19  1  0.78176000  0.63330000  0.19762000  1.0
  H  H20  1  0.35028000  0.53662000  0.66987000  1.0
  H  H21  1  0.64972000  0.46337000  0.33013000  1.0
  H  H22  1  0.48248000  0.72469000  0.88358000  1.0
  H  H23  1  0.51751000  0.27532000  0.11643000  1.0
  H  H24  1  0.33858000  0.55107000  0.00739000  1.0
  H  H25  1  0.66142000  0.44893000  0.99261000  1.0
  H  H26  1  0.44987000  0.89586000  0.20779000  1.0
  H  H27  1  0.55013000  0.10413000  0.79221000  1.0
  H  H28  1  0.53152000  0.88000000  0.09101000  1.0
  H  H29  1  0.46848000  0.11999000  0.90899000  1.0
  H  H30  1  0.31476000  0.76036000  0.07359000  1.0
  H  H31  1  0.68524000  0.23964000  0.92642000  1.0
  H  H32  1  0.42371000  0.65270000  0.16725000  1.0
  H  H33  1  0.57628000  0.34730000  0.83275000  1.0
  H  H34  1  0.22569000  0.77039000  0.28528000  1.0
  H  H35  1  0.77431000  0.22961000  0.71472000  1.0
  H  H36  1  0.11413000  0.85779000  0.18951000  1.0
  H  H37  1  0.88586000  0.14221000  0.81048000  1.0
  H  H38  1  0.20912000  0.51508000  0.26522000  1.0
  H  H39  1  0.79087000  0.48492000  0.73478000  1.0
  H  H40  1  0.02612000  0.62360000  0.28433000  1.0
  H  H41  1  0.97388000  0.37639000  0.71566000  1.0
  C  C42  1  0.87932000  0.07637000  0.11775000  1.0
  C  C43  1  0.12068000  0.92362000  0.88225000  1.0
  C  C44  1  0.80201000  0.97378000  0.18471000  1.0
  C  C45  1  0.19799000  0.02622000  0.81529000  1.0
  C  C46  1  0.80200000  0.96553000  0.28229000  1.0
  C  C47  1  0.19800000  0.03448000  0.71771000  1.0
  C  C48  1  0.88124000  0.06115000  0.30871000  1.0
  C  C49  1  0.11875000  0.93886000  0.69129000  1.0
  C  C50  1  0.95793000  0.15891000  0.23747000  1.0
  C  C51  1  0.04206000  0.84110000  0.76253000  1.0
  C  C52  1  0.72307000  0.85151000  0.35573000  1.0
  C  C53  1  0.27693000  0.14848000  0.64426000  1.0
  C  C54  1  0.27578000  0.44864000  0.81803000  1.0
  C  C55  1  0.72422000  0.55135000  0.18197000  1.0
  C  C56  1  0.35043000  0.54348000  0.74374000  1.0
  C  C57  1  0.64957000  0.45652000  0.25626000  1.0
  C  C58  1  0.42543000  0.64666000  0.76543000  1.0
  C  C59  1  0.57457000  0.35334000  0.23457000  1.0
  C  C60  1  0.42461000  0.64823000  0.86191000  1.0
  C  C61  1  0.57539000  0.35178000  0.13809000  1.0
  C  C62  1  0.34515000  0.55064000  0.93170000  1.0
  C  C63  1  0.65485000  0.44936000  0.06830000  1.0
  C  C64  1  0.49744000  0.75338000  0.68311000  1.0
  C  C65  1  0.50256000  0.24663000  0.31689000  1.0
  C  C66  1  0.33052000  0.04250000  0.09258000  1.0
  C  C67  1  0.66949000  0.95749000  0.90742000  1.0
  C  C68  1  0.42263000  0.89185000  0.13719000  1.0
  C  C69  1  0.57737000  0.10814000  0.86281000  1.0
  C  C70  1  0.34355000  0.75796000  0.14508000  1.0
  C  C71  1  0.65645000  0.24204000  0.85492000  1.0
  C  C72  1  0.19920000  0.75883000  0.21597000  1.0
  C  C73  1  0.80079000  0.24116000  0.78403000  1.0
  C  C74  1  0.13036000  0.61579000  0.23334000  1.0
  C  C75  1  0.86964000  0.38421000  0.76666000  1.0
  C  C76  1  0.08286000  0.58747000  0.14398000  1.0
  C  C77  1  0.91715000  0.41253000  0.85602000  1.0
  N  N78  1  0.95656000  0.16671000  0.14369000  1.0
  N  N79  1  0.04344000  0.83329000  0.85631000  1.0
  N  N80  1  0.65279000  0.89872000  0.43523000  1.0
  N  N81  1  0.34721000  0.10130000  0.56477000  1.0
  N  N82  1  0.27114000  0.45330000  0.91059000  1.0
  N  N83  1  0.72886000  0.54670000  0.08941000  1.0
  N  N84  1  0.59671000  0.82890000  0.70160000  1.0
  N  N85  1  0.40329000  0.17110000  0.29840000  1.0
  O  O86  1  0.72756000  0.72370000  0.34216000  1.0
  O  O87  1  0.27243000  0.27632000  0.65785000  1.0
  O  O88  1  0.46052000  0.76971000  0.60045000  1.0
  O  O89  1  0.53948000  0.23030000  0.39955000  1.0
  O  O90  1  0.32501000  0.15847000  0.12727000  1.0
  O  O91  1  0.67499000  0.84152000  0.87273000  1.0
  O  O92  1  0.26067000  0.05221000  0.02121000  1.0
  O  O93  1  0.73934000  0.94778000  0.97878000  1.0
  O  O94  1  0.02593000  0.70202000  0.08299000  1.0
  O  O95  1  0.97408000  0.29797000  0.91701000  1.0
  O  O96  1  0.09991000  0.45045000  0.13819000  1.0
  O  O97  1  0.90009000  0.54955000  0.86181000  1.0
