# generated using pymatgen
data_KBH14(C5N2)3
_symmetry_space_group_name_H-M   'P 1'
_cell_length_a   9.04302000
_cell_length_b   10.09080000
_cell_length_c   17.21100000
_cell_angle_alpha   90.01200000
_cell_angle_beta   90.00000000
_cell_angle_gamma   90.00000000
_symmetry_Int_Tables_number   1
_chemical_formula_structural   KBH14(C5N2)3
_chemical_formula_sum   'K4 B4 H56 C60 N24'
_cell_volume   1570.52619684
_cell_formula_units_Z   4
loop_
 _symmetry_equiv_pos_site_id
 _symmetry_equiv_pos_as_xyz
  1  'x, y, z'
loop_
 _atom_site_type_symbol
 _atom_site_label
 _atom_site_symmetry_multiplicity
 _atom_site_fract_x
 _atom_site_fract_y
 _atom_site_fract_z
 _atom_site_occupancy
  K  K0  1  0.38310000  0.78313000  0.75540000  1.0
  K  K1  1  0.88310000  0.71687000  0.74460000  1.0
  K  K2  1  0.61690000  0.21687000  0.24460000  1.0
  K  K3  1  0.11690000  0.28314000  0.25541000  1.0
  B  B4  1  0.07747000  0.99880000  0.82995000  1.0
  B  B5  1  0.57747000  0.50119000  0.67005000  1.0
  B  B6  1  0.92253000  0.00119000  0.17005000  1.0
  B  B7  1  0.42253000  0.49881000  0.32995000  1.0
  H  H8  1  0.14333000  0.85688000  0.57863000  1.0
  H  H9  1  0.64333000  0.64312000  0.92137000  1.0
  H  H10  1  0.85667000  0.14312000  0.42137000  1.0
  H  H11  1  0.35667000  0.35688000  0.07863000  1.0
  H  H12  1  0.32788000  0.07557000  0.58825000  1.0
  H  H13  1  0.82788000  0.42443000  0.91175000  1.0
  H  H14  1  0.67212000  0.92443000  0.41175000  1.0
  H  H15  1  0.17212000  0.57557000  0.08825000  1.0
  H  H16  1  0.28846000  0.16128000  0.73876000  1.0
  H  H17  1  0.78846000  0.33872000  0.76124000  1.0
  H  H18  1  0.71154000  0.83872000  0.26124000  1.0
  H  H19  1  0.21154000  0.66128000  0.23876000  1.0
  H  H20  1  0.17046000  0.56303000  0.89483000  1.0
  H  H21  1  0.67046000  0.93697000  0.60517000  1.0
  H  H22  1  0.82954000  0.43697000  0.10517000  1.0
  H  H23  1  0.32954000  0.06303000  0.39483000  1.0
  H  H24  1  0.35105000  0.70493000  0.99497000  1.0
  H  H25  1  0.85105000  0.79507000  0.50504000  1.0
  H  H26  1  0.64895000  0.29507000  0.00504000  1.0
  H  H27  1  0.14895000  0.20493000  0.49496000  1.0
  H  H28  1  0.29261000  0.96479000  0.95608000  1.0
  H  H29  1  0.79261000  0.53521000  0.54392000  1.0
  H  H30  1  0.70739000  0.03520000  0.04392000  1.0
  H  H31  1  0.20739000  0.46479000  0.45608000  1.0
  H  H32  1  0.38110000  0.32193000  0.93113000  1.0
  H  H33  1  0.88110000  0.17806000  0.56887000  1.0
  H  H34  1  0.61890000  0.67807000  0.06887000  1.0
  H  H35  1  0.11890000  0.82194000  0.43113000  1.0
  H  H36  1  0.10110000  0.38506000  0.98658000  1.0
  H  H37  1  0.60110000  0.11494000  0.51342000  1.0
  H  H38  1  0.89891000  0.61494000  0.01342000  1.0
  H  H39  1  0.39890000  0.88506000  0.48658000  1.0
  H  H40  1  0.92379000  0.19459000  0.92109000  1.0
  H  H41  1  0.42379000  0.30541000  0.57891000  1.0
  H  H42  1  0.07621000  0.80541000  0.07891000  1.0
  H  H43  1  0.57621000  0.69459000  0.42109000  1.0
  H  H44  1  0.88087000  0.10603000  0.72163000  1.0
  H  H45  1  0.38087000  0.39397000  0.77837000  1.0
  H  H46  1  0.11913000  0.89397000  0.27837000  1.0
  H  H47  1  0.61913000  0.60603000  0.22163000  1.0
  H  H48  1  0.60852000  0.12491000  0.72571000  1.0
  H  H49  1  0.10852000  0.37509000  0.77429000  1.0
  H  H50  1  0.39148000  0.87509000  0.27429000  1.0
  H  H51  1  0.89148000  0.62491000  0.22571000  1.0
  H  H52  1  0.46782000  0.03187000  0.83763000  1.0
  H  H53  1  0.96782000  0.46813000  0.66237000  1.0
  H  H54  1  0.53218000  0.96813000  0.16237000  1.0
  H  H55  1  0.03218000  0.53187000  0.33763000  1.0
  H  H56  1  0.60108000  0.90128000  0.93909000  1.0
  H  H57  1  0.10108000  0.59872000  0.56092000  1.0
  H  H58  1  0.39892000  0.09872000  0.06092000  1.0
  H  H59  1  0.89892000  0.40128000  0.43909000  1.0
  H  H60  1  0.87384000  0.88338000  0.93555000  1.0
  H  H61  1  0.37384000  0.61662000  0.56445000  1.0
  H  H62  1  0.12616000  0.11662000  0.06446000  1.0
  H  H63  1  0.62616000  0.38338000  0.43555000  1.0
  C  C64  1  0.16247000  0.92301000  0.62740000  1.0
  C  C65  1  0.66247000  0.57699000  0.87260000  1.0
  C  C66  1  0.83753000  0.07699000  0.37260000  1.0
  C  C67  1  0.33753000  0.42301000  0.12740000  1.0
  C  C68  1  0.25637000  0.03389000  0.63245000  1.0
  C  C69  1  0.75637000  0.46611000  0.86755000  1.0
  C  C70  1  0.74363000  0.96611000  0.36755000  1.0
  C  C71  1  0.24363000  0.53389000  0.13245000  1.0
  C  C72  1  0.23834000  0.07893000  0.70825000  1.0
  C  C73  1  0.73834000  0.42107000  0.79175000  1.0
  C  C74  1  0.76166000  0.92107000  0.29175000  1.0
  C  C75  1  0.26166000  0.57893000  0.20825000  1.0
  C  C76  1  0.18320000  0.66967000  0.90078000  1.0
  C  C77  1  0.68320000  0.83033000  0.59922000  1.0
  C  C78  1  0.81680000  0.33033000  0.09922000  1.0
  C  C79  1  0.31680000  0.16967000  0.40078000  1.0
  C  C80  1  0.27558000  0.74216000  0.95114000  1.0
  C  C81  1  0.77558000  0.75784000  0.54885000  1.0
  C  C82  1  0.72442000  0.25784000  0.04885000  1.0
  C  C83  1  0.22442000  0.24216000  0.45115000  1.0
  C  C84  1  0.24714000  0.87395000  0.93269000  1.0
  C  C85  1  0.74714000  0.62604000  0.56731000  1.0
  C  C86  1  0.75286000  0.12604000  0.06731000  1.0
  C  C87  1  0.25286000  0.37395000  0.43269000  1.0
  C  C88  1  0.27608000  0.27233000  0.92076000  1.0
  C  C89  1  0.77608000  0.22767000  0.57924000  1.0
  C  C90  1  0.72392000  0.72767000  0.07924000  1.0
  C  C91  1  0.22392000  0.77233000  0.42076000  1.0
  C  C92  1  0.13353000  0.30553000  0.94778000  1.0
  C  C93  1  0.63353000  0.19447000  0.55222000  1.0
  C  C94  1  0.86647000  0.69447000  0.05222000  1.0
  C  C95  1  0.36647000  0.80553000  0.44778000  1.0
  C  C96  1  0.04188000  0.20996000  0.91543000  1.0
  C  C97  1  0.54188000  0.29004000  0.58457000  1.0
  C  C98  1  0.95813000  0.79004000  0.08457000  1.0
  C  C99  1  0.45812000  0.70996000  0.41543000  1.0
  C  C100  1  0.89915000  0.99463000  0.82870000  1.0
  C  C101  1  0.39915000  0.50537000  0.67130000  1.0
  C  C102  1  0.10085000  0.00537000  0.17130000  1.0
  C  C103  1  0.60085000  0.49463000  0.32870000  1.0
  C  C104  1  0.82050000  0.06098000  0.76979000  1.0
  C  C105  1  0.32050000  0.43902000  0.73021000  1.0
  C  C106  1  0.17950000  0.93902000  0.23021000  1.0
  C  C107  1  0.67950000  0.56098000  0.26979000  1.0
  C  C108  1  0.66657000  0.07178000  0.77179000  1.0
  C  C109  1  0.16657000  0.42822000  0.72821000  1.0
  C  C110  1  0.33343000  0.92822000  0.22822000  1.0
  C  C111  1  0.83343000  0.57178000  0.27179000  1.0
  C  C112  1  0.58707000  0.01598000  0.83334000  1.0
  C  C113  1  0.08707000  0.48402000  0.66666667  1.0
  C  C114  1  0.41292000  0.98402000  0.16666000  1.0
  C  C115  1  0.91292000  0.51598000  0.33333333  1.0
  C  C116  1  0.66262000  0.94682000  0.89143000  1.0
  C  C117  1  0.16262000  0.55318000  0.60857000  1.0
  C  C118  1  0.33738000  0.05318000  0.10857000  1.0
  C  C119  1  0.83738000  0.44682000  0.39143000  1.0
  C  C120  1  0.81684000  0.93675000  0.88921000  1.0
  C  C121  1  0.31684000  0.56325000  0.61079000  1.0
  C  C122  1  0.18316000  0.06325000  0.11079000  1.0
  C  C123  1  0.68316000  0.43675000  0.38921000  1.0
  N  N124  1  0.14004000  0.99774000  0.74468000  1.0
  N  N125  1  0.64004000  0.50226000  0.75532000  1.0
  N  N126  1  0.85996000  0.00226000  0.25532000  1.0
  N  N127  1  0.35996000  0.49774000  0.24468000  1.0
  N  N128  1  0.09222000  0.90113000  0.69497000  1.0
  N  N129  1  0.59222000  0.59887000  0.80503000  1.0
  N  N130  1  0.90778000  0.09887000  0.30503000  1.0
  N  N131  1  0.40778000  0.40113000  0.19497000  1.0
  N  N132  1  0.14467000  0.87677000  0.87478000  1.0
  N  N133  1  0.64467000  0.62323000  0.62522000  1.0
  N  N134  1  0.85533000  0.12323000  0.12522000  1.0
  N  N135  1  0.35533000  0.37677000  0.37478000  1.0
  N  N136  1  0.10418000  0.75088000  0.85480000  1.0
  N  N137  1  0.60419000  0.74912000  0.64520000  1.0
  N  N138  1  0.89582000  0.24912000  0.14520000  1.0
  N  N139  1  0.39582000  0.25088000  0.35480000  1.0
  N  N140  1  0.12747000  0.12670000  0.87225000  1.0
  N  N141  1  0.62747000  0.37330000  0.62775000  1.0
  N  N142  1  0.87253000  0.87330000  0.12775000  1.0
  N  N143  1  0.37253000  0.62670000  0.37225000  1.0
  N  N144  1  0.27243000  0.16417000  0.87551000  1.0
  N  N145  1  0.77243000  0.33583000  0.62449000  1.0
  N  N146  1  0.72757000  0.83583000  0.12449000  1.0
  N  N147  1  0.22757000  0.66417000  0.37551000  1.0
