# generated using pymatgen
data_SmH12C8NO11
_symmetry_space_group_name_H-M   'P 1'
_cell_length_a   6.61402000
_cell_length_b   12.28940000
_cell_length_c   17.70400000
_cell_angle_alpha   90.00000000
_cell_angle_beta   90.00000000
_cell_angle_gamma   90.00000000
_symmetry_Int_Tables_number   1
_chemical_formula_structural   SmH12C8NO11
_chemical_formula_sum   'Sm4 H48 C32 N4 O44'
_cell_volume   1439.02250112
_cell_formula_units_Z   4
loop_
 _symmetry_equiv_pos_site_id
 _symmetry_equiv_pos_as_xyz
  1  'x, y, z'
loop_
 _atom_site_type_symbol
 _atom_site_label
 _atom_site_symmetry_multiplicity
 _atom_site_fract_x
 _atom_site_fract_y
 _atom_site_fract_z
 _atom_site_occupancy
  Sm  Sm0  1  0.51629000  0.97375000  0.37750000  1.0
  Sm  Sm1  1  0.48371000  0.02626000  0.87750000  1.0
  Sm  Sm2  1  0.01629000  0.52625000  0.37749000  1.0
  Sm  Sm3  1  0.98371000  0.47375000  0.87750000  1.0
  H  H4  1  0.84283000  0.07710000  0.27829000  1.0
  H  H5  1  0.15716000  0.92290000  0.77829000  1.0
  H  H6  1  0.34285000  0.42289000  0.27829000  1.0
  H  H7  1  0.65716000  0.57711000  0.77830000  1.0
  H  H8  1  0.98611000  0.02127000  0.33785000  1.0
  H  H9  1  0.01389000  0.97874000  0.83785000  1.0
  H  H10  1  0.48611000  0.47874000  0.33785000  1.0
  H  H11  1  0.51389000  0.52127000  0.83785000  1.0
  H  H12  1  0.77647000  0.15266000  0.44518000  1.0
  H  H13  1  0.22353000  0.84734000  0.94517000  1.0
  H  H14  1  0.27647000  0.34734000  0.44517000  1.0
  H  H15  1  0.72352000  0.65266000  0.94517000  1.0
  H  H16  1  0.55961000  0.20004000  0.45703000  1.0
  H  H17  1  0.44039000  0.79997000  0.95703000  1.0
  H  H18  1  0.05961000  0.29996000  0.45703000  1.0
  H  H19  1  0.94039000  0.70004000  0.95703000  1.0
  H  H20  1  0.79144000  0.85689000  0.47684000  1.0
  H  H21  1  0.20857000  0.14311000  0.97684000  1.0
  H  H22  1  0.29143000  0.64310000  0.47684000  1.0
  H  H23  1  0.70857000  0.35690000  0.97684000  1.0
  H  H24  1  0.84917000  0.97455000  0.51170000  1.0
  H  H25  1  0.15083000  0.02545000  0.01170000  1.0
  H  H26  1  0.34917000  0.52544000  0.51169000  1.0
  H  H27  1  0.65083000  0.47456000  0.01169000  1.0
  H  H28  1  0.21557000  0.92629000  0.49909000  1.0
  H  H29  1  0.78442000  0.07371000  0.99909000  1.0
  H  H30  1  0.71558000  0.57372000  0.49909000  1.0
  H  H31  1  0.28443000  0.42630000  0.99909000  1.0
  H  H32  1  0.41051000  0.94421000  0.55216000  1.0
  H  H33  1  0.58948000  0.05578000  0.05216000  1.0
  H  H34  1  0.91051000  0.55578000  0.55215000  1.0
  H  H35  1  0.08948000  0.44422000  0.05215000  1.0
  H  H36  1  0.23106000  0.17173000  0.35325000  1.0
  H  H37  1  0.76894000  0.82826000  0.85325000  1.0
  H  H38  1  0.73107000  0.32826000  0.35325000  1.0
  H  H39  1  0.26893000  0.67174000  0.85325000  1.0
  H  H40  1  0.14313000  0.12747000  0.43013000  1.0
  H  H41  1  0.85687000  0.87253000  0.93013000  1.0
  H  H42  1  0.64314000  0.37252000  0.43013000  1.0
  H  H43  1  0.35686000  0.62748000  0.93013000  1.0
  H  H44  1  0.51029000  0.87730000  0.07001000  1.0
  H  H45  1  0.48971000  0.12270000  0.57001000  1.0
  H  H46  1  0.01029000  0.62270000  0.07001000  1.0
  H  H47  1  0.98971000  0.37730000  0.57001000  1.0
  H  H48  1  0.59025000  0.59349000  0.21097000  1.0
  H  H49  1  0.40975000  0.40651000  0.71097000  1.0
  H  H50  1  0.09026000  0.90651000  0.21097000  1.0
  H  H51  1  0.90976000  0.09349000  0.71097000  1.0
  C  C52  1  0.49657000  0.02572000  0.19197000  1.0
  C  C53  1  0.50341000  0.97427000  0.69197000  1.0
  C  C54  1  0.99657000  0.47427000  0.19197000  1.0
  C  C55  1  0.00342000  0.52573000  0.69197000  1.0
  C  C56  1  0.53008000  0.90276000  0.19038000  1.0
  C  C57  1  0.46992000  0.09724000  0.69038000  1.0
  C  C58  1  0.03008000  0.59724000  0.19038000  1.0
  C  C59  1  0.96992000  0.40276000  0.69038000  1.0
  C  C60  1  0.52775000  0.83869000  0.12490000  1.0
  C  C61  1  0.47225000  0.16132000  0.62489000  1.0
  C  C62  1  0.02775000  0.66131000  0.12489000  1.0
  C  C63  1  0.97226000  0.33867000  0.62490000  1.0
  C  C64  1  0.54438000  0.72555000  0.13205000  1.0
  C  C65  1  0.45562000  0.27445000  0.63205000  1.0
  C  C66  1  0.04438000  0.77445000  0.13205000  1.0
  C  C67  1  0.95564000  0.22555000  0.63205000  1.0
  C  C68  1  0.53996000  0.64782000  0.06587000  1.0
  C  C69  1  0.46003000  0.35218000  0.56587000  1.0
  C  C70  1  0.03997000  0.85218000  0.06587000  1.0
  C  C71  1  0.96004000  0.14782000  0.56588000  1.0
  C  C72  1  0.57438000  0.68089000  0.20388000  1.0
  C  C73  1  0.42563000  0.31910000  0.70388000  1.0
  C  C74  1  0.07437000  0.81910000  0.20387000  1.0
  C  C75  1  0.92564000  0.18089000  0.70388000  1.0
  C  C76  1  0.58452000  0.75039000  0.26572000  1.0
  C  C77  1  0.41549000  0.24961000  0.76572000  1.0
  C  C78  1  0.08451000  0.74960000  0.26571000  1.0
  C  C79  1  0.91549000  0.25039000  0.76572000  1.0
  C  C80  1  0.62964000  0.71208000  0.34514000  1.0
  C  C81  1  0.37036000  0.28792000  0.84514000  1.0
  C  C82  1  0.12964000  0.78791000  0.34514000  1.0
  C  C83  1  0.87036000  0.21209000  0.84514000  1.0
  N  N84  1  0.55686000  0.85810000  0.25868000  1.0
  N  N85  1  0.44315000  0.14190000  0.75867000  1.0
  N  N86  1  0.05686000  0.64190000  0.25867000  1.0
  N  N87  1  0.94314000  0.35810000  0.75867000  1.0
  O  O88  1  0.46796000  0.06594000  0.25805000  1.0
  O  O89  1  0.53202000  0.93406000  0.75805000  1.0
  O  O90  1  0.96798000  0.43406000  0.25804000  1.0
  O  O91  1  0.03202000  0.56594000  0.75805000  1.0
  O  O92  1  0.49854000  0.07911000  0.13166000  1.0
  O  O93  1  0.50146000  0.92089000  0.63166000  1.0
  O  O94  1  0.99852000  0.42089000  0.13166000  1.0
  O  O95  1  0.00146000  0.57911000  0.63166000  1.0
  O  O96  1  0.59703000  0.77993000  0.39781000  1.0
  O  O97  1  0.40297000  0.22006000  0.89780000  1.0
  O  O98  1  0.09703000  0.72006000  0.39780000  1.0
  O  O99  1  0.90297000  0.27994000  0.89781000  1.0
  O  O100  1  0.70043000  0.61717000  0.35335000  1.0
  O  O101  1  0.29957000  0.38283000  0.85335000  1.0
  O  O102  1  0.20043000  0.88282000  0.35335000  1.0
  O  O103  1  0.79957000  0.11718000  0.85335000  1.0
  O  O104  1  0.56730000  0.54893000  0.07993000  1.0
  O  O105  1  0.43269000  0.45107000  0.57993000  1.0
  O  O106  1  0.06732000  0.95107000  0.07993000  1.0
  O  O107  1  0.93269000  0.04893000  0.57993000  1.0
  O  O108  1  0.51495000  0.68735000  0.99883000  1.0
  O  O109  1  0.48505000  0.31266000  0.49882000  1.0
  O  O110  1  0.01496000  0.81266000  0.99882000  1.0
  O  O111  1  0.98504000  0.18734000  0.49883000  1.0
  O  O112  1  0.85182000  0.01708000  0.31390000  1.0
  O  O113  1  0.14817000  0.98292000  0.81390000  1.0
  O  O114  1  0.35183000  0.48291000  0.31390000  1.0
  O  O115  1  0.64817000  0.51709000  0.81390000  1.0
  O  O116  1  0.63716000  0.14859000  0.42431000  1.0
  O  O117  1  0.36284000  0.85141000  0.92431000  1.0
  O  O118  1  0.13716000  0.35140000  0.42431000  1.0
  O  O119  1  0.86283000  0.64860000  0.92431000  1.0
  O  O120  1  0.79960000  0.93444000  0.46555000  1.0
  O  O121  1  0.20041000  0.06556000  0.96555000  1.0
  O  O122  1  0.29959000  0.56555000  0.46555000  1.0
  O  O123  1  0.70041000  0.43445000  0.96555000  1.0
  O  O124  1  0.35135000  0.95671000  0.49974000  1.0
  O  O125  1  0.64864000  0.04329000  0.99974000  1.0
  O  O126  1  0.85135000  0.54329000  0.49974000  1.0
  O  O127  1  0.14864000  0.45672000  0.99974000  1.0
  O  O128  1  0.21470000  0.10556000  0.38298000  1.0
  O  O129  1  0.78530000  0.89444000  0.88298000  1.0
  O  O130  1  0.71471000  0.39443000  0.38298000  1.0
  O  O131  1  0.28530000  0.60556000  0.88298000  1.0
