# generated using pymatgen
data_CdH30C48N3O4
_symmetry_space_group_name_H-M   'P 1'
_cell_length_a   9.17745000
_cell_length_b   13.67840000
_cell_length_c   22.83410000
_cell_angle_alpha   74.48240000
_cell_angle_beta   83.64560000
_cell_angle_gamma   87.97150000
_symmetry_Int_Tables_number   1
_chemical_formula_structural   CdH30C48N3O4
_chemical_formula_sum   'Cd2 H60 C96 N6 O8'
_cell_volume   2744.92446530
_cell_formula_units_Z   2
loop_
 _symmetry_equiv_pos_site_id
 _symmetry_equiv_pos_as_xyz
  1  'x, y, z'
loop_
 _atom_site_type_symbol
 _atom_site_label
 _atom_site_symmetry_multiplicity
 _atom_site_fract_x
 _atom_site_fract_y
 _atom_site_fract_z
 _atom_site_occupancy
  Cd  Cd0  1  0.48861000  0.53705000  0.20003000  1.0
  Cd  Cd1  1  0.51138000  0.46295000  0.79997000  1.0
  H  H2  1  0.71793000  0.40063000  0.27759000  1.0
  H  H3  1  0.28207000  0.59937000  0.72241000  1.0
  H  H4  1  0.87576000  0.24519000  0.28521000  1.0
  H  H5  1  0.12424000  0.75481000  0.71479000  1.0
  H  H6  1  0.73089000  0.22496000  0.11541000  1.0
  H  H7  1  0.26911000  0.77504000  0.88459000  1.0
  H  H8  1  0.57510000  0.38071000  0.11590000  1.0
  H  H9  1  0.42491000  0.61929000  0.88409000  1.0
  H  H10  1  0.61985000  0.08671000  0.24502000  1.0
  H  H11  1  0.38015000  0.91329000  0.75498000  1.0
  H  H12  1  0.51266000  0.91707000  0.28818000  1.0
  H  H13  1  0.48734000  0.08293000  0.71182000  1.0
  H  H14  1  0.67116000  0.76137000  0.29897000  1.0
  H  H15  1  0.32883000  0.23863000  0.70104000  1.0
  H  H16  1  0.93463000  0.77702000  0.26453000  1.0
  H  H17  1  0.06536000  0.22298000  0.73547000  1.0
  H  H18  1  0.36934000  0.99378000  0.17157000  1.0
  H  H19  1  0.63066000  0.00622000  0.82844000  1.0
  H  H20  1  0.47860000  0.16311000  0.13203000  1.0
  H  H21  1  0.52140000  0.83688000  0.86798000  1.0
  H  H22  1  0.32185000  0.31901000  0.12238000  1.0
  H  H23  1  0.67816000  0.68098000  0.87762000  1.0
  H  H24  1  0.05807000  0.30468000  0.15519000  1.0
  H  H25  1  0.94194000  0.69532000  0.84481000  1.0
  H  H26  1  0.01333000  0.51744000  0.15426000  1.0
  H  H27  1  0.98667000  0.48256000  0.84573000  1.0
  H  H28  1  0.79733000  0.51163000  0.09811000  1.0
  H  H29  1  0.20268000  0.48838000  0.90188000  1.0
  H  H30  1  0.30547000  0.50126000  0.99671000  1.0
  H  H31  1  0.69454000  0.49874000  0.00329000  1.0
  H  H32  1  0.75080000  0.60492000  0.36636000  1.0
  H  H33  1  0.24921000  0.39508000  0.63363000  1.0
  H  H34  1  0.76079000  0.60909000  0.47464000  1.0
  H  H35  1  0.23923000  0.39091000  0.52536000  1.0
  H  H36  1  0.34932000  0.43773000  0.41640000  1.0
  H  H37  1  0.65069000  0.56226000  0.58360000  1.0
  H  H38  1  0.31424000  0.71355000  0.12148000  1.0
  H  H39  1  0.68577000  0.28646000  0.87851000  1.0
  H  H40  1  0.15518000  0.86559000  0.11905000  1.0
  H  H41  1  0.84482000  0.13441000  0.88095000  1.0
  H  H42  1  0.22604000  0.83207000  0.30723000  1.0
  H  H43  1  0.77396000  0.16792000  0.69277000  1.0
  H  H44  1  0.38501000  0.68160000  0.30157000  1.0
  H  H45  1  0.61499000  0.31840000  0.69843000  1.0
  H  H46  1  0.58782000  0.64135000  0.04849000  1.0
  H  H47  1  0.41218000  0.35864000  0.95151000  1.0
  H  H48  1  0.74388000  0.78534000  0.98155000  1.0
  H  H49  1  0.25611000  0.21466000  0.01845000  1.0
  H  H50  1  0.85992000  0.84431000  0.14708000  1.0
  H  H51  1  0.14008000  0.15569000  0.85292000  1.0
  H  H52  1  0.70655000  0.69505000  0.20623000  1.0
  H  H53  1  0.29345000  0.30494000  0.79377000  1.0
  H  H54  1  0.62388000  0.96620000  0.05051000  1.0
  H  H55  1  0.37611000  0.03380000  0.94949000  1.0
  H  H56  1  0.52250000  0.13932000  0.03232000  1.0
  H  H57  1  0.47749000  0.86069000  0.96768000  1.0
  H  H58  1  0.68732000  0.29012000  0.99132000  1.0
  H  H59  1  0.31268000  0.70988000  0.00868000  1.0
  H  H60  1  0.95040000  0.26629000  0.96453000  1.0
  H  H61  1  0.04959000  0.73371000  0.03547000  1.0
  C  C62  1  0.72218000  0.35807000  0.24331000  1.0
  C  C63  1  0.27782000  0.64193000  0.75669000  1.0
  C  C64  1  0.81020000  0.27221000  0.24699000  1.0
  C  C65  1  0.18979000  0.72779000  0.75301000  1.0
  C  C66  1  0.81397000  0.22131000  0.20112000  1.0
  C  C67  1  0.18603000  0.77869000  0.79888000  1.0
  C  C68  1  0.72863000  0.26058000  0.15288000  1.0
  C  C69  1  0.27137000  0.73942000  0.84712000  1.0
  C  C70  1  0.64261000  0.34651000  0.15273000  1.0
  C  C71  1  0.35740000  0.65349000  0.84727000  1.0
  C  C72  1  0.90613000  0.12893000  0.20407000  1.0
  C  C73  1  0.09387000  0.87107000  0.79593000  1.0
  C  C74  1  0.84235000  0.03217000  0.22865000  1.0
  C  C75  1  0.15764000  0.96783000  0.77136000  1.0
  C  C76  1  0.68948000  0.01950000  0.24904000  1.0
  C  C77  1  0.31052000  0.98050000  0.75096000  1.0
  C  C78  1  0.62977000  0.92471000  0.27336000  1.0
  C  C79  1  0.37023000  0.07529000  0.72664000  1.0
  C  C80  1  0.71932000  0.83641000  0.27948000  1.0
  C  C81  1  0.28067000  0.16359000  0.72052000  1.0
  C  C82  1  0.86664000  0.84511000  0.26024000  1.0
  C  C83  1  0.13335000  0.15489000  0.73977000  1.0
  C  C84  1  0.93329000  0.94216000  0.23392000  1.0
  C  C85  1  0.06670000  0.05784000  0.76608000  1.0
  C  C86  1  0.08355000  0.95244000  0.21249000  1.0
  C  C87  1  0.91644000  0.04756000  0.78751000  1.0
  C  C88  1  0.14718000  0.04911000  0.18791000  1.0
  C  C89  1  0.85282000  0.95088000  0.81209000  1.0
  C  C90  1  0.30023000  0.06116000  0.16793000  1.0
  C  C91  1  0.69977000  0.93884000  0.83207000  1.0
  C  C92  1  0.36110000  0.15587000  0.14559000  1.0
  C  C93  1  0.63890000  0.84412000  0.85442000  1.0
  C  C94  1  0.27242000  0.24431000  0.14064000  1.0
  C  C95  1  0.72758000  0.75568000  0.85936000  1.0
  C  C96  1  0.12471000  0.23616000  0.15906000  1.0
  C  C97  1  0.87529000  0.76384000  0.84095000  1.0
  C  C98  1  0.05710000  0.13917000  0.18382000  1.0
  C  C99  1  0.94290000  0.86083000  0.81619000  1.0
  C  C100  1  0.30056000  0.51221000  0.11265000  1.0
  C  C101  1  0.69944000  0.48779000  0.88734000  1.0
  C  C102  1  0.17150000  0.50938000  0.07812000  1.0
  C  C103  1  0.82850000  0.49062000  0.92188000  1.0
  C  C104  1  0.02686000  0.51240000  0.10713000  1.0
  C  C105  1  0.97314000  0.48760000  0.89287000  1.0
  C  C106  1  0.90798000  0.50888000  0.07598000  1.0
  C  C107  1  0.09202000  0.49112000  0.92402000  1.0
  C  C108  1  0.92692000  0.50147000  0.01472000  1.0
  C  C109  1  0.07309000  0.49853000  0.98528000  1.0
  C  C110  1  0.19344000  0.50309000  0.01824000  1.0
  C  C111  1  0.80657000  0.49691000  0.98175000  1.0
  C  C112  1  0.54200000  0.52227000  0.32027000  1.0
  C  C113  1  0.45801000  0.47773000  0.67973000  1.0
  C  C114  1  0.54818000  0.52120000  0.38578000  1.0
  C  C115  1  0.45183000  0.47880000  0.61422000  1.0
  C  C116  1  0.66556000  0.56984000  0.40221000  1.0
  C  C117  1  0.33445000  0.43016000  0.59779000  1.0
  C  C118  1  0.67077000  0.57167000  0.46190000  1.0
  C  C119  1  0.32924000  0.42832000  0.53810000  1.0
  C  C120  1  0.55932000  0.52484000  0.50822000  1.0
  C  C121  1  0.44069000  0.47516000  0.49178000  1.0
  C  C122  1  0.43838000  0.47471000  0.43001000  1.0
  C  C123  1  0.56163000  0.52528000  0.56999000  1.0
  C  C124  1  0.29271000  0.74218000  0.16183000  1.0
  C  C125  1  0.70730000  0.25782000  0.83816000  1.0
  C  C126  1  0.20335000  0.82669000  0.16066000  1.0
  C  C127  1  0.79666000  0.17331000  0.83934000  1.0
  C  C128  1  0.17664000  0.86110000  0.21340000  1.0
  C  C129  1  0.82335000  0.13890000  0.78660000  1.0
  C  C130  1  0.24291000  0.80810000  0.26512000  1.0
  C  C131  1  0.75709000  0.19191000  0.73488000  1.0
  C  C132  1  0.33160000  0.72433000  0.26210000  1.0
  C  C133  1  0.66840000  0.27567000  0.73790000  1.0
  C  C134  1  0.65151000  0.68860000  0.06784000  1.0
  C  C135  1  0.34848000  0.31140000  0.93216000  1.0
  C  C136  1  0.73719000  0.76885000  0.03124000  1.0
  C  C137  1  0.26280000  0.23116000  0.96876000  1.0
  C  C138  1  0.81442000  0.82691000  0.05932000  1.0
  C  C139  1  0.18557000  0.17309000  0.94068000  1.0
  C  C140  1  0.80275000  0.80072000  0.12324000  1.0
  C  C141  1  0.19724000  0.19927000  0.87676000  1.0
  C  C142  1  0.71693000  0.71888000  0.15642000  1.0
  C  C143  1  0.28307000  0.28112000  0.84358000  1.0
  C  C144  1  0.90768000  0.91493000  0.02575000  1.0
  C  C145  1  0.09232000  0.08507000  0.97425000  1.0
  C  C146  1  0.84853000  0.01382000  0.01717000  1.0
  C  C147  1  0.15147000  0.98618000  0.98283000  1.0
  C  C148  1  0.69606000  0.03128000  0.03195000  1.0
  C  C149  1  0.30393000  0.96872000  0.96805000  1.0
  C  C150  1  0.63966000  0.12802000  0.02205000  1.0
  C  C151  1  0.36033000  0.87199000  0.97795000  1.0
  C  C152  1  0.73288000  0.21351000  0.99829000  1.0
  C  C153  1  0.26711000  0.78650000  0.00172000  1.0
  C  C154  1  0.88017000  0.20021000  0.98339000  1.0
  C  C155  1  0.11982000  0.79980000  0.01661000  1.0
  C  C156  1  0.94277000  0.10072000  0.99148000  1.0
  C  C157  1  0.05722000  0.89928000  0.00853000  1.0
  N  N158  1  0.63898000  0.39437000  0.19723000  1.0
  N  N159  1  0.36102000  0.60564000  0.80277000  1.0
  N  N160  1  0.35630000  0.69171000  0.21146000  1.0
  N  N161  1  0.64370000  0.30830000  0.78854000  1.0
  N  N162  1  0.64177000  0.66370000  0.12928000  1.0
  N  N163  1  0.35823000  0.33629000  0.87072000  1.0
  O  O164  1  0.42853000  0.52096000  0.08457000  1.0
  O  O165  1  0.57148000  0.47904000  0.91542000  1.0
  O  O166  1  0.27197000  0.50556000  0.16989000  1.0
  O  O167  1  0.72803000  0.49443000  0.83011000  1.0
  O  O168  1  0.64060000  0.57118000  0.28027000  1.0
  O  O169  1  0.35940000  0.42883000  0.71973000  1.0
  O  O170  1  0.43724000  0.47600000  0.30686000  1.0
  O  O171  1  0.56277000  0.52400000  0.69314000  1.0
