# generated using pymatgen
data_CoH19C21Br2(NO3)2
_symmetry_space_group_name_H-M   'P 1'
_cell_length_a   9.96390000
_cell_length_b   10.80250000
_cell_length_c   11.43470000
_cell_angle_alpha   88.34730000
_cell_angle_beta   73.21160000
_cell_angle_gamma   70.36500000
_symmetry_Int_Tables_number   1
_chemical_formula_structural   CoH19C21Br2(NO3)2
_chemical_formula_sum   'Co2 H38 C42 Br4 N4 O12'
_cell_volume   1106.61950658
_cell_formula_units_Z   2
loop_
 _symmetry_equiv_pos_site_id
 _symmetry_equiv_pos_as_xyz
  1  'x, y, z'
loop_
 _atom_site_type_symbol
 _atom_site_label
 _atom_site_symmetry_multiplicity
 _atom_site_fract_x
 _atom_site_fract_y
 _atom_site_fract_z
 _atom_site_occupancy
  Co  Co0  1  0.19558000  0.30971000  0.45442000  1.0
  Co  Co1  1  0.80739000  0.68647000  0.54277000  1.0
  H  H2  1  0.04549000  0.25014000  0.35612000  1.0
  H  H3  1  0.96622000  0.75060000  0.64063000  1.0
  H  H4  1  0.95632000  0.39656000  0.42752000  1.0
  H  H5  1  0.05187000  0.60167000  0.57673000  1.0
  H  H6  1  0.31321000  0.58693000  0.18571000  1.0
  H  H7  1  0.69580000  0.41025000  0.81168000  1.0
  H  H8  1  0.33520000  0.72177000  0.00929000  1.0
  H  H9  1  0.67037000  0.27575000  0.98996000  1.0
  H  H10  1  0.87766000  0.78519000  0.02935000  1.0
  H  H11  1  0.12596000  0.21355000  0.97539000  1.0
  H  H12  1  0.85572000  0.65142000  0.20943000  1.0
  H  H13  1  0.15064000  0.34778000  0.79372000  1.0
  H  H14  1  0.00385000  0.88721000  0.88213000  1.0
  H  H15  1  0.99689000  0.11272000  0.11998000  1.0
  H  H16  1  0.33180000  0.85173000  0.85779000  1.0
  H  H17  1  0.66906000  0.15258000  0.13856000  1.0
  H  H18  1  0.42759000  0.14219000  0.55696000  1.0
  H  H19  1  0.57345000  0.86338000  0.44281000  1.0
  H  H20  1  0.44602000  0.97260000  0.70709000  1.0
  H  H21  1  0.55339000  0.03214000  0.28904000  1.0
  H  H22  1  0.99523000  0.00194000  0.72910000  1.0
  H  H23  1  0.00216000  0.00900000  0.26911000  1.0
  H  H24  1  0.99757000  0.16693000  0.57677000  1.0
  H  H25  1  0.00054000  0.84424000  0.42412000  1.0
  H  H26  1  0.42858000  0.40596000  0.30242000  1.0
  H  H27  1  0.56191000  0.58802000  0.69891000  1.0
  H  H28  1  0.62368000  0.46709000  0.22397000  1.0
  H  H29  1  0.36493000  0.53097000  0.77884000  1.0
  H  H30  1  0.79169000  0.36113000  0.24993000  1.0
  H  H31  1  0.19716000  0.63919000  0.75402000  1.0
  H  H32  1  0.69295000  0.51682000  0.33645000  1.0
  H  H33  1  0.29146000  0.48328000  0.66831000  1.0
  H  H34  1  0.56712000  0.30067000  0.56061000  1.0
  H  H35  1  0.42585000  0.69767000  0.44312000  1.0
  H  H36  1  0.70013000  0.38476000  0.51838000  1.0
  H  H37  1  0.29198000  0.61396000  0.48139000  1.0
  H  H38  1  0.74708000  0.22270000  0.45264000  1.0
  H  H39  1  0.24399000  0.77480000  0.54874000  1.0
  C  C40  1  0.06393000  0.53149000  0.31953000  1.0
  C  C41  1  0.94227000  0.46274000  0.68142000  1.0
  C  C42  1  0.08234000  0.61033000  0.21059000  1.0
  C  C43  1  0.92517000  0.38648000  0.79152000  1.0
  C  C44  1  0.21763000  0.63006000  0.15122000  1.0
  C  C45  1  0.78921000  0.36727000  0.84872000  1.0
  C  C46  1  0.22948000  0.70663000  0.05155000  1.0
  C  C47  1  0.77576000  0.29171000  0.94844000  1.0
  C  C48  1  0.10685000  0.76612000  0.00614000  1.0
  C  C49  1  0.89790000  0.23360000  0.99439000  1.0
  C  C50  1  0.97301000  0.74234000  0.06423000  1.0
  C  C51  1  0.03227000  0.25683000  0.93870000  1.0
  C  C52  1  0.96061000  0.66684000  0.16449000  1.0
  C  C53  1  0.04599000  0.33196000  0.83854000  1.0
  C  C54  1  0.10917000  0.85092000  0.90469000  1.0
  C  C55  1  0.89298000  0.15006000  0.09554000  1.0
  C  C56  1  0.22497000  0.88697000  0.83751000  1.0
  C  C57  1  0.77465000  0.11703000  0.16072000  1.0
  C  C58  1  0.33418000  0.10867000  0.59754000  1.0
  C  C59  1  0.66548000  0.89869000  0.40136000  1.0
  C  C60  1  0.34234000  0.01506000  0.68330000  1.0
  C  C61  1  0.65607000  0.99086000  0.31452000  1.0
  C  C62  1  0.21918000  0.97528000  0.73917000  1.0
  C  C63  1  0.77911000  0.03065000  0.25970000  1.0
  C  C64  1  0.09456000  0.02952000  0.69515000  1.0
  C  C65  1  0.90405000  0.97988000  0.30374000  1.0
  C  C66  1  0.09438000  0.12214000  0.60897000  1.0
  C  C67  1  0.90437000  0.88851000  0.39074000  1.0
  C  C68  1  0.27340000  0.14852000  0.21829000  1.0
  C  C69  1  0.72954000  0.84973000  0.77871000  1.0
  C  C70  1  0.38813000  0.07129000  0.10254000  1.0
  C  C71  1  0.61150000  0.92660000  0.89331000  1.0
  C  C72  1  0.43822000  0.13632000  0.00016000  1.0
  C  C73  1  0.56150000  0.86155000  0.99574000  1.0
  C  C74  1  0.54917000  0.06399000  0.89621000  1.0
  C  C75  1  0.45070000  0.93387000  0.09982000  1.0
  C  C76  1  0.46361000  0.36739000  0.38287000  1.0
  C  C77  1  0.52690000  0.62742000  0.61844000  1.0
  C  C78  1  0.68055000  0.43298000  0.29395000  1.0
  C  C79  1  0.30723000  0.56599000  0.70948000  1.0
  C  C80  1  0.65556000  0.31693000  0.48588000  1.0
  C  C81  1  0.33590000  0.68089000  0.51589000  1.0
  Br  Br82  1  0.35493000  0.32349000  0.00827000  1.0
  Br  Br83  1  0.64738000  0.67459000  0.98818000  1.0
  Br  Br84  1  0.61756000  0.14847000  0.75470000  1.0
  Br  Br85  1  0.38477000  0.84975000  0.24241000  1.0
  N  N86  1  0.21079000  0.16597000  0.56113000  1.0
  N  N87  1  0.78860000  0.84494000  0.43788000  1.0
  N  N88  1  0.59405000  0.37212000  0.38721000  1.0
  N  N89  1  0.39506000  0.62476000  0.61537000  1.0
  O  O90  1  0.18128000  0.45512000  0.34346000  1.0
  O  O91  1  0.82445000  0.53044000  0.65438000  1.0
  O  O92  1  0.93027000  0.54131000  0.38251000  1.0
  O  O93  1  0.07495000  0.45738000  0.62049000  1.0
  O  O94  1  0.32871000  0.18344000  0.29281000  1.0
  O  O95  1  0.67796000  0.80909000  0.70411000  1.0
  O  O96  1  0.13728000  0.16924000  0.22978000  1.0
  O  O97  1  0.86343000  0.83526000  0.76904000  1.0
  O  O98  1  0.38120000  0.32361000  0.46696000  1.0
  O  O99  1  0.60960000  0.66978000  0.53440000  1.0
  O  O100  1  0.00773000  0.30107000  0.44027000  1.0
  O  O101  1  0.00671000  0.69657000  0.55931000  1.0
