# generated using pymatgen
data_VMoH8C10N2O5
_symmetry_space_group_name_H-M   'P 1'
_cell_length_a   6.79763000
_cell_length_b   9.59042000
_cell_length_c   9.59032000
_cell_angle_alpha   71.04280000
_cell_angle_beta   80.17530000
_cell_angle_gamma   80.17540000
_symmetry_Int_Tables_number   1
_chemical_formula_structural   VMoH8C10N2O5
_chemical_formula_sum   'V2 Mo2 H16 C20 N4 O10'
_cell_volume   578.16197417
_cell_formula_units_Z   2
loop_
 _symmetry_equiv_pos_site_id
 _symmetry_equiv_pos_as_xyz
  1  'x, y, z'
loop_
 _atom_site_type_symbol
 _atom_site_label
 _atom_site_symmetry_multiplicity
 _atom_site_fract_x
 _atom_site_fract_y
 _atom_site_fract_z
 _atom_site_occupancy
  V  V0  1  0.33568000  0.75267000  0.42218000  1.0
  V  V1  1  0.83568000  0.42218000  0.75267000  1.0
  Mo  Mo2  1  0.37681000  0.38723000  0.63749000  1.0
  Mo  Mo3  1  0.87681000  0.63749000  0.38723000  1.0
  H  H4  1  0.40214000  0.55717000  0.19532000  1.0
  H  H5  1  0.90214000  0.19532000  0.55717000  1.0
  H  H6  1  0.43052000  0.59822000  0.91830000  1.0
  H  H7  1  0.93051000  0.91831000  0.59822000  1.0
  H  H8  1  0.40157000  0.85778000  0.74952000  1.0
  H  H9  1  0.90156000  0.74953000  0.85778000  1.0
  H  H10  1  0.34194000  0.06784000  0.85631000  1.0
  H  H11  1  0.84193000  0.85631000  0.06784000  1.0
  H  H12  1  0.26808000  0.22745000  0.96638000  1.0
  H  H13  1  0.76808000  0.96638000  0.22745000  1.0
  H  H14  1  0.20283000  0.40773000  0.11058000  1.0
  H  H15  1  0.70284000  0.11058000  0.40774000  1.0
  H  H16  1  0.20999000  0.31053000  0.38696000  1.0
  H  H17  1  0.70999000  0.38695000  0.31054000  1.0
  H  H18  1  0.27610000  0.03690000  0.50646000  1.0
  H  H19  1  0.77610000  0.50645000  0.03690000  1.0
  C  C20  1  0.38948000  0.66820000  0.11561000  1.0
  C  C21  1  0.88947000  0.11561000  0.66820000  1.0
  C  C22  1  0.40457000  0.69148000  0.96322000  1.0
  C  C23  1  0.90457000  0.96322000  0.69148000  1.0
  C  C24  1  0.38898000  0.83722000  0.86896000  1.0
  C  C25  1  0.88897000  0.86896000  0.83722000  1.0
  C  C26  1  0.35465000  0.95400000  0.92960000  1.0
  C  C27  1  0.85464000  0.92961000  0.95400000  1.0
  C  C28  1  0.33945000  0.92198000  0.08378000  1.0
  C  C29  1  0.83945000  0.08379000  0.92198000  1.0
  C  C30  1  0.30306000  0.03580000  0.16037000  1.0
  C  C31  1  0.80306000  0.16037000  0.03580000  1.0
  C  C32  1  0.27031000  0.18801000  0.08597000  1.0
  C  C33  1  0.77031000  0.08597000  0.18802000  1.0
  C  C34  1  0.23418000  0.28915000  0.16607000  1.0
  C  C35  1  0.73418000  0.16607000  0.28916000  1.0
  C  C36  1  0.23571000  0.23570000  0.31961000  1.0
  C  C37  1  0.73570000  0.31961000  0.23571000  1.0
  C  C38  1  0.27100000  0.08355000  0.38732000  1.0
  C  C39  1  0.77099000  0.38732000  0.08355000  1.0
  N  N40  1  0.35914000  0.78035000  0.17446000  1.0
  N  N41  1  0.85914000  0.17446000  0.78035000  1.0
  N  N42  1  0.30130000  0.98443000  0.31062000  1.0
  N  N43  1  0.80130000  0.31062000  0.98444000  1.0
  O  O44  1  0.30978000  0.77724000  0.58331000  1.0
  O  O45  1  0.80979000  0.58331000  0.77724000  1.0
  O  O46  1  0.37121000  0.53461000  0.46215000  1.0
  O  O47  1  0.87121000  0.46215000  0.53461000  1.0
  O  O48  1  0.13239000  0.37848000  0.74398000  1.0
  O  O49  1  0.63238000  0.74398000  0.37849000  1.0
  O  O50  1  0.45195000  0.22105000  0.59895000  1.0
  O  O51  1  0.95193000  0.59896000  0.22104000  1.0
  O  O52  1  0.54779000  0.41129000  0.74897000  1.0
  O  O53  1  0.04779000  0.74896000  0.41129000  1.0
