# generated using pymatgen
data_Hf3H16C25O16
_symmetry_space_group_name_H-M   'P 1'
_cell_length_a   9.28079000
_cell_length_b   17.75220000
_cell_length_c   28.99560000
_cell_angle_alpha   93.57610000
_cell_angle_beta   96.76340000
_cell_angle_gamma   91.00750000
_symmetry_Int_Tables_number   1
_chemical_formula_structural   Hf3H16C25O16
_chemical_formula_sum   'Hf6 H32 C50 O32'
_cell_volume   4733.17421274
_cell_formula_units_Z   2
loop_
 _symmetry_equiv_pos_site_id
 _symmetry_equiv_pos_as_xyz
  1  'x, y, z'
loop_
 _atom_site_type_symbol
 _atom_site_label
 _atom_site_symmetry_multiplicity
 _atom_site_fract_x
 _atom_site_fract_y
 _atom_site_fract_z
 _atom_site_occupancy
  Hf  Hf0  1  0.03352000  0.88627000  0.04652000  1.0
  Hf  Hf1  1  0.97328000  0.10378000  0.95645000  1.0
  Hf  Hf2  1  0.87574000  0.05489000  0.06038000  1.0
  Hf  Hf3  1  0.13677000  0.92846000  0.93858000  1.0
  Hf  Hf4  1  0.76208000  0.93590000  0.95979000  1.0
  Hf  Hf5  1  0.25618000  0.05115000  0.03993000  1.0
  H  H6  1  0.95145000  0.81186000  0.95750000  1.0
  H  H7  1  0.68544000  0.09078000  0.97988000  1.0
  H  H8  1  0.26722000  0.07757000  0.94589000  1.0
  H  H9  1  0.13495000  0.00588000  0.11746000  1.0
  H  H10  1  0.46499000  0.92678000  0.97043000  1.0
  H  H11  1  0.97511000  0.19575000  0.08744000  1.0
  H  H12  1  0.30451000  0.15495000  0.10745000  1.0
  H  H13  1  0.71819000  0.81723000  0.89046000  1.0
  H  H14  1  0.88667000  0.85717000  0.88576000  1.0
  H  H15  1  0.41669000  0.95371000  0.91326000  1.0
  H  H16  1  0.53962000  0.10026000  0.03203000  1.0
  H  H17  1  0.62839000  0.96914000  0.88187000  1.0
  H  H18  1  0.84062000  0.15494000  0.87551000  1.0
  H  H19  1  0.20823000  0.79513000  0.09920000  1.0
  H  H20  1  0.46362000  0.99222000  0.09333000  1.0
  H  H21  1  0.05186000  0.86689000  0.85343000  1.0
  H  H22  1  0.76689000  0.19232000  0.91853000  1.0
  H  H23  1  0.64880000  0.11462000  0.09816000  1.0
  H  H24  1  0.51591000  0.94188000  0.02682000  1.0
  H  H25  1  0.49850000  0.03088000  0.99689000  1.0
  H  H26  1  0.92443000  0.16843000  0.13471000  1.0
  H  H27  1  0.09904000  0.83385000  0.13221000  1.0
  H  H28  1  0.76384000  0.50772000  0.01319000  1.0
  H  H29  1  0.22431000  0.48872000  0.98807000  1.0
  H  H30  1  0.13803000  0.94554000  0.28943000  1.0
  H  H31  1  0.94812000  0.96547000  0.41823000  1.0
  H  H32  1  0.67138000  0.94817000  0.28749000  1.0
  H  H33  1  0.30005000  0.05371000  0.71394000  1.0
  H  H34  1  0.02698000  0.03448000  0.58246000  1.0
  H  H35  1  0.83310000  0.05711000  0.71045000  1.0
  H  H36  1  0.75237000  0.00096000  0.49831000  1.0
  H  H37  1  0.21979000  0.99897000  0.50253000  1.0
  C  C38  1  0.75865000  0.77787000  0.01047000  1.0
  C  C39  1  0.21687000  0.76804000  0.99134000  1.0
  C  C40  1  0.87570000  0.94528000  0.14214000  1.0
  C  C41  1  0.85399000  0.25673000  0.01603000  1.0
  C  C42  1  0.22450000  0.21968000  0.99521000  1.0
  C  C43  1  0.08925000  0.05141000  0.85812000  1.0
  C  C44  1  0.56622000  0.56952000  0.00378000  1.0
  C  C45  1  0.41120000  0.56437000  0.99623000  1.0
  C  C46  1  0.34237000  0.49310000  0.99320000  1.0
  C  C47  1  0.42225000  0.42678000  0.99687000  1.0
  C  C48  1  0.57717000  0.43209000  0.00366000  1.0
  C  C49  1  0.64583000  0.50358000  0.00739000  1.0
  C  C50  1  0.90289000  0.94544000  0.28335000  1.0
  C  C51  1  0.04309000  0.94811000  0.30817000  1.0
  C  C52  1  0.05974000  0.95585000  0.35705000  1.0
  C  C53  1  0.93548000  0.95941000  0.38039000  1.0
  C  C54  1  0.79531000  0.95656000  0.35594000  1.0
  C  C55  1  0.77902000  0.94955000  0.30708000  1.0
  C  C56  1  0.06809000  0.05701000  0.71732000  1.0
  C  C57  1  0.19291000  0.05229000  0.69402000  1.0
  C  C58  1  0.17809000  0.04445000  0.64515000  1.0
  C  C59  1  0.03846000  0.04130000  0.62028000  1.0
  C  C60  1  0.91350000  0.04548000  0.64322000  1.0
  C  C61  1  0.92869000  0.05414000  0.69202000  1.0
  C  C62  1  0.54352000  0.98610000  0.45748000  1.0
  C  C63  1  0.39048000  0.98556000  0.45865000  1.0
  C  C64  1  0.33670000  0.99941000  0.50157000  1.0
  C  C65  1  0.42865000  0.01389000  0.54336000  1.0
  C  C66  1  0.58168000  0.01450000  0.54213000  1.0
  C  C67  1  0.63545000  0.00053000  0.49924000  1.0
  C  C68  1  0.68153000  0.02820000  0.58240000  1.0
  C  C69  1  0.77961000  0.03821000  0.61425000  1.0
  C  C70  1  0.29309000  0.03675000  0.61724000  1.0
  C  C71  1  0.36511000  0.02712000  0.58484000  1.0
  C  C72  1  0.29097000  0.97224000  0.41821000  1.0
  C  C73  1  0.19395000  0.96273000  0.38597000  1.0
  C  C74  1  0.68069000  0.96375000  0.38397000  1.0
  C  C75  1  0.60758000  0.97306000  0.41611000  1.0
  C  C76  1  0.27924000  0.69393000  0.99100000  1.0
  C  C77  1  0.33369000  0.63207000  0.99296000  1.0
  C  C78  1  0.66478000  0.36784000  0.00688000  1.0
  C  C79  1  0.75038000  0.31660000  0.01021000  1.0
  C  C80  1  0.28907000  0.29424000  0.99452000  1.0
  C  C81  1  0.35000000  0.35569000  0.99500000  1.0
  C  C82  1  0.69257000  0.70400000  0.01060000  1.0
  C  C83  1  0.63689000  0.64101000  0.00769000  1.0
  C  C84  1  0.08055000  0.06117000  0.76668000  1.0
  C  C85  1  0.08718000  0.06122000  0.80888000  1.0
  C  C86  1  0.88682000  0.94135000  0.23395000  1.0
  C  C87  1  0.87363000  0.94060000  0.19162000  1.0
  O  O88  1  0.17046000  0.84304000  0.11063000  1.0
  O  O89  1  0.86874000  0.79375000  0.04057000  1.0
  O  O90  1  0.92293000  0.88950000  0.11957000  1.0
  O  O91  1  0.22131000  0.80630000  0.95659000  1.0
  O  O92  1  0.83435000  0.00793000  0.12565000  1.0
  O  O93  1  0.15993000  0.78740000  0.02882000  1.0
  O  O94  1  0.70274000  0.81961000  0.97918000  1.0
  O  O95  1  0.85477000  0.94941000  0.03068000  1.0
  O  O96  1  0.96504000  0.86357000  0.97041000  1.0
  O  O97  1  0.08961000  0.99704000  0.08553000  1.0
  O  O98  1  0.16602000  0.94409000  0.01068000  1.0
  O  O99  1  0.34889000  0.92645000  0.93056000  1.0
  O  O100  1  0.55423000  0.94229000  0.99517000  1.0
  O  O101  1  0.93967000  0.99152000  0.93792000  1.0
  O  O102  1  0.77347000  0.06244000  0.98684000  1.0
  O  O103  1  0.03369000  0.09171000  0.02453000  1.0
  O  O104  1  0.19403000  0.05309000  0.96159000  1.0
  O  O105  1  0.68549000  0.10827000  0.06816000  1.0
  O  O106  1  0.93878000  0.25893000  0.05323000  1.0
  O  O107  1  0.84802000  0.20686000  0.98154000  1.0
  O  O108  1  0.40534000  0.97091000  0.06532000  1.0
  O  O109  1  0.12393000  0.20022000  0.96196000  1.0
  O  O110  1  0.97722000  0.15201000  0.10900000  1.0
  O  O111  1  0.31771000  0.10091000  0.10350000  1.0
  O  O112  1  0.45994000  0.08142000  0.00642000  1.0
  O  O113  1  0.27414000  0.18004000  0.02780000  1.0
  O  O114  1  0.79090000  0.14449000  0.90244000  1.0
  O  O115  1  0.02778000  0.85502000  0.88392000  1.0
  O  O116  1  0.03698000  0.10419000  0.88285000  1.0
  O  O117  1  0.14136000  0.99024000  0.87201000  1.0
  O  O118  1  0.77143000  0.86522000  0.89326000  1.0
  O  O119  1  0.60820000  0.98069000  0.91365000  1.0
