# generated using pymatgen
data_Dy2H16C12S3O14
_symmetry_space_group_name_H-M   'P 1'
_cell_length_a   7.91242000
_cell_length_b   10.49760000
_cell_length_c   14.11960000
_cell_angle_alpha   71.03690000
_cell_angle_beta   75.93950000
_cell_angle_gamma   77.37560000
_symmetry_Int_Tables_number   1
_chemical_formula_structural   Dy2H16C12S3O14
_chemical_formula_sum   'Dy4 H32 C24 S6 O28'
_cell_volume   1063.38216952
_cell_formula_units_Z   2
loop_
 _symmetry_equiv_pos_site_id
 _symmetry_equiv_pos_as_xyz
  1  'x, y, z'
loop_
 _atom_site_type_symbol
 _atom_site_label
 _atom_site_symmetry_multiplicity
 _atom_site_fract_x
 _atom_site_fract_y
 _atom_site_fract_z
 _atom_site_occupancy
  Dy  Dy0  1  0.00763000  0.80323000  0.59684000  1.0
  Dy  Dy1  1  0.99237000  0.19677000  0.40316000  1.0
  Dy  Dy2  1  0.59072000  0.59193000  0.85885000  1.0
  Dy  Dy3  1  0.40928000  0.40807000  0.14115000  1.0
  H  H4  1  0.27334000  0.41295000  0.82133000  1.0
  H  H5  1  0.72666000  0.58705000  0.17867000  1.0
  H  H6  1  0.05634000  0.45290000  0.88874000  1.0
  H  H7  1  0.94365000  0.54710000  0.11125000  1.0
  H  H8  1  0.93508000  0.32673000  0.74522000  1.0
  H  H9  1  0.06493000  0.67327000  0.25478000  1.0
  H  H10  1  0.91410000  0.36475000  0.61547000  1.0
  H  H11  1  0.08591000  0.63525000  0.38453000  1.0
  H  H12  1  0.57949000  0.97296000  0.16907000  1.0
  H  H13  1  0.42051000  0.02704000  0.83093000  1.0
  H  H14  1  0.40373000  0.87361000  0.22363000  1.0
  H  H15  1  0.59627000  0.12639000  0.77637000  1.0
  H  H16  1  0.65269000  0.56374000  0.56217000  1.0
  H  H17  1  0.34731000  0.43626000  0.43783000  1.0
  H  H18  1  0.47645000  0.46956000  0.59073000  1.0
  H  H19  1  0.52355000  0.53045000  0.40927000  1.0
  H  H20  1  0.75504000  0.01863000  0.29222000  1.0
  H  H21  1  0.24495000  0.98137000  0.70778000  1.0
  H  H22  1  0.56550000  0.04821000  0.38329000  1.0
  H  H23  1  0.43450000  0.95179000  0.61671000  1.0
  H  H24  1  0.90580000  0.09811000  0.99322000  1.0
  H  H25  1  0.09420000  0.90189000  0.00678000  1.0
  H  H26  1  0.98759000  0.15710000  0.07468000  1.0
  H  H27  1  0.01241000  0.84290000  0.92532000  1.0
  H  H28  1  0.18987000  0.73197000  0.77070000  1.0
  H  H29  1  0.81013000  0.26804000  0.22930000  1.0
  H  H30  1  0.98622000  0.72581000  0.82435000  1.0
  H  H31  1  0.01379000  0.27419000  0.17565000  1.0
  H  H32  1  0.18636000  0.89814000  0.38849000  1.0
  H  H33  1  0.81364000  0.10186000  0.61151000  1.0
  H  H34  1  0.28524000  0.76043000  0.44751000  1.0
  H  H35  1  0.71476000  0.23957000  0.55249000  1.0
  C  C36  1  0.25606000  0.38467000  0.98054000  1.0
  C  C37  1  0.74394000  0.61533000  0.01946000  1.0
  C  C38  1  0.18060000  0.38150000  0.89297000  1.0
  C  C39  1  0.81940000  0.61850000  0.10702000  1.0
  C  C40  1  0.92136000  0.53714000  0.66453000  1.0
  C  C41  1  0.07865000  0.46286000  0.33547000  1.0
  C  C42  1  0.41650000  0.63830000  0.65266000  1.0
  C  C43  1  0.58350000  0.36170000  0.34734000  1.0
  C  C44  1  0.79386000  0.30083000  0.99532000  1.0
  C  C45  1  0.20613000  0.69917000  0.00469000  1.0
  C  C46  1  0.35633000  0.06795000  0.25588000  1.0
  C  C47  1  0.64367000  0.93205000  0.74411000  1.0
  C  C48  1  0.86979000  0.39981000  0.68381000  1.0
  C  C49  1  0.13022000  0.60019000  0.31619000  1.0
  C  C50  1  0.77830000  0.91491000  0.44676000  1.0
  C  C51  1  0.22170000  0.08509000  0.55324000  1.0
  C  C52  1  0.47815000  0.94153000  0.23661000  1.0
  C  C53  1  0.52186000  0.05847000  0.76338000  1.0
  C  C54  1  0.54595000  0.52096000  0.62261000  1.0
  C  C55  1  0.45405000  0.47904000  0.37739000  1.0
  C  C56  1  0.67118000  0.96827000  0.36317000  1.0
  C  C57  1  0.32882000  0.03172000  0.63683000  1.0
  C  C58  1  0.95134000  0.18654000  0.99948000  1.0
  C  C59  1  0.04865000  0.81346000  0.00052000  1.0
  S  S60  1  0.13984000  0.21571000  0.89767000  1.0
  S  S61  1  0.86015000  0.78429000  0.10233000  1.0
  S  S62  1  0.63669000  0.39896000  0.72947000  1.0
  S  S63  1  0.36331000  0.60104000  0.27053000  1.0
  S  S64  1  0.58034000  0.83633000  0.34412000  1.0
  S  S65  1  0.41966000  0.16367000  0.65588000  1.0
  O  O66  1  0.17137000  0.35340000  0.07133000  1.0
  O  O67  1  0.82862000  0.64660000  0.92867000  1.0
  O  O68  1  0.40743000  0.42354000  0.96190000  1.0
  O  O69  1  0.59257000  0.57646000  0.03810000  1.0
  O  O70  1  0.39595000  0.18079000  0.19865000  1.0
  O  O71  1  0.60405000  0.81921000  0.80134000  1.0
  O  O72  1  0.87442000  0.99506000  0.45297000  1.0
  O  O73  1  0.12559000  0.00494000  0.54702000  1.0
  O  O74  1  0.82919000  0.62059000  0.71456000  1.0
  O  O75  1  0.17082000  0.37941000  0.28544000  1.0
  O  O76  1  0.16778000  0.80315000  0.43180000  1.0
  O  O77  1  0.83222000  0.19685000  0.56820000  1.0
  O  O78  1  0.78119000  0.39210000  0.91116000  1.0
  O  O79  1  0.21881000  0.60790000  0.08884000  1.0
  O  O80  1  0.06584000  0.76690000  0.76107000  1.0
  O  O81  1  0.93416000  0.23310000  0.23893000  1.0
  O  O82  1  0.40897000  0.65613000  0.73908000  1.0
  O  O83  1  0.59103000  0.34387000  0.26093000  1.0
  O  O84  1  0.77536000  0.79742000  0.50913000  1.0
  O  O85  1  0.22464000  0.20258000  0.49087000  1.0
  O  O86  1  0.05549000  0.57042000  0.59803000  1.0
  O  O87  1  0.94452000  0.42958000  0.40196000  1.0
  O  O88  1  0.31834000  0.71147000  0.59105000  1.0
  O  O89  1  0.68166000  0.28853000  0.40895000  1.0
  O  O90  1  0.68709000  0.29375000  0.07877000  1.0
  O  O91  1  0.31291000  0.70624000  0.92124000  1.0
  O  O92  1  0.22262000  0.05363000  0.32904000  1.0
  O  O93  1  0.77738000  0.94636000  0.67096000  1.0
