# generated using pymatgen
data_ZnH49C43N5Cl2
_symmetry_space_group_name_H-M   'P 1'
_cell_length_a   8.73014000
_cell_length_b   16.33960000
_cell_length_c   16.37660000
_cell_angle_alpha   100.71900000
_cell_angle_beta   95.90250000
_cell_angle_gamma   98.18970000
_symmetry_Int_Tables_number   1
_chemical_formula_structural   ZnH49C43N5Cl2
_chemical_formula_sum   'Zn2 H98 C86 N10 Cl4'
_cell_volume   2251.72461555
_cell_formula_units_Z   2
loop_
 _symmetry_equiv_pos_site_id
 _symmetry_equiv_pos_as_xyz
  1  'x, y, z'
loop_
 _atom_site_type_symbol
 _atom_site_label
 _atom_site_symmetry_multiplicity
 _atom_site_fract_x
 _atom_site_fract_y
 _atom_site_fract_z
 _atom_site_occupancy
  Zn  Zn0  1  0.97632000  0.57680000  0.73047000  1.0
  Zn  Zn1  1  0.02368000  0.42320000  0.26953000  1.0
  H  H2  1  0.82057000  0.64896000  0.87352000  1.0
  H  H3  1  0.17944000  0.35104000  0.12649000  1.0
  H  H4  1  0.42515000  0.46364000  0.88945000  1.0
  H  H5  1  0.57485000  0.53637000  0.11055000  1.0
  H  H6  1  0.50774000  0.36670000  0.77096000  1.0
  H  H7  1  0.49226000  0.63331000  0.22904000  1.0
  H  H8  1  0.75005000  0.41580000  0.71215000  1.0
  H  H9  1  0.24995000  0.58420000  0.28785000  1.0
  H  H10  1  0.80782000  0.66488000  0.02908000  1.0
  H  H11  1  0.19218000  0.33513000  0.97092000  1.0
  H  H12  1  0.33077000  0.59452000  0.91413000  1.0
  H  H13  1  0.66924000  0.40547000  0.08588000  1.0
  H  H14  1  0.17672000  0.72280000  0.09137000  1.0
  H  H15  1  0.82329000  0.27720000  0.90863000  1.0
  H  H16  1  0.11436000  0.55435000  0.96463000  1.0
  H  H17  1  0.88564000  0.44565000  0.03537000  1.0
  H  H18  1  0.97897000  0.59627000  0.02693000  1.0
  H  H19  1  0.02104000  0.40374000  0.97307000  1.0
  H  H20  1  0.14686000  0.56602000  0.07555000  1.0
  H  H21  1  0.85315000  0.43398000  0.92445000  1.0
  H  H22  1  0.20293000  0.78722000  0.96223000  1.0
  H  H23  1  0.79708000  0.21278000  0.03777000  1.0
  H  H24  1  0.01202000  0.73350000  0.96335000  1.0
  H  H25  1  0.98798000  0.26650000  0.03665000  1.0
  H  H26  1  0.13959000  0.68560000  0.89876000  1.0
  H  H27  1  0.86042000  0.31440000  0.10124000  1.0
  H  H28  1  0.69340000  0.78795000  0.22429000  1.0
  H  H29  1  0.30660000  0.21206000  0.77571000  1.0
  H  H30  1  0.81941000  0.65702000  0.21538000  1.0
  H  H31  1  0.18058000  0.34299000  0.78462000  1.0
  H  H32  1  0.95247000  0.75199000  0.25876000  1.0
  H  H33  1  0.04753000  0.24802000  0.74124000  1.0
  H  H34  1  0.95466000  0.69944000  0.15444000  1.0
  H  H35  1  0.04533000  0.30056000  0.84557000  1.0
  H  H36  1  0.91017000  0.83672000  0.09904000  1.0
  H  H37  1  0.08984000  0.16329000  0.90096000  1.0
  H  H38  1  0.92481000  0.88817000  0.20599000  1.0
  H  H39  1  0.07520000  0.11184000  0.79401000  1.0
  H  H40  1  0.75903000  0.89105000  0.13406000  1.0
  H  H41  1  0.24098000  0.10896000  0.86593000  1.0
  H  H42  1  0.43237000  0.86919000  0.06614000  1.0
  H  H43  1  0.56763000  0.13081000  0.93386000  1.0
  H  H44  1  0.41933000  0.95719000  0.14827000  1.0
  H  H45  1  0.58066000  0.04282000  0.85173000  1.0
  H  H46  1  0.24783000  0.89306000  0.09363000  1.0
  H  H47  1  0.75216000  0.10695000  0.90637000  1.0
  H  H48  1  0.31788000  0.74569000  0.30191000  1.0
  H  H49  1  0.68210000  0.25431000  0.69808000  1.0
  H  H50  1  0.18215000  0.79025000  0.42829000  1.0
  H  H51  1  0.81784000  0.20975000  0.57171000  1.0
  H  H52  1  0.09626000  0.93245000  0.44920000  1.0
  H  H53  1  0.90373000  0.06755000  0.55080000  1.0
  H  H54  1  0.14458000  0.16047000  0.29920000  1.0
  H  H55  1  0.85541000  0.83953000  0.70080000  1.0
  H  H56  1  0.13259000  0.06511000  0.22255000  1.0
  H  H57  1  0.86741000  0.93489000  0.77745000  1.0
  H  H58  1  0.31061000  0.10801000  0.28549000  1.0
  H  H59  1  0.68939000  0.89199000  0.71452000  1.0
  H  H60  1  0.15127000  0.34601000  0.54514000  1.0
  H  H61  1  0.84872000  0.65398000  0.45486000  1.0
  H  H62  1  0.69985000  0.24218000  0.40460000  1.0
  H  H63  1  0.30015000  0.75782000  0.59540000  1.0
  H  H64  1  0.32733000  0.16004000  0.46381000  1.0
  H  H65  1  0.67267000  0.83996000  0.53619000  1.0
  H  H66  1  0.38852000  0.33209000  0.58526000  1.0
  H  H67  1  0.61148000  0.66791000  0.41474000  1.0
  H  H68  1  0.41099000  0.31655000  0.47675000  1.0
  H  H69  1  0.58901000  0.68345000  0.52325000  1.0
  H  H70  1  0.52752000  0.27147000  0.54592000  1.0
  H  H71  1  0.47247000  0.72853000  0.45408000  1.0
  H  H72  1  0.40179000  0.15326000  0.61316000  1.0
  H  H73  1  0.59820000  0.84674000  0.38683000  1.0
  H  H74  1  0.20410000  0.10493000  0.57772000  1.0
  H  H75  1  0.79589000  0.89507000  0.42228000  1.0
  H  H76  1  0.24681000  0.20801000  0.64201000  1.0
  H  H77  1  0.75318000  0.79199000  0.35798000  1.0
  H  H78  1  0.80983000  0.02617000  0.34728000  1.0
  H  H79  1  0.19017000  0.97382000  0.65273000  1.0
  H  H80  1  0.63344000  0.03740000  0.22354000  1.0
  H  H81  1  0.36657000  0.96259000  0.77646000  1.0
  H  H82  1  0.81250000  0.10838000  0.23156000  1.0
  H  H83  1  0.18752000  0.89160000  0.76844000  1.0
  H  H84  1  0.64391000  0.14771000  0.26180000  1.0
  H  H85  1  0.35610000  0.85228000  0.73819000  1.0
  H  H86  1  0.52483000  0.00818000  0.35613000  1.0
  H  H87  1  0.47516000  0.99182000  0.64387000  1.0
  H  H88  1  0.54105000  0.11690000  0.40139000  1.0
  H  H89  1  0.45895000  0.88310000  0.59861000  1.0
  H  H90  1  0.63500000  0.05010000  0.45654000  1.0
  H  H91  1  0.36499000  0.94990000  0.54346000  1.0
  H  H92  1  0.70946000  0.38022000  0.39012000  1.0
  H  H93  1  0.29052000  0.61978000  0.60988000  1.0
  H  H94  1  0.62199000  0.51611000  0.44541000  1.0
  H  H95  1  0.37800000  0.48389000  0.55460000  1.0
  H  H96  1  0.74211000  0.59909000  0.58956000  1.0
  H  H97  1  0.25788000  0.40090000  0.41045000  1.0
  H  H98  1  0.01489000  0.41904000  0.62443000  1.0
  H  H99  1  0.98511000  0.58095000  0.37557000  1.0
  C  C100  1  0.74992000  0.58622000  0.85512000  1.0
  C  C101  1  0.25009000  0.41378000  0.14489000  1.0
  C  C102  1  0.61840000  0.56405000  0.89366000  1.0
  C  C103  1  0.38160000  0.43595000  0.10635000  1.0
  C  C104  1  0.52857000  0.48388000  0.86167000  1.0
  C  C105  1  0.47143000  0.51613000  0.13833000  1.0
  C  C106  1  0.57367000  0.42977000  0.79567000  1.0
  C  C107  1  0.42634000  0.57023000  0.20433000  1.0
  C  C108  1  0.70835000  0.45631000  0.76297000  1.0
  C  C109  1  0.29165000  0.54368000  0.23703000  1.0
  C  C110  1  0.57428000  0.62276000  0.96374000  1.0
  C  C111  1  0.42573000  0.37724000  0.03626000  1.0
  C  C112  1  0.68497000  0.67022000  0.02998000  1.0
  C  C113  1  0.31504000  0.32978000  0.97002000  1.0
  C  C114  1  0.64103000  0.72096000  0.09908000  1.0
  C  C115  1  0.35898000  0.27905000  0.90092000  1.0
  C  C116  1  0.48103000  0.72711000  0.10033000  1.0
  C  C117  1  0.51898000  0.27290000  0.89967000  1.0
  C  C118  1  0.36784000  0.68179000  0.03287000  1.0
  C  C119  1  0.63217000  0.31821000  0.96713000  1.0
  C  C120  1  0.41698000  0.62977000  0.96644000  1.0
  C  C121  1  0.58302000  0.37022000  0.03356000  1.0
  C  C122  1  0.19472000  0.68434000  0.03165000  1.0
  C  C123  1  0.80529000  0.31566000  0.96835000  1.0
  C  C124  1  0.10381000  0.59524000  0.02444000  1.0
  C  C125  1  0.89620000  0.40476000  0.97557000  1.0
  C  C126  1  0.13405000  0.72500000  0.96018000  1.0
  C  C127  1  0.86596000  0.27500000  0.03982000  1.0
  C  C128  1  0.76003000  0.76948000  0.17223000  1.0
  C  C129  1  0.23998000  0.23053000  0.82777000  1.0
  C  C130  1  0.87747000  0.71621000  0.20164000  1.0
  C  C131  1  0.12253000  0.28379000  0.79836000  1.0
  C  C132  1  0.84313000  0.85126000  0.15177000  1.0
  C  C133  1  0.15687000  0.14875000  0.84823000  1.0
  C  C134  1  0.36933000  0.89168000  0.11810000  1.0
  C  C135  1  0.63067000  0.10833000  0.88190000  1.0
  C  C136  1  0.37428000  0.83627000  0.18149000  1.0
  C  C137  1  0.62572000  0.16374000  0.81850000  1.0
  C  C138  1  0.30270000  0.86157000  0.25916000  1.0
  C  C139  1  0.69730000  0.13844000  0.74084000  1.0
  C  C140  1  0.27906000  0.80666000  0.31490000  1.0
  C  C141  1  0.72093000  0.19334000  0.68510000  1.0
  C  C142  1  0.20395000  0.83143000  0.38410000  1.0
  C  C143  1  0.79604000  0.16858000  0.61590000  1.0
  C  C144  1  0.15577000  0.90996000  0.39624000  1.0
  C  C145  1  0.84422000  0.09004000  0.60376000  1.0
  C  C146  1  0.18510000  0.96119000  0.33794000  1.0
  C  C147  1  0.81489000  0.03881000  0.66205000  1.0
  C  C148  1  0.18352000  0.09913000  0.28608000  1.0
  C  C149  1  0.81648000  0.90087000  0.71392000  1.0
  C  C150  1  0.13970000  0.04661000  0.34853000  1.0
  C  C151  1  0.86029000  0.95339000  0.65147000  1.0
  C  C152  1  0.02025000  0.14827000  0.42970000  1.0
  C  C153  1  0.97975000  0.85173000  0.57030000  1.0
  C  C154  1  0.12534000  0.21686000  0.48171000  1.0
  C  C155  1  0.87466000  0.78314000  0.51828000  1.0
  C  C156  1  0.07170000  0.29293000  0.50522000  1.0
  C  C157  1  0.92830000  0.70707000  0.49477000  1.0
  C  C158  1  0.91993000  0.30413000  0.47697000  1.0
  C  C159  1  0.08007000  0.69587000  0.52302000  1.0
  C  C160  1  0.81909000  0.23515000  0.42573000  1.0
  C  C161  1  0.18091000  0.76485000  0.57426000  1.0
  C  C162  1  0.86507000  0.15664000  0.40317000  1.0
  C  C163  1  0.13493000  0.84336000  0.59683000  1.0
  C  C164  1  0.28913000  0.20505000  0.51322000  1.0
  C  C165  1  0.71088000  0.79496000  0.48678000  1.0
  C  C166  1  0.40998000  0.28610000  0.53117000  1.0
  C  C167  1  0.59002000  0.71391000  0.46883000  1.0
  C  C168  1  0.28531000  0.16507000  0.59107000  1.0
  C  C169  1  0.71468000  0.83493000  0.40893000  1.0
  C  C170  1  0.75086000  0.08171000  0.35135000  1.0
  C  C171  1  0.24913000  0.91828000  0.64865000  1.0
  C  C172  1  0.70797000  0.09440000  0.26177000  1.0
  C  C173  1  0.29205000  0.90559000  0.73823000  1.0
  C  C174  1  0.60487000  0.06312000  0.39398000  1.0
  C  C175  1  0.39513000  0.93688000  0.60603000  1.0
  C  C176  1  0.86676000  0.38526000  0.50325000  1.0
  C  C177  1  0.13323000  0.61474000  0.49675000  1.0
  C  C178  1  0.75497000  0.41527000  0.45340000  1.0
  C  C179  1  0.24502000  0.58473000  0.54661000  1.0
  C  C180  1  0.70708000  0.49166000  0.48373000  1.0
  C  C181  1  0.29291000  0.50834000  0.51628000  1.0
  C  C182  1  0.77242000  0.53815000  0.56286000  1.0
  C  C183  1  0.22757000  0.46184000  0.43715000  1.0
  C  C184  1  0.92694000  0.43682000  0.58169000  1.0
  C  C185  1  0.07305000  0.56317000  0.41831000  1.0
  N  N186  1  0.79395000  0.53369000  0.79177000  1.0
  N  N187  1  0.20606000  0.46631000  0.20824000  1.0
  N  N188  1  0.43286000  0.76782000  0.17401000  1.0
  N  N189  1  0.56714000  0.23219000  0.82599000  1.0
  N  N190  1  0.25623000  0.93726000  0.27051000  1.0
  N  N191  1  0.74377000  0.06274000  0.72948000  1.0
  N  N192  1  0.06613000  0.06908000  0.41097000  1.0
  N  N193  1  0.93387000  0.93092000  0.58903000  1.0
  N  N194  1  0.88176000  0.51085000  0.61024000  1.0
  N  N195  1  0.11823000  0.48915000  0.38976000  1.0
  Cl  Cl196  1  0.97232000  0.71318000  0.74110000  1.0
  Cl  Cl197  1  0.02768000  0.28681000  0.25890000  1.0
  Cl  Cl198  1  0.18872000  0.51973000  0.75764000  1.0
  Cl  Cl199  1  0.81129000  0.48027000  0.24236000  1.0
