# generated using pymatgen
data_TbCdH7C5SN2O11
_symmetry_space_group_name_H-M   'P 1'
_cell_length_a   8.56990000
_cell_length_b   10.53040000
_cell_length_c   13.81400000
_cell_angle_alpha   89.99990000
_cell_angle_beta   101.87400000
_cell_angle_gamma   89.99990000
_symmetry_Int_Tables_number   1
_chemical_formula_structural   TbCdH7C5SN2O11
_chemical_formula_sum   'Tb4 Cd4 H28 C20 S4 N8 O44'
_cell_volume   1219.96220429
_cell_formula_units_Z   4
loop_
 _symmetry_equiv_pos_site_id
 _symmetry_equiv_pos_as_xyz
  1  'x, y, z'
loop_
 _atom_site_type_symbol
 _atom_site_label
 _atom_site_symmetry_multiplicity
 _atom_site_fract_x
 _atom_site_fract_y
 _atom_site_fract_z
 _atom_site_occupancy
  Tb  Tb0  1  0.06756000  0.89553000  0.89109000  1.0
  Tb  Tb1  1  0.93244000  0.39553000  0.60891000  1.0
  Tb  Tb2  1  0.93244000  0.10447000  0.10891000  1.0
  Tb  Tb3  1  0.06756000  0.60447000  0.39109000  1.0
  Cd  Cd4  1  0.37650000  0.48341000  0.86615000  1.0
  Cd  Cd5  1  0.62350000  0.98341000  0.63385000  1.0
  Cd  Cd6  1  0.62350000  0.51659000  0.13385000  1.0
  Cd  Cd7  1  0.37650000  0.01659000  0.36615000  1.0
  H  H8  1  0.37103000  0.25908000  0.66201000  1.0
  H  H9  1  0.62897000  0.75908000  0.83799000  1.0
  H  H10  1  0.62897000  0.74092000  0.33798000  1.0
  H  H11  1  0.37103000  0.24092000  0.16202000  1.0
  H  H12  1  0.00481000  0.89850000  0.66547000  1.0
  H  H13  1  0.99519000  0.39850000  0.83453000  1.0
  H  H14  1  0.99519000  0.10150000  0.33453000  1.0
  H  H15  1  0.00481000  0.60150000  0.16547000  1.0
  H  H16  1  0.19300000  0.91387000  0.69828000  1.0
  H  H17  1  0.80700000  0.41387000  0.80172000  1.0
  H  H18  1  0.80701000  0.08613000  0.30172000  1.0
  H  H19  1  0.19300000  0.58613000  0.19828000  1.0
  H  H20  1  0.98748000  0.63438000  0.83235000  1.0
  H  H21  1  0.01253000  0.13438000  0.66765000  1.0
  H  H22  1  0.01252000  0.36562000  0.16765000  1.0
  H  H23  1  0.98748000  0.86562000  0.33235000  1.0
  H  H24  1  0.94884000  0.68903000  0.72571000  1.0
  H  H25  1  0.05116000  0.18903000  0.77429000  1.0
  H  H26  1  0.05116000  0.31097000  0.27429000  1.0
  H  H27  1  0.94884000  0.81097000  0.22571000  1.0
  H  H28  1  0.44133000  0.88616000  0.92955000  1.0
  H  H29  1  0.55867000  0.38616000  0.57045000  1.0
  H  H30  1  0.55867000  0.11384000  0.07045000  1.0
  H  H31  1  0.44133000  0.61384000  0.42955000  1.0
  H  H32  1  0.37536000  0.02671000  0.91782000  1.0
  H  H33  1  0.62464000  0.52671000  0.58218000  1.0
  H  H34  1  0.62464000  0.97329000  0.08218000  1.0
  H  H35  1  0.37536000  0.47329000  0.41782000  1.0
  C  C36  1  0.46716000  0.24195000  0.72529000  1.0
  C  C37  1  0.53284000  0.74195000  0.77470000  1.0
  C  C38  1  0.53283000  0.75805000  0.27471000  1.0
  C  C39  1  0.46717000  0.25805000  0.22530000  1.0
  C  C40  1  0.66673000  0.15249000  0.82405000  1.0
  C  C41  1  0.33333333  0.65249000  0.67595000  1.0
  C  C42  1  0.33326000  0.84751000  0.17595000  1.0
  C  C43  1  0.66674000  0.34751000  0.32405000  1.0
  C  C44  1  0.62282000  0.26164000  0.87036000  1.0
  C  C45  1  0.37718000  0.76164000  0.62964000  1.0
  C  C46  1  0.37717000  0.73836000  0.12965000  1.0
  C  C47  1  0.62283000  0.23836000  0.37036000  1.0
  C  C48  1  0.78723000  0.05492000  0.85458000  1.0
  C  C49  1  0.21277000  0.55492000  0.64541000  1.0
  C  C50  1  0.21277000  0.94508000  0.14541000  1.0
  C  C51  1  0.78723000  0.44508000  0.35459000  1.0
  C  C52  1  0.68307000  0.32320000  0.96711000  1.0
  C  C53  1  0.31693000  0.82320000  0.53289000  1.0
  C  C54  1  0.31693000  0.67680000  0.03289000  1.0
  C  C55  1  0.68307000  0.17680000  0.46711000  1.0
  S  S56  1  0.20227000  0.21949000  0.95643000  1.0
  S  S57  1  0.79773000  0.71949000  0.54357000  1.0
  S  S58  1  0.79773000  0.78051000  0.04357000  1.0
  S  S59  1  0.20227000  0.28052000  0.45644000  1.0
  N  N60  1  0.49679000  0.31588000  0.80628000  1.0
  N  N61  1  0.50321000  0.81588000  0.69372000  1.0
  N  N62  1  0.50321000  0.68412000  0.19372000  1.0
  N  N63  1  0.49679000  0.18412000  0.30628000  1.0
  N  N64  1  0.56888000  0.14353000  0.73193000  1.0
  N  N65  1  0.43112000  0.64353000  0.76807000  1.0
  N  N66  1  0.43112000  0.85647000  0.26807000  1.0
  N  N67  1  0.56888000  0.35647000  0.23193000  1.0
  O  O68  1  0.82056000  0.97859000  0.78923000  1.0
  O  O69  1  0.17944000  0.47859000  0.71077000  1.0
  O  O70  1  0.17944000  0.02141000  0.21077000  1.0
  O  O71  1  0.82056000  0.52141000  0.28924000  1.0
  O  O72  1  0.86181000  0.04267000  0.94413000  1.0
  O  O73  1  0.13820000  0.54267000  0.55587000  1.0
  O  O74  1  0.13820000  0.95733000  0.05587000  1.0
  O  O75  1  0.86181000  0.45733000  0.44413000  1.0
  O  O76  1  0.79022000  0.27364000  0.03236000  1.0
  O  O77  1  0.20977000  0.77364000  0.46764000  1.0
  O  O78  1  0.20977000  0.72636000  0.96764000  1.0
  O  O79  1  0.79022000  0.22636000  0.53236000  1.0
  O  O80  1  0.62013000  0.43084000  0.98046000  1.0
  O  O81  1  0.37987000  0.93084000  0.51953000  1.0
  O  O82  1  0.37987000  0.56916000  0.01954000  1.0
  O  O83  1  0.62013000  0.06916000  0.48047000  1.0
  O  O84  1  0.37321000  0.18683000  0.98640000  1.0
  O  O85  1  0.62679000  0.68683000  0.51360000  1.0
  O  O86  1  0.62679000  0.81317000  0.01360000  1.0
  O  O87  1  0.37321000  0.31317000  0.48641000  1.0
  O  O88  1  0.17851000  0.34614000  0.90643000  1.0
  O  O89  1  0.82149000  0.84614000  0.59356000  1.0
  O  O90  1  0.82149000  0.65386000  0.09356000  1.0
  O  O91  1  0.17852000  0.15386000  0.40644000  1.0
  O  O92  1  0.12345000  0.12252000  0.88161000  1.0
  O  O93  1  0.87655000  0.62252000  0.61838000  1.0
  O  O94  1  0.87655000  0.87748000  0.11838000  1.0
  O  O95  1  0.12345000  0.37749000  0.38162000  1.0
  O  O96  1  0.12465000  0.22149000  0.04283000  1.0
  O  O97  1  0.87534000  0.72148000  0.45717000  1.0
  O  O98  1  0.87534000  0.77851000  0.95717000  1.0
  O  O99  1  0.12466000  0.27852000  0.54284000  1.0
  O  O100  1  0.09208000  0.93898000  0.71484000  1.0
  O  O101  1  0.90791000  0.43898000  0.78516000  1.0
  O  O102  1  0.90792000  0.06102000  0.28516000  1.0
  O  O103  1  0.09209000  0.56102000  0.21484000  1.0
  O  O104  1  0.00088000  0.71097000  0.79513000  1.0
  O  O105  1  0.99912000  0.21097000  0.70487000  1.0
  O  O106  1  0.99912000  0.28903000  0.20487000  1.0
  O  O107  1  0.00088000  0.78903000  0.29513000  1.0
  O  O108  1  0.35133000  0.93840000  0.89576000  1.0
  O  O109  1  0.64867000  0.43840000  0.60424000  1.0
  O  O110  1  0.64868000  0.06160000  0.10423000  1.0
  O  O111  1  0.35133000  0.56160000  0.39577000  1.0
