# generated using pymatgen
data_CdH14C20N4(O3F2)2
_symmetry_space_group_name_H-M   'P 1'
_cell_length_a   6.91910000
_cell_length_b   7.98441000
_cell_length_c   10.99729847
_cell_angle_alpha   109.79045999
_cell_angle_beta   100.14867020
_cell_angle_gamma   102.98000000
_symmetry_Int_Tables_number   1
_chemical_formula_structural   CdH14C20N4(O3F2)2
_chemical_formula_sum   'Cd1 H14 C20 N4 O6 F4'
_cell_volume   535.55877359
_cell_formula_units_Z   1
loop_
 _symmetry_equiv_pos_site_id
 _symmetry_equiv_pos_as_xyz
  1  'x, y, z'
loop_
 _atom_site_type_symbol
 _atom_site_label
 _atom_site_symmetry_multiplicity
 _atom_site_fract_x
 _atom_site_fract_y
 _atom_site_fract_z
 _atom_site_occupancy
  Cd  Cd0  1  0.50001000  0.00000000  0.50000000  1.0
  H  H1  1  0.59146000  0.60013000  0.94825000  1.0
  H  H2  1  0.40854000  0.39985000  0.05175000  1.0
  H  H3  1  0.26403000  0.61785000  0.58208000  1.0
  H  H4  1  0.73596000  0.38215000  0.41792000  1.0
  H  H5  1  0.35511000  0.89399000  0.78969000  1.0
  H  H6  1  0.64490000  0.10601000  0.21032000  1.0
  H  H7  1  0.29899000  0.30508000  0.45783000  1.0
  H  H8  1  0.70101000  0.69493000  0.54218000  1.0
  H  H9  1  0.60869000  0.28472000  0.80889000  1.0
  H  H10  1  0.39130000  0.71527000  0.19110000  1.0
  H  H11  1  0.13643000  0.93812000  0.59576000  1.0
  H  H12  1  0.86358000  0.06189000  0.40424000  1.0
  H  H13  1  0.08774000  0.85312000  0.43944000  1.0
  H  H14  1  0.91226000  0.14689000  0.56056000  1.0
  C  C15  1  0.52398000  0.53781000  0.83981000  1.0
  C  C16  1  0.47603000  0.46218000  0.16020000  1.0
  C  C17  1  0.97453000  0.85595000  0.87989000  1.0
  C  C18  1  0.02545000  0.14405000  0.12010000  1.0
  C  C19  1  0.97042000  0.16487000  0.99944000  1.0
  C  C20  1  0.02957000  0.83513000  0.00055000  1.0
  C  C21  1  0.94501000  0.02132000  0.87713000  1.0
  C  C22  1  0.05499000  0.97868000  0.12286000  1.0
  C  C23  1  0.87706000  0.04156000  0.74530000  1.0
  C  C24  1  0.12294000  0.95844000  0.25469000  1.0
  C  C25  1  0.34176000  0.54853000  0.63600000  1.0
  C  C26  1  0.65825000  0.45147000  0.36401000  1.0
  C  C27  1  0.42912000  0.63541000  0.77558000  1.0
  C  C28  1  0.57089000  0.36460000  0.22443000  1.0
  C  C29  1  0.42529000  0.82444000  0.84754000  1.0
  C  C30  1  0.57471000  0.17555000  0.15247000  1.0
  C  C31  1  0.36047000  0.37434000  0.56662000  1.0
  C  C32  1  0.63953000  0.62567000  0.43339000  1.0
  C  C33  1  0.53506000  0.36405000  0.76292000  1.0
  C  C34  1  0.46495000  0.63594000  0.23708000  1.0
  N  N35  1  0.50754000  0.90997000  0.97593000  1.0
  N  N36  1  0.49245000  0.09001000  0.02407000  1.0
  N  N37  1  0.45803000  0.28432000  0.62777000  1.0
  N  N38  1  0.54196000  0.71567000  0.37222000  1.0
  O  O39  1  0.17353000  0.85084000  0.52207000  1.0
  O  O40  1  0.82648000  0.14917000  0.47793000  1.0
  O  O41  1  0.68349000  0.00265000  0.70109000  1.0
  O  O42  1  0.31651000  0.99735000  0.29890000  1.0
  O  O43  1  0.01479000  0.09400000  0.69265000  1.0
  O  O44  1  0.98521000  0.90602000  0.30735000  1.0
  F  F45  1  0.93851000  0.32708000  0.00119000  1.0
  F  F46  1  0.06148000  0.67292000  0.99881000  1.0
  F  F47  1  0.95053000  0.71173000  0.76224000  1.0
  F  F48  1  0.04946000  0.28827000  0.23776000  1.0
