# generated using pymatgen
data_ZnH8C12(N3Cl)2
_symmetry_space_group_name_H-M   'P 1'
_cell_length_a   8.25537000
_cell_length_b   9.27613000
_cell_length_c   11.05030000
_cell_angle_alpha   94.76850000
_cell_angle_beta   97.89350000
_cell_angle_gamma   98.31600000
_symmetry_Int_Tables_number   1
_chemical_formula_structural   ZnH8C12(N3Cl)2
_chemical_formula_sum   'Zn2 H16 C24 N12 Cl4'
_cell_volume   824.78574677
_cell_formula_units_Z   2
loop_
 _symmetry_equiv_pos_site_id
 _symmetry_equiv_pos_as_xyz
  1  'x, y, z'
loop_
 _atom_site_type_symbol
 _atom_site_label
 _atom_site_symmetry_multiplicity
 _atom_site_fract_x
 _atom_site_fract_y
 _atom_site_fract_z
 _atom_site_occupancy
  Zn  Zn0  1  0.33247000  0.19803000  0.23994000  1.0
  Zn  Zn1  1  0.66752000  0.80198000  0.76006000  1.0
  H  H2  1  0.99458000  0.03601000  0.11572000  1.0
  H  H3  1  0.00543000  0.96398000  0.88427000  1.0
  H  H4  1  0.75508000  0.87115000  0.17383000  1.0
  H  H5  1  0.24492000  0.12886000  0.82617000  1.0
  H  H6  1  0.79401000  0.76592000  0.37854000  1.0
  H  H7  1  0.20599000  0.23409000  0.62147000  1.0
  H  H8  1  0.07610000  0.81042000  0.50258000  1.0
  H  H9  1  0.92391000  0.18958000  0.49742000  1.0
  H  H10  1  0.59333000  0.43158000  0.39892000  1.0
  H  H11  1  0.40664000  0.56843000  0.60107000  1.0
  H  H12  1  0.89201000  0.53387000  0.40889000  1.0
  H  H13  1  0.10798000  0.46613000  0.59111000  1.0
  H  H14  1  0.04576000  0.44821000  0.23922000  1.0
  H  H15  1  0.95425000  0.55179000  0.76079000  1.0
  H  H16  1  0.89451000  0.25864000  0.07453000  1.0
  H  H17  1  0.10550000  0.74136000  0.92549000  1.0
  C  C18  1  0.00637000  0.98353000  0.20052000  1.0
  C  C19  1  0.99365000  0.01647000  0.79948000  1.0
  C  C20  1  0.87289000  0.89371000  0.23490000  1.0
  C  C21  1  0.12710000  0.10630000  0.76510000  1.0
  C  C22  1  0.89545000  0.83299000  0.34575000  1.0
  C  C23  1  0.10456000  0.16702000  0.65425000  1.0
  C  C24  1  0.05244000  0.85831000  0.41641000  1.0
  C  C25  1  0.94756000  0.14170000  0.58359000  1.0
  C  C26  1  0.17996000  0.94773000  0.37483000  1.0
  C  C27  1  0.82005000  0.05228000  0.62517000  1.0
  C  C28  1  0.34942000  0.97571000  0.44295000  1.0
  C  C29  1  0.65058000  0.02429000  0.55705000  1.0
  C  C30  1  0.66512000  0.39491000  0.32967000  1.0
  C  C31  1  0.33487000  0.60510000  0.67032000  1.0
  C  C32  1  0.83171000  0.45319000  0.33295000  1.0
  C  C33  1  0.16828000  0.54681000  0.66705000  1.0
  C  C34  1  0.91561000  0.40627000  0.23974000  1.0
  C  C35  1  0.08438000  0.59373000  0.76027000  1.0
  C  C36  1  0.83170000  0.29889000  0.14775000  1.0
  C  C37  1  0.16831000  0.70111000  0.85226000  1.0
  C  C38  1  0.66796000  0.24038000  0.15454000  1.0
  C  C39  1  0.33203000  0.75961000  0.84545000  1.0
  C  C40  1  0.57930000  0.11411000  0.07020000  1.0
  C  C41  1  0.42071000  0.88589000  0.92979000  1.0
  N  N42  1  0.15555000  0.01225000  0.26967000  1.0
  N  N43  1  0.84446000  0.98774000  0.73032000  1.0
  N  N44  1  0.46753000  0.05484000  0.39160000  1.0
  N  N45  1  0.53247000  0.94516000  0.60839000  1.0
  N  N46  1  0.62084000  0.07996000  0.44865000  1.0
  N  N47  1  0.37917000  0.92004000  0.55135000  1.0
  N  N48  1  0.58509000  0.29015000  0.24268000  1.0
  N  N49  1  0.41490000  0.70984000  0.75731000  1.0
  N  N50  1  0.43700000  0.04429000  0.10040000  1.0
  N  N51  1  0.56303000  0.95570000  0.89959000  1.0
  N  N52  1  0.35545000  0.92844000  0.02973000  1.0
  N  N53  1  0.64456000  0.07156000  0.97027000  1.0
  Cl  Cl54  1  0.27914000  0.33395000  0.41339000  1.0
  Cl  Cl55  1  0.72084000  0.66605000  0.58661000  1.0
  Cl  Cl56  1  0.21325000  0.27566000  0.06136000  1.0
  Cl  Cl57  1  0.78673000  0.72434000  0.93864000  1.0
