# generated using pymatgen
data_CdH11C11N6O5
_symmetry_space_group_name_H-M   'P 1'
_cell_length_a   10.75400000
_cell_length_b   10.78970000
_cell_length_c   17.03680000
_cell_angle_alpha   89.99990000
_cell_angle_beta   74.71000000
_cell_angle_gamma   89.99980000
_symmetry_Int_Tables_number   1
_chemical_formula_structural   CdH11C11N6O5
_chemical_formula_sum   'Cd4 H44 C44 N24 O20'
_cell_volume   1906.84872816
_cell_formula_units_Z   4
loop_
 _symmetry_equiv_pos_site_id
 _symmetry_equiv_pos_as_xyz
  1  'x, y, z'
loop_
 _atom_site_type_symbol
 _atom_site_label
 _atom_site_symmetry_multiplicity
 _atom_site_fract_x
 _atom_site_fract_y
 _atom_site_fract_z
 _atom_site_occupancy
  Cd  Cd0  1  0.64096000  0.82831000  0.17783000  1.0
  Cd  Cd1  1  0.85904000  0.32832000  0.32217000  1.0
  Cd  Cd2  1  0.35904000  0.17168000  0.82216000  1.0
  Cd  Cd3  1  0.14097000  0.67168000  0.67783000  1.0
  H  H4  1  0.48819000  0.57627000  0.23676000  1.0
  H  H5  1  0.01181000  0.07627000  0.26324000  1.0
  H  H6  1  0.51181000  0.42373000  0.76324000  1.0
  H  H7  1  0.98819000  0.92374000  0.73676000  1.0
  H  H8  1  0.44598000  0.67933000  0.30196000  1.0
  H  H9  1  0.05403000  0.17933000  0.19804000  1.0
  H  H10  1  0.55402000  0.32067000  0.69804000  1.0
  H  H11  1  0.94598000  0.82067000  0.80196000  1.0
  H  H12  1  0.92740000  0.05520000  0.86709000  1.0
  H  H13  1  0.57261000  0.55520000  0.63291000  1.0
  H  H14  1  0.07260000  0.94480000  0.13291000  1.0
  H  H15  1  0.42740000  0.44480000  0.36709000  1.0
  H  H16  1  0.02836000  0.15976000  0.90369000  1.0
  H  H17  1  0.47164000  0.65976000  0.59631000  1.0
  H  H18  1  0.97163000  0.84024000  0.09631000  1.0
  H  H19  1  0.52837000  0.34024000  0.40369000  1.0
  H  H20  1  0.86163000  0.32230000  0.93109000  1.0
  H  H21  1  0.63837000  0.82231000  0.56892000  1.0
  H  H22  1  0.13837000  0.67770000  0.06892000  1.0
  H  H23  1  0.36164000  0.17769000  0.43109000  1.0
  H  H24  1  0.90315000  0.27509000  0.82727000  1.0
  H  H25  1  0.59685000  0.77510000  0.67273000  1.0
  H  H26  1  0.09684000  0.72491000  0.17273000  1.0
  H  H27  1  0.40316000  0.22490000  0.32727000  1.0
  H  H28  1  0.77771000  0.11419000  0.18243000  1.0
  H  H29  1  0.72228000  0.61420000  0.31757000  1.0
  H  H30  1  0.22228000  0.88581000  0.81758000  1.0
  H  H31  1  0.27773000  0.38580000  0.68243000  1.0
  H  H32  1  0.78743000  0.91405000  0.96852000  1.0
  H  H33  1  0.71257000  0.41405000  0.53148000  1.0
  H  H34  1  0.21255000  0.08595000  0.03148000  1.0
  H  H35  1  0.28745000  0.58595000  0.46852000  1.0
  H  H36  1  0.43523000  0.19052000  0.00438000  1.0
  H  H37  1  0.06476000  0.69051000  0.49562000  1.0
  H  H38  1  0.56476000  0.80948000  0.99562000  1.0
  H  H39  1  0.93524000  0.30949000  0.50438000  1.0
  H  H40  1  0.70630000  0.18200000  0.77607000  1.0
  H  H41  1  0.79370000  0.68200000  0.72394000  1.0
  H  H42  1  0.29369000  0.81801000  0.22394000  1.0
  H  H43  1  0.20630000  0.31800000  0.27606000  1.0
  H  H44  1  0.62077000  0.17206000  0.54099000  1.0
  H  H45  1  0.87923000  0.67207000  0.95901000  1.0
  H  H46  1  0.37923000  0.82794000  0.45901000  1.0
  H  H47  1  0.12077000  0.32794000  0.04099000  1.0
  C  C48  1  0.92844000  0.13209000  0.90939000  1.0
  C  C49  1  0.57156000  0.63210000  0.59062000  1.0
  C  C50  1  0.07156000  0.86791000  0.09062000  1.0
  C  C51  1  0.42844000  0.36790000  0.40938000  1.0
  C  C52  1  0.85703000  0.24563000  0.88974000  1.0
  C  C53  1  0.64297000  0.74563000  0.61026000  1.0
  C  C54  1  0.14296000  0.75437000  0.11026000  1.0
  C  C55  1  0.35703000  0.25437000  0.38974000  1.0
  C  C56  1  0.79918000  0.08719000  0.11878000  1.0
  C  C57  1  0.70082000  0.58720000  0.38122000  1.0
  C  C58  1  0.20081000  0.91281000  0.88122000  1.0
  C  C59  1  0.29919000  0.41281000  0.61878000  1.0
  C  C60  1  0.80014000  0.98297000  0.01211000  1.0
  C  C61  1  0.69985000  0.48298000  0.48789000  1.0
  C  C62  1  0.19984000  0.01703000  0.98789000  1.0
  C  C63  1  0.30016000  0.51703000  0.51211000  1.0
  C  C64  1  0.52536000  0.19390000  0.95725000  1.0
  C  C65  1  0.97463000  0.69390000  0.54275000  1.0
  C  C66  1  0.47463000  0.80610000  0.04276000  1.0
  C  C67  1  0.02537000  0.30610000  0.45725000  1.0
  C  C68  1  0.66057000  0.18939000  0.84072000  1.0
  C  C69  1  0.83943000  0.68940000  0.65928000  1.0
  C  C70  1  0.33943000  0.81061000  0.15928000  1.0
  C  C71  1  0.16057000  0.31060000  0.34073000  1.0
  C  C72  1  0.53197000  0.95873000  0.41898000  1.0
  C  C73  1  0.96803000  0.45873000  0.08102000  1.0
  C  C74  1  0.46804000  0.04127000  0.58102000  1.0
  C  C75  1  0.03197000  0.54127000  0.91898000  1.0
  C  C76  1  0.60191000  0.05671000  0.44128000  1.0
  C  C77  1  0.89809000  0.55672000  0.05872000  1.0
  C  C78  1  0.39809000  0.94328000  0.55872000  1.0
  C  C79  1  0.10191000  0.44328000  0.94128000  1.0
  C  C80  1  0.56910000  0.09558000  0.52233000  1.0
  C  C81  1  0.93090000  0.59559000  0.97767000  1.0
  C  C82  1  0.43091000  0.90442000  0.47767000  1.0
  C  C83  1  0.06910000  0.40442000  0.02233000  1.0
  C  C84  1  0.56654000  0.90760000  0.33477000  1.0
  C  C85  1  0.93346000  0.40760000  0.16522000  1.0
  C  C86  1  0.43346000  0.09239000  0.66523000  1.0
  C  C87  1  0.06654000  0.59240000  0.83477000  1.0
  C  C88  1  0.70126000  0.13384000  0.38298000  1.0
  C  C89  1  0.79875000  0.63384000  0.11702000  1.0
  C  C90  1  0.29875000  0.86616000  0.61702000  1.0
  C  C91  1  0.20125000  0.36616000  0.88298000  1.0
  N  N92  1  0.87052000  0.08632000  0.99106000  1.0
  N  N93  1  0.62948000  0.58633000  0.50894000  1.0
  N  N94  1  0.12947000  0.91368000  0.00895000  1.0
  N  N95  1  0.37053000  0.41368000  0.49105000  1.0
  N  N96  1  0.87092000  0.15421000  0.05832000  1.0
  N  N97  1  0.62908000  0.65421000  0.44168000  1.0
  N  N98  1  0.12907000  0.84579000  0.94168000  1.0
  N  N99  1  0.37093000  0.34579000  0.55832000  1.0
  N  N100  1  0.75373000  0.98016000  0.09299000  1.0
  N  N101  1  0.74627000  0.48016000  0.40701000  1.0
  N  N102  1  0.24626000  0.01984000  0.90701000  1.0
  N  N103  1  0.25374000  0.51984000  0.59299000  1.0
  N  N104  1  0.72119000  0.22067000  0.89764000  1.0
  N  N105  1  0.77881000  0.72067000  0.60236000  1.0
  N  N106  1  0.27881000  0.77933000  0.10236000  1.0
  N  N107  1  0.22119000  0.27933000  0.39764000  1.0
  N  N108  1  0.63595000  0.22336000  0.97279000  1.0
  N  N109  1  0.86405000  0.72336000  0.52721000  1.0
  N  N110  1  0.36405000  0.77664000  0.02721000  1.0
  N  N111  1  0.13596000  0.27664000  0.47279000  1.0
  N  N112  1  0.53559000  0.17168000  0.87683000  1.0
  N  N113  1  0.96441000  0.67168000  0.62317000  1.0
  N  N114  1  0.46441000  0.82833000  0.12317000  1.0
  N  N115  1  0.03559000  0.32832000  0.37683000  1.0
  O  O116  1  0.48534000  0.83838000  0.31186000  1.0
  O  O117  1  0.01466000  0.33838000  0.18814000  1.0
  O  O118  1  0.51466000  0.16163000  0.68814000  1.0
  O  O119  1  0.98534000  0.66162000  0.81185000  1.0
  O  O120  1  0.67612000  0.93444000  0.28765000  1.0
  O  O121  1  0.82389000  0.43444000  0.21234000  1.0
  O  O122  1  0.32389000  0.06555000  0.71235000  1.0
  O  O123  1  0.17611000  0.56556000  0.78765000  1.0
  O  O124  1  0.66456000  0.20123000  0.33200000  1.0
  O  O125  1  0.83545000  0.70123000  0.16800000  1.0
  O  O126  1  0.33545000  0.79877000  0.66800000  1.0
  O  O127  1  0.16455000  0.29877000  0.83200000  1.0
  O  O128  1  0.81379000  0.14179000  0.39451000  1.0
  O  O129  1  0.68622000  0.64180000  0.10549000  1.0
  O  O130  1  0.18622000  0.85821000  0.60549000  1.0
  O  O131  1  0.31379000  0.35821000  0.89451000  1.0
  O  O132  1  0.42310000  0.59545000  0.28705000  1.0
  O  O133  1  0.07691000  0.09545000  0.21295000  1.0
  O  O134  1  0.57690000  0.40455000  0.71295000  1.0
  O  O135  1  0.92310000  0.90455000  0.78705000  1.0
