# generated using pymatgen
data_CuH12C20N2(ClO4)2
_symmetry_space_group_name_H-M   'P 1'
_cell_length_a   9.33454000
_cell_length_b   9.33460000
_cell_length_c   12.51460000
_cell_angle_alpha   82.44070000
_cell_angle_beta   82.44060000
_cell_angle_gamma   87.62040000
_symmetry_Int_Tables_number   1
_chemical_formula_structural   CuH12C20N2(ClO4)2
_chemical_formula_sum   'Cu2 H24 C40 N4 Cl4 O16'
_cell_volume   1071.25271407
_cell_formula_units_Z   2
loop_
 _symmetry_equiv_pos_site_id
 _symmetry_equiv_pos_as_xyz
  1  'x, y, z'
loop_
 _atom_site_type_symbol
 _atom_site_label
 _atom_site_symmetry_multiplicity
 _atom_site_fract_x
 _atom_site_fract_y
 _atom_site_fract_z
 _atom_site_occupancy
  Cu  Cu0  1  0.80459000  0.19541000  0.25000000  1.0
  Cu  Cu1  1  0.19541000  0.80460000  0.75000000  1.0
  H  H2  1  0.26080000  0.18668000  0.77792000  1.0
  H  H3  1  0.81332000  0.73920000  0.72208000  1.0
  H  H4  1  0.73920000  0.81331000  0.22208000  1.0
  H  H5  1  0.18668000  0.26080000  0.27792000  1.0
  H  H6  1  0.02259000  0.29379000  0.85625000  1.0
  H  H7  1  0.70622000  0.97741000  0.64376000  1.0
  H  H8  1  0.97741000  0.70621000  0.14375000  1.0
  H  H9  1  0.29378000  0.02259000  0.35624000  1.0
  H  H10  1  0.00351000  0.56227000  0.85836000  1.0
  H  H11  1  0.43774000  0.99650000  0.64164000  1.0
  H  H12  1  0.99649000  0.43773000  0.14164000  1.0
  H  H13  1  0.56226000  0.00350000  0.35836000  1.0
  H  H14  1  0.77289000  0.33964000  0.59891000  1.0
  H  H15  1  0.66036000  0.22712000  0.90109000  1.0
  H  H16  1  0.22711000  0.66036000  0.40109000  1.0
  H  H17  1  0.33964000  0.77288000  0.09891000  1.0
  H  H18  1  0.66197000  0.26623000  0.51295000  1.0
  H  H19  1  0.73378000  0.33803000  0.98704000  1.0
  H  H20  1  0.33802000  0.73378000  0.48704000  1.0
  H  H21  1  0.26622000  0.66196000  0.01296000  1.0
  H  H22  1  0.71819000  0.45043000  0.48193000  1.0
  H  H23  1  0.54958000  0.28182000  0.01807000  1.0
  H  H24  1  0.28180000  0.54957000  0.51807000  1.0
  H  H25  1  0.45042000  0.71818000  0.98194000  1.0
  C  C26  1  0.00568000  0.09088000  0.08530000  1.0
  C  C27  1  0.90912000  0.99432000  0.41470000  1.0
  C  C28  1  0.99433000  0.90912000  0.91470000  1.0
  C  C29  1  0.09088000  0.00567000  0.58530000  1.0
  C  C30  1  0.13467000  0.05223000  0.02527000  1.0
  C  C31  1  0.94777000  0.86534000  0.47473000  1.0
  C  C32  1  0.86534000  0.94778000  0.97473000  1.0
  C  C33  1  0.05223000  0.13465000  0.52527000  1.0
  C  C34  1  0.86279000  0.03577000  0.05928000  1.0
  C  C35  1  0.96423000  0.13721000  0.44072000  1.0
  C  C36  1  0.13722000  0.96423000  0.94072000  1.0
  C  C37  1  0.03577000  0.86278000  0.55928000  1.0
  C  C38  1  0.34984000  0.53839000  0.76398000  1.0
  C  C39  1  0.46161000  0.65016000  0.73601000  1.0
  C  C40  1  0.65016000  0.46161000  0.23602000  1.0
  C  C41  1  0.53839000  0.34984000  0.26399000  1.0
  C  C42  1  0.36570000  0.39113000  0.75083000  1.0
  C  C43  1  0.60887000  0.63430000  0.74917000  1.0
  C  C44  1  0.63430000  0.60887000  0.24917000  1.0
  C  C45  1  0.39113000  0.36570000  0.25083000  1.0
  C  C46  1  0.24859000  0.30097000  0.78780000  1.0
  C  C47  1  0.69903000  0.75141000  0.71220000  1.0
  C  C48  1  0.75141000  0.69902000  0.21220000  1.0
  C  C49  1  0.30097000  0.24859000  0.28780000  1.0
  C  C50  1  0.11743000  0.35966000  0.83075000  1.0
  C  C51  1  0.64035000  0.88257000  0.66925000  1.0
  C  C52  1  0.88257000  0.64034000  0.16925000  1.0
  C  C53  1  0.35965000  0.11743000  0.33075000  1.0
  C  C54  1  0.10564000  0.50812000  0.83341000  1.0
  C  C55  1  0.49188000  0.89437000  0.66659000  1.0
  C  C56  1  0.89437000  0.49187000  0.16659000  1.0
  C  C57  1  0.50812000  0.10563000  0.33341000  1.0
  C  C58  1  0.49659000  0.32490000  0.69221000  1.0
  C  C59  1  0.67510000  0.50341000  0.80779000  1.0
  C  C60  1  0.50341000  0.67510000  0.30779000  1.0
  C  C61  1  0.32490000  0.49659000  0.19222000  1.0
  C  C62  1  0.68688000  0.36329000  0.54686000  1.0
  C  C63  1  0.63671000  0.31313000  0.95314000  1.0
  C  C64  1  0.31312000  0.63671000  0.45314000  1.0
  C  C65  1  0.36329000  0.68687000  0.04686000  1.0
  N  N66  1  0.21930000  0.59374000  0.80173000  1.0
  N  N67  1  0.40627000  0.78070000  0.69826000  1.0
  N  N68  1  0.78070000  0.40626000  0.19827000  1.0
  N  N69  1  0.59373000  0.21930000  0.30173000  1.0
  Cl  Cl70  1  0.29738000  0.11205000  0.05149000  1.0
  Cl  Cl71  1  0.88795000  0.70262000  0.44851000  1.0
  Cl  Cl72  1  0.70263000  0.88796000  0.94851000  1.0
  Cl  Cl73  1  0.11205000  0.29737000  0.55149000  1.0
  O  O74  1  0.99810000  0.17217000  0.16072000  1.0
  O  O75  1  0.82783000  0.00190000  0.33928000  1.0
  O  O76  1  0.00191000  0.82784000  0.83928000  1.0
  O  O77  1  0.17217000  0.99809000  0.66071000  1.0
  O  O78  1  0.74900000  0.07287000  0.11508000  1.0
  O  O79  1  0.92713000  0.25099000  0.38492000  1.0
  O  O80  1  0.25100000  0.92714000  0.88492000  1.0
  O  O81  1  0.07286000  0.74900000  0.61508000  1.0
  O  O82  1  0.53847000  0.19998000  0.71475000  1.0
  O  O83  1  0.80003000  0.46152000  0.78525000  1.0
  O  O84  1  0.46152000  0.80002000  0.28526000  1.0
  O  O85  1  0.19998000  0.53849000  0.21476000  1.0
  O  O86  1  0.55822000  0.41751000  0.60874000  1.0
  O  O87  1  0.58249000  0.44179000  0.89126000  1.0
  O  O88  1  0.44179000  0.58248000  0.39126000  1.0
  O  O89  1  0.41751000  0.55821000  0.10874000  1.0
