# generated using pymatgen
data_ZnH18C28(NO3)4
_symmetry_space_group_name_H-M   'P 1'
_cell_length_a   9.84323000
_cell_length_b   12.30800000
_cell_length_c   12.81000000
_cell_angle_alpha   114.65600000
_cell_angle_beta   95.46200000
_cell_angle_gamma   107.37600000
_symmetry_Int_Tables_number   1
_chemical_formula_structural   ZnH18C28(NO3)4
_chemical_formula_sum   'Zn2 H36 C56 N8 O24'
_cell_volume   1302.15411612
_cell_formula_units_Z   2
loop_
 _symmetry_equiv_pos_site_id
 _symmetry_equiv_pos_as_xyz
  1  'x, y, z'
loop_
 _atom_site_type_symbol
 _atom_site_label
 _atom_site_symmetry_multiplicity
 _atom_site_fract_x
 _atom_site_fract_y
 _atom_site_fract_z
 _atom_site_occupancy
  Zn  Zn0  1  0.64589000  0.47546000  0.59806000  1.0
  Zn  Zn1  1  0.35411000  0.52454000  0.40194000  1.0
  H  H2  1  0.56300000  0.16562000  0.66841000  1.0
  H  H3  1  0.43700000  0.83438000  0.33159000  1.0
  H  H4  1  0.50863000  0.31757000  0.81856000  1.0
  H  H5  1  0.49137000  0.68243000  0.18144000  1.0
  H  H6  1  0.19928000  0.35633000  0.00084000  1.0
  H  H7  1  0.80072000  0.64367000  0.99916000  1.0
  H  H8  1  0.33166000  0.49842000  0.91983000  1.0
  H  H9  1  0.66834000  0.50158000  0.08017000  1.0
  H  H10  1  0.18375000  0.54670000  0.78503000  1.0
  H  H11  1  0.81625000  0.45330000  0.21497000  1.0
  H  H12  1  0.82591000  0.05804000  0.59440000  1.0
  H  H13  1  0.17409000  0.94196000  0.40560000  1.0
  H  H14  1  0.80254000  0.16364000  0.46855000  1.0
  H  H15  1  0.19746000  0.83637000  0.53146000  1.0
  H  H16  1  0.03191000  0.30581000  0.44967000  1.0
  H  H17  1  0.96809000  0.69419000  0.55033000  1.0
  H  H18  1  0.81525000  0.40820000  0.39479000  1.0
  H  H19  1  0.18475000  0.59180000  0.60521000  1.0
  H  H20  1  0.77166000  0.22891000  0.19667000  1.0
  H  H21  1  0.22834000  0.77109000  0.80333000  1.0
  H  H22  1  0.39866000  0.00366000  0.26897000  1.0
  H  H23  1  0.60134000  0.99634000  0.73103000  1.0
  H  H24  1  0.46187000  0.19122000  0.46735000  1.0
  H  H25  1  0.53813000  0.80878000  0.53265000  1.0
  H  H26  1  0.46465000  0.90332000  0.08577000  1.0
  H  H27  1  0.53535000  0.09668000  0.91423000  1.0
  H  H28  1  0.70991000  0.07279000  0.02763000  1.0
  H  H29  1  0.29009000  0.92721000  0.97237000  1.0
  H  H30  1  0.84383000  0.76674000  0.73634000  1.0
  H  H31  1  0.15617000  0.23326000  0.26366000  1.0
  H  H32  1  0.83152000  0.96861000  0.88786000  1.0
  H  H33  1  0.16848000  0.03139000  0.11214000  1.0
  H  H34  1  0.46016000  0.73298000  0.95226000  1.0
  H  H35  1  0.53984000  0.26702000  0.04774000  1.0
  H  H36  1  0.48988000  0.54101000  0.79873000  1.0
  H  H37  1  0.51012000  0.45899000  0.20127000  1.0
  C  C38  1  0.97709000  0.43111000  0.78950000  1.0
  C  C39  1  0.02291000  0.56889000  0.21050000  1.0
  C  C40  1  0.90087000  0.34759000  0.83112000  1.0
  C  C41  1  0.09912000  0.65241000  0.16888000  1.0
  C  C42  1  0.98661000  0.32440000  0.90783000  1.0
  C  C43  1  0.01339000  0.67560000  0.09217000  1.0
  C  C44  1  0.13993000  0.37786000  0.94068000  1.0
  C  C45  1  0.86007000  0.62214000  0.05932000  1.0
  C  C46  1  0.21239000  0.45753000  0.89589000  1.0
  C  C47  1  0.78760000  0.54247000  0.10411000  1.0
  C  C48  1  0.13101000  0.48387000  0.82123000  1.0
  C  C49  1  0.86899000  0.51613000  0.17877000  1.0
  C  C50  1  0.89572000  0.46787000  0.71200000  1.0
  C  C51  1  0.10427000  0.53213000  0.28800000  1.0
  C  C52  1  0.73413000  0.29129000  0.79672000  1.0
  C  C53  1  0.26587000  0.70871000  0.20328000  1.0
  C  C54  1  0.17802000  0.27206000  0.55694000  1.0
  C  C55  1  0.82198000  0.72794000  0.44306000  1.0
  C  C56  1  0.19264000  0.21018000  0.62605000  1.0
  C  C57  1  0.80736000  0.78982000  0.37395000  1.0
  C  C58  1  0.06230000  0.13543000  0.63863000  1.0
  C  C59  1  0.93769000  0.86457000  0.36137000  1.0
  C  C60  1  0.92302000  0.11778000  0.58251000  1.0
  C  C61  1  0.07698000  0.88222000  0.41749000  1.0
  C  C62  1  0.91093000  0.17728000  0.51259000  1.0
  C  C63  1  0.08906000  0.82272000  0.48741000  1.0
  C  C64  1  0.03787000  0.25500000  0.50117000  1.0
  C  C65  1  0.96213000  0.74501000  0.49883000  1.0
  C  C66  1  0.30948000  0.36050000  0.54197000  1.0
  C  C67  1  0.69053000  0.63950000  0.45803000  1.0
  C  C68  1  0.34217000  0.21981000  0.67972000  1.0
  C  C69  1  0.65783000  0.78019000  0.32028000  1.0
  C  C70  1  0.72257000  0.31743000  0.36380000  1.0
  C  C71  1  0.27744000  0.68257000  0.63620000  1.0
  C  C72  1  0.69668000  0.21509000  0.25145000  1.0
  C  C73  1  0.30332000  0.78491000  0.74855000  1.0
  C  C74  1  0.57409000  0.10053000  0.21094000  1.0
  C  C75  1  0.42591000  0.89947000  0.78906000  1.0
  C  C76  1  0.49255000  0.09133000  0.29306000  1.0
  C  C77  1  0.50745000  0.90867000  0.70694000  1.0
  C  C78  1  0.52591000  0.19658000  0.40367000  1.0
  C  C79  1  0.47409000  0.80342000  0.59633000  1.0
  C  C80  1  0.51407000  0.99527000  0.08503000  1.0
  C  C81  1  0.48594000  0.00473000  0.91498000  1.0
  C  C82  1  0.60780000  0.98848000  0.99460000  1.0
  C  C83  1  0.39220000  0.01152000  0.00540000  1.0
  C  C84  1  0.76047000  0.76342000  0.78628000  1.0
  C  C85  1  0.23953000  0.23658000  0.21372000  1.0
  C  C86  1  0.75302000  0.87593000  0.87146000  1.0
  C  C87  1  0.24698000  0.12407000  0.12854000  1.0
  C  C88  1  0.63925000  0.86948000  0.92944000  1.0
  C  C89  1  0.36075000  0.13052000  0.07056000  1.0
  C  C90  1  0.54789000  0.74633000  0.90749000  1.0
  C  C91  1  0.45211000  0.25368000  0.09251000  1.0
  C  C92  1  0.56317000  0.63818000  0.82158000  1.0
  C  C93  1  0.43684000  0.36182000  0.17842000  1.0
  N  N94  1  0.91499000  0.24085000  0.95651000  1.0
  N  N95  1  0.08501000  0.75915000  0.04349000  1.0
  N  N96  1  0.06820000  0.07189000  0.71319000  1.0
  N  N97  1  0.93180000  0.92811000  0.28681000  1.0
  N  N98  1  0.63507000  0.31081000  0.43748000  1.0
  N  N99  1  0.36493000  0.68919000  0.56252000  1.0
  N  N100  1  0.66293000  0.64564000  0.75728000  1.0
  N  N101  1  0.33707000  0.35436000  0.24272000  1.0
  O  O102  1  0.96425000  0.53448000  0.66858000  1.0
  O  O103  1  0.03575000  0.46552000  0.33142000  1.0
  O  O104  1  0.75532000  0.42493000  0.69858000  1.0
  O  O105  1  0.24468000  0.57507000  0.30142000  1.0
  O  O106  1  0.67410000  0.18639000  0.69330000  1.0
  O  O107  1  0.32590000  0.81361000  0.30671000  1.0
  O  O108  1  0.66338000  0.34075000  0.86510000  1.0
  O  O109  1  0.33662000  0.65925000  0.13490000  1.0
  O  O110  1  0.78026000  0.17840000  0.91409000  1.0
  O  O111  1  0.21974000  0.82159000  0.08591000  1.0
  O  O112  1  0.98946000  0.23602000  0.03695000  1.0
  O  O113  1  0.01054000  0.76398000  0.96305000  1.0
  O  O114  1  0.28202000  0.40714000  0.47516000  1.0
  O  O115  1  0.71798000  0.59286000  0.52484000  1.0
  O  O116  1  0.43566000  0.38102000  0.59826000  1.0
  O  O117  1  0.56434000  0.61898000  0.40174000  1.0
  O  O118  1  0.39742000  0.14337000  0.62019000  1.0
  O  O119  1  0.60258000  0.85663000  0.37981000  1.0
  O  O120  1  0.40329000  0.31263000  0.78884000  1.0
  O  O121  1  0.59671000  0.68737000  0.21116000  1.0
  O  O122  1  0.18973000  0.07629000  0.75536000  1.0
  O  O123  1  0.81027000  0.92371000  0.24464000  1.0
  O  O124  1  0.95070000  0.01735000  0.73047000  1.0
  O  O125  1  0.04930000  0.98265000  0.26953000  1.0
