# generated using pymatgen
data_Cu3H20C14I2N7
_symmetry_space_group_name_H-M   'P 1'
_cell_length_a   7.88516000
_cell_length_b   11.38620000
_cell_length_c   12.59640000
_cell_angle_alpha   78.00040000
_cell_angle_beta   71.79080000
_cell_angle_gamma   69.76580000
_symmetry_Int_Tables_number   1
_chemical_formula_structural   Cu3H20C14I2N7
_chemical_formula_sum   'Cu6 H40 C28 I4 N14'
_cell_volume   1001.65450773
_cell_formula_units_Z   2
loop_
 _symmetry_equiv_pos_site_id
 _symmetry_equiv_pos_as_xyz
  1  'x, y, z'
loop_
 _atom_site_type_symbol
 _atom_site_label
 _atom_site_symmetry_multiplicity
 _atom_site_fract_x
 _atom_site_fract_y
 _atom_site_fract_z
 _atom_site_occupancy
  Cu  Cu0  1  0.19986000  0.24998000  0.74992000  1.0
  Cu  Cu1  1  0.80014000  0.75002000  0.25008000  1.0
  Cu  Cu2  1  0.41487000  0.39877000  0.71092000  1.0
  Cu  Cu3  1  0.52408000  0.10158000  0.78940000  1.0
  Cu  Cu4  1  0.58513000  0.60122000  0.28907000  1.0
  Cu  Cu5  1  0.47592000  0.89843000  0.21060000  1.0
  H  H6  1  0.83984000  0.79106000  0.76920000  1.0
  H  H7  1  0.40058000  0.70873000  0.73087000  1.0
  H  H8  1  0.16017000  0.20893000  0.23081000  1.0
  H  H9  1  0.59941000  0.29127000  0.26914000  1.0
  H  H10  1  0.05297000  0.56922000  0.86580000  1.0
  H  H11  1  0.48838000  0.93059000  0.63430000  1.0
  H  H12  1  0.94704000  0.43077000  0.13420000  1.0
  H  H13  1  0.51160000  0.06942000  0.36570000  1.0
  H  H14  1  0.29151000  0.60546000  0.51447000  1.0
  H  H15  1  0.41116000  0.89479000  0.98577000  1.0
  H  H16  1  0.70849000  0.39454000  0.48553000  1.0
  H  H17  1  0.58884000  0.10521000  0.01423000  1.0
  H  H18  1  0.15696000  0.93002000  0.55901000  1.0
  H  H19  1  0.64581000  0.57004000  0.94076000  1.0
  H  H20  1  0.84304000  0.06997000  0.44100000  1.0
  H  H21  1  0.35419000  0.42997000  0.05924000  1.0
  H  H22  1  0.91376000  0.98504000  0.62759000  1.0
  H  H23  1  0.52561000  0.51502000  0.87248000  1.0
  H  H24  1  0.08624000  0.01495000  0.37242000  1.0
  H  H25  1  0.47439000  0.48498000  0.12752000  1.0
  H  H26  1  0.96062000  0.46206000  0.59100000  1.0
  H  H27  1  0.01359000  0.03826000  0.90896000  1.0
  H  H28  1  0.03938000  0.53794000  0.40900000  1.0
  H  H29  1  0.98641000  0.96175000  0.09103000  1.0
  H  H30  1  0.85026000  0.52158000  0.72267000  1.0
  H  H31  1  0.09446000  0.97869000  0.77727000  1.0
  H  H32  1  0.14975000  0.47843000  0.27732000  1.0
  H  H33  1  0.90554000  0.02131000  0.22272000  1.0
  H  H34  1  0.71189000  0.53088000  0.63115000  1.0
  H  H35  1  0.87396000  0.96929000  0.86870000  1.0
  H  H36  1  0.28812000  0.46912000  0.36884000  1.0
  H  H37  1  0.12605000  0.03071000  0.13130000  1.0
  H  H38  1  0.84675000  0.84108000  0.53281000  1.0
  H  H39  1  0.22054000  0.65901000  0.96742000  1.0
  H  H40  1  0.15325000  0.15891000  0.46719000  1.0
  H  H41  1  0.77945000  0.34100000  0.03258000  1.0
  H  H42  1  0.08245000  0.79785000  0.45078000  1.0
  H  H43  1  0.33137000  0.70213000  0.04938000  1.0
  H  H44  1  0.91755000  0.20215000  0.54923000  1.0
  H  H45  1  0.66863000  0.29787000  0.95062000  1.0
  C  C46  1  0.96479000  0.71916000  0.73195000  1.0
  C  C47  1  0.41615000  0.78073000  0.76819000  1.0
  C  C48  1  0.03521000  0.28083000  0.26805000  1.0
  C  C49  1  0.58384000  0.21927000  0.23181000  1.0
  C  C50  1  0.07194000  0.60973000  0.77871000  1.0
  C  C51  1  0.46061000  0.89017000  0.72143000  1.0
  C  C52  1  0.92806000  0.39026000  0.22129000  1.0
  C  C53  1  0.53938000  0.10983000  0.27857000  1.0
  C  C54  1  0.81428000  0.34686000  0.71282000  1.0
  C  C55  1  0.87394000  0.15336000  0.78704000  1.0
  C  C56  1  0.18572000  0.65315000  0.28718000  1.0
  C  C57  1  0.12606000  0.84664000  0.21296000  1.0
  C  C58  1  0.19863000  0.62228000  0.59755000  1.0
  C  C59  1  0.41830000  0.87788000  0.90265000  1.0
  C  C60  1  0.80137000  0.37771000  0.40245000  1.0
  C  C61  1  0.58170000  0.12213000  0.09735000  1.0
  C  C62  1  0.01498000  0.94994000  0.54964000  1.0
  C  C63  1  0.51431000  0.55009000  0.95038000  1.0
  C  C64  1  0.98502000  0.05005000  0.45037000  1.0
  C  C65  1  0.48569000  0.44991000  0.04962000  1.0
  C  C66  1  0.83422000  0.47240000  0.66174000  1.0
  C  C67  1  0.96835000  0.02782000  0.83817000  1.0
  C  C68  1  0.16578000  0.52760000  0.33826000  1.0
  C  C69  1  0.03165000  0.97218000  0.16183000  1.0
  C  C70  1  0.99182000  0.82835000  0.53227000  1.0
  C  C71  1  0.35243000  0.67166000  0.96790000  1.0
  C  C72  1  0.00818000  0.17164000  0.46773000  1.0
  C  C73  1  0.64756000  0.32835000  0.03210000  1.0
  I  I74  1  0.43320000  0.22565000  0.55933000  1.0
  I  I75  1  0.21743000  0.27422000  0.94085000  1.0
  I  I76  1  0.56680000  0.77435000  0.44066000  1.0
  I  I77  1  0.78258000  0.72577000  0.05914000  1.0
  N  N78  1  0.66195000  0.31213000  0.72679000  1.0
  N  N79  1  0.70081000  0.18807000  0.77318000  1.0
  N  N80  1  0.33806000  0.68787000  0.27320000  1.0
  N  N81  1  0.29920000  0.81193000  0.22681000  1.0
  N  N82  1  0.04659000  0.72526000  0.61749000  1.0
  N  N83  1  0.38937000  0.77476000  0.88270000  1.0
  N  N84  1  0.95342000  0.27473000  0.38251000  1.0
  N  N85  1  0.61062000  0.22524000  0.11731000  1.0
  N  N86  1  0.94907000  0.25011000  0.74987000  1.0
  N  N87  1  0.05094000  0.74989000  0.25013000  1.0
  N  N88  1  0.21785000  0.54991000  0.69392000  1.0
  N  N89  1  0.46169000  0.95016000  0.80627000  1.0
  N  N90  1  0.78214000  0.45009000  0.30608000  1.0
  N  N91  1  0.53831000  0.04985000  0.19373000  1.0
