# generated using pymatgen
data_MnH9C11N2O5
_symmetry_space_group_name_H-M   'P 1'
_cell_length_a   12.51870000
_cell_length_b   12.63100000
_cell_length_c   12.63102413
_cell_angle_alpha   75.78418356
_cell_angle_beta   60.29360816
_cell_angle_gamma   60.29380000
_symmetry_Int_Tables_number   1
_chemical_formula_structural   MnH9C11N2O5
_chemical_formula_sum   'Mn4 H36 C44 N8 O20'
_cell_volume   1506.78832999
_cell_formula_units_Z   4
loop_
 _symmetry_equiv_pos_site_id
 _symmetry_equiv_pos_as_xyz
  1  'x, y, z'
loop_
 _atom_site_type_symbol
 _atom_site_label
 _atom_site_symmetry_multiplicity
 _atom_site_fract_x
 _atom_site_fract_y
 _atom_site_fract_z
 _atom_site_occupancy
  Mn  Mn0  1  0.18126000  0.00000000  0.63748000  1.0
  Mn  Mn1  1  0.43126000  0.13748000  0.50000000  1.0
  Mn  Mn2  1  0.81874000  0.00000000  0.36252000  1.0
  Mn  Mn3  1  0.06874000  0.86252000  0.50000000  1.0
  H  H4  1  0.66694000  0.87264000  0.36768000  1.0
  H  H5  1  0.78958000  0.86768000  0.62736000  1.0
  H  H6  1  0.90726000  0.12736000  0.63232000  1.0
  H  H7  1  0.28461000  0.13232000  0.37264000  1.0
  H  H8  1  0.58306000  0.13232000  0.62736000  1.0
  H  H9  1  0.96538000  0.12736000  0.36768000  1.0
  H  H10  1  0.34274000  0.86768000  0.37264000  1.0
  H  H11  1  0.46042000  0.87264000  0.63232000  1.0
  H  H12  1  0.88729000  0.31366000  0.56097000  1.0
  H  H13  1  0.45095000  0.06097000  0.18634000  1.0
  H  H14  1  0.76192000  0.68634000  0.43903000  1.0
  H  H15  1  0.69826000  0.93903000  0.81366000  1.0
  H  H16  1  0.36272000  0.93903000  0.18634000  1.0
  H  H17  1  0.55174000  0.68634000  0.56097000  1.0
  H  H18  1  0.48808000  0.06097000  0.81366000  1.0
  H  H19  1  0.79905000  0.31366000  0.43903000  1.0
  H  H20  1  0.12196000  0.50000000  0.50000000  1.0
  H  H21  1  0.87196000  0.00000000  0.00000000  1.0
  H  H22  1  0.12804000  0.00000000  1.00000000  1.0
  H  H23  1  0.37804000  0.50000000  0.50000000  1.0
  H  H24  1  0.75628000  0.66678000  0.26603000  1.0
  H  H25  1  0.67306000  0.76603000  0.83322000  1.0
  H  H26  1  0.68909000  0.33322000  0.73397000  1.0
  H  H27  1  0.27231000  0.23397000  0.16678000  1.0
  H  H28  1  0.49372000  0.23397000  0.83322000  1.0
  H  H29  1  0.97769000  0.33322000  0.26603000  1.0
  H  H30  1  0.56091000  0.76603000  0.16678000  1.0
  H  H31  1  0.57694000  0.66678000  0.73397000  1.0
  H  H32  1  0.73555000  0.79540000  0.16678000  1.0
  H  H33  1  0.78095000  0.66678000  0.70460000  1.0
  H  H34  1  0.69773000  0.20460000  0.83322000  1.0
  H  H35  1  0.15233000  0.33322000  0.29540000  1.0
  H  H36  1  0.51445000  0.33322000  0.70460000  1.0
  H  H37  1  0.09767000  0.20460000  0.16678000  1.0
  H  H38  1  0.55227000  0.66678000  0.29540000  1.0
  H  H39  1  0.46905000  0.79540000  0.83322000  1.0
  C  C40  1  0.11784000  0.27663000  0.55899000  1.0
  C  C41  1  0.64448000  0.05899000  0.22336000  1.0
  C  C42  1  0.95347000  0.72337000  0.44101000  1.0
  C  C43  1  0.92683000  0.94101000  0.77663000  1.0
  C  C44  1  0.13216000  0.94101000  0.22337000  1.0
  C  C45  1  0.32317000  0.72337000  0.55899000  1.0
  C  C46  1  0.29654000  0.05899000  0.77663000  1.0
  C  C47  1  0.60553000  0.27663000  0.44101000  1.0
  C  C48  1  0.01475000  0.39466000  0.53308000  1.0
  C  C49  1  0.65940000  0.03308000  0.10534000  1.0
  C  C50  1  0.94248000  0.60534000  0.46692000  1.0
  C  C51  1  0.79783000  0.96692000  0.89466000  1.0
  C  C52  1  0.23526000  0.96692000  0.10534000  1.0
  C  C53  1  0.45218000  0.60534000  0.53308000  1.0
  C  C54  1  0.30751000  0.03308000  0.89466000  1.0
  C  C55  1  0.59059000  0.39466000  0.46692000  1.0
  C  C56  1  0.90159000  0.39602000  0.53448000  1.0
  C  C57  1  0.54761000  0.03448000  0.10398000  1.0
  C  C58  1  0.83209000  0.60398000  0.46552000  1.0
  C  C59  1  0.68607000  0.96552000  0.89602000  1.0
  C  C60  1  0.34841000  0.96552000  0.10398000  1.0
  C  C61  1  0.56393000  0.60398000  0.53448000  1.0
  C  C62  1  0.41791000  0.03448000  0.89602000  1.0
  C  C63  1  0.70239000  0.39602000  0.46552000  1.0
  C  C64  1  0.80923000  0.50000000  0.50000000  1.0
  C  C65  1  0.55923000  0.00000000  0.00000000  1.0
  C  C66  1  0.44077000  0.00000000  1.00000000  1.0
  C  C67  1  0.69077000  0.50000000  0.50000000  1.0
  C  C68  1  0.03494000  0.50000000  0.50000000  1.0
  C  C69  1  0.78494000  0.00000000  0.00000000  1.0
  C  C70  1  0.21506000  0.00000000  0.00000000  1.0
  C  C71  1  0.46507000  0.50000000  0.50000000  1.0
  C  C72  1  0.47814000  0.89686000  0.39686000  1.0
  C  C73  1  0.62500000  0.89687000  0.60314000  1.0
  C  C74  1  0.77187000  0.10313000  0.60313000  1.0
  C  C75  1  0.12500000  0.10313000  0.39687000  1.0
  C  C76  1  0.68180000  0.75718000  0.25289000  1.0
  C  C77  1  0.68898000  0.75289000  0.74282000  1.0
  C  C78  1  0.69187000  0.24282000  0.74711000  1.0
  C  C79  1  0.18469000  0.24711000  0.25718000  1.0
  C  C80  1  0.56820000  0.24711000  0.74282000  1.0
  C  C81  1  0.06531000  0.24282000  0.25289000  1.0
  C  C82  1  0.55813000  0.75289000  0.25718000  1.0
  C  C83  1  0.56102000  0.75718000  0.74711000  1.0
  N  N84  1  0.61623000  0.83796000  0.35471000  1.0
  N  N85  1  0.70419000  0.85471000  0.66204000  1.0
  N  N86  1  0.80890000  0.16204000  0.64529000  1.0
  N  N87  1  0.22094000  0.14529000  0.33796000  1.0
  N  N88  1  0.63377000  0.14529000  0.66204000  1.0
  N  N89  1  0.02906000  0.16204000  0.35471000  1.0
  N  N90  1  0.44110000  0.85471000  0.33796000  1.0
  N  N91  1  0.54581000  0.83796000  0.64529000  1.0
  O  O92  1  0.07835000  0.19575000  0.62005000  1.0
  O  O93  1  0.52410000  0.12005000  0.30425000  1.0
  O  O94  1  0.89415000  0.80425000  0.37995000  1.0
  O  O95  1  0.94840000  0.87995000  0.69575000  1.0
  O  O96  1  0.17165000  0.87995000  0.30425000  1.0
  O  O97  1  0.30160000  0.80425000  0.62005000  1.0
  O  O98  1  0.35585000  0.12005000  0.69575000  1.0
  O  O99  1  0.72590000  0.19575000  0.37995000  1.0
  O  O100  1  0.23983000  0.26497000  0.51065000  1.0
  O  O101  1  0.75479000  0.01065000  0.23503000  1.0
  O  O102  1  0.01544000  0.73503000  0.48935000  1.0
  O  O103  1  0.00047000  0.98935000  0.76497000  1.0
  O  O104  1  0.01018000  0.98935000  0.23503000  1.0
  O  O105  1  0.24953000  0.73503000  0.51065000  1.0
  O  O106  1  0.23456000  0.01065000  0.76497000  1.0
  O  O107  1  0.49521000  0.26497000  0.48935000  1.0
  O  O108  1  0.39594000  0.97906000  0.47906000  1.0
  O  O109  1  0.62500000  0.97906000  0.52094000  1.0
  O  O110  1  0.85405000  0.02095000  0.52095000  1.0
  O  O111  1  0.12500000  0.02095000  0.47905000  1.0
