# generated using pymatgen
data_ZnH4C2(N2O)2
_symmetry_space_group_name_H-M   'P 1'
_cell_length_a   9.65861000
_cell_length_b   10.08390000
_cell_length_c   10.49150000
_cell_angle_alpha   90.00030000
_cell_angle_beta   89.99990000
_cell_angle_gamma   89.99970000
_symmetry_Int_Tables_number   1
_chemical_formula_structural   ZnH4C2(N2O)2
_chemical_formula_sum   'Zn8 H32 C16 N32 O16'
_cell_volume   1021.83493256
_cell_formula_units_Z   8
loop_
 _symmetry_equiv_pos_site_id
 _symmetry_equiv_pos_as_xyz
  1  'x, y, z'
loop_
 _atom_site_type_symbol
 _atom_site_label
 _atom_site_symmetry_multiplicity
 _atom_site_fract_x
 _atom_site_fract_y
 _atom_site_fract_z
 _atom_site_occupancy
  Zn  Zn0  1  0.40630000  0.90088000  0.60353000  1.0
  Zn  Zn1  1  0.09371000  0.09913000  0.10353000  1.0
  Zn  Zn2  1  0.90629000  0.59912000  0.39647000  1.0
  Zn  Zn3  1  0.59371000  0.40088000  0.89647000  1.0
  Zn  Zn4  1  0.59370000  0.09912000  0.39647000  1.0
  Zn  Zn5  1  0.90629000  0.90087000  0.89647000  1.0
  Zn  Zn6  1  0.09371000  0.40088000  0.60353000  1.0
  Zn  Zn7  1  0.40629000  0.59912000  0.10353000  1.0
  H  H8  1  0.39400000  0.75390000  0.78787000  1.0
  H  H9  1  0.10599000  0.24610000  0.28786000  1.0
  H  H10  1  0.89400000  0.74610000  0.21214000  1.0
  H  H11  1  0.60599000  0.25390000  0.71213000  1.0
  H  H12  1  0.60599000  0.24610000  0.21213000  1.0
  H  H13  1  0.89401000  0.75389000  0.71214000  1.0
  H  H14  1  0.10599000  0.25390000  0.78786000  1.0
  H  H15  1  0.39401000  0.74610000  0.28787000  1.0
  H  H16  1  0.41378000  0.89848000  0.85882000  1.0
  H  H17  1  0.08621000  0.10152000  0.35882000  1.0
  H  H18  1  0.91378000  0.60152000  0.14119000  1.0
  H  H19  1  0.58621000  0.39848000  0.64118000  1.0
  H  H20  1  0.58620000  0.10152000  0.14119000  1.0
  H  H21  1  0.91380000  0.89847000  0.64119000  1.0
  H  H22  1  0.08621000  0.39848000  0.85882000  1.0
  H  H23  1  0.41379000  0.60151000  0.35881000  1.0
  H  H24  1  0.52461000  0.62629000  0.64609000  1.0
  H  H25  1  0.97539000  0.37372000  0.14610000  1.0
  H  H26  1  0.02461000  0.87371000  0.35391000  1.0
  H  H27  1  0.47539000  0.12629000  0.85391000  1.0
  H  H28  1  0.47539000  0.37371000  0.35391000  1.0
  H  H29  1  0.02460000  0.62629000  0.85391000  1.0
  H  H30  1  0.97539000  0.12629000  0.64609000  1.0
  H  H31  1  0.52461000  0.87372000  0.14609000  1.0
  H  H32  1  0.69712000  0.59451000  0.65508000  1.0
  H  H33  1  0.80288000  0.40549000  0.15508000  1.0
  H  H34  1  0.19712000  0.90549000  0.34492000  1.0
  H  H35  1  0.30288000  0.09451000  0.84492000  1.0
  H  H36  1  0.30289000  0.40549000  0.34492000  1.0
  H  H37  1  0.19711000  0.59451000  0.84493000  1.0
  H  H38  1  0.80289000  0.09451000  0.65508000  1.0
  H  H39  1  0.69712000  0.90549000  0.15508000  1.0
  C  C40  1  0.64434000  0.72186000  0.51754000  1.0
  C  C41  1  0.85565000  0.27814000  0.01754000  1.0
  C  C42  1  0.14436000  0.77813000  0.48247000  1.0
  C  C43  1  0.35565000  0.22185000  0.98246000  1.0
  C  C44  1  0.35565000  0.27814000  0.48246000  1.0
  C  C45  1  0.14436000  0.72185000  0.98246000  1.0
  C  C46  1  0.85565000  0.22186000  0.51755000  1.0
  C  C47  1  0.64435000  0.77813000  0.01755000  1.0
  C  C48  1  0.74433000  0.84322000  0.37154000  1.0
  C  C49  1  0.75566000  0.15679000  0.87153000  1.0
  C  C50  1  0.24435000  0.65678000  0.62848000  1.0
  C  C51  1  0.25567000  0.34321000  0.12847000  1.0
  C  C52  1  0.25565000  0.15679000  0.62846000  1.0
  C  C53  1  0.24435000  0.84322000  0.12848000  1.0
  C  C54  1  0.75566000  0.34322000  0.37152000  1.0
  C  C55  1  0.74434000  0.65678000  0.87153000  1.0
  N  N56  1  0.63391000  0.91164000  0.41548000  1.0
  N  N57  1  0.86608000  0.08838000  0.91549000  1.0
  N  N58  1  0.13392000  0.58838000  0.58452000  1.0
  N  N59  1  0.36608000  0.41163000  0.08452000  1.0
  N  N60  1  0.36609000  0.08838000  0.58452000  1.0
  N  N61  1  0.13391000  0.91162000  0.08452000  1.0
  N  N62  1  0.86609000  0.41162000  0.41548000  1.0
  N  N63  1  0.63392000  0.58837000  0.91547000  1.0
  N  N64  1  0.61466000  0.61525000  0.59507000  1.0
  N  N65  1  0.88533000  0.38475000  0.09506000  1.0
  N  N66  1  0.11468000  0.88476000  0.40493000  1.0
  N  N67  1  0.38533000  0.11524000  0.90493000  1.0
  N  N68  1  0.38534000  0.38475000  0.40493000  1.0
  N  N69  1  0.11467000  0.61525000  0.90493000  1.0
  N  N70  1  0.88533000  0.11525000  0.59507000  1.0
  N  N71  1  0.61466000  0.88476000  0.09507000  1.0
  N  N72  1  0.57180000  0.83448000  0.51054000  1.0
  N  N73  1  0.92821000  0.16551000  0.01055000  1.0
  N  N74  1  0.07180000  0.66551000  0.48945000  1.0
  N  N75  1  0.42821000  0.33448000  0.98946000  1.0
  N  N76  1  0.42821000  0.16552000  0.48945000  1.0
  N  N77  1  0.07179000  0.83449000  0.98945000  1.0
  N  N78  1  0.92820000  0.33448000  0.51055000  1.0
  N  N79  1  0.57181000  0.66552000  0.01054000  1.0
  N  N80  1  0.75284000  0.72390000  0.43507000  1.0
  N  N81  1  0.74714000  0.27610000  0.93507000  1.0
  N  N82  1  0.25284000  0.77610000  0.56493000  1.0
  N  N83  1  0.24715000  0.22390000  0.06493000  1.0
  N  N84  1  0.24716000  0.27611000  0.56493000  1.0
  N  N85  1  0.25283000  0.72390000  0.06492000  1.0
  N  N86  1  0.74715000  0.22391000  0.43507000  1.0
  N  N87  1  0.75286000  0.77611000  0.93506000  1.0
  O  O88  1  0.44318000  0.84244000  0.78762000  1.0
  O  O89  1  0.05682000  0.15757000  0.28761000  1.0
  O  O90  1  0.94318000  0.65756000  0.21238000  1.0
  O  O91  1  0.55681000  0.34244000  0.71237000  1.0
  O  O92  1  0.55681000  0.15756000  0.21238000  1.0
  O  O93  1  0.94319000  0.84242000  0.71239000  1.0
  O  O94  1  0.05681000  0.34244000  0.78761000  1.0
  O  O95  1  0.44319000  0.65756000  0.28762000  1.0
  O  O96  1  0.82687000  0.88029000  0.28177000  1.0
  O  O97  1  0.67311000  0.11970000  0.78178000  1.0
  O  O98  1  0.32687000  0.61971000  0.71823000  1.0
  O  O99  1  0.17313000  0.38029000  0.21822000  1.0
  O  O100  1  0.17312000  0.11971000  0.71823000  1.0
  O  O101  1  0.32689000  0.88029000  0.21823000  1.0
  O  O102  1  0.67312000  0.38030000  0.28176000  1.0
  O  O103  1  0.82687000  0.61971000  0.78178000  1.0
