# generated using pymatgen
data_AgH12C12S2N5O3
_symmetry_space_group_name_H-M   'P 1'
_cell_length_a   8.90503000
_cell_length_b   8.94325000
_cell_length_c   10.23880000
_cell_angle_alpha   79.00490000
_cell_angle_beta   83.15230000
_cell_angle_gamma   72.09650000
_symmetry_Int_Tables_number   1
_chemical_formula_structural   AgH12C12S2N5O3
_chemical_formula_sum   'Ag2 H24 C24 S4 N10 O6'
_cell_volume   760.08316328
_cell_formula_units_Z   2
loop_
 _symmetry_equiv_pos_site_id
 _symmetry_equiv_pos_as_xyz
  1  'x, y, z'
loop_
 _atom_site_type_symbol
 _atom_site_label
 _atom_site_symmetry_multiplicity
 _atom_site_fract_x
 _atom_site_fract_y
 _atom_site_fract_z
 _atom_site_occupancy
  Ag  Ag0  1  0.44230000  0.40618000  0.34249000  1.0
  Ag  Ag1  1  0.55770000  0.59382000  0.65751000  1.0
  H  H2  1  0.06579000  0.47146000  0.20610000  1.0
  H  H3  1  0.93421000  0.52855000  0.79389000  1.0
  H  H4  1  0.99896000  0.73223000  0.29337000  1.0
  H  H5  1  0.00103000  0.26778000  0.70663000  1.0
  H  H6  1  0.78864000  0.77325000  0.48511000  1.0
  H  H7  1  0.21135000  0.22675000  0.51490000  1.0
  H  H8  1  0.69779000  0.04923000  0.44209000  1.0
  H  H9  1  0.30220000  0.95078000  0.55791000  1.0
  H  H10  1  0.82741000  0.14433000  0.33689000  1.0
  H  H11  1  0.17259000  0.85567000  0.66311000  1.0
  H  H12  1  0.89538000  0.96644000  0.62702000  1.0
  H  H13  1  0.10461000  0.03357000  0.37298000  1.0
  H  H14  1  0.48740000  0.74392000  0.25082000  1.0
  H  H15  1  0.51261000  0.25608000  0.74918000  1.0
  H  H16  1  0.66154000  0.87452000  0.09069000  1.0
  H  H17  1  0.33847000  0.12548000  0.90931000  1.0
  H  H18  1  0.83989000  0.71178000  0.92321000  1.0
  H  H19  1  0.16011000  0.28822000  0.07678000  1.0
  H  H20  1  0.76081000  0.12899000  0.90350000  1.0
  H  H21  1  0.23921000  0.87100000  0.09650000  1.0
  H  H22  1  0.83217000  0.29579000  0.90472000  1.0
  H  H23  1  0.16784000  0.70420000  0.09529000  1.0
  H  H24  1  0.02843000  0.11758000  0.07932000  1.0
  H  H25  1  0.97157000  0.88242000  0.92068000  1.0
  C  C26  1  0.79211000  0.42162000  0.43622000  1.0
  C  C27  1  0.20789000  0.57838000  0.56378000  1.0
  C  C28  1  0.97505000  0.49890000  0.28667000  1.0
  C  C29  1  0.02495000  0.50111000  0.71332000  1.0
  C  C30  1  0.93894000  0.64275000  0.33437000  1.0
  C  C31  1  0.06105000  0.35725000  0.66563000  1.0
  C  C32  1  0.82371000  0.66673000  0.43873000  1.0
  C  C33  1  0.17628000  0.33333333  0.56127000  1.0
  C  C34  1  0.78985000  0.10813000  0.44102000  1.0
  C  C35  1  0.21015000  0.89187000  0.55898000  1.0
  C  C36  1  0.92434000  0.01334000  0.52360000  1.0
  C  C37  1  0.07565000  0.98666000  0.47640000  1.0
  C  C38  1  0.67298000  0.44892000  0.08793000  1.0
  C  C39  1  0.32702000  0.55109000  0.91207000  1.0
  C  C40  1  0.56929000  0.67924000  0.17879000  1.0
  C  C41  1  0.43071000  0.32076000  0.82121000  1.0
  C  C42  1  0.66563000  0.75216000  0.08931000  1.0
  C  C43  1  0.33437000  0.24783000  0.91069000  1.0
  C  C44  1  0.76386000  0.66176000  0.99891000  1.0
  C  C45  1  0.23614000  0.33824000  0.00109000  1.0
  C  C46  1  0.81618000  0.18442000  0.96332000  1.0
  C  C47  1  0.18384000  0.81557000  0.03668000  1.0
  C  C48  1  0.96786000  0.07377000  0.01463000  1.0
  C  C49  1  0.03215000  0.92624000  0.98538000  1.0
  S  S50  1  0.68151000  0.29015000  0.50738000  1.0
  S  S51  1  0.31849000  0.70985000  0.49262000  1.0
  S  S52  1  0.66941000  0.25267000  0.09675000  1.0
  S  S53  1  0.33060000  0.74733000  0.90324000  1.0
  N  N54  1  0.75078000  0.55583000  0.49108000  1.0
  N  N55  1  0.24922000  0.44417000  0.50892000  1.0
  N  N56  1  0.90110000  0.38802000  0.33645000  1.0
  N  N57  1  0.09890000  0.61198000  0.66355000  1.0
  N  N58  1  0.57143000  0.52805000  0.17905000  1.0
  N  N59  1  0.42857000  0.47195000  0.82095000  1.0
  N  N60  1  0.76829000  0.51065000  0.99810000  1.0
  N  N61  1  0.23171000  0.48935000  0.00190000  1.0
  N  N62  1  0.38809000  0.07531000  0.27312000  1.0
  N  N63  1  0.61191000  0.92468000  0.72689000  1.0
  O  O64  1  0.31799000  0.21749000  0.29578000  1.0
  O  O65  1  0.68202000  0.78250000  0.70422000  1.0
  O  O66  1  0.51840000  0.99722000  0.32163000  1.0
  O  O67  1  0.48160000  0.00277000  0.67839000  1.0
  O  O68  1  0.32188000  0.01554000  0.20229000  1.0
  O  O69  1  0.67812000  0.98445000  0.79771000  1.0
