# generated using pymatgen
data_AlH5C8O7
_symmetry_space_group_name_H-M   'P 1'
_cell_length_a   6.77003000
_cell_length_b   13.65270000
_cell_length_c   16.31470000
_cell_angle_alpha   89.94160000
_cell_angle_beta   89.33020000
_cell_angle_gamma   89.27370000
_symmetry_Int_Tables_number   1
_chemical_formula_structural   AlH5C8O7
_chemical_formula_sum   'Al4 H20 C32 O28'
_cell_volume   1507.72972639
_cell_formula_units_Z   4
loop_
 _symmetry_equiv_pos_site_id
 _symmetry_equiv_pos_as_xyz
  1  'x, y, z'
loop_
 _atom_site_type_symbol
 _atom_site_label
 _atom_site_symmetry_multiplicity
 _atom_site_fract_x
 _atom_site_fract_y
 _atom_site_fract_z
 _atom_site_occupancy
  Al  Al0  1  0.00956000  0.99767000  0.50090000  1.0
  Al  Al1  1  0.50961000  0.00241000  0.49890000  1.0
  Al  Al2  1  0.99040000  0.49759000  0.00110000  1.0
  Al  Al3  1  0.49044000  0.50232000  0.99909000  1.0
  H  H4  1  0.26367000  0.86877000  0.49952000  1.0
  H  H5  1  0.76189000  0.13117000  0.50244000  1.0
  H  H6  1  0.23635000  0.63122000  0.00050000  1.0
  H  H7  1  0.73814000  0.36882000  0.99757000  1.0
  H  H8  1  0.42809000  0.69656000  0.80840000  1.0
  H  H9  1  0.07192000  0.80349000  0.69162000  1.0
  H  H10  1  0.92970000  0.30091000  0.18928000  1.0
  H  H11  1  0.57035000  0.19909000  0.31073000  1.0
  H  H12  1  0.56736000  0.30291000  0.80972000  1.0
  H  H13  1  0.93268000  0.19709000  0.69026000  1.0
  H  H14  1  0.42682000  0.70110000  0.19292000  1.0
  H  H15  1  0.07311000  0.79884000  0.30711000  1.0
  H  H16  1  0.42656000  0.86184000  0.64208000  1.0
  H  H17  1  0.07343000  0.63819000  0.85793000  1.0
  H  H18  1  0.92505000  0.13553000  0.35552000  1.0
  H  H19  1  0.57495000  0.36446000  0.14447000  1.0
  H  H20  1  0.58207000  0.13692000  0.64459000  1.0
  H  H21  1  0.91796000  0.36309000  0.85538000  1.0
  H  H22  1  0.42694000  0.86745000  0.35737000  1.0
  H  H23  1  0.07299000  0.63253000  0.14262000  1.0
  C  C24  1  0.76470000  0.88351000  0.38665000  1.0
  C  C25  1  0.76190000  0.88254000  0.61256000  1.0
  C  C26  1  0.24915000  0.11646000  0.61321000  1.0
  C  C27  1  0.25948000  0.11743000  0.38743000  1.0
  C  C28  1  0.73527000  0.61646000  0.11336000  1.0
  C  C29  1  0.73810000  0.61747000  0.88746000  1.0
  C  C30  1  0.25089000  0.38355000  0.88677000  1.0
  C  C31  1  0.24054000  0.38255000  0.11256000  1.0
  C  C32  1  0.75381000  0.81509000  0.68319000  1.0
  C  C33  1  0.74612000  0.68494000  0.81684000  1.0
  C  C34  1  0.56978000  0.78459000  0.71719000  1.0
  C  C35  1  0.93017000  0.71544000  0.78285000  1.0
  C  C36  1  0.56927000  0.71983000  0.78325000  1.0
  C  C37  1  0.93067000  0.78021000  0.71678000  1.0
  C  C38  1  0.25264000  0.18496000  0.31682000  1.0
  C  C39  1  0.24734000  0.31505000  0.18317000  1.0
  C  C40  1  0.06951000  0.21388000  0.28145000  1.0
  C  C41  1  0.43049000  0.28613000  0.21854000  1.0
  C  C42  1  0.07020000  0.27866000  0.21541000  1.0
  C  C43  1  0.42981000  0.22134000  0.28459000  1.0
  C  C44  1  0.25143000  0.18434000  0.68351000  1.0
  C  C45  1  0.24859000  0.31567000  0.81646000  1.0
  C  C46  1  0.43267000  0.21463000  0.71848000  1.0
  C  C47  1  0.06735000  0.28539000  0.78149000  1.0
  C  C48  1  0.42790000  0.27995000  0.78409000  1.0
  C  C49  1  0.07212000  0.22006000  0.71589000  1.0
  C  C50  1  0.75550000  0.81570000  0.31640000  1.0
  C  C51  1  0.74448000  0.68427000  0.18361000  1.0
  C  C52  1  0.57074000  0.78773000  0.28293000  1.0
  C  C53  1  0.92922000  0.71225000  0.21709000  1.0
  C  C54  1  0.56876000  0.72236000  0.21740000  1.0
  C  C55  1  0.93119000  0.77760000  0.28262000  1.0
  O  O56  1  0.93014000  0.90795000  0.41588000  1.0
  O  O57  1  0.59468000  0.91191000  0.58272000  1.0
  O  O58  1  0.41974000  0.08825000  0.58398000  1.0
  O  O59  1  0.09208000  0.08706000  0.41636000  1.0
  O  O60  1  0.08564000  0.08944000  0.58401000  1.0
  O  O61  1  0.42594000  0.09280000  0.41703000  1.0
  O  O62  1  0.59623000  0.91439000  0.41588000  1.0
  O  O63  1  0.92885000  0.90804000  0.58374000  1.0
  O  O64  1  0.26287000  0.93976000  0.49962000  1.0
  O  O65  1  0.75922000  0.06027000  0.50020000  1.0
  O  O66  1  0.90374000  0.58559000  0.08412000  1.0
  O  O67  1  0.57116000  0.59197000  0.91627000  1.0
  O  O68  1  0.41441000  0.41058000  0.91598000  1.0
  O  O69  1  0.07409000  0.40718000  0.08297000  1.0
  O  O70  1  0.08030000  0.41175000  0.91601000  1.0
  O  O71  1  0.40793000  0.41291000  0.08362000  1.0
  O  O72  1  0.56981000  0.59202000  0.08413000  1.0
  O  O73  1  0.90530000  0.58810000  0.91728000  1.0
  O  O74  1  0.23714000  0.56023000  0.00040000  1.0
  O  O75  1  0.74078000  0.43973000  0.99979000  1.0
  O  O76  1  0.39363000  0.81629000  0.68787000  1.0
  O  O77  1  0.10640000  0.68375000  0.81214000  1.0
  O  O78  1  0.89324000  0.18065000  0.30935000  1.0
  O  O79  1  0.60678000  0.31935000  0.19065000  1.0
  O  O80  1  0.61128000  0.18216000  0.69067000  1.0
  O  O81  1  0.88875000  0.31787000  0.80929000  1.0
  O  O82  1  0.39447000  0.82203000  0.31188000  1.0
  O  O83  1  0.10548000  0.67795000  0.18812000  1.0
