# generated using pymatgen
data_CdH12C14(NO2)3
_symmetry_space_group_name_H-M   'P 1'
_cell_length_a   7.73438000
_cell_length_b   9.36293000
_cell_length_c   11.26070000
_cell_angle_alpha   102.28200000
_cell_angle_beta   106.07400000
_cell_angle_gamma   106.33400000
_symmetry_Int_Tables_number   1
_chemical_formula_structural   CdH12C14(NO2)3
_chemical_formula_sum   'Cd2 H24 C28 N6 O12'
_cell_volume   713.63902575
_cell_formula_units_Z   2
loop_
 _symmetry_equiv_pos_site_id
 _symmetry_equiv_pos_as_xyz
  1  'x, y, z'
loop_
 _atom_site_type_symbol
 _atom_site_label
 _atom_site_symmetry_multiplicity
 _atom_site_fract_x
 _atom_site_fract_y
 _atom_site_fract_z
 _atom_site_occupancy
  Cd  Cd0  1  0.05469000  0.84471000  0.07850000  1.0
  Cd  Cd1  1  0.94531000  0.15529000  0.92150000  1.0
  H  H2  1  0.82954000  0.53919000  0.48343000  1.0
  H  H3  1  0.17046000  0.46082000  0.51658000  1.0
  H  H4  1  0.35898000  0.20975000  0.25052000  1.0
  H  H5  1  0.64101000  0.79025000  0.74948000  1.0
  H  H6  1  0.73320000  0.52344000  0.08290000  1.0
  H  H7  1  0.26680000  0.47655000  0.91710000  1.0
  H  H8  1  0.55537000  0.37323000  0.48406000  1.0
  H  H9  1  0.44463000  0.62677000  0.51594000  1.0
  H  H10  1  0.07261000  0.77891000  0.65735000  1.0
  H  H11  1  0.92739000  0.22109000  0.34265000  1.0
  H  H12  1  0.31982000  0.04543000  0.72132000  1.0
  H  H13  1  0.68018000  0.95457000  0.27868000  1.0
  H  H14  1  0.50930000  0.26009000  0.66007000  1.0
  H  H15  1  0.49070000  0.73992000  0.33993000  1.0
  H  H16  1  0.64700000  0.39612000  0.24261000  1.0
  H  H17  1  0.35300000  0.60388000  0.75739000  1.0
  H  H18  1  0.34907000  0.84431000  0.90031000  1.0
  H  H19  1  0.65093000  0.15568000  0.09970000  1.0
  H  H20  1  0.52445000  0.98479000  0.86740000  1.0
  H  H21  1  0.47555000  0.01521000  0.13260000  1.0
  H  H22  1  0.24274000  0.62608000  0.11590000  1.0
  H  H23  1  0.75726000  0.37392000  0.88410000  1.0
  H  H24  1  0.40475000  0.74384000  0.08410000  1.0
  H  H25  1  0.59525000  0.25616000  0.91591000  1.0
  C  C26  1  0.86193000  0.58834000  0.40908000  1.0
  C  C27  1  0.13807000  0.41166000  0.59092000  1.0
  C  C28  1  0.34535000  0.16399000  0.33006000  1.0
  C  C29  1  0.65465000  0.83601000  0.66994000  1.0
  C  C30  1  0.81127000  0.58044000  0.18706000  1.0
  C  C31  1  0.18873000  0.41955000  0.81294000  1.0
  C  C32  1  0.45309000  0.25535000  0.46045000  1.0
  C  C33  1  0.54691000  0.74465000  0.53955000  1.0
  C  C34  1  0.00830000  0.73758000  0.44956000  1.0
  C  C35  1  0.99170000  0.26242000  0.55043000  1.0
  C  C36  1  0.04812000  0.79952000  0.35105000  1.0
  C  C37  1  0.95188000  0.20047000  0.64895000  1.0
  C  C38  1  0.19045000  0.95532000  0.38891000  1.0
  C  C39  1  0.80955000  0.04468000  0.61109000  1.0
  C  C40  1  0.11000000  0.82763000  0.58404000  1.0
  C  C41  1  0.89000000  0.17237000  0.41596000  1.0
  C  C42  1  0.24571000  0.97397000  0.61940000  1.0
  C  C43  1  0.75429000  0.02603000  0.38060000  1.0
  C  C44  1  0.28957000  0.04105000  0.52360000  1.0
  C  C45  1  0.71044000  0.95895000  0.47640000  1.0
  C  C46  1  0.42644000  0.19338000  0.55772000  1.0
  C  C47  1  0.57356000  0.80662000  0.44228000  1.0
  C  C48  1  0.76233000  0.51036000  0.27770000  1.0
  C  C49  1  0.23767000  0.48964000  0.72230000  1.0
  C  C50  1  0.64138000  0.86382000  0.99275000  1.0
  C  C51  1  0.35862000  0.13618000  0.00725000  1.0
  C  C52  1  0.49442000  0.93505000  0.94248000  1.0
  C  C53  1  0.50558000  0.06495000  0.05752000  1.0
  N  N54  1  0.22068000  0.01817000  0.29510000  1.0
  N  N55  1  0.77932000  0.98183000  0.70490000  1.0
  N  N56  1  0.95109000  0.71941000  0.22275000  1.0
  N  N57  1  0.04891000  0.28059000  0.77725000  1.0
  N  N58  1  0.88925000  0.61300000  0.81164000  1.0
  N  N59  1  0.11075000  0.38700000  0.18836000  1.0
  O  O60  1  0.29701000  0.73709000  0.11918000  1.0
  O  O61  1  0.70299000  0.26291000  0.88082000  1.0
  O  O62  1  0.01526000  0.74831000  0.83938000  1.0
  O  O63  1  0.98474000  0.25169000  0.16062000  1.0
  O  O64  1  0.84947000  0.57296000  0.90642000  1.0
  O  O65  1  0.15053000  0.42704000  0.09358000  1.0
  O  O66  1  0.80586000  0.52238000  0.69760000  1.0
  O  O67  1  0.19414000  0.47762000  0.30240000  1.0
  O  O68  1  0.80661000  0.91799000  0.98074000  1.0
  O  O69  1  0.19339000  0.08201000  0.01927000  1.0
  O  O70  1  0.59954000  0.76123000  0.04677000  1.0
  O  O71  1  0.40046000  0.23877000  0.95323000  1.0
