# generated using pymatgen
data_ZnH9C11N5Cl2
_symmetry_space_group_name_H-M   'P 1'
_cell_length_a   9.05676000
_cell_length_b   9.94096000
_cell_length_c   15.18290000
_cell_angle_alpha   89.99990000
_cell_angle_beta   80.82330000
_cell_angle_gamma   89.99990000
_symmetry_Int_Tables_number   1
_chemical_formula_structural   ZnH9C11N5Cl2
_chemical_formula_sum   'Zn4 H36 C44 N20 Cl8'
_cell_volume   1349.46489798
_cell_formula_units_Z   4
loop_
 _symmetry_equiv_pos_site_id
 _symmetry_equiv_pos_as_xyz
  1  'x, y, z'
loop_
 _atom_site_type_symbol
 _atom_site_label
 _atom_site_symmetry_multiplicity
 _atom_site_fract_x
 _atom_site_fract_y
 _atom_site_fract_z
 _atom_site_occupancy
  Zn  Zn0  1  0.12124000  0.47275000  0.82797000  1.0
  Zn  Zn1  1  0.37876000  0.97275000  0.67203000  1.0
  Zn  Zn2  1  0.87876000  0.52725000  0.17203000  1.0
  Zn  Zn3  1  0.62124000  0.02725000  0.32797000  1.0
  H  H4  1  0.06945000  0.60857000  0.64427000  1.0
  H  H5  1  0.43055000  0.10856000  0.85573000  1.0
  H  H6  1  0.93055000  0.39143000  0.35573000  1.0
  H  H7  1  0.56945000  0.89143000  0.14427000  1.0
  H  H8  1  0.39107000  0.31925000  0.69083000  1.0
  H  H9  1  0.10893000  0.81925000  0.80917000  1.0
  H  H10  1  0.60893000  0.68075000  0.30917000  1.0
  H  H11  1  0.89107000  0.18075000  0.19083000  1.0
  H  H12  1  0.41766000  0.36033000  0.51010000  1.0
  H  H13  1  0.08234000  0.86033000  0.98990000  1.0
  H  H14  1  0.58235000  0.63967000  0.48990000  1.0
  H  H15  1  0.91766000  0.13967000  0.01010000  1.0
  H  H16  1  0.91459000  0.84245000  0.28119000  1.0
  H  H17  1  0.58541000  0.34245000  0.21881000  1.0
  H  H18  1  0.08541000  0.15755000  0.71881000  1.0
  H  H19  1  0.41459000  0.65755000  0.78119000  1.0
  H  H20  1  0.93067000  0.82571000  0.55912000  1.0
  H  H21  1  0.56933000  0.32571000  0.94088000  1.0
  H  H22  1  0.06933000  0.17429000  0.44088000  1.0
  H  H23  1  0.43067000  0.67429000  0.05912000  1.0
  H  H24  1  0.70522000  0.00219000  0.52846000  1.0
  H  H25  1  0.79478000  0.50219000  0.97154000  1.0
  H  H26  1  0.29479000  0.99781000  0.47154000  1.0
  H  H27  1  0.20522000  0.49781000  0.02846000  1.0
  H  H28  1  0.11268000  0.71621000  0.25714000  1.0
  H  H29  1  0.38732000  0.21621000  0.24286000  1.0
  H  H30  1  0.88732000  0.28379000  0.74286000  1.0
  H  H31  1  0.61268000  0.78378000  0.75714000  1.0
  H  H32  1  0.29945000  0.53162000  0.24619000  1.0
  H  H33  1  0.20055000  0.03162000  0.25381000  1.0
  H  H34  1  0.70055000  0.46839000  0.75381000  1.0
  H  H35  1  0.79945000  0.96838000  0.74619000  1.0
  H  H36  1  0.36258000  0.42569000  0.38506000  1.0
  H  H37  1  0.13742000  0.92569000  0.11494000  1.0
  H  H38  1  0.63742000  0.57431000  0.61494000  1.0
  H  H39  1  0.86258000  0.07431000  0.88506000  1.0
  C  C40  1  0.16022000  0.53672000  0.63389000  1.0
  C  C41  1  0.33978000  0.03672000  0.86611000  1.0
  C  C42  1  0.83978000  0.46328000  0.36611000  1.0
  C  C43  1  0.66022000  0.96328000  0.13389000  1.0
  C  C44  1  0.32799000  0.38699000  0.65486000  1.0
  C  C45  1  0.17201000  0.88699000  0.84514000  1.0
  C  C46  1  0.67201000  0.61301000  0.34514000  1.0
  C  C47  1  0.82799000  0.11301000  0.15486000  1.0
  C  C48  1  0.34335000  0.40687000  0.56470000  1.0
  C  C49  1  0.15665000  0.90687000  0.93530000  1.0
  C  C50  1  0.65665000  0.59313000  0.43531000  1.0
  C  C51  1  0.84335000  0.09313000  0.06469000  1.0
  C  C52  1  0.89028000  0.86608000  0.35203000  1.0
  C  C53  1  0.60972000  0.36608000  0.14798000  1.0
  C  C54  1  0.10972000  0.13392000  0.64798000  1.0
  C  C55  1  0.39028000  0.63392000  0.85203000  1.0
  C  C56  1  0.89258000  0.85706000  0.49837000  1.0
  C  C57  1  0.60741000  0.35706000  0.00163000  1.0
  C  C58  1  0.10742000  0.14294000  0.50163000  1.0
  C  C59  1  0.39258000  0.64294000  0.99837000  1.0
  C  C60  1  0.78288000  0.94352000  0.48164000  1.0
  C  C61  1  0.71712000  0.44353000  0.01836000  1.0
  C  C62  1  0.21712000  0.05648000  0.51836000  1.0
  C  C63  1  0.28288000  0.55648000  0.98164000  1.0
  C  C64  1  0.07427000  0.70866000  0.40262000  1.0
  C  C65  1  0.42573000  0.20866000  0.09738000  1.0
  C  C66  1  0.92574000  0.29134000  0.59738000  1.0
  C  C67  1  0.57427000  0.79134000  0.90262000  1.0
  C  C68  1  0.14199000  0.67047000  0.31721000  1.0
  C  C69  1  0.35801000  0.17047000  0.18279000  1.0
  C  C70  1  0.85801000  0.32954000  0.68279000  1.0
  C  C71  1  0.64199000  0.82953000  0.81721000  1.0
  C  C72  1  0.24676000  0.56712000  0.31149000  1.0
  C  C73  1  0.25324000  0.06712000  0.18851000  1.0
  C  C74  1  0.75324000  0.43288000  0.68851000  1.0
  C  C75  1  0.74676000  0.93288000  0.81149000  1.0
  C  C76  1  0.28180000  0.50742000  0.38860000  1.0
  C  C77  1  0.21820000  0.00742000  0.11140000  1.0
  C  C78  1  0.71820000  0.49258000  0.61140000  1.0
  C  C79  1  0.78180000  0.99258000  0.88860000  1.0
  C  C80  1  0.20802000  0.55654000  0.46996000  1.0
  C  C81  1  0.29198000  0.05654000  0.03004000  1.0
  C  C82  1  0.79198000  0.44346000  0.53004000  1.0
  C  C83  1  0.70802000  0.94346000  0.96996000  1.0
  N  N84  1  0.23588000  0.50205000  0.55210000  1.0
  N  N85  1  0.26412000  0.00205000  0.94790000  1.0
  N  N86  1  0.76412000  0.49795000  0.44790000  1.0
  N  N87  1  0.73589000  0.99795000  0.05210000  1.0
  N  N88  1  0.21308000  0.46781000  0.69692000  1.0
  N  N89  1  0.28692000  0.96781000  0.80308000  1.0
  N  N90  1  0.78693000  0.53219000  0.30308000  1.0
  N  N91  1  0.71308000  0.03219000  0.19692000  1.0
  N  N92  1  0.78285000  0.94814000  0.39039000  1.0
  N  N93  1  0.71715000  0.44814000  0.10961000  1.0
  N  N94  1  0.21716000  0.05186000  0.60961000  1.0
  N  N95  1  0.28284000  0.55186000  0.89039000  1.0
  N  N96  1  0.96046000  0.80864000  0.41586000  1.0
  N  N97  1  0.53954000  0.30864000  0.08414000  1.0
  N  N98  1  0.03954000  0.19136000  0.58414000  1.0
  N  N99  1  0.46046000  0.69136000  0.91586000  1.0
  N  N100  1  0.10606000  0.65428000  0.47749000  1.0
  N  N101  1  0.39394000  0.15428000  0.02251000  1.0
  N  N102  1  0.89394000  0.34572000  0.52251000  1.0
  N  N103  1  0.60606000  0.84572000  0.97749000  1.0
  Cl  Cl104  1  0.06138000  0.26131000  0.87394000  1.0
  Cl  Cl105  1  0.43862000  0.76131000  0.62606000  1.0
  Cl  Cl106  1  0.93862000  0.73869000  0.12606000  1.0
  Cl  Cl107  1  0.56138000  0.23869000  0.37394000  1.0
  Cl  Cl108  1  0.92766000  0.61618000  0.83486000  1.0
  Cl  Cl109  1  0.57234000  0.11618000  0.66514000  1.0
  Cl  Cl110  1  0.07234000  0.38382000  0.16514000  1.0
  Cl  Cl111  1  0.42766000  0.88382000  0.33486000  1.0
