# generated using pymatgen
data_CuH12C10(N6Cl)2
_symmetry_space_group_name_H-M   'P 1'
_cell_length_a   7.66290000
_cell_length_b   8.05364000
_cell_length_c   13.86020000
_cell_angle_alpha   90.00000000
_cell_angle_beta   89.99970000
_cell_angle_gamma   100.03600000
_symmetry_Int_Tables_number   1
_chemical_formula_structural   CuH12C10(N6Cl)2
_chemical_formula_sum   'Cu2 H24 C20 N24 Cl4'
_cell_volume   842.28317029
_cell_formula_units_Z   2
loop_
 _symmetry_equiv_pos_site_id
 _symmetry_equiv_pos_as_xyz
  1  'x, y, z'
loop_
 _atom_site_type_symbol
 _atom_site_label
 _atom_site_symmetry_multiplicity
 _atom_site_fract_x
 _atom_site_fract_y
 _atom_site_fract_z
 _atom_site_occupancy
  Cu  Cu0  1  0.00000000  0.00000000  0.00000000  1.0
  Cu  Cu1  1  0.50000000  0.00000000  0.50000000  1.0
  H  H2  1  0.31148000  0.31964000  0.01174000  1.0
  H  H3  1  0.18852000  0.68036000  0.51174000  1.0
  H  H4  1  0.68852000  0.68036000  0.98826000  1.0
  H  H5  1  0.81148000  0.31964000  0.48826000  1.0
  H  H6  1  0.96411000  0.10531000  0.23071000  1.0
  H  H7  1  0.53589000  0.89468000  0.73071000  1.0
  H  H8  1  0.03589000  0.89468000  0.76929000  1.0
  H  H9  1  0.46411000  0.10532000  0.26929000  1.0
  H  H10  1  0.36764000  0.61107000  0.23953000  1.0
  H  H11  1  0.13236000  0.38893000  0.73953000  1.0
  H  H12  1  0.63236000  0.38893000  0.76047000  1.0
  H  H13  1  0.86764000  0.61107000  0.26047000  1.0
  H  H14  1  0.51883000  0.55288000  0.15014000  1.0
  H  H15  1  0.98117000  0.44712000  0.65014000  1.0
  H  H16  1  0.48117000  0.44712000  0.84985000  1.0
  H  H17  1  0.01883000  0.55288000  0.34986000  1.0
  H  H18  1  0.15444000  0.80888000  0.18287000  1.0
  H  H19  1  0.34556000  0.19112000  0.68288000  1.0
  H  H20  1  0.84556000  0.19112000  0.81712000  1.0
  H  H21  1  0.65444000  0.80888000  0.31712000  1.0
  H  H22  1  0.28736000  0.81446000  0.88691000  1.0
  H  H23  1  0.21265000  0.18554000  0.38692000  1.0
  H  H24  1  0.71265000  0.18554000  0.11308000  1.0
  H  H25  1  0.78735000  0.81446000  0.61308000  1.0
  C  C26  1  0.24140000  0.29799000  0.07991000  1.0
  C  C27  1  0.25860000  0.70201000  0.57991000  1.0
  C  C28  1  0.75860000  0.70200000  0.92009000  1.0
  C  C29  1  0.74140000  0.29800000  0.42009000  1.0
  C  C30  1  0.06550000  0.19309000  0.19335000  1.0
  C  C31  1  0.43450000  0.80691000  0.69335000  1.0
  C  C32  1  0.93450000  0.80691000  0.80665000  1.0
  C  C33  1  0.56550000  0.19309000  0.30665000  1.0
  C  C34  1  0.38102000  0.56245000  0.16626000  1.0
  C  C35  1  0.11898000  0.43754000  0.66626000  1.0
  C  C36  1  0.61898000  0.43755000  0.83374000  1.0
  C  C37  1  0.88102000  0.56245000  0.33374000  1.0
  C  C38  1  0.20769000  0.78397000  0.11264000  1.0
  C  C39  1  0.29231000  0.21603000  0.61265000  1.0
  C  C40  1  0.79231000  0.21603000  0.88735000  1.0
  C  C41  1  0.70769000  0.78397000  0.38735000  1.0
  C  C42  1  0.27991000  0.78310000  0.96297000  1.0
  C  C43  1  0.22009000  0.21690000  0.46297000  1.0
  C  C44  1  0.72009000  0.21690000  0.03703000  1.0
  C  C45  1  0.77991000  0.78310000  0.53703000  1.0
  N  N46  1  0.11375000  0.16761000  0.10018000  1.0
  N  N47  1  0.38625000  0.83238000  0.60018000  1.0
  N  N48  1  0.88625000  0.83239000  0.89982000  1.0
  N  N49  1  0.61375000  0.16761000  0.39982000  1.0
  N  N50  1  0.15515000  0.33378000  0.23123000  1.0
  N  N51  1  0.34485000  0.66621000  0.73123000  1.0
  N  N52  1  0.84485000  0.66622000  0.76877000  1.0
  N  N53  1  0.65515000  0.33378000  0.26877000  1.0
  N  N54  1  0.26717000  0.39787000  0.15823000  1.0
  N  N55  1  0.23282000  0.60213000  0.65823000  1.0
  N  N56  1  0.73282000  0.60213000  0.84177000  1.0
  N  N57  1  0.76718000  0.39787000  0.34177000  1.0
  N  N58  1  0.32319000  0.67829000  0.09829000  1.0
  N  N59  1  0.17681000  0.32171000  0.59829000  1.0
  N  N60  1  0.67681000  0.32170000  0.90171000  1.0
  N  N61  1  0.82319000  0.67829000  0.40171000  1.0
  N  N62  1  0.17828000  0.85221000  0.02770000  1.0
  N  N63  1  0.32173000  0.14780000  0.52770000  1.0
  N  N64  1  0.82172000  0.14779000  0.97229000  1.0
  N  N65  1  0.67828000  0.85221000  0.47230000  1.0
  N  N66  1  0.36943000  0.67491000  0.00324000  1.0
  N  N67  1  0.13057000  0.32509000  0.50324000  1.0
  N  N68  1  0.63057000  0.32510000  0.99676000  1.0
  N  N69  1  0.86943000  0.67490000  0.49676000  1.0
  Cl  Cl70  1  0.22225000  0.16443000  0.85200000  1.0
  Cl  Cl71  1  0.27775000  0.83558000  0.35201000  1.0
  Cl  Cl72  1  0.77775000  0.83557000  0.14800000  1.0
  Cl  Cl73  1  0.72225000  0.16442000  0.64799000  1.0
