# generated using pymatgen
data_MnH12C14(NO)4
_symmetry_space_group_name_H-M   'P 1'
_cell_length_a   7.84999000
_cell_length_b   9.38455000
_cell_length_c   10.25240000
_cell_angle_alpha   75.88760000
_cell_angle_beta   78.17610000
_cell_angle_gamma   78.43870000
_symmetry_Int_Tables_number   1
_chemical_formula_structural   MnH12C14(NO)4
_chemical_formula_sum   'Mn2 H24 C28 N8 O8'
_cell_volume   707.88044101
_cell_formula_units_Z   2
loop_
 _symmetry_equiv_pos_site_id
 _symmetry_equiv_pos_as_xyz
  1  'x, y, z'
loop_
 _atom_site_type_symbol
 _atom_site_label
 _atom_site_symmetry_multiplicity
 _atom_site_fract_x
 _atom_site_fract_y
 _atom_site_fract_z
 _atom_site_occupancy
  Mn  Mn0  1  0.45134000  0.13533000  0.65299000  1.0
  Mn  Mn1  1  0.54865000  0.86468000  0.34700000  1.0
  H  H2  1  0.93591000  0.82390000  0.73966000  1.0
  H  H3  1  0.06410000  0.17609000  0.26033000  1.0
  H  H4  1  0.85302000  0.50571000  0.33391000  1.0
  H  H5  1  0.14697000  0.49428000  0.66610000  1.0
  H  H6  1  0.25495000  0.55885000  0.88782000  1.0
  H  H7  1  0.74508000  0.44118000  0.11218000  1.0
  H  H8  1  0.22555000  0.66077000  0.09579000  1.0
  H  H9  1  0.77446000  0.33922000  0.90423000  1.0
  H  H10  1  0.27093000  0.49018000  0.31654000  1.0
  H  H11  1  0.72908000  0.50979000  0.68347000  1.0
  H  H12  1  0.39867000  0.11683000  0.11912000  1.0
  H  H13  1  0.60131000  0.88317000  0.88087000  1.0
  H  H14  1  0.16195000  0.96532000  0.56340000  1.0
  H  H15  1  0.83806000  0.03467000  0.43659000  1.0
  H  H16  1  0.98201000  0.80030000  0.98268000  1.0
  H  H17  1  0.01801000  0.19972000  0.01731000  1.0
  H  H18  1  0.26470000  0.95122000  0.95465000  1.0
  H  H19  1  0.73531000  0.04880000  0.04533000  1.0
  H  H20  1  0.55981000  0.42352000  0.39563000  1.0
  H  H21  1  0.44017000  0.57648000  0.60438000  1.0
  H  H22  1  0.06983000  0.34702000  0.50094000  1.0
  H  H23  1  0.93015000  0.65296000  0.49908000  1.0
  H  H24  1  0.85964000  0.16189000  0.69122000  1.0
  H  H25  1  0.14033000  0.83811000  0.30880000  1.0
  C  C26  1  0.33076000  0.33153000  0.99059000  1.0
  C  C27  1  0.66923000  0.66849000  0.00940000  1.0
  C  C28  1  0.27764000  0.48450000  0.98458000  1.0
  C  C29  1  0.72238000  0.51551000  0.01541000  1.0
  C  C30  1  0.25948000  0.54138000  0.10131000  1.0
  C  C31  1  0.74052000  0.45862000  0.89870000  1.0
  C  C32  1  0.28659000  0.44594000  0.22519000  1.0
  C  C33  1  0.71341000  0.55405000  0.77481000  1.0
  C  C34  1  0.33198000  0.29180000  0.23366000  1.0
  C  C35  1  0.66801000  0.70819000  0.76634000  1.0
  C  C36  1  0.35817000  0.23574000  0.11502000  1.0
  C  C37  1  0.64183000  0.76427000  0.88497000  1.0
  C  C38  1  0.36127000  0.26747000  0.86591000  1.0
  C  C39  1  0.63874000  0.73255000  0.13409000  1.0
  C  C40  1  0.34827000  0.18736000  0.36821000  1.0
  C  C41  1  0.65174000  0.81263000  0.63178000  1.0
  C  C42  1  0.15152000  0.94322000  0.67338000  1.0
  C  C43  1  0.84848000  0.05678000  0.32661000  1.0
  C  C44  1  0.06135000  0.85743000  0.89348000  1.0
  C  C45  1  0.93866000  0.14257000  0.10651000  1.0
  C  C46  1  0.19964000  0.93299000  0.87783000  1.0
  C  C47  1  0.80038000  0.06702000  0.12216000  1.0
  C  C48  1  0.66758000  0.37648000  0.45193000  1.0
  C  C49  1  0.33240000  0.62352000  0.54808000  1.0
  C  C50  1  0.93332000  0.33582000  0.50815000  1.0
  C  C51  1  0.06666000  0.66417000  0.49187000  1.0
  C  C52  1  0.82821000  0.24399000  0.60140000  1.0
  C  C53  1  0.17177000  0.75600000  0.39861000  1.0
  N  N54  1  0.25418000  0.98657000  0.74017000  1.0
  N  N55  1  0.74582000  0.01343000  0.25982000  1.0
  N  N56  1  0.03368000  0.86500000  0.76315000  1.0
  N  N57  1  0.96634000  0.13501000  0.23684000  1.0
  N  N58  1  0.66268000  0.27026000  0.56524000  1.0
  N  N59  1  0.33730000  0.72973000  0.43477000  1.0
  N  N60  1  0.82841000  0.41869000  0.41466000  1.0
  N  N61  1  0.17159000  0.58130000  0.58535000  1.0
  O  O62  1  0.27062000  0.32665000  0.77068000  1.0
  O  O63  1  0.72937000  0.67336000  0.22932000  1.0
  O  O64  1  0.47869000  0.15218000  0.85937000  1.0
  O  O65  1  0.52131000  0.84783000  0.14062000  1.0
  O  O66  1  0.35121000  0.24309000  0.46925000  1.0
  O  O67  1  0.64878000  0.75690000  0.53075000  1.0
  O  O68  1  0.35068000  0.04904000  0.37608000  1.0
  O  O69  1  0.64932000  0.95095000  0.62392000  1.0
