# generated using pymatgen
data_PrH15C28(N2O3)2
_symmetry_space_group_name_H-M   'P 1'
_cell_length_a   11.37400000
_cell_length_b   13.50010000
_cell_length_c   20.26960000
_cell_angle_alpha   94.55900000
_cell_angle_beta   89.98900000
_cell_angle_gamma   114.91900000
_symmetry_Int_Tables_number   1
_chemical_formula_structural   PrH15C28(N2O3)2
_chemical_formula_sum   'Pr4 H60 C112 N16 O24'
_cell_volume   2811.80885122
_cell_formula_units_Z   4
loop_
 _symmetry_equiv_pos_site_id
 _symmetry_equiv_pos_as_xyz
  1  'x, y, z'
loop_
 _atom_site_type_symbol
 _atom_site_label
 _atom_site_symmetry_multiplicity
 _atom_site_fract_x
 _atom_site_fract_y
 _atom_site_fract_z
 _atom_site_occupancy
  Pr  Pr0  1  0.23851000  0.15392000  0.79354000  1.0
  Pr  Pr1  1  0.08456000  0.84608000  0.70645000  1.0
  Pr  Pr2  1  0.76149000  0.84608000  0.20646000  1.0
  Pr  Pr3  1  0.91544000  0.15392000  0.29355000  1.0
  H  H4  1  0.56737000  0.25826000  0.80780000  1.0
  H  H5  1  0.30895000  0.74180000  0.69205000  1.0
  H  H6  1  0.43262000  0.74174000  0.19220000  1.0
  H  H7  1  0.69105000  0.25820000  0.30795000  1.0
  H  H8  1  0.78043000  0.38651000  0.76657000  1.0
  H  H9  1  0.39413000  0.61391000  0.73340000  1.0
  H  H10  1  0.21956000  0.61349000  0.23343000  1.0
  H  H11  1  0.60587000  0.38609000  0.26660000  1.0
  H  H12  1  0.78273000  0.51893000  0.68543000  1.0
  H  H13  1  0.26413000  0.48148000  0.81459000  1.0
  H  H14  1  0.21727000  0.48107000  0.31458000  1.0
  H  H15  1  0.73587000  0.51852000  0.18541000  1.0
  H  H16  1  0.18867000  0.47359000  0.57498000  1.0
  H  H17  1  0.71510000  0.52640000  0.92506000  1.0
  H  H18  1  0.81133000  0.52641000  0.42502000  1.0
  H  H19  1  0.28490000  0.47360000  0.07494000  1.0
  H  H20  1  0.99143000  0.33768000  0.62667000  1.0
  H  H21  1  0.65371000  0.66227000  0.87339000  1.0
  H  H22  1  0.00856000  0.66232000  0.37333000  1.0
  H  H23  1  0.34629000  0.33773000  0.12661000  1.0
  H  H24  1  0.02201000  0.22767000  0.71379000  1.0
  H  H25  1  0.79436000  0.77241000  0.78631000  1.0
  H  H26  1  0.97798000  0.77232000  0.28621000  1.0
  H  H27  1  0.20565000  0.22760000  0.21369000  1.0
  H  H28  1  0.84502000  0.77631000  0.55770000  1.0
  H  H29  1  0.06892000  0.22376000  0.94230000  1.0
  H  H30  1  0.15498000  0.22368000  0.44230000  1.0
  H  H31  1  0.93108000  0.77624000  0.05770000  1.0
  H  H32  1  0.95128000  0.91515000  0.48072000  1.0
  H  H33  1  0.03609000  0.08483000  0.01925000  1.0
  H  H34  1  0.04872000  0.08485000  0.51928000  1.0
  H  H35  1  0.96391000  0.91517000  0.98075000  1.0
  H  H36  1  0.58444000  0.83325000  0.37980000  1.0
  H  H37  1  0.75108000  0.16672000  0.12011000  1.0
  H  H38  1  0.41556000  0.16675000  0.62020000  1.0
  H  H39  1  0.24892000  0.83328000  0.87989000  1.0
  H  H40  1  0.47342000  0.69411000  0.46050000  1.0
  H  H41  1  0.77939000  0.30592000  0.03944000  1.0
  H  H42  1  0.52658000  0.30589000  0.53950000  1.0
  H  H43  1  0.22061000  0.69408000  0.96056000  1.0
  H  H44  1  0.64543000  0.47273000  0.08126000  1.0
  H  H45  1  0.17285000  0.52727000  0.41878000  1.0
  H  H46  1  0.35457000  0.52727000  0.91874000  1.0
  H  H47  1  0.82716000  0.47273000  0.58123000  1.0
  H  H48  1  0.51027000  0.31922000  0.99722000  1.0
  H  H49  1  0.19114000  0.68076000  0.50283000  1.0
  H  H50  1  0.48973000  0.68078000  0.00278000  1.0
  H  H51  1  0.80887000  0.31924000  0.49717000  1.0
  H  H52  1  0.60926000  0.11717000  0.83527000  1.0
  H  H53  1  0.49208000  0.88284000  0.66458000  1.0
  H  H54  1  0.39075000  0.88284000  0.16473000  1.0
  H  H55  1  0.50792000  0.11715000  0.33543000  1.0
  H  H56  1  0.83181000  0.11936000  0.83421000  1.0
  H  H57  1  0.71226000  0.88032000  0.66567000  1.0
  H  H58  1  0.16820000  0.88064000  0.16579000  1.0
  H  H59  1  0.28774000  0.11967000  0.33433000  1.0
  H  H60  1  0.75072000  0.62993000  0.60580000  1.0
  H  H61  1  0.12091000  0.37020000  0.89410000  1.0
  H  H62  1  0.24928000  0.37007000  0.39420000  1.0
  H  H63  1  0.87910000  0.62980000  0.10589000  1.0
  C  C64  1  0.57176000  0.31500000  0.77163000  1.0
  C  C65  1  0.25669000  0.68510000  0.72825000  1.0
  C  C66  1  0.42823000  0.68500000  0.22837000  1.0
  C  C67  1  0.74331000  0.31490000  0.27175000  1.0
  C  C68  1  0.69088000  0.38736000  0.74834000  1.0
  C  C69  1  0.30361000  0.61290000  0.75159000  1.0
  C  C70  1  0.30911000  0.61264000  0.25166000  1.0
  C  C71  1  0.69639000  0.38710000  0.24841000  1.0
  C  C72  1  0.69183000  0.45930000  0.70334000  1.0
  C  C73  1  0.23269000  0.54097000  0.79664000  1.0
  C  C74  1  0.30817000  0.54070000  0.29666000  1.0
  C  C75  1  0.76731000  0.45903000  0.20336000  1.0
  C  C76  1  0.57255000  0.45576000  0.68085000  1.0
  C  C77  1  0.11688000  0.54439000  0.81912000  1.0
  C  C78  1  0.42745000  0.54424000  0.31915000  1.0
  C  C79  1  0.88312000  0.45561000  0.18088000  1.0
  C  C80  1  0.55950000  0.52250000  0.63319000  1.0
  C  C81  1  0.03712000  0.47765000  0.86680000  1.0
  C  C82  1  0.44050000  0.47750000  0.36681000  1.0
  C  C83  1  0.96288000  0.52235000  0.13319000  1.0
  C  C84  1  0.43927000  0.51298000  0.60905000  1.0
  C  C85  1  0.92637000  0.48711000  0.89098000  1.0
  C  C86  1  0.56072000  0.48702000  0.39095000  1.0
  C  C87  1  0.07362000  0.51289000  0.10901000  1.0
  C  C88  1  0.32072000  0.43603000  0.63387000  1.0
  C  C89  1  0.88476000  0.56406000  0.86617000  1.0
  C  C90  1  0.67927000  0.56397000  0.36613000  1.0
  C  C91  1  0.11525000  0.43594000  0.13383000  1.0
  C  C92  1  0.19682000  0.42369000  0.61289000  1.0
  C  C93  1  0.77315000  0.57633000  0.88715000  1.0
  C  C94  1  0.80318000  0.57632000  0.38711000  1.0
  C  C95  1  0.22685000  0.42367000  0.11285000  1.0
  C  C96  1  0.08871000  0.34929000  0.64155000  1.0
  C  C97  1  0.73940000  0.65070000  0.85850000  1.0
  C  C98  1  0.91129000  0.65071000  0.35845000  1.0
  C  C99  1  0.26061000  0.34931000  0.14150000  1.0
  C  C100  1  0.10527000  0.28741000  0.69026000  1.0
  C  C101  1  0.81783000  0.71261000  0.80979000  1.0
  C  C102  1  0.89473000  0.71259000  0.30974000  1.0
  C  C103  1  0.18218000  0.28739000  0.19021000  1.0
  C  C104  1  0.32921000  0.36944000  0.68331000  1.0
  C  C105  1  0.95977000  0.63062000  0.81671000  1.0
  C  C106  1  0.67079000  0.63056000  0.31669000  1.0
  C  C107  1  0.04023000  0.36938000  0.18329000  1.0
  C  C108  1  0.45520000  0.37833000  0.70603000  1.0
  C  C109  1  0.07690000  0.62176000  0.79395000  1.0
  C  C110  1  0.54479000  0.62167000  0.29397000  1.0
  C  C111  1  0.92311000  0.37824000  0.20605000  1.0
  C  C112  1  0.58545000  0.63925000  0.55786000  1.0
  C  C113  1  0.94635000  0.36083000  0.94212000  1.0
  C  C114  1  0.41455000  0.36076000  0.44215000  1.0
  C  C115  1  0.05365000  0.63917000  0.05788000  1.0
  C  C116  1  0.65094000  0.72426000  0.51365000  1.0
  C  C117  1  0.92684000  0.27581000  0.98632000  1.0
  C  C118  1  0.34906000  0.27574000  0.48635000  1.0
  C  C119  1  0.07316000  0.72419000  0.01367000  1.0
  C  C120  1  0.78596000  0.78718000  0.51907000  1.0
  C  C121  1  0.99894000  0.21288000  0.98092000  1.0
  C  C122  1  0.21404000  0.21281000  0.48093000  1.0
  C  C123  1  0.00106000  0.78712000  0.01908000  1.0
  C  C124  1  0.84684000  0.86654000  0.47555000  1.0
  C  C125  1  0.98035000  0.13348000  0.02443000  1.0
  C  C126  1  0.15316000  0.13345000  0.52445000  1.0
  C  C127  1  0.01965000  0.86652000  0.97557000  1.0
  C  C128  1  0.77474000  0.88265000  0.42494000  1.0
  C  C129  1  0.89209000  0.11735000  0.07502000  1.0
  C  C130  1  0.22526000  0.11735000  0.57506000  1.0
  C  C131  1  0.10791000  0.88264000  0.92498000  1.0
  C  C132  1  0.63986000  0.81995000  0.41928000  1.0
  C  C133  1  0.81994000  0.18007000  0.08066000  1.0
  C  C134  1  0.36013000  0.18005000  0.58072000  1.0
  C  C135  1  0.18007000  0.81993000  0.91934000  1.0
  C  C136  1  0.57812000  0.74273000  0.46385000  1.0
  C  C137  1  0.83545000  0.25730000  0.03609000  1.0
  C  C138  1  0.42188000  0.25727000  0.53615000  1.0
  C  C139  1  0.16455000  0.74270000  0.96391000  1.0
  C  C140  1  0.83982000  0.96728000  0.37801000  1.0
  C  C141  1  0.87238000  0.03274000  0.12199000  1.0
  C  C142  1  0.16018000  0.03272000  0.62199000  1.0
  C  C143  1  0.12762000  0.96726000  0.87801000  1.0
  C  C144  1  0.58189000  0.48421000  0.04542000  1.0
  C  C145  1  0.09776000  0.51582000  0.45458000  1.0
  C  C146  1  0.41811000  0.51579000  0.95458000  1.0
  C  C147  1  0.90226000  0.48418000  0.54542000  1.0
  C  C148  1  0.50643000  0.39872000  0.99937000  1.0
  C  C149  1  0.10780000  0.60126000  0.50067000  1.0
  C  C150  1  0.49357000  0.60128000  0.00063000  1.0
  C  C151  1  0.89221000  0.39874000  0.49934000  1.0
  C  C152  1  0.42418000  0.41418000  0.95376000  1.0
  C  C153  1  0.01003000  0.58577000  0.54627000  1.0
  C  C154  1  0.57582000  0.58582000  0.04624000  1.0
  C  C155  1  0.98998000  0.41423000  0.45373000  1.0
  C  C156  1  0.34934000  0.32258000  0.90296000  1.0
  C  C157  1  0.02672000  0.67737000  0.59705000  1.0
  C  C158  1  0.65065000  0.67742000  0.09704000  1.0
  C  C159  1  0.97329000  0.32263000  0.40295000  1.0
  C  C160  1  0.53910000  0.00001000  0.74991000  1.0
  C  C161  1  0.46090000  0.99999000  0.25009000  1.0
  C  C162  1  0.63386000  0.06717000  0.79783000  1.0
  C  C163  1  0.56666000  0.93277000  0.70202000  1.0
  C  C164  1  0.36615000  0.93283000  0.20217000  1.0
  C  C165  1  0.43334000  0.06723000  0.29798000  1.0
  C  C166  1  0.75629000  0.06796000  0.79752000  1.0
  C  C167  1  0.68824000  0.93183000  0.70235000  1.0
  C  C168  1  0.24371000  0.93204000  0.20248000  1.0
  C  C169  1  0.31176000  0.06816000  0.29765000  1.0
  C  C170  1  0.78315000  0.99990000  0.74994000  1.0
  C  C171  1  0.21685000  0.00010000  0.25006000  1.0
  C  C172  1  0.40795000  0.00009000  0.74989000  1.0
  C  C173  1  0.59205000  0.99991000  0.25012000  1.0
  C  C174  1  0.91378000  0.99990000  0.74996000  1.0
  C  C175  1  0.08622000  0.00010000  0.25004000  1.0
  N  N176  1  0.45778000  0.31028000  0.75120000  1.0
  N  N177  1  0.14742000  0.68975000  0.74873000  1.0
  N  N178  1  0.54222000  0.68972000  0.24880000  1.0
  N  N179  1  0.85258000  0.31025000  0.25127000  1.0
  N  N180  1  0.22126000  0.29605000  0.71048000  1.0
  N  N181  1  0.92519000  0.70400000  0.78955000  1.0
  N  N182  1  0.77874000  0.70395000  0.28952000  1.0
  N  N183  1  0.07481000  0.29601000  0.21045000  1.0
  N  N184  1  0.45680000  0.58574000  0.56234000  1.0
  N  N185  1  0.87118000  0.41434000  0.93769000  1.0
  N  N186  1  0.54319000  0.41426000  0.43766000  1.0
  N  N187  1  0.12882000  0.58566000  0.06231000  1.0
  N  N188  1  0.65137000  0.60335000  0.60031000  1.0
  N  N189  1  0.04814000  0.39677000  0.89964000  1.0
  N  N190  1  0.34863000  0.39665000  0.39969000  1.0
  N  N191  1  0.95186000  0.60323000  0.10036000  1.0
  O  O192  1  0.79949000  0.94466000  0.31665000  1.0
  O  O193  1  0.85447000  0.05536000  0.18333000  1.0
  O  O194  1  0.20051000  0.05534000  0.68335000  1.0
  O  O195  1  0.14553000  0.94464000  0.81667000  1.0
  O  O196  1  0.92824000  0.05964000  0.39823000  1.0
  O  O197  1  0.86867000  0.94044000  0.10180000  1.0
  O  O198  1  0.07175000  0.94035000  0.60177000  1.0
  O  O199  1  0.13133000  0.05956000  0.89820000  1.0
  O  O200  1  0.25211000  0.32349000  0.87037000  1.0
  O  O201  1  0.92852000  0.67650000  0.62959000  1.0
  O  O202  1  0.74789000  0.67651000  0.12964000  1.0
  O  O203  1  0.07149000  0.32349000  0.37041000  1.0
  O  O204  1  0.38715000  0.24707000  0.89183000  1.0
  O  O205  1  0.14003000  0.75291000  0.60816000  1.0
  O  O206  1  0.61285000  0.75293000  0.10817000  1.0
  O  O207  1  0.85998000  0.24709000  0.39184000  1.0
  O  O208  1  0.39710000  0.07951000  0.78324000  1.0
  O  O209  1  0.31763000  0.92075000  0.71650000  1.0
  O  O210  1  0.60290000  0.92049000  0.21676000  1.0
  O  O211  1  0.68237000  0.07925000  0.28350000  1.0
  O  O212  1  0.00851000  0.08720000  0.77362000  1.0
  O  O213  1  0.92112000  0.91253000  0.72634000  1.0
  O  O214  1  0.99149000  0.91280000  0.22638000  1.0
  O  O215  1  0.07888000  0.08746000  0.27366000  1.0
