# generated using pymatgen
data_ZnH11C19SNO8
_symmetry_space_group_name_H-M   'P 1'
_cell_length_a   12.76370000
_cell_length_b   16.41200000
_cell_length_c   17.72140000
_cell_angle_alpha   95.01430000
_cell_angle_beta   90.08860000
_cell_angle_gamma   91.95240000
_symmetry_Int_Tables_number   1
_chemical_formula_structural   ZnH11C19SNO8
_chemical_formula_sum   'Zn2 H22 C38 S2 N2 O16'
_cell_volume   3695.84865217
_cell_formula_units_Z   2
loop_
 _symmetry_equiv_pos_site_id
 _symmetry_equiv_pos_as_xyz
  1  'x, y, z'
loop_
 _atom_site_type_symbol
 _atom_site_label
 _atom_site_symmetry_multiplicity
 _atom_site_fract_x
 _atom_site_fract_y
 _atom_site_fract_z
 _atom_site_occupancy
  Zn  Zn0  1  0.49837000  0.41339000  0.49874000  1.0
  Zn  Zn1  1  0.49986000  0.58648000  0.50404000  1.0
  H  H2  1  0.39014000  0.71462000  0.42658000  1.0
  H  H3  1  0.39625000  0.86530000  0.42726000  1.0
  H  H4  1  0.64485000  0.86661000  0.59635000  1.0
  H  H5  1  0.62861000  0.71866000  0.58516000  1.0
  H  H6  1  0.35839000  0.13349000  0.40205000  1.0
  H  H7  1  0.60428000  0.13426000  0.57324000  1.0
  H  H8  1  0.60821000  0.28509000  0.57597000  1.0
  H  H9  1  0.37286000  0.28116000  0.41451000  1.0
  H  H10  1  0.50833000  0.61658000  0.26573000  1.0
  H  H11  1  0.50679000  0.61035000  0.12656000  1.0
  H  H12  1  0.49132000  0.34479000  0.12046000  1.0
  H  H13  1  0.48919000  0.35477000  0.25686000  1.0
  H  H14  1  0.50537000  0.65492000  0.88228000  1.0
  H  H15  1  0.49750000  0.38947000  0.87696000  1.0
  H  H16  1  0.49853000  0.38269000  0.73783000  1.0
  H  H17  1  0.50337000  0.64445000  0.74580000  1.0
  H  H18  1  0.64336000  0.96629000  0.58960000  1.0
  H  H19  1  0.35955000  0.03361000  0.40888000  1.0
  H  H20  1  0.49160000  0.35287000  0.03163000  1.0
  H  H21  1  0.50831000  0.64724000  0.97158000  1.0
  H  H22  1  0.04098000  0.33221000  0.56820000  1.0
  H  H23  1  0.96947000  0.67469000  0.58234000  1.0
  C  C24  1  0.49808000  0.49065000  0.35514000  1.0
  C  C25  1  0.29418000  0.49567000  0.49695000  1.0
  C  C26  1  0.50047000  0.50812000  0.64784000  1.0
  C  C27  1  0.70373000  0.50523000  0.49991000  1.0
  C  C28  1  0.44521000  0.75194000  0.46319000  1.0
  C  C29  1  0.44890000  0.83655000  0.46400000  1.0
  C  C30  1  0.52015000  0.88388000  0.51250000  1.0
  C  C31  1  0.58550000  0.83873000  0.55678000  1.0
  C  C32  1  0.57764000  0.75403000  0.55212000  1.0
  C  C33  1  0.52973000  0.97353000  0.51919000  1.0
  C  C34  1  0.47224000  0.02624000  0.48005000  1.0
  C  C35  1  0.41694000  0.16118000  0.44239000  1.0
  C  C36  1  0.48173000  0.11593000  0.48696000  1.0
  C  C37  1  0.55199000  0.16312000  0.53637000  1.0
  C  C38  1  0.55461000  0.24777000  0.53817000  1.0
  C  C39  1  0.42384000  0.24599000  0.44777000  1.0
  C  C40  1  0.49816000  0.48626000  0.27070000  1.0
  C  C41  1  0.50368000  0.55745000  0.23248000  1.0
  C  C42  1  0.50325000  0.55382000  0.15388000  1.0
  C  C43  1  0.49867000  0.47785000  0.10902000  1.0
  C  C44  1  0.49417000  0.40670000  0.14916000  1.0
  C  C45  1  0.49321000  0.41055000  0.22772000  1.0
  C  C46  1  0.49869000  0.46915000  0.02579000  1.0
  C  C47  1  0.50196000  0.53087000  0.97736000  1.0
  C  C48  1  0.50373000  0.59297000  0.85374000  1.0
  C  C49  1  0.50177000  0.52198000  0.89416000  1.0
  C  C50  1  0.49965000  0.44590000  0.84947000  1.0
  C  C51  1  0.50012000  0.44197000  0.77087000  1.0
  C  C52  1  0.50146000  0.51297000  0.73233000  1.0
  C  C53  1  0.50293000  0.58879000  0.77516000  1.0
  C  C54  1  0.10552000  0.42893000  0.48780000  1.0
  C  C55  1  0.89234000  0.57209000  0.49650000  1.0
  C  C56  1  0.17791000  0.49422000  0.49148000  1.0
  C  C57  1  0.81993000  0.50674000  0.49385000  1.0
  C  C58  1  0.99651000  0.54331000  0.49471000  1.0
  C  C59  1  0.00126000  0.45756000  0.49021000  1.0
  C  C60  1  0.12913000  0.34000000  0.48030000  1.0
  C  C61  1  0.86866000  0.66090000  0.49968000  1.0
  S  S62  1  0.12056000  0.58878000  0.49529000  1.0
  S  S63  1  0.87720000  0.41204000  0.48713000  1.0
  N  N64  1  0.50775000  0.71084000  0.50662000  1.0
  N  N65  1  0.49223000  0.28901000  0.49474000  1.0
  O  O66  1  0.47843000  0.42429000  0.38577000  1.0
  O  O67  1  0.51787000  0.56051000  0.39056000  1.0
  O  O68  1  0.33903000  0.56466000  0.48735000  1.0
  O  O69  1  0.33686000  0.43046000  0.51186000  1.0
  O  O70  1  0.48210000  0.57364000  0.61706000  1.0
  O  O71  1  0.51785000  0.43870000  0.61268000  1.0
  O  O72  1  0.65918000  0.43500000  0.48441000  1.0
  O  O73  1  0.66055000  0.57171000  0.52066000  1.0
  O  O74  1  0.60270000  0.00894000  0.57005000  1.0
  O  O75  1  0.39910000  0.99089000  0.42938000  1.0
  O  O76  1  0.49493000  0.39015000  0.99189000  1.0
  O  O77  1  0.50542000  0.60991000  0.01125000  1.0
  O  O78  1  0.07785000  0.29531000  0.53175000  1.0
  O  O79  1  0.18323000  0.30585000  0.43192000  1.0
  O  O80  1  0.92681000  0.70917000  0.55304000  1.0
  O  O81  1  0.80834000  0.69218000  0.45902000  1.0
