# generated using pymatgen
data_CdH98C86(N2O)6
_symmetry_space_group_name_H-M   'P 1'
_cell_length_a   8.74754000
_cell_length_b   13.45750000
_cell_length_c   19.65780000
_cell_angle_alpha   99.23000000
_cell_angle_beta   92.28760000
_cell_angle_gamma   98.36810000
_symmetry_Int_Tables_number   1
_chemical_formula_structural   CdH98C86(N2O)6
_chemical_formula_sum   'Cd1 H98 C86 N12 O6'
_cell_volume   2255.08981575
_cell_formula_units_Z   1
loop_
 _symmetry_equiv_pos_site_id
 _symmetry_equiv_pos_as_xyz
  1  'x, y, z'
loop_
 _atom_site_type_symbol
 _atom_site_label
 _atom_site_symmetry_multiplicity
 _atom_site_fract_x
 _atom_site_fract_y
 _atom_site_fract_z
 _atom_site_occupancy
  Cd  Cd0  1  0.00000000  0.99999000  0.00000000  1.0
  H  H1  1  0.21110000  0.13577000  0.90897000  1.0
  H  H2  1  0.78890000  0.86421000  0.09103000  1.0
  H  H3  1  0.30097000  0.31965000  0.90115000  1.0
  H  H4  1  0.69904000  0.68033000  0.09885000  1.0
  H  H5  1  0.20200000  0.45488000  0.98251000  1.0
  H  H6  1  0.79799000  0.54510000  0.01748000  1.0
  H  H7  1  0.96665000  0.21548000  0.08009000  1.0
  H  H8  1  0.03332000  0.78450000  0.91991000  1.0
  H  H9  1  0.18982000  0.54113000  0.09562000  1.0
  H  H10  1  0.81017000  0.45886000  0.90437000  1.0
  H  H11  1  0.78399000  0.31530000  0.08022000  1.0
  H  H12  1  0.21597000  0.68470000  0.91978000  1.0
  H  H13  1  0.00189000  0.73949000  0.19893000  1.0
  H  H14  1  0.99812000  0.26050000  0.80107000  1.0
  H  H15  1  0.13151000  0.73809000  0.08653000  1.0
  H  H16  1  0.86848000  0.26191000  0.91346000  1.0
  H  H17  1  0.29365000  0.69606000  0.12423000  1.0
  H  H18  1  0.70635000  0.30394000  0.87576000  1.0
  H  H19  1  0.24395000  0.81596000  0.15797000  1.0
  H  H20  1  0.75605000  0.18404000  0.84202000  1.0
  H  H21  1  0.11045000  0.65658000  0.29169000  1.0
  H  H22  1  0.88957000  0.34341000  0.70830000  1.0
  H  H23  1  0.24123000  0.76407000  0.27698000  1.0
  H  H24  1  0.75879000  0.23592000  0.72301000  1.0
  H  H25  1  0.27460000  0.63893000  0.24348000  1.0
  H  H26  1  0.72541000  0.36106000  0.75651000  1.0
  H  H27  1  0.59444000  0.45000000  0.21855000  1.0
  H  H28  1  0.40555000  0.55001000  0.78145000  1.0
  H  H29  1  0.52771000  0.56592000  0.13967000  1.0
  H  H30  1  0.47230000  0.43409000  0.86033000  1.0
  H  H31  1  0.37497000  0.46209000  0.13687000  1.0
  H  H32  1  0.62502000  0.53793000  0.86312000  1.0
  H  H33  1  0.50212000  0.46302000  0.06854000  1.0
  H  H34  1  0.49789000  0.53699000  0.93146000  1.0
  H  H35  1  0.43048000  0.29342000  0.16585000  1.0
  H  H36  1  0.56949000  0.70660000  0.83415000  1.0
  H  H37  1  0.62411000  0.26733000  0.17038000  1.0
  H  H38  1  0.37585000  0.73267000  0.82961000  1.0
  H  H39  1  0.53503000  0.28270000  0.09055000  1.0
  H  H40  1  0.46494000  0.71732000  0.90945000  1.0
  H  H41  1  0.88075000  0.49999000  0.29148000  1.0
  H  H42  1  0.11926000  0.50001000  0.70852000  1.0
  H  H43  1  0.72745000  0.51785000  0.34784000  1.0
  H  H44  1  0.27257000  0.48215000  0.65216000  1.0
  H  H45  1  0.90493000  0.59885000  0.36624000  1.0
  H  H46  1  0.09509000  0.40116000  0.63376000  1.0
  H  H47  1  0.62456000  0.76890000  0.22658000  1.0
  H  H48  1  0.37544000  0.23110000  0.77342000  1.0
  H  H49  1  0.51118000  0.91327000  0.29477000  1.0
  H  H50  1  0.48883000  0.08673000  0.70523000  1.0
  H  H51  1  0.52833000  0.93312000  0.42419000  1.0
  H  H52  1  0.47168000  0.06689000  0.57581000  1.0
  H  H53  1  0.74923000  0.75205000  0.58662000  1.0
  H  H54  1  0.25077000  0.24795000  0.41338000  1.0
  H  H55  1  0.86667000  0.74781000  0.51393000  1.0
  H  H56  1  0.13334000  0.25219000  0.48607000  1.0
  H  H57  1  0.69646000  0.65964000  0.50924000  1.0
  H  H58  1  0.30354000  0.34036000  0.49076000  1.0
  H  H59  1  0.84760000  0.04075000  0.74284000  1.0
  H  H60  1  0.15240000  0.95926000  0.25717000  1.0
  H  H61  1  0.39474000  0.86761000  0.74548000  1.0
  H  H62  1  0.60527000  0.13240000  0.25452000  1.0
  H  H63  1  0.90330000  0.95235000  0.56527000  1.0
  H  H64  1  0.09669000  0.04765000  0.43473000  1.0
  H  H65  1  0.71384000  0.05813000  0.52524000  1.0
  H  H66  1  0.28617000  0.94187000  0.47476000  1.0
  H  H67  1  0.90840000  0.12071000  0.52947000  1.0
  H  H68  1  0.09160000  0.87929000  0.47052000  1.0
  H  H69  1  0.78429000  0.15740000  0.59531000  1.0
  H  H70  1  0.21571000  0.84261000  0.40468000  1.0
  H  H71  1  0.10895000  0.08826000  0.61464000  1.0
  H  H72  1  0.89106000  0.91174000  0.38536000  1.0
  H  H73  1  0.05848000  0.01624000  0.68078000  1.0
  H  H74  1  0.94153000  0.98377000  0.31922000  1.0
  H  H75  1  0.99541000  0.13581000  0.68106000  1.0
  H  H76  1  0.00461000  0.86420000  0.31893000  1.0
  H  H77  1  0.36343000  0.78363000  0.55258000  1.0
  H  H78  1  0.63658000  0.21638000  0.44742000  1.0
  H  H79  1  0.20360000  0.91222000  0.60242000  1.0
  H  H80  1  0.79639000  0.08777000  0.39758000  1.0
  H  H81  1  0.17108000  0.84940000  0.67476000  1.0
  H  H82  1  0.82892000  0.15059000  0.32524000  1.0
  H  H83  1  0.09741000  0.78695000  0.59083000  1.0
  H  H84  1  0.90259000  0.21304000  0.40917000  1.0
  H  H85  1  0.23848000  0.63544000  0.60127000  1.0
  H  H86  1  0.76155000  0.36456000  0.39873000  1.0
  H  H87  1  0.31439000  0.69398000  0.68570000  1.0
  H  H88  1  0.68564000  0.30603000  0.31430000  1.0
  H  H89  1  0.44221000  0.65585000  0.62178000  1.0
  H  H90  1  0.55782000  0.34416000  0.37822000  1.0
  H  H91  1  0.40725000  0.04455000  0.83008000  1.0
  H  H92  1  0.59275000  0.95545000  0.16993000  1.0
  H  H93  1  0.44206000  0.11265000  0.95728000  1.0
  H  H94  1  0.55794000  0.88735000  0.04272000  1.0
  H  H95  1  0.68663000  0.09453000  0.02261000  1.0
  H  H96  1  0.31337000  0.90547000  0.97740000  1.0
  H  H97  1  0.85209000  0.94547000  0.84629000  1.0
  H  H98  1  0.14792000  0.05454000  0.15372000  1.0
  C  C99  1  0.18138000  0.19781000  0.94653000  1.0
  C  C100  1  0.81862000  0.80218000  0.05347000  1.0
  C  C101  1  0.22843000  0.29983000  0.94219000  1.0
  C  C102  1  0.77156000  0.70016000  0.05781000  1.0
  C  C103  1  0.17290000  0.37492000  0.98759000  1.0
  C  C104  1  0.82708000  0.62507000  0.01241000  1.0
  C  C105  1  0.07163000  0.34658000  0.03720000  1.0
  C  C106  1  0.92835000  0.65342000  0.96279000  1.0
  C  C107  1  0.03858000  0.24235000  0.04058000  1.0
  C  C108  1  0.96139000  0.75763000  0.95941000  1.0
  C  C109  1  0.99681000  0.41934000  0.08352000  1.0
  C  C110  1  0.00316000  0.58065000  0.91648000  1.0
  C  C111  1  0.07291000  0.51752000  0.11015000  1.0
  C  C112  1  0.92708000  0.48247000  0.88984000  1.0
  C  C113  1  0.00426000  0.58527000  0.15594000  1.0
  C  C114  1  0.99573000  0.41472000  0.84405000  1.0
  C  C115  1  0.85270000  0.55373000  0.17502000  1.0
  C  C116  1  0.14730000  0.44627000  0.82498000  1.0
  C  C117  1  0.77034000  0.45603000  0.14680000  1.0
  C  C118  1  0.22965000  0.54397000  0.85320000  1.0
  C  C119  1  0.84542000  0.39068000  0.10206000  1.0
  C  C120  1  0.15455000  0.60931000  0.89793000  1.0
  C  C121  1  0.09050000  0.69014000  0.18622000  1.0
  C  C122  1  0.90950000  0.30985000  0.81378000  1.0
  C  C123  1  0.19538000  0.73724000  0.13559000  1.0
  C  C124  1  0.80461000  0.26275000  0.86441000  1.0
  C  C125  1  0.18406000  0.68727000  0.25364000  1.0
  C  C126  1  0.81596000  0.31272000  0.74635000  1.0
  C  C127  1  0.60291000  0.42562000  0.16272000  1.0
  C  C128  1  0.39708000  0.57439000  0.83728000  1.0
  C  C129  1  0.49578000  0.48296000  0.12481000  1.0
  C  C130  1  0.50422000  0.51706000  0.87519000  1.0
  C  C131  1  0.54590000  0.31069000  0.14658000  1.0
  C  C132  1  0.45407000  0.68932000  0.85342000  1.0
  C  C133  1  0.82454000  0.55669000  0.32350000  1.0
  C  C134  1  0.17547000  0.44332000  0.67651000  1.0
  C  C135  1  0.76715000  0.62904000  0.28138000  1.0
  C  C136  1  0.23286000  0.37097000  0.71862000  1.0
  C  C137  1  0.69258000  0.71309000  0.31838000  1.0
  C  C138  1  0.30744000  0.28691000  0.68162000  1.0
  C  C139  1  0.62518000  0.77981000  0.28270000  1.0
  C  C140  1  0.37483000  0.22019000  0.71731000  1.0
  C  C141  1  0.56341000  0.85941000  0.32051000  1.0
  C  C142  1  0.43659000  0.14059000  0.67949000  1.0
  C  C143  1  0.57194000  0.87089000  0.39227000  1.0
  C  C144  1  0.42807000  0.12911000  0.60773000  1.0
  C  C145  1  0.64103000  0.80069000  0.42386000  1.0
  C  C146  1  0.35898000  0.19931000  0.57614000  1.0
  C  C147  1  0.74723000  0.73872000  0.53012000  1.0
  C  C148  1  0.25277000  0.26128000  0.46988000  1.0
  C  C149  1  0.65879000  0.81127000  0.50050000  1.0
  C  C150  1  0.34121000  0.18873000  0.49950000  1.0
  C  C151  1  0.61058000  0.90335000  0.60833000  1.0
  C  C152  1  0.38942000  0.09665000  0.39168000  1.0
  C  C153  1  0.74180000  0.96940000  0.64297000  1.0
  C  C154  1  0.25820000  0.03060000  0.35703000  1.0
  C  C155  1  0.74641000  0.99237000  0.71485000  1.0
  C  C156  1  0.25359000  0.00764000  0.28515000  1.0
  C  C157  1  0.62223000  0.95701000  0.75224000  1.0
  C  C158  1  0.37777000  0.04300000  0.24776000  1.0
  C  C159  1  0.49219000  0.89477000  0.71676000  1.0
  C  C160  1  0.50781000  0.10524000  0.28324000  1.0
  C  C161  1  0.48547000  0.86549000  0.64510000  1.0
  C  C162  1  0.51453000  0.13451000  0.35491000  1.0
  C  C163  1  0.87086000  0.01520000  0.60248000  1.0
  C  C164  1  0.12914000  0.98480000  0.39752000  1.0
  C  C165  1  0.81517000  0.09191000  0.56044000  1.0
  C  C166  1  0.18483000  0.90809000  0.43955000  1.0
  C  C167  1  0.01620000  0.06596000  0.64762000  1.0
  C  C168  1  0.98381000  0.93405000  0.35238000  1.0
  C  C169  1  0.34633000  0.79360000  0.60823000  1.0
  C  C170  1  0.65368000  0.20641000  0.39177000  1.0
  C  C171  1  0.19606000  0.83834000  0.61994000  1.0
  C  C172  1  0.80394000  0.16165000  0.38006000  1.0
  C  C173  1  0.33509000  0.68856000  0.63051000  1.0
  C  C174  1  0.66493000  0.31145000  0.36949000  1.0
  C  C175  1  0.62866000  0.99061000  0.82757000  1.0
  C  C176  1  0.37134000  0.00940000  0.17244000  1.0
  C  C177  1  0.51092000  0.03667000  0.86031000  1.0
  C  C178  1  0.48909000  0.96333000  0.13970000  1.0
  C  C179  1  0.53033000  0.07514000  0.93069000  1.0
  C  C180  1  0.46967000  0.92486000  0.06932000  1.0
  C  C181  1  0.66533000  0.06589000  0.96743000  1.0
  C  C182  1  0.33467000  0.93410000  0.03257000  1.0
  C  C183  1  0.75880000  0.98243000  0.86897000  1.0
  C  C184  1  0.24121000  0.01757000  0.13103000  1.0
  N  N185  1  0.09054000  0.17022000  0.99618000  1.0
  N  N186  1  0.90944000  0.82977000  0.00382000  1.0
  N  N187  1  0.78019000  0.62562000  0.21618000  1.0
  N  N188  1  0.21982000  0.37438000  0.78383000  1.0
  N  N189  1  0.69896000  0.72284000  0.38758000  1.0
  N  N190  1  0.30105000  0.27716000  0.61242000  1.0
  N  N191  1  0.59835000  0.88260000  0.53600000  1.0
  N  N192  1  0.40165000  0.11740000  0.46400000  1.0
  N  N193  1  0.77642000  0.01868000  0.93695000  1.0
  N  N194  1  0.22358000  0.98132000  0.06306000  1.0
  N  N195  1  0.14319000  0.92839000  0.83526000  1.0
  N  N196  1  0.85680000  0.07161000  0.16474000  1.0
  O  O197  1  0.14413000  0.94251000  0.90225000  1.0
  O  O198  1  0.85587000  0.05745000  0.09775000  1.0
  O  O199  1  0.14981000  0.84060000  0.80365000  1.0
  O  O200  1  0.85014000  0.15941000  0.19632000  1.0
  O  O201  1  0.13891000  0.00342000  0.80468000  1.0
  O  O202  1  0.86111000  0.99661000  0.19535000  1.0
