# generated using pymatgen
data_KCuPH14C16(OF)6
_symmetry_space_group_name_H-M   'P 1'
_cell_length_a   8.56293000
_cell_length_b   9.32506000
_cell_length_c   12.60160000
_cell_angle_alpha   91.11630000
_cell_angle_beta   107.04860000
_cell_angle_gamma   95.84730000
_symmetry_Int_Tables_number   1
_chemical_formula_structural   KCuPH14C16(OF)6
_chemical_formula_sum   'K2 Cu2 P2 H28 C32 O12 F12'
_cell_volume   955.72342612
_cell_formula_units_Z   2
loop_
 _symmetry_equiv_pos_site_id
 _symmetry_equiv_pos_as_xyz
  1  'x, y, z'
loop_
 _atom_site_type_symbol
 _atom_site_label
 _atom_site_symmetry_multiplicity
 _atom_site_fract_x
 _atom_site_fract_y
 _atom_site_fract_z
 _atom_site_occupancy
  K  K0  1  0.64965000  0.91926000  0.36120000  1.0
  K  K1  1  0.35034000  0.08076000  0.63880000  1.0
  Cu  Cu2  1  0.29213000  0.77444000  0.11754000  1.0
  Cu  Cu3  1  0.70787000  0.22555000  0.88247000  1.0
  P  P4  1  0.85508000  0.11859000  0.62209000  1.0
  P  P5  1  0.14492000  0.88140000  0.37790000  1.0
  H  H6  1  0.64658000  0.35081000  0.47211000  1.0
  H  H7  1  0.35342000  0.64920000  0.52790000  1.0
  H  H8  1  0.42222000  0.16300000  0.37329000  1.0
  H  H9  1  0.57777000  0.83701000  0.62672000  1.0
  H  H10  1  0.20428000  0.22282000  0.20609000  1.0
  H  H11  1  0.79571000  0.77719000  0.79392000  1.0
  H  H12  1  0.08545000  0.38223000  0.07707000  1.0
  H  H13  1  0.91455000  0.61777000  0.92295000  1.0
  H  H14  1  0.77635000  0.55624000  0.57351000  1.0
  H  H15  1  0.22365000  0.44378000  0.42650000  1.0
  H  H16  1  0.90020000  0.68864000  0.52205000  1.0
  H  H17  1  0.09980000  0.31138000  0.47795000  1.0
  H  H18  1  0.86902000  0.50400000  0.47028000  1.0
  H  H19  1  0.13099000  0.49601000  0.52973000  1.0
  H  H20  1  0.66876000  0.38183000  0.08922000  1.0
  H  H21  1  0.33125000  0.61817000  0.91077000  1.0
  H  H22  1  0.42930000  0.41634000  0.92795000  1.0
  H  H23  1  0.57070000  0.58365000  0.07204000  1.0
  H  H24  1  0.18768000  0.22865000  0.87174000  1.0
  H  H25  1  0.81232000  0.77134000  0.12827000  1.0
  H  H26  1  0.05946000  0.00942000  0.88655000  1.0
  H  H27  1  0.94053000  0.99057000  0.11346000  1.0
  H  H28  1  0.88491000  0.28073000  0.18088000  1.0
  H  H29  1  0.11508000  0.71925000  0.81911000  1.0
  H  H30  1  0.92340000  0.20949000  0.31609000  1.0
  H  H31  1  0.07661000  0.79051000  0.68390000  1.0
  H  H32  1  0.79809000  0.35532000  0.28103000  1.0
  H  H33  1  0.20193000  0.64468000  0.71896000  1.0
  C  C34  1  0.43033000  0.55923000  0.26997000  1.0
  C  C35  1  0.56968000  0.44077000  0.73003000  1.0
  C  C36  1  0.55596000  0.51874000  0.36440000  1.0
  C  C37  1  0.44405000  0.48126000  0.63560000  1.0
  C  C38  1  0.55159000  0.37887000  0.39950000  1.0
  C  C39  1  0.44841000  0.62113000  0.60051000  1.0
  C  C40  1  0.42417000  0.27134000  0.34299000  1.0
  C  C41  1  0.57583000  0.72867000  0.65702000  1.0
  C  C42  1  0.30288000  0.30464000  0.25123000  1.0
  C  C43  1  0.69712000  0.69536000  0.74878000  1.0
  C  C44  1  0.30371000  0.44766000  0.21328000  1.0
  C  C45  1  0.69628000  0.55235000  0.78673000  1.0
  C  C46  1  0.17639000  0.47442000  0.11723000  1.0
  C  C47  1  0.82361000  0.52558000  0.88278000  1.0
  C  C48  1  0.81297000  0.59094000  0.50057000  1.0
  C  C49  1  0.18703000  0.40908000  0.49944000  1.0
  C  C50  1  0.42889000  0.06504000  0.09619000  1.0
  C  C51  1  0.57111000  0.93496000  0.90382000  1.0
  C  C52  1  0.56580000  0.17675000  0.12607000  1.0
  C  C53  1  0.43420000  0.82325000  0.87393000  1.0
  C  C54  1  0.56338000  0.29951000  0.06603000  1.0
  C  C55  1  0.43663000  0.70048000  0.93397000  1.0
  C  C56  1  0.42597000  0.31999000  0.97469000  1.0
  C  C57  1  0.57403000  0.67999000  0.02530000  1.0
  C  C58  1  0.29318000  0.21637000  0.94332000  1.0
  C  C59  1  0.70682000  0.78362000  0.05668000  1.0
  C  C60  1  0.29283000  0.08743000  0.00200000  1.0
  C  C61  1  0.70716000  0.91256000  0.99801000  1.0
  C  C62  1  0.15632000  0.98105000  0.95984000  1.0
  C  C63  1  0.84367000  0.01895000  0.04017000  1.0
  C  C64  1  0.83319000  0.25634000  0.24953000  1.0
  C  C65  1  0.16682000  0.74365000  0.75046000  1.0
  O  O66  1  0.44062000  0.69272000  0.24175000  1.0
  O  O67  1  0.55938000  0.30728000  0.75825000  1.0
  O  O68  1  0.67511000  0.62880000  0.41387000  1.0
  O  O69  1  0.32490000  0.37120000  0.58613000  1.0
  O  O70  1  0.15354000  0.59308000  0.07072000  1.0
  O  O71  1  0.84646000  0.40693000  0.92929000  1.0
  O  O72  1  0.43759000  0.95235000  0.15574000  1.0
  O  O73  1  0.56241000  0.04766000  0.84426000  1.0
  O  O74  1  0.69385000  0.14813000  0.21441000  1.0
  O  O75  1  0.30615000  0.85188000  0.78559000  1.0
  O  O76  1  0.13323000  0.85651000  0.99511000  1.0
  O  O77  1  0.86677000  0.14349000  0.00490000  1.0
  F  F78  1  0.85522000  0.94705000  0.58943000  1.0
  F  F79  1  0.14479000  0.05295000  0.41054000  1.0
  F  F80  1  0.85318000  0.07739000  0.74719000  1.0
  F  F81  1  0.14682000  0.92260000  0.25280000  1.0
  F  F82  1  0.85390000  0.28832000  0.65268000  1.0
  F  F83  1  0.14610000  0.71167000  0.34731000  1.0
  F  F84  1  0.85451000  0.15677000  0.49513000  1.0
  F  F85  1  0.14548000  0.84323000  0.50485000  1.0
  F  F86  1  0.05668000  0.13806000  0.66303000  1.0
  F  F87  1  0.94331000  0.86193000  0.33695000  1.0
  F  F88  1  0.65184000  0.09611000  0.57913000  1.0
  F  F89  1  0.34816000  0.90388000  0.42086000  1.0
