# generated using pymatgen
data_ZnH12C6S2(NO)4
_symmetry_space_group_name_H-M   'P 1'
_cell_length_a   8.21745000
_cell_length_b   11.08840000
_cell_length_c   13.53500000
_cell_angle_alpha   90.00000000
_cell_angle_beta   90.00000000
_cell_angle_gamma   90.00000000
_symmetry_Int_Tables_number   1
_chemical_formula_structural   ZnH12C6S2(NO)4
_chemical_formula_sum   'Zn4 H48 C24 S8 N16 O16'
_cell_volume   1233.28717287
_cell_formula_units_Z   4
loop_
 _symmetry_equiv_pos_site_id
 _symmetry_equiv_pos_as_xyz
  1  'x, y, z'
loop_
 _atom_site_type_symbol
 _atom_site_label
 _atom_site_symmetry_multiplicity
 _atom_site_fract_x
 _atom_site_fract_y
 _atom_site_fract_z
 _atom_site_occupancy
  Zn  Zn0  1  0.24174000  0.08157000  0.16516000  1.0
  Zn  Zn1  1  0.25826000  0.91844000  0.66516000  1.0
  Zn  Zn2  1  0.74174000  0.41843000  0.83483000  1.0
  Zn  Zn3  1  0.75826000  0.58157000  0.33483000  1.0
  H  H4  1  0.78520000  0.19552000  0.29582000  1.0
  H  H5  1  0.71480000  0.80448000  0.79582000  1.0
  H  H6  1  0.28520000  0.30449000  0.70418000  1.0
  H  H7  1  0.21480000  0.69552000  0.20418000  1.0
  H  H8  1  0.99657000  0.18313000  0.28403000  1.0
  H  H9  1  0.50344000  0.81687000  0.78403000  1.0
  H  H10  1  0.49656000  0.31687000  0.71597000  1.0
  H  H11  1  0.00344000  0.68313000  0.21597000  1.0
  H  H12  1  0.62142000  0.01518000  0.26194000  1.0
  H  H13  1  0.87858000  0.98482000  0.76194000  1.0
  H  H14  1  0.12142000  0.48482000  0.73806000  1.0
  H  H15  1  0.37858000  0.51518000  0.23806000  1.0
  H  H16  1  0.72860000  0.88835000  0.21524000  1.0
  H  H17  1  0.77140000  0.11165000  0.71525000  1.0
  H  H18  1  0.22860000  0.61166000  0.78476000  1.0
  H  H19  1  0.27140000  0.38835000  0.28476000  1.0
  H  H20  1  0.24583000  0.09881000  0.84756000  1.0
  H  H21  1  0.25417000  0.90119000  0.34756000  1.0
  H  H22  1  0.74583000  0.40119000  0.15244000  1.0
  H  H23  1  0.75417000  0.59881000  0.65244000  1.0
  H  H24  1  0.30672000  0.05842000  0.96679000  1.0
  H  H25  1  0.19328000  0.94158000  0.46679000  1.0
  H  H26  1  0.80672000  0.44158000  0.03321000  1.0
  H  H27  1  0.69328000  0.55842000  0.53321000  1.0
  H  H28  1  0.08909000  0.26782000  0.82125000  1.0
  H  H29  1  0.41091000  0.73218000  0.32125000  1.0
  H  H30  1  0.58909000  0.23218000  0.17875000  1.0
  H  H31  1  0.91091000  0.76782000  0.67875000  1.0
  H  H32  1  0.04956000  0.36702000  0.91856000  1.0
  H  H33  1  0.45044000  0.63298000  0.41856000  1.0
  H  H34  1  0.54956000  0.13298000  0.08144000  1.0
  H  H35  1  0.95044000  0.86702000  0.58144000  1.0
  H  H36  1  0.57602000  0.11936000  0.42785000  1.0
  H  H37  1  0.92397000  0.88063000  0.92784000  1.0
  H  H38  1  0.07602000  0.38063000  0.57215000  1.0
  H  H39  1  0.42397000  0.61936000  0.07215000  1.0
  H  H40  1  0.39112000  0.11757000  0.49314000  1.0
  H  H41  1  0.10888000  0.88243000  0.99314000  1.0
  H  H42  1  0.89112000  0.38243000  0.50686000  1.0
  H  H43  1  0.60888000  0.61757000  0.00686000  1.0
  H  H44  1  0.37056000  0.34269000  0.48460000  1.0
  H  H45  1  0.12944000  0.65731000  0.98461000  1.0
  H  H46  1  0.87055000  0.15731000  0.51539000  1.0
  H  H47  1  0.62944000  0.84269000  0.01540000  1.0
  H  H48  1  0.55295000  0.29683000  0.54218000  1.0
  H  H49  1  0.94705000  0.70317000  0.04218000  1.0
  H  H50  1  0.05295000  0.20317000  0.45782000  1.0
  H  H51  1  0.44705000  0.79683000  0.95782000  1.0
  C  C52  1  0.87267000  0.03093000  0.24560000  1.0
  C  C53  1  0.62733000  0.96907000  0.74560000  1.0
  C  C54  1  0.37267000  0.46907000  0.75440000  1.0
  C  C55  1  0.12733000  0.53093000  0.25441000  1.0
  C  C56  1  0.17465000  0.21459000  0.95694000  1.0
  C  C57  1  0.32535000  0.78541000  0.45694000  1.0
  C  C58  1  0.67465000  0.28541000  0.04306000  1.0
  C  C59  1  0.82535000  0.71459000  0.54306000  1.0
  C  C60  1  0.36423000  0.16142000  0.34131000  1.0
  C  C61  1  0.13577000  0.83858000  0.84131000  1.0
  C  C62  1  0.86423000  0.33858000  0.65869000  1.0
  C  C63  1  0.63577000  0.66142000  0.15869000  1.0
  C  C64  1  0.46011000  0.16735000  0.43664000  1.0
  C  C65  1  0.03989000  0.83265000  0.93664000  1.0
  C  C66  1  0.96011000  0.33265000  0.56336000  1.0
  C  C67  1  0.53989000  0.66735000  0.06336000  1.0
  C  C68  1  0.58309000  0.37114000  0.39838000  1.0
  C  C69  1  0.91691000  0.62885000  0.89838000  1.0
  C  C70  1  0.08309000  0.12885000  0.60162000  1.0
  C  C71  1  0.41691000  0.87114000  0.10162000  1.0
  C  C72  1  0.48696000  0.29628000  0.47147000  1.0
  C  C73  1  0.01304000  0.70372000  0.97147000  1.0
  C  C74  1  0.98695000  0.20372000  0.52853000  1.0
  C  C75  1  0.51304000  0.79628000  0.02853000  1.0
  S  S76  1  0.04232000  0.94822000  0.21174000  1.0
  S  S77  1  0.45768000  0.05178000  0.71174000  1.0
  S  S78  1  0.54232000  0.55178000  0.78826000  1.0
  S  S79  1  0.95768000  0.44822000  0.28826000  1.0
  S  S80  1  0.17780000  0.25541000  0.07990000  1.0
  S  S81  1  0.32220000  0.74458000  0.57990000  1.0
  S  S82  1  0.67780000  0.24459000  0.92010000  1.0
  S  S83  1  0.82220000  0.75542000  0.42010000  1.0
  N  N84  1  0.88462000  0.14408000  0.27795000  1.0
  N  N85  1  0.61539000  0.85592000  0.77795000  1.0
  N  N86  1  0.38461000  0.35593000  0.72205000  1.0
  N  N87  1  0.11539000  0.64408000  0.22206000  1.0
  N  N88  1  0.72910000  0.97551000  0.24024000  1.0
  N  N89  1  0.77090000  0.02449000  0.74025000  1.0
  N  N90  1  0.22909000  0.52449000  0.75976000  1.0
  N  N91  1  0.27090000  0.47551000  0.25976000  1.0
  N  N92  1  0.23751000  0.11237000  0.92201000  1.0
  N  N93  1  0.26249000  0.88763000  0.42201000  1.0
  N  N94  1  0.73751000  0.38763000  0.07799000  1.0
  N  N95  1  0.76249000  0.61237000  0.57799000  1.0
  N  N96  1  0.10601000  0.29149000  0.89327000  1.0
  N  N97  1  0.39399000  0.70851000  0.39327000  1.0
  N  N98  1  0.60601000  0.20851000  0.10673000  1.0
  N  N99  1  0.89399000  0.79149000  0.60673000  1.0
  O  O100  1  0.41521000  0.08888000  0.27323000  1.0
  O  O101  1  0.08479000  0.91112000  0.77323000  1.0
  O  O102  1  0.91522000  0.41112000  0.72677000  1.0
  O  O103  1  0.58478000  0.58888000  0.22678000  1.0
  O  O104  1  0.23704000  0.22405000  0.33069000  1.0
  O  O105  1  0.26296000  0.77595000  0.83069000  1.0
  O  O106  1  0.73704000  0.27595000  0.66931000  1.0
  O  O107  1  0.76296000  0.72404000  0.16931000  1.0
  O  O108  1  0.60983000  0.48226000  0.42477000  1.0
  O  O109  1  0.89017000  0.51774000  0.92477000  1.0
  O  O110  1  0.10983000  0.01773000  0.57523000  1.0
  O  O111  1  0.39017000  0.98227000  0.07523000  1.0
  O  O112  1  0.63266000  0.32682000  0.31832000  1.0
  O  O113  1  0.86734000  0.67318000  0.81832000  1.0
  O  O114  1  0.13266000  0.17317000  0.68167000  1.0
  O  O115  1  0.36734000  0.82682000  0.18167000  1.0
