# generated using pymatgen
data_GdH7C2SO8
_symmetry_space_group_name_H-M   'P 1'
_cell_length_a   6.70465000
_cell_length_b   6.84220000
_cell_length_c   8.58194000
_cell_angle_alpha   68.20700000
_cell_angle_beta   89.69240000
_cell_angle_gamma   72.65200000
_symmetry_Int_Tables_number   1
_chemical_formula_structural   GdH7C2SO8
_chemical_formula_sum   'Gd2 H14 C4 S2 O16'
_cell_volume   346.45445107
_cell_formula_units_Z   2
loop_
 _symmetry_equiv_pos_site_id
 _symmetry_equiv_pos_as_xyz
  1  'x, y, z'
loop_
 _atom_site_type_symbol
 _atom_site_label
 _atom_site_symmetry_multiplicity
 _atom_site_fract_x
 _atom_site_fract_y
 _atom_site_fract_z
 _atom_site_occupancy
  Gd  Gd0  1  0.88069000  0.35423000  0.86636000  1.0
  Gd  Gd1  1  0.11931000  0.64577000  0.13364000  1.0
  H  H2  1  0.88397000  0.20319000  0.57370000  1.0
  H  H3  1  0.11603000  0.79681000  0.42630000  1.0
  H  H4  1  0.07430000  0.01946000  0.71377000  1.0
  H  H5  1  0.92570000  0.98054000  0.28623000  1.0
  H  H6  1  0.82484000  0.68529000  0.49359000  1.0
  H  H7  1  0.17516000  0.31471000  0.50642000  1.0
  H  H8  1  0.59417000  0.68536000  0.55214000  1.0
  H  H9  1  0.40583000  0.31464000  0.44786000  1.0
  H  H10  1  0.54561000  0.94830000  0.66550000  1.0
  H  H11  1  0.45439000  0.05171000  0.33450000  1.0
  H  H12  1  0.41274000  0.97234000  0.83948000  1.0
  H  H13  1  0.58726000  0.02766000  0.16051000  1.0
  H  H14  1  0.51464000  0.18664000  0.71988000  1.0
  H  H15  1  0.48536000  0.81336000  0.28012000  1.0
  C  C16  1  0.73838000  0.88476000  0.88528000  1.0
  C  C17  1  0.26162000  0.11523000  0.11472000  1.0
  C  C18  1  0.54201000  0.00835000  0.76730000  1.0
  C  C19  1  0.45799000  0.99165000  0.23270000  1.0
  S  S20  1  0.70010000  0.39789000  0.25340000  1.0
  S  S21  1  0.29990000  0.60211000  0.74660000  1.0
  O  O22  1  0.78948000  0.25737000  0.15485000  1.0
  O  O23  1  0.21053000  0.74262000  0.84514000  1.0
  O  O24  1  0.83950000  0.52624000  0.26267000  1.0
  O  O25  1  0.16051000  0.47377000  0.73733000  1.0
  O  O26  1  0.68433000  0.24924000  0.42778000  1.0
  O  O27  1  0.31567000  0.75075000  0.57223000  1.0
  O  O28  1  0.48807000  0.55190000  0.16936000  1.0
  O  O29  1  0.51192000  0.44810000  0.83063000  1.0
  O  O30  1  0.82858000  0.67870000  0.91955000  1.0
  O  O31  1  0.17142000  0.32130000  0.08045000  1.0
  O  O32  1  0.82028000  0.97932000  0.96009000  1.0
  O  O33  1  0.17972000  0.02068000  0.03991000  1.0
  O  O34  1  0.99826000  0.18160000  0.65895000  1.0
  O  O35  1  0.00174000  0.81841000  0.34105000  1.0
  O  O36  1  0.74717000  0.62658000  0.58858000  1.0
  O  O37  1  0.25283000  0.37342000  0.41142000  1.0
