# generated using pymatgen
data_Cu2SiH16(C7O2)4
_symmetry_space_group_name_H-M   'P 1'
_cell_length_a   12.44690000
_cell_length_b   12.44690000
_cell_length_c   24.38920000
_cell_angle_alpha   90.00010000
_cell_angle_beta   90.00000000
_cell_angle_gamma   90.00000000
_symmetry_Int_Tables_number   1
_chemical_formula_structural   Cu2SiH16(C7O2)4
_chemical_formula_sum   'Cu4 Si2 H32 C56 O16'
_cell_volume   3778.50460503
_cell_formula_units_Z   2
loop_
 _symmetry_equiv_pos_site_id
 _symmetry_equiv_pos_as_xyz
  1  'x, y, z'
loop_
 _atom_site_type_symbol
 _atom_site_label
 _atom_site_symmetry_multiplicity
 _atom_site_fract_x
 _atom_site_fract_y
 _atom_site_fract_z
 _atom_site_occupancy
  Cu  Cu0  1  0.90147000  0.50000000  0.00000000  1.0
  Cu  Cu1  1  0.09854000  0.50000000  0.00000000  1.0
  Cu  Cu2  1  0.50000000  0.90147000  0.50000000  1.0
  Cu  Cu3  1  0.50000000  0.09852000  0.50000000  1.0
  Si  Si4  1  0.00000000  0.00000000  0.75000000  1.0
  Si  Si5  1  0.00000000  0.00000000  0.25000000  1.0
  H  H6  1  0.82644000  0.87043000  0.80261000  1.0
  H  H7  1  0.82739000  0.73207000  0.87599000  1.0
  H  H8  1  0.17356000  0.12957000  0.80261000  1.0
  H  H9  1  0.17261000  0.26794000  0.87599000  1.0
  H  H10  1  0.12957000  0.82644000  0.30261000  1.0
  H  H11  1  0.26793000  0.82739000  0.37598000  1.0
  H  H12  1  0.87043000  0.17356000  0.30261000  1.0
  H  H13  1  0.73207000  0.17261000  0.37598000  1.0
  H  H14  1  0.17356000  0.87043000  0.19739000  1.0
  H  H15  1  0.17261000  0.73207000  0.12401000  1.0
  H  H16  1  0.82644000  0.12957000  0.19739000  1.0
  H  H17  1  0.82739000  0.26794000  0.12402000  1.0
  H  H18  1  0.87044000  0.82644000  0.69739000  1.0
  H  H19  1  0.73207000  0.82739000  0.62402000  1.0
  H  H20  1  0.12956000  0.17357000  0.69739000  1.0
  H  H21  1  0.26793000  0.17261000  0.62402000  1.0
  H  H22  1  0.17356000  0.12957000  0.19739000  1.0
  H  H23  1  0.17261000  0.26794000  0.12401000  1.0
  H  H24  1  0.82644000  0.87043000  0.19739000  1.0
  H  H25  1  0.82739000  0.73207000  0.12401000  1.0
  H  H26  1  0.87044000  0.17356000  0.69739000  1.0
  H  H27  1  0.73207000  0.17261000  0.62402000  1.0
  H  H28  1  0.12956000  0.82644000  0.69739000  1.0
  H  H29  1  0.26793000  0.82739000  0.62402000  1.0
  H  H30  1  0.82644000  0.12957000  0.80261000  1.0
  H  H31  1  0.82739000  0.26794000  0.87598000  1.0
  H  H32  1  0.17356000  0.87043000  0.80261000  1.0
  H  H33  1  0.17261000  0.73207000  0.87599000  1.0
  H  H34  1  0.12957000  0.17357000  0.30261000  1.0
  H  H35  1  0.26793000  0.17261000  0.37598000  1.0
  H  H36  1  0.87044000  0.82644000  0.30261000  1.0
  H  H37  1  0.73207000  0.82739000  0.37598000  1.0
  C  C38  1  0.90298000  0.84005000  0.81806000  1.0
  C  C39  1  0.90257000  0.76270000  0.85933000  1.0
  C  C40  1  0.09702000  0.15995000  0.81806000  1.0
  C  C41  1  0.09742000  0.23731000  0.85933000  1.0
  C  C42  1  0.15994000  0.90298000  0.31806000  1.0
  C  C43  1  0.23730000  0.90258000  0.35933000  1.0
  C  C44  1  0.84006000  0.09701000  0.31807000  1.0
  C  C45  1  0.76269000  0.09742000  0.35933000  1.0
  C  C46  1  0.09702000  0.84005000  0.18194000  1.0
  C  C47  1  0.09742000  0.76270000  0.14067000  1.0
  C  C48  1  0.90298000  0.15995000  0.18194000  1.0
  C  C49  1  0.90258000  0.23731000  0.14067000  1.0
  C  C50  1  0.84006000  0.90299000  0.68194000  1.0
  C  C51  1  0.76270000  0.90258000  0.64067000  1.0
  C  C52  1  0.15994000  0.09702000  0.68193000  1.0
  C  C53  1  0.23730000  0.09742000  0.64067000  1.0
  C  C54  1  0.09702000  0.15995000  0.18194000  1.0
  C  C55  1  0.09742000  0.23731000  0.14067000  1.0
  C  C56  1  0.90298000  0.84005000  0.18194000  1.0
  C  C57  1  0.90258000  0.76269000  0.14067000  1.0
  C  C58  1  0.84006000  0.09702000  0.68193000  1.0
  C  C59  1  0.76270000  0.09742000  0.64067000  1.0
  C  C60  1  0.15994000  0.90299000  0.68194000  1.0
  C  C61  1  0.23730000  0.90258000  0.64067000  1.0
  C  C62  1  0.90298000  0.15995000  0.81806000  1.0
  C  C63  1  0.90258000  0.23731000  0.85933000  1.0
  C  C64  1  0.09702000  0.84005000  0.81806000  1.0
  C  C65  1  0.09742000  0.76269000  0.85933000  1.0
  C  C66  1  0.15994000  0.09701000  0.31807000  1.0
  C  C67  1  0.23731000  0.09742000  0.35933000  1.0
  C  C68  1  0.84006000  0.90298000  0.31806000  1.0
  C  C69  1  0.76270000  0.90258000  0.35933000  1.0
  C  C70  1  0.00000000  0.88043000  0.79685000  1.0
  C  C71  1  0.00000000  0.72408000  0.88039000  1.0
  C  C72  1  0.00000000  0.64263000  0.92538000  1.0
  C  C73  1  0.00000000  0.11957000  0.79685000  1.0
  C  C74  1  0.00000000  0.27592000  0.88039000  1.0
  C  C75  1  0.00000000  0.35737000  0.92538000  1.0
  C  C76  1  0.11956000  0.00000000  0.29685000  1.0
  C  C77  1  0.27592000  0.00000000  0.38039000  1.0
  C  C78  1  0.35738000  0.99999000  0.42538000  1.0
  C  C79  1  0.88044000  0.00000000  0.29685000  1.0
  C  C80  1  0.72408000  0.00000000  0.38039000  1.0
  C  C81  1  0.64262000  0.99999000  0.42538000  1.0
  C  C82  1  0.00000000  0.88043000  0.20315000  1.0
  C  C83  1  0.00000000  0.72408000  0.11961000  1.0
  C  C84  1  0.00000000  0.64263000  0.07462000  1.0
  C  C85  1  0.00000000  0.11957000  0.20315000  1.0
  C  C86  1  0.00000000  0.27592000  0.11961000  1.0
  C  C87  1  0.00000000  0.35737000  0.07462000  1.0
  C  C88  1  0.88044000  0.00000000  0.70315000  1.0
  C  C89  1  0.72408000  0.00000000  0.61961000  1.0
  C  C90  1  0.64262000  0.99999000  0.57462000  1.0
  C  C91  1  0.11956000  0.00000000  0.70315000  1.0
  C  C92  1  0.27592000  0.00000000  0.61961000  1.0
  C  C93  1  0.35738000  0.99999000  0.57462000  1.0
  O  O94  1  0.90831000  0.61100000  0.94277000  1.0
  O  O95  1  0.09169000  0.38901000  0.94278000  1.0
  O  O96  1  0.38901000  0.90831000  0.44277000  1.0
  O  O97  1  0.61098000  0.09168000  0.44278000  1.0
  O  O98  1  0.09169000  0.61099000  0.05722000  1.0
  O  O99  1  0.90831000  0.38901000  0.05722000  1.0
  O  O100  1  0.61099000  0.90831000  0.55723000  1.0
  O  O101  1  0.38901000  0.09168000  0.55722000  1.0
  O  O102  1  0.09169000  0.38901000  0.05722000  1.0
  O  O103  1  0.90832000  0.61100000  0.05722000  1.0
  O  O104  1  0.61099000  0.09168000  0.55722000  1.0
  O  O105  1  0.38901000  0.90831000  0.55723000  1.0
  O  O106  1  0.90831000  0.38901000  0.94278000  1.0
  O  O107  1  0.09169000  0.61099000  0.94278000  1.0
  O  O108  1  0.38902000  0.09168000  0.44278000  1.0
  O  O109  1  0.61099000  0.90831000  0.44277000  1.0
