# generated using pymatgen
data_AgH12C12N3O2
_symmetry_space_group_name_H-M   'P 1'
_cell_length_a   10.69080000
_cell_length_b   11.03890000
_cell_length_c   12.47500000
_cell_angle_alpha   114.96300000
_cell_angle_beta   109.49000000
_cell_angle_gamma   91.81100000
_symmetry_Int_Tables_number   1
_chemical_formula_structural   AgH12C12N3O2
_chemical_formula_sum   'Ag4 H48 C48 N12 O8'
_cell_volume   1232.35005309
_cell_formula_units_Z   4
loop_
 _symmetry_equiv_pos_site_id
 _symmetry_equiv_pos_as_xyz
  1  'x, y, z'
loop_
 _atom_site_type_symbol
 _atom_site_label
 _atom_site_symmetry_multiplicity
 _atom_site_fract_x
 _atom_site_fract_y
 _atom_site_fract_z
 _atom_site_occupancy
  Ag  Ag0  1  0.33842000  0.63908000  0.21375000  1.0
  Ag  Ag1  1  0.66158000  0.36093000  0.78625000  1.0
  Ag  Ag2  1  0.60939000  0.46766000  0.31279000  1.0
  Ag  Ag3  1  0.39061000  0.53234000  0.68721000  1.0
  H  H4  1  0.95659000  0.38000000  0.25714000  1.0
  H  H5  1  0.04340000  0.62000000  0.74286000  1.0
  H  H6  1  0.06524000  0.60259000  0.13823000  1.0
  H  H7  1  0.93476000  0.39742000  0.86177000  1.0
  H  H8  1  0.92998000  0.47628000  0.10658000  1.0
  H  H9  1  0.07002000  0.52373000  0.89342000  1.0
  H  H10  1  0.06966000  0.42744000  0.06195000  1.0
  H  H11  1  0.93034000  0.57256000  0.93805000  1.0
  H  H12  1  0.11729000  0.41959000  0.57879000  1.0
  H  H13  1  0.88271000  0.58041000  0.42122000  1.0
  H  H14  1  0.14532000  0.27157000  0.46627000  1.0
  H  H15  1  0.85468000  0.72843000  0.53373000  1.0
  H  H16  1  0.98385000  0.31648000  0.42621000  1.0
  H  H17  1  0.01615000  0.68352000  0.57379000  1.0
  H  H18  1  0.66229000  0.00694000  0.96740000  1.0
  H  H19  1  0.33771000  0.99306000  0.03260000  1.0
  H  H20  1  0.57140000  0.07241000  0.69652000  1.0
  H  H21  1  0.42860000  0.92759000  0.30349000  1.0
  H  H22  1  0.64304000  0.95826000  0.75603000  1.0
  H  H23  1  0.35696000  0.04174000  0.24397000  1.0
  H  H24  1  0.74873000  0.09057000  0.76140000  1.0
  H  H25  1  0.25127000  0.90943000  0.23860000  1.0
  H  H26  1  0.73979000  0.23947000  0.30354000  1.0
  H  H27  1  0.26021000  0.76054000  0.69646000  1.0
  H  H28  1  0.69164000  0.06359000  0.18610000  1.0
  H  H29  1  0.30836000  0.93642000  0.81390000  1.0
  H  H30  1  0.56690000  0.16242000  0.21658000  1.0
  H  H31  1  0.43310000  0.83758000  0.78342000  1.0
  H  H32  1  0.68574000  0.06256000  0.54133000  1.0
  H  H33  1  0.31426000  0.93744000  0.45867000  1.0
  H  H34  1  0.91050000  0.22074000  0.64739000  1.0
  H  H35  1  0.08950000  0.77925000  0.35261000  1.0
  H  H36  1  0.84671000  0.74027000  0.32100000  1.0
  H  H37  1  0.15329000  0.25973000  0.67900000  1.0
  H  H38  1  0.19730000  0.18160000  0.23684000  1.0
  H  H39  1  0.80271000  0.81840000  0.76316000  1.0
  H  H40  1  0.03213000  0.01626000  0.23746000  1.0
  H  H41  1  0.96787000  0.98374000  0.76254000  1.0
  H  H42  1  0.16492000  0.17881000  0.88345000  1.0
  H  H43  1  0.83507000  0.82119000  0.11655000  1.0
  H  H44  1  0.47731000  0.72113000  0.47318000  1.0
  H  H45  1  0.52269000  0.27887000  0.52682000  1.0
  H  H46  1  0.50149000  0.66384000  0.59111000  1.0
  H  H47  1  0.49851000  0.33616000  0.40889000  1.0
  H  H48  1  0.66870000  0.54630000  0.01442000  1.0
  H  H49  1  0.33130000  0.45370000  0.98558000  1.0
  H  H50  1  0.65772000  0.57584000  0.16069000  1.0
  H  H51  1  0.34228000  0.42416000  0.83931000  1.0
  C  C52  1  0.31883000  0.58227000  0.43890000  1.0
  C  C53  1  0.68117000  0.41773000  0.56110000  1.0
  C  C54  1  0.11692000  0.50798000  0.26085000  1.0
  C  C55  1  0.88308000  0.49202000  0.73915000  1.0
  C  C56  1  0.06043000  0.43748000  0.30904000  1.0
  C  C57  1  0.93957000  0.56252000  0.69096000  1.0
  C  C58  1  0.14241000  0.43862000  0.42297000  1.0
  C  C59  1  0.85759000  0.56138000  0.57703000  1.0
  C  C60  1  0.03956000  0.50364000  0.13516000  1.0
  C  C61  1  0.96044000  0.49636000  0.86484000  1.0
  C  C62  1  0.09311000  0.35748000  0.47590000  1.0
  C  C63  1  0.90689000  0.64252000  0.52410000  1.0
  C  C64  1  0.66666667  0.37956000  0.04879000  1.0
  C  C65  1  0.33333333  0.62044000  0.95121000  1.0
  C  C66  1  0.66050000  0.15927000  0.90161000  1.0
  C  C67  1  0.33950000  0.84073000  0.09839000  1.0
  C  C68  1  0.66182000  0.11338000  0.99033000  1.0
  C  C69  1  0.33818000  0.88662000  0.00967000  1.0
  C  C70  1  0.66464000  0.20713000  0.10925000  1.0
  C  C71  1  0.33536000  0.79287000  0.89076000  1.0
  C  C72  1  0.65486000  0.06405000  0.77190000  1.0
  C  C73  1  0.34514000  0.93594000  0.22810000  1.0
  C  C74  1  0.66645000  0.16470000  0.20890000  1.0
  C  C75  1  0.33355000  0.83530000  0.79111000  1.0
  C  C76  1  0.62516000  0.79372000  0.37784000  1.0
  C  C77  1  0.37484000  0.20628000  0.62216000  1.0
  C  C78  1  0.75516000  0.89125000  0.42723000  1.0
  C  C79  1  0.24484000  0.10874000  0.57277000  1.0
  C  C80  1  0.77245000  0.02878000  0.51861000  1.0
  C  C81  1  0.22755000  0.97122000  0.48139000  1.0
  C  C82  1  0.89666000  0.11521000  0.57708000  1.0
  C  C83  1  0.10335000  0.88479000  0.42292000  1.0
  C  C84  1  0.99072000  0.93125000  0.45210000  1.0
  C  C85  1  0.00928000  0.06875000  0.54790000  1.0
  C  C86  1  0.86146000  0.84559000  0.39230000  1.0
  C  C87  1  0.13854000  0.15441000  0.60770000  1.0
  C  C88  1  0.31743000  0.30302000  0.13940000  1.0
  C  C89  1  0.68257000  0.69698000  0.86060000  1.0
  C  C90  1  0.19333000  0.19033000  0.06792000  1.0
  C  C91  1  0.80667000  0.80967000  0.93208000  1.0
  C  C92  1  0.14542000  0.13807000  0.13330000  1.0
  C  C93  1  0.85459000  0.86193000  0.86670000  1.0
  C  C94  1  0.03235000  0.02898000  0.06844000  1.0
  C  C95  1  0.96766000  0.97102000  0.93156000  1.0
  C  C96  1  0.98229000  0.97288000  0.13356000  1.0
  C  C97  1  0.01771000  0.02712000  0.86644000  1.0
  C  C98  1  0.12664000  0.13511000  0.93295000  1.0
  C  C99  1  0.87336000  0.86489000  0.06705000  1.0
  N  N100  1  0.44308000  0.65923000  0.50514000  1.0
  N  N101  1  0.55692000  0.34077000  0.49486000  1.0
  N  N102  1  0.24554000  0.57881000  0.32406000  1.0
  N  N103  1  0.75446000  0.42119000  0.67594000  1.0
  N  N104  1  0.27028000  0.51108000  0.48835000  1.0
  N  N105  1  0.72972000  0.48892000  0.51165000  1.0
  N  N106  1  0.67423000  0.51212000  0.08034000  1.0
  N  N107  1  0.32577000  0.48788000  0.91967000  1.0
  N  N108  1  0.66512000  0.29243000  0.93114000  1.0
  N  N109  1  0.33488000  0.70757000  0.06886000  1.0
  N  N110  1  0.66491000  0.33915000  0.13771000  1.0
  N  N111  1  0.33509000  0.66085000  0.86229000  1.0
  O  O112  1  0.60629000  0.67360000  0.28666000  1.0
  O  O113  1  0.39371000  0.32641000  0.71334000  1.0
  O  O114  1  0.54139000  0.83443000  0.43063000  1.0
  O  O115  1  0.45861000  0.16557000  0.56937000  1.0
  O  O116  1  0.33661000  0.37443000  0.08690000  1.0
  O  O117  1  0.66338000  0.62557000  0.91309000  1.0
  O  O118  1  0.39621000  0.31840000  0.24894000  1.0
  O  O119  1  0.60379000  0.68160000  0.75105000  1.0
