# generated using pymatgen
data_SmH16C18N3O8
_symmetry_space_group_name_H-M   'P 1'
_cell_length_a   9.45552000
_cell_length_b   10.51480000
_cell_length_c   10.51490000
_cell_angle_alpha   83.47020000
_cell_angle_beta   84.62370000
_cell_angle_gamma   84.62360000
_symmetry_Int_Tables_number   1
_chemical_formula_structural   SmH16C18N3O8
_chemical_formula_sum   'Sm2 H32 C36 N6 O16'
_cell_volume   1030.42016820
_cell_formula_units_Z   2
loop_
 _symmetry_equiv_pos_site_id
 _symmetry_equiv_pos_as_xyz
  1  'x, y, z'
loop_
 _atom_site_type_symbol
 _atom_site_label
 _atom_site_symmetry_multiplicity
 _atom_site_fract_x
 _atom_site_fract_y
 _atom_site_fract_z
 _atom_site_occupancy
  Sm  Sm0  1  0.25000000  0.97586000  0.02415000  1.0
  Sm  Sm1  1  0.75000000  0.02414000  0.97586000  1.0
  H  H2  1  0.02363000  0.79361000  0.11326000  1.0
  H  H3  1  0.47637000  0.88674000  0.20639000  1.0
  H  H4  1  0.97637000  0.20639000  0.88674000  1.0
  H  H5  1  0.52363000  0.11326000  0.79362000  1.0
  H  H6  1  0.17505000  0.71595000  0.15251000  1.0
  H  H7  1  0.32495000  0.84749000  0.28405000  1.0
  H  H8  1  0.82495000  0.28405000  0.84750000  1.0
  H  H9  1  0.67505000  0.15251000  0.71595000  1.0
  H  H10  1  0.95713000  0.19786000  0.63348000  1.0
  H  H11  1  0.54287000  0.36652000  0.80215000  1.0
  H  H12  1  0.04287000  0.80214000  0.36652000  1.0
  H  H13  1  0.45712000  0.63348000  0.19786000  1.0
  H  H14  1  0.09623000  0.15923000  0.42167000  1.0
  H  H15  1  0.40377000  0.57834000  0.84077000  1.0
  H  H16  1  0.90377000  0.84078000  0.57834000  1.0
  H  H17  1  0.59623000  0.42166000  0.15923000  1.0
  H  H18  1  0.69962000  0.09638000  0.27788000  1.0
  H  H19  1  0.80039000  0.72212000  0.90363000  1.0
  H  H20  1  0.30039000  0.90362000  0.72212000  1.0
  H  H21  1  0.19961000  0.27788000  0.09637000  1.0
  H  H22  1  0.57903000  0.13318000  0.49479000  1.0
  H  H23  1  0.92097000  0.50520000  0.86683000  1.0
  H  H24  1  0.42098000  0.86682000  0.50520000  1.0
  H  H25  1  0.07903000  0.49479000  0.13318000  1.0
  H  H26  1  0.35501000  0.36021000  0.39234000  1.0
  H  H27  1  0.14498000  0.60766000  0.63979000  1.0
  H  H28  1  0.64498000  0.63979000  0.60766000  1.0
  H  H29  1  0.85502000  0.39234000  0.36021000  1.0
  H  H30  1  0.35809000  0.17526000  0.56690000  1.0
  H  H31  1  0.14191000  0.43310000  0.82474000  1.0
  H  H32  1  0.64191000  0.82474000  0.43309000  1.0
  H  H33  1  0.85809000  0.56691000  0.17526000  1.0
  C  C34  1  0.90500000  0.17553000  0.55145000  1.0
  C  C35  1  0.59500000  0.44855000  0.82448000  1.0
  C  C36  1  0.09501000  0.82448000  0.44855000  1.0
  C  C37  1  0.40499000  0.55145000  0.17553000  1.0
  C  C38  1  0.98111000  0.15456000  0.43448000  1.0
  C  C39  1  0.51889000  0.56553000  0.84545000  1.0
  C  C40  1  0.01889000  0.84545000  0.56552000  1.0
  C  C41  1  0.48111000  0.43448000  0.15456000  1.0
  C  C42  1  0.90801000  0.12325000  0.33406000  1.0
  C  C43  1  0.59198000  0.66594000  0.87676000  1.0
  C  C44  1  0.09199000  0.87676000  0.66594000  1.0
  C  C45  1  0.40800000  0.33406000  0.12325000  1.0
  C  C46  1  0.98647000  0.08795000  0.20974000  1.0
  C  C47  1  0.51354000  0.79027000  0.91204000  1.0
  C  C48  1  0.01353000  0.91204000  0.79026000  1.0
  C  C49  1  0.48648000  0.20974000  0.08795000  1.0
  C  C50  1  0.76017000  0.11867000  0.35414000  1.0
  C  C51  1  0.73983000  0.64586000  0.88133000  1.0
  C  C52  1  0.23984000  0.88133000  0.64586000  1.0
  C  C53  1  0.26017000  0.35414000  0.11867000  1.0
  C  C54  1  0.69372000  0.13949000  0.47450000  1.0
  C  C55  1  0.80628000  0.52549000  0.86052000  1.0
  C  C56  1  0.30629000  0.86051000  0.52549000  1.0
  C  C57  1  0.19372000  0.47450000  0.13949000  1.0
  C  C58  1  0.30814000  0.37331000  0.48942000  1.0
  C  C59  1  0.19186000  0.51058000  0.62669000  1.0
  C  C60  1  0.69186000  0.62670000  0.51058000  1.0
  C  C61  1  0.80814000  0.48943000  0.37330000  1.0
  C  C62  1  0.31103000  0.27059000  0.58580000  1.0
  C  C63  1  0.18897000  0.41419000  0.72941000  1.0
  C  C64  1  0.68896000  0.72942000  0.41419000  1.0
  C  C65  1  0.81103000  0.58581000  0.27059000  1.0
  C  C66  1  0.24999000  0.29119000  0.70881000  1.0
  C  C67  1  0.75000000  0.70881000  0.29119000  1.0
  C  C68  1  0.24999000  0.18449000  0.81550000  1.0
  C  C69  1  0.75000000  0.81551000  0.18449000  1.0
  N  N70  1  0.76393000  0.16582000  0.57219000  1.0
  N  N71  1  0.73607000  0.42781000  0.83419000  1.0
  N  N72  1  0.23608000  0.83418000  0.42781000  1.0
  N  N73  1  0.26392000  0.57219000  0.16582000  1.0
  N  N74  1  0.24999000  0.49181000  0.50819000  1.0
  N  N75  1  0.75000000  0.50819000  0.49181000  1.0
  O  O76  1  0.12177000  0.07987000  0.20213000  1.0
  O  O77  1  0.37824000  0.79788000  0.92013000  1.0
  O  O78  1  0.87825000  0.92012000  0.79788000  1.0
  O  O79  1  0.62176000  0.20212000  0.07987000  1.0
  O  O80  1  0.91434000  0.06457000  0.12036000  1.0
  O  O81  1  0.58567000  0.87965000  0.93541000  1.0
  O  O82  1  0.08568000  0.93541000  0.87965000  1.0
  O  O83  1  0.41433000  0.12035000  0.06457000  1.0
  O  O84  1  0.34255000  0.08845000  0.80855000  1.0
  O  O85  1  0.15744000  0.19145000  0.91155000  1.0
  O  O86  1  0.65745000  0.91155000  0.19145000  1.0
  O  O87  1  0.84255000  0.80855000  0.08845000  1.0
  O  O88  1  0.12049000  0.80416000  0.13659000  1.0
  O  O89  1  0.37951000  0.86341000  0.19584000  1.0
  O  O90  1  0.87950000  0.19583000  0.86342000  1.0
  O  O91  1  0.62050000  0.13659000  0.80416000  1.0
