# generated using pymatgen
data_CuH6C9O5
_symmetry_space_group_name_H-M   'P 1'
_cell_length_a   5.29131000
_cell_length_b   9.88728000
_cell_length_c   16.43560000
_cell_angle_alpha   80.99150000
_cell_angle_beta   89.99970000
_cell_angle_gamma   89.99880000
_symmetry_Int_Tables_number   1
_chemical_formula_structural   CuH6C9O5
_chemical_formula_sum   'Cu4 H24 C36 O20'
_cell_volume   849.24953938
_cell_formula_units_Z   4
loop_
 _symmetry_equiv_pos_site_id
 _symmetry_equiv_pos_as_xyz
  1  'x, y, z'
loop_
 _atom_site_type_symbol
 _atom_site_label
 _atom_site_symmetry_multiplicity
 _atom_site_fract_x
 _atom_site_fract_y
 _atom_site_fract_z
 _atom_site_occupancy
  Cu  Cu0  1  0.73773000  0.06184000  0.29149000  1.0
  Cu  Cu1  1  0.23770000  0.93816000  0.70851000  1.0
  Cu  Cu2  1  0.28572000  0.03702000  0.21996000  1.0
  Cu  Cu3  1  0.78568000  0.96298000  0.78004000  1.0
  H  H4  1  0.90833000  0.00897000  0.01391000  1.0
  H  H5  1  0.40832000  0.99102000  0.98608000  1.0
  H  H6  1  0.05237000  0.87894000  0.08540000  1.0
  H  H7  1  0.55235000  0.12105000  0.91460000  1.0
  H  H8  1  0.35673000  0.36472000  0.35050000  1.0
  H  H9  1  0.85669000  0.63527000  0.64950000  1.0
  H  H10  1  0.34821000  0.67963000  0.99620000  1.0
  H  H11  1  0.84820000  0.32038000  0.00381000  1.0
  H  H12  1  0.36542000  0.61037000  0.29449000  1.0
  H  H13  1  0.86535000  0.38962000  0.70552000  1.0
  H  H14  1  0.65017000  0.66730000  0.40865000  1.0
  H  H15  1  0.15013000  0.33271000  0.59134000  1.0
  H  H16  1  0.64106000  0.41938000  0.46789000  1.0
  H  H17  1  0.14104000  0.58063000  0.53211000  1.0
  H  H18  1  0.14698000  0.06990000  0.50392000  1.0
  H  H19  1  0.64698000  0.93009000  0.49608000  1.0
  H  H20  1  0.34883000  0.21502000  0.48475000  1.0
  H  H21  1  0.84881000  0.78497000  0.51526000  1.0
  H  H22  1  0.90021000  0.46101000  0.22410000  1.0
  H  H23  1  0.40020000  0.53899000  0.77590000  1.0
  H  H24  1  0.99344000  0.69540000  0.15603000  1.0
  H  H25  1  0.49344000  0.30460000  0.84397000  1.0
  H  H26  1  0.25369000  0.44313000  0.06740000  1.0
  H  H27  1  0.75369000  0.55687000  0.93261000  1.0
  C  C28  1  0.86946000  0.92212000  0.06264000  1.0
  C  C29  1  0.36945000  0.07788000  0.93735000  1.0
  C  C30  1  0.20128000  0.42931000  0.36448000  1.0
  C  C31  1  0.70123000  0.57068000  0.63552000  1.0
  C  C32  1  0.46716000  0.63048000  0.04647000  1.0
  C  C33  1  0.96716000  0.36952000  0.95354000  1.0
  C  C34  1  0.20717000  0.56849000  0.33277000  1.0
  C  C35  1  0.70713000  0.43151000  0.66724000  1.0
  C  C36  1  0.57228000  0.43663000  0.15015000  1.0
  C  C37  1  0.07229000  0.56338000  0.84986000  1.0
  C  C38  1  0.01083000  0.65559000  0.34892000  1.0
  C  C39  1  0.51077000  0.34441000  0.65107000  1.0
  C  C40  1  0.80457000  0.60021000  0.39691000  1.0
  C  C41  1  0.30454000  0.39980000  0.60308000  1.0
  C  C42  1  0.79729000  0.46206000  0.42900000  1.0
  C  C43  1  0.29724000  0.53795000  0.57099000  1.0
  C  C44  1  0.01677000  0.80434000  0.31555000  1.0
  C  C45  1  0.51672000  0.19566000  0.68445000  1.0
  C  C46  1  0.99593000  0.37596000  0.41325000  1.0
  C  C47  1  0.49591000  0.62405000  0.58675000  1.0
  C  C48  1  0.19467000  0.16054000  0.45877000  1.0
  C  C49  1  0.69466000  0.83945000  0.54123000  1.0
  C  C50  1  0.67602000  0.70208000  0.07091000  1.0
  C  C51  1  0.17600000  0.29793000  0.92909000  1.0
  C  C52  1  0.77845000  0.50978000  0.17468000  1.0
  C  C53  1  0.27843000  0.49022000  0.82533000  1.0
  C  C54  1  0.29671000  0.11162000  0.38177000  1.0
  C  C55  1  0.79669000  0.88838000  0.61823000  1.0
  C  C56  1  0.83044000  0.64212000  0.13604000  1.0
  C  C57  1  0.33043000  0.35789000  0.86396000  1.0
  C  C58  1  0.41584000  0.49873000  0.08593000  1.0
  C  C59  1  0.91583000  0.50127000  0.91408000  1.0
  C  C60  1  0.73044000  0.97641000  0.13231000  1.0
  C  C61  1  0.23041000  0.02358000  0.86768000  1.0
  C  C62  1  0.52940000  0.29414000  0.19131000  1.0
  C  C63  1  0.02937000  0.70586000  0.80870000  1.0
  O  O64  1  0.97205000  0.24187000  0.44880000  1.0
  O  O65  1  0.47202000  0.75813000  0.55120000  1.0
  O  O66  1  0.71933000  0.82877000  0.02604000  1.0
  O  O67  1  0.21932000  0.17122000  0.97396000  1.0
  O  O68  1  0.82862000  0.87482000  0.33452000  1.0
  O  O69  1  0.32858000  0.12518000  0.66547000  1.0
  O  O70  1  0.52142000  0.06686000  0.38956000  1.0
  O  O71  1  0.02139000  0.93313000  0.61044000  1.0
  O  O72  1  0.66680000  0.25306000  0.25469000  1.0
  O  O73  1  0.16678000  0.74695000  0.74532000  1.0
  O  O74  1  0.36437000  0.22105000  0.16157000  1.0
  O  O75  1  0.86433000  0.77895000  0.83843000  1.0
  O  O76  1  0.49539000  0.95483000  0.13894000  1.0
  O  O77  1  0.99537000  0.04517000  0.86106000  1.0
  O  O78  1  0.20681000  0.84861000  0.27097000  1.0
  O  O79  1  0.70675000  0.15139000  0.72903000  1.0
  O  O80  1  0.15841000  0.11850000  0.31776000  1.0
  O  O81  1  0.65838000  0.88149000  0.68224000  1.0
  O  O82  1  0.86572000  0.04181000  0.17762000  1.0
  O  O83  1  0.36570000  0.95818000  0.82238000  1.0
