# generated using pymatgen
data_HgH5C6I2N3
_symmetry_space_group_name_H-M   'P 1'
_cell_length_a   5.51369000
_cell_length_b   18.48470000
_cell_length_c   23.48720000
_cell_angle_alpha   89.99860000
_cell_angle_beta   89.99700000
_cell_angle_gamma   90.72860000
_symmetry_Int_Tables_number   1
_chemical_formula_structural   HgH5C6I2N3
_chemical_formula_sum   'Hg8 H40 C48 I16 N24'
_cell_volume   2393.59616867
_cell_formula_units_Z   8
loop_
 _symmetry_equiv_pos_site_id
 _symmetry_equiv_pos_as_xyz
  1  'x, y, z'
loop_
 _atom_site_type_symbol
 _atom_site_label
 _atom_site_symmetry_multiplicity
 _atom_site_fract_x
 _atom_site_fract_y
 _atom_site_fract_z
 _atom_site_occupancy
  Hg  Hg0  1  0.79167000  0.83910000  0.21255000  1.0
  Hg  Hg1  1  0.20830000  0.66090000  0.71257000  1.0
  Hg  Hg2  1  0.20837000  0.16088000  0.78744000  1.0
  Hg  Hg3  1  0.79171000  0.33911000  0.28742000  1.0
  Hg  Hg4  1  0.13004000  0.92430000  0.57240000  1.0
  Hg  Hg5  1  0.87008000  0.57572000  0.07241000  1.0
  Hg  Hg6  1  0.87001000  0.07570000  0.42759000  1.0
  Hg  Hg7  1  0.13002000  0.42433000  0.92760000  1.0
  H  H8  1  0.36681000  0.94688000  0.14538000  1.0
  H  H9  1  0.63309000  0.55313000  0.64537000  1.0
  H  H10  1  0.63322000  0.05314000  0.85463000  1.0
  H  H11  1  0.36679000  0.44686000  0.35463000  1.0
  H  H12  1  0.17727000  0.96428000  0.04952000  1.0
  H  H13  1  0.82263000  0.53572000  0.54953000  1.0
  H  H14  1  0.82271000  0.03573000  0.95048000  1.0
  H  H15  1  0.17728000  0.46427000  0.45048000  1.0
  H  H16  1  0.76965000  0.84098000  0.97941000  1.0
  H  H17  1  0.23036000  0.65902000  0.47943000  1.0
  H  H18  1  0.23038000  0.15905000  0.02057000  1.0
  H  H19  1  0.76959000  0.34096000  0.52057000  1.0
  H  H20  1  0.93152000  0.83027000  0.07649000  1.0
  H  H21  1  0.06846000  0.66974000  0.57649000  1.0
  H  H22  1  0.06856000  0.16975000  0.92350000  1.0
  H  H23  1  0.93147000  0.33024000  0.42350000  1.0
  H  H24  1  0.87432000  0.97994000  0.69115000  1.0
  H  H25  1  0.12576000  0.52008000  0.19116000  1.0
  H  H26  1  0.12562000  0.02004000  0.30884000  1.0
  H  H27  1  0.87429000  0.47994000  0.80885000  1.0
  H  H28  1  0.89369000  0.97564000  0.79699000  1.0
  H  H29  1  0.10631000  0.52436000  0.29700000  1.0
  H  H30  1  0.10629000  0.02436000  0.20301000  1.0
  H  H31  1  0.89367000  0.47564000  0.70301000  1.0
  H  H32  1  0.53794000  0.84579000  0.78082000  1.0
  H  H33  1  0.46210000  0.65421000  0.28083000  1.0
  H  H34  1  0.46209000  0.15421000  0.21918000  1.0
  H  H35  1  0.53789000  0.34577000  0.71918000  1.0
  H  H36  1  0.49203000  0.85682000  0.67545000  1.0
  H  H37  1  0.50807000  0.64319000  0.17546000  1.0
  H  H38  1  0.50796000  0.14316000  0.32455000  1.0
  H  H39  1  0.49194000  0.35681000  0.82456000  1.0
  H  H40  1  0.62409000  0.80566000  0.89941000  1.0
  H  H41  1  0.37591000  0.69435000  0.39943000  1.0
  H  H42  1  0.37593000  0.19436000  0.10058000  1.0
  H  H43  1  0.62404000  0.30563000  0.60057000  1.0
  H  H44  1  0.76169000  0.88727000  0.88603000  1.0
  H  H45  1  0.23829000  0.61273000  0.38604000  1.0
  H  H46  1  0.23832000  0.11275000  0.11397000  1.0
  H  H47  1  0.76165000  0.38725000  0.61397000  1.0
  C  C48  1  0.32955000  0.91029000  0.95120000  1.0
  C  C49  1  0.67043000  0.58972000  0.45122000  1.0
  C  C50  1  0.67046000  0.08973000  0.04879000  1.0
  C  C51  1  0.32953000  0.41027000  0.54880000  1.0
  C  C52  1  0.22405000  0.91180000  0.86042000  1.0
  C  C53  1  0.77599000  0.58820000  0.36042000  1.0
  C  C54  1  0.77600000  0.08822000  0.13959000  1.0
  C  C55  1  0.22399000  0.41178000  0.63958000  1.0
  C  C56  1  0.45085000  0.92502000  0.10705000  1.0
  C  C57  1  0.54909000  0.57499000  0.60705000  1.0
  C  C58  1  0.54921000  0.07500000  0.89295000  1.0
  C  C59  1  0.45082000  0.42499000  0.39295000  1.0
  C  C60  1  0.34421000  0.93395000  0.05406000  1.0
  C  C61  1  0.65572000  0.56605000  0.55408000  1.0
  C  C62  1  0.65582000  0.06607000  0.94593000  1.0
  C  C63  1  0.34418000  0.43393000  0.44593000  1.0
  C  C64  1  0.45401000  0.90273000  0.00574000  1.0
  C  C65  1  0.54592000  0.59727000  0.50577000  1.0
  C  C66  1  0.54598000  0.09729000  0.99424000  1.0
  C  C67  1  0.45399000  0.40271000  0.49425000  1.0
  C  C68  1  0.67168000  0.86616000  0.01398000  1.0
  C  C69  1  0.32826000  0.63385000  0.51401000  1.0
  C  C70  1  0.32833000  0.13387000  0.98600000  1.0
  C  C71  1  0.67165000  0.36614000  0.48600000  1.0
  C  C72  1  0.76567000  0.86042000  0.06885000  1.0
  C  C73  1  0.23427000  0.63960000  0.56886000  1.0
  C  C74  1  0.23437000  0.13960000  0.93114000  1.0
  C  C75  1  0.76564000  0.36040000  0.43113000  1.0
  C  C76  1  0.01797000  0.95046000  0.71279000  1.0
  C  C77  1  0.98214000  0.54956000  0.21281000  1.0
  C  C78  1  0.98202000  0.04953000  0.28720000  1.0
  C  C79  1  0.01790000  0.45045000  0.78720000  1.0
  C  C80  1  0.02863000  0.94772000  0.77167000  1.0
  C  C81  1  0.97144000  0.55229000  0.27168000  1.0
  C  C82  1  0.97138000  0.05228000  0.22833000  1.0
  C  C83  1  0.02857000  0.44771000  0.72833000  1.0
  C  C84  1  0.21797000  0.91001000  0.79821000  1.0
  C  C85  1  0.78209000  0.58999000  0.29820000  1.0
  C  C86  1  0.78206000  0.08999000  0.20180000  1.0
  C  C87  1  0.21790000  0.41000000  0.70179000  1.0
  C  C88  1  0.38814000  0.87598000  0.76299000  1.0
  C  C89  1  0.61189000  0.62402000  0.26300000  1.0
  C  C90  1  0.61185000  0.12401000  0.23701000  1.0
  C  C91  1  0.38808000  0.37597000  0.73701000  1.0
  C  C92  1  0.36270000  0.88229000  0.70417000  1.0
  C  C93  1  0.63736000  0.61771000  0.20418000  1.0
  C  C94  1  0.63728000  0.11769000  0.29583000  1.0
  C  C95  1  0.36264000  0.38229000  0.79583000  1.0
  I  I96  1  0.14546000  0.75759000  0.17043000  1.0
  I  I97  1  0.85457000  0.74243000  0.67049000  1.0
  I  I98  1  0.85458000  0.24241000  0.82954000  1.0
  I  I99  1  0.14543000  0.25757000  0.32951000  1.0
  I  I100  1  0.50705000  0.89810000  0.29026000  1.0
  I  I101  1  0.49287000  0.60188000  0.79027000  1.0
  I  I102  1  0.49297000  0.10187000  0.70972000  1.0
  I  I103  1  0.50717000  0.39814000  0.20973000  1.0
  I  I104  1  0.78939000  0.02602000  0.57533000  1.0
  I  I105  1  0.21068000  0.47397000  0.07534000  1.0
  I  I106  1  0.21076000  0.97400000  0.42466000  1.0
  I  I107  1  0.78944000  0.52608000  0.92467000  1.0
  I  I108  1  0.44444000  0.82220000  0.54255000  1.0
  I  I109  1  0.55567000  0.67783000  0.04260000  1.0
  I  I110  1  0.55562000  0.17781000  0.45742000  1.0
  I  I111  1  0.44439000  0.32221000  0.95741000  1.0
  N  N112  1  0.04762000  0.94161000  0.89112000  1.0
  N  N113  1  0.95241000  0.55838000  0.39113000  1.0
  N  N114  1  0.95243000  0.05840000  0.10887000  1.0
  N  N115  1  0.04757000  0.44159000  0.60888000  1.0
  N  N116  1  0.11269000  0.94060000  0.94699000  1.0
  N  N117  1  0.88728000  0.55940000  0.44700000  1.0
  N  N118  1  0.88733000  0.05942000  0.05301000  1.0
  N  N119  1  0.11266000  0.44057000  0.55301000  1.0
  N  N120  1  0.40310000  0.88966000  0.89703000  1.0
  N  N121  1  0.59691000  0.61034000  0.39704000  1.0
  N  N122  1  0.59694000  0.11036000  0.10297000  1.0
  N  N123  1  0.40306000  0.38964000  0.60297000  1.0
  N  N124  1  0.65846000  0.88857000  0.11467000  1.0
  N  N125  1  0.34152000  0.61144000  0.61466000  1.0
  N  N126  1  0.34162000  0.11144000  0.88534000  1.0
  N  N127  1  0.65842000  0.38855000  0.38533000  1.0
  N  N128  1  0.18278000  0.91869000  0.67952000  1.0
  N  N129  1  0.81732000  0.58133000  0.17955000  1.0
  N  N130  1  0.81718000  0.08129000  0.32046000  1.0
  N  N131  1  0.18272000  0.41869000  0.82047000  1.0
  N  N132  1  0.61142000  0.85421000  0.87895000  1.0
  N  N133  1  0.38856000  0.64580000  0.37895000  1.0
  N  N134  1  0.38859000  0.14582000  0.12105000  1.0
  N  N135  1  0.61138000  0.35417000  0.62104000  1.0
