# generated using pymatgen
data_ZnH20C20NO5
_symmetry_space_group_name_H-M   'P 1'
_cell_length_a   10.83800000
_cell_length_b   13.94090000
_cell_length_c   15.34320000
_cell_angle_alpha   89.83560000
_cell_angle_beta   90.10740000
_cell_angle_gamma   89.60860000
_symmetry_Int_Tables_number   1
_chemical_formula_structural   ZnH20C20NO5
_chemical_formula_sum   'Zn2 H40 C40 N2 O10'
_cell_volume   2318.15891524
_cell_formula_units_Z   2
loop_
 _symmetry_equiv_pos_site_id
 _symmetry_equiv_pos_as_xyz
  1  'x, y, z'
loop_
 _atom_site_type_symbol
 _atom_site_label
 _atom_site_symmetry_multiplicity
 _atom_site_fract_x
 _atom_site_fract_y
 _atom_site_fract_z
 _atom_site_occupancy
  Zn  Zn0  1  0.50136000  0.40145000  0.50076000  1.0
  Zn  Zn1  1  0.49954000  0.59988000  0.50086000  1.0
  H  H2  1  0.09298000  0.35879000  0.44766000  1.0
  H  H3  1  0.10591000  0.63982000  0.54864000  1.0
  H  H4  1  0.58414000  0.64122000  0.78194000  1.0
  H  H5  1  0.41063000  0.36599000  0.77606000  1.0
  H  H6  1  0.46336000  0.93300000  0.36117000  1.0
  H  H7  1  0.34514000  0.07054000  0.40940000  1.0
  H  H8  1  0.46713000  0.75250000  0.36811000  1.0
  H  H9  1  0.35228000  0.25081000  0.41392000  1.0
  H  H10  1  0.53545000  0.75269000  0.63271000  1.0
  H  H11  1  0.64540000  0.24761000  0.58662000  1.0
  H  H12  1  0.53521000  0.93313000  0.63850000  1.0
  H  H13  1  0.65152000  0.06749000  0.59062000  1.0
  H  H14  1  0.90039000  0.48038000  0.35928000  1.0
  H  H15  1  0.89205000  0.63414000  0.43171000  1.0
  H  H16  1  0.88419000  0.37086000  0.41643000  1.0
  H  H17  1  0.89055000  0.64429000  0.54626000  1.0
  H  H18  1  0.11905000  0.38786000  0.59047000  1.0
  H  H19  1  0.10901000  0.50479000  0.63395000  1.0
  H  H20  1  0.90298000  0.37655000  0.58541000  1.0
  H  H21  1  0.89483000  0.48790000  0.63957000  1.0
  H  H22  1  0.53734000  0.35207000  0.06133000  1.0
  H  H23  1  0.43336000  0.65088000  0.05985000  1.0
  H  H24  1  0.53972000  0.35389000  0.22423000  1.0
  H  H25  1  0.43693000  0.65106000  0.22252000  1.0
  H  H26  1  0.57896000  0.63954000  0.94451000  1.0
  H  H27  1  0.40008000  0.36466000  0.93877000  1.0
  H  H28  1  0.19248000  0.56094000  0.30042000  1.0
  H  H29  1  0.03080000  0.54830000  0.29082000  1.0
  H  H30  1  0.22411000  0.44330000  0.17990000  1.0
  H  H31  1  0.06295000  0.42419000  0.17360000  1.0
  H  H32  1  0.02876000  0.59703000  0.13082000  1.0
  H  H33  1  0.13486000  0.54188000  0.05798000  1.0
  H  H34  1  0.18943000  0.61913000  0.14084000  1.0
  H  H35  1  0.20859000  0.77135000  0.37536000  1.0
  H  H36  1  0.21542000  0.75087000  0.48994000  1.0
  H  H37  1  0.98561000  0.81880000  0.38858000  1.0
  H  H38  1  0.99379000  0.80355000  0.50273000  1.0
  H  H39  1  0.15896000  0.93132000  0.51138000  1.0
  H  H40  1  0.02173000  0.97759000  0.46323000  1.0
  H  H41  1  0.14959000  0.94707000  0.39657000  1.0
  C  C42  1  0.49441000  0.50417000  0.33042000  1.0
  C  C43  1  0.93322000  0.45148000  0.58207000  1.0
  C  C44  1  0.51388000  0.41762000  0.09652000  1.0
  C  C45  1  0.45860000  0.58588000  0.09565000  1.0
  C  C46  1  0.51617000  0.41829000  0.18719000  1.0
  C  C47  1  0.45993000  0.58630000  0.18625000  1.0
  C  C48  1  0.48980000  0.50282000  0.23292000  1.0
  C  C49  1  0.48628000  0.50165000  0.04917000  1.0
  C  C50  1  0.53958000  0.58028000  0.90767000  1.0
  C  C51  1  0.44228000  0.42483000  0.90459000  1.0
  C  C52  1  0.54359000  0.58119000  0.81708000  1.0
  C  C53  1  0.44701000  0.42548000  0.81396000  1.0
  C  C54  1  0.49752000  0.50373000  0.76928000  1.0
  C  C55  1  0.48875000  0.50215000  0.95303000  1.0
  C  C56  1  0.47867000  0.89622000  0.42305000  1.0
  C  C57  1  0.41421000  0.10673000  0.44894000  1.0
  C  C58  1  0.26231000  0.49832000  0.49708000  1.0
  C  C59  1  0.48116000  0.79658000  0.42589000  1.0
  C  C60  1  0.41693000  0.20641000  0.45118000  1.0
  C  C61  1  0.52066000  0.79663000  0.57460000  1.0
  C  C62  1  0.58056000  0.20462000  0.54916000  1.0
  C  C63  1  0.52084000  0.89624000  0.57681000  1.0
  C  C64  1  0.58284000  0.10501000  0.55104000  1.0
  C  C65  1  0.49907000  0.94820000  0.49980000  1.0
  C  C66  1  0.49851000  0.05400000  0.49980000  1.0
  C  C67  1  0.50209000  0.50441000  0.67171000  1.0
  C  C68  1  0.73940000  0.49535000  0.49972000  1.0
  C  C69  1  0.06977000  0.43062000  0.42247000  1.0
  C  C70  1  0.06984000  0.60388000  0.49004000  1.0
  C  C71  1  0.92782000  0.44170000  0.41888000  1.0
  C  C72  1  0.92729000  0.60140000  0.49200000  1.0
  C  C73  1  0.07562000  0.45857000  0.58106000  1.0
  C  C74  1  0.12183000  0.50059000  0.49269000  1.0
  C  C75  1  0.88015000  0.49816000  0.49874000  1.0
  C  C76  1  0.11941000  0.50992000  0.28263000  1.0
  C  C77  1  0.13353000  0.47829000  0.18838000  1.0
  C  C78  1  0.12086000  0.56366000  0.12602000  1.0
  C  C79  1  0.15322000  0.75071000  0.43261000  1.0
  C  C80  1  0.04829000  0.82330000  0.44496000  1.0
  C  C81  1  0.09709000  0.92535000  0.45469000  1.0
  N  N82  1  0.50135000  0.74782000  0.50037000  1.0
  N  N83  1  0.49900000  0.25409000  0.50027000  1.0
  O  O84  1  0.52303000  0.42596000  0.36870000  1.0
  O  O85  1  0.46997000  0.58374000  0.36776000  1.0
  O  O86  1  0.31499000  0.41825000  0.48239000  1.0
  O  O87  1  0.31652000  0.57524000  0.51938000  1.0
  O  O88  1  0.47880000  0.42577000  0.63318000  1.0
  O  O89  1  0.52871000  0.58363000  0.63454000  1.0
  O  O90  1  0.68916000  0.41533000  0.51786000  1.0
  O  O91  1  0.68220000  0.57286000  0.48155000  1.0
  O  O92  1  0.12609000  0.42739000  0.33831000  1.0
  O  O93  1  0.11378000  0.65573000  0.41542000  1.0
