# generated using pymatgen
data_La2B5H7(C2O7)2
_symmetry_space_group_name_H-M   'P 1'
_cell_length_a   6.49088000
_cell_length_b   10.89910000
_cell_length_c   11.42310000
_cell_angle_alpha   61.51310000
_cell_angle_beta   89.87780000
_cell_angle_gamma   89.74450000
_symmetry_Int_Tables_number   1
_chemical_formula_structural   La2B5H7(C2O7)2
_chemical_formula_sum   'La4 B10 H14 C8 O28'
_cell_volume   710.27459627
_cell_formula_units_Z   2
loop_
 _symmetry_equiv_pos_site_id
 _symmetry_equiv_pos_as_xyz
  1  'x, y, z'
loop_
 _atom_site_type_symbol
 _atom_site_label
 _atom_site_symmetry_multiplicity
 _atom_site_fract_x
 _atom_site_fract_y
 _atom_site_fract_z
 _atom_site_occupancy
  La  La0  1  0.83573000  0.38470000  0.47904000  1.0
  La  La1  1  0.33587000  0.86383000  0.52087000  1.0
  La  La2  1  0.66481000  0.81299000  0.13565000  1.0
  La  La3  1  0.16477000  0.94846000  0.86449000  1.0
  B  B4  1  0.32096000  0.58856000  0.40987000  1.0
  B  B5  1  0.82095000  0.99847000  0.59009000  1.0
  B  B6  1  0.21104000  0.79707000  0.19469000  1.0
  B  B7  1  0.71108000  0.99166000  0.80535000  1.0
  B  B8  1  0.97375000  0.68997000  0.39024000  1.0
  B  B9  1  0.47370000  0.08021000  0.60984000  1.0
  B  B10  1  0.36868000  0.33085000  0.46583000  1.0
  B  B11  1  0.86872000  0.79666000  0.53421000  1.0
  B  B12  1  0.63000000  0.62847000  0.51854000  1.0
  B  B13  1  0.13001000  0.14700000  0.48150000  1.0
  H  H14  1  0.07788000  0.37272000  0.17968000  1.0
  H  H15  1  0.57771000  0.55313000  0.82013000  1.0
  H  H16  1  0.26139000  0.51077000  0.12159000  1.0
  H  H17  1  0.76103000  0.63317000  0.87826000  1.0
  H  H18  1  0.09439000  0.49781000  0.00556000  1.0
  H  H19  1  0.59440000  0.50386000  0.99430000  1.0
  H  H20  1  0.71592000  0.26703000  0.14054000  1.0
  H  H21  1  0.21597000  0.40735000  0.85940000  1.0
  H  H22  1  0.67613000  0.17660000  0.31826000  1.0
  H  H23  1  0.17614000  0.49481000  0.68167000  1.0
  H  H24  1  0.46114000  0.23312000  0.21224000  1.0
  H  H25  1  0.96114000  0.44538000  0.78771000  1.0
  H  H26  1  0.57886000  0.43781000  0.68461000  1.0
  H  H27  1  0.07907000  0.12245000  0.31537000  1.0
  C  C28  1  0.95507000  0.57811000  0.12499000  1.0
  C  C29  1  0.45458000  0.70342000  0.87525000  1.0
  C  C30  1  0.10472000  0.48206000  0.10776000  1.0
  C  C31  1  0.60447000  0.59044000  0.89216000  1.0
  C  C32  1  0.61376000  0.05456000  0.22080000  1.0
  C  C33  1  0.11339000  0.27532000  0.77901000  1.0
  C  C34  1  0.61867000  0.19256000  0.22150000  1.0
  C  C35  1  0.11861000  0.41399000  0.77840000  1.0
  O  O36  1  0.43352000  0.46199000  0.43179000  1.0
  O  O37  1  0.93350000  0.89381000  0.56816000  1.0
  O  O38  1  0.35350000  0.69212000  0.26819000  1.0
  O  O39  1  0.85353000  0.96028000  0.73180000  1.0
  O  O40  1  0.10015000  0.56383000  0.43615000  1.0
  O  O41  1  0.60009000  0.00000000  0.56385000  1.0
  O  O42  1  0.27787000  0.89782000  0.07608000  1.0
  O  O43  1  0.77804000  0.97353000  0.92407000  1.0
  O  O44  1  0.01565000  0.79017000  0.24792000  1.0
  O  O45  1  0.51571000  0.03809000  0.75216000  1.0
  O  O46  1  0.51895000  0.23132000  0.53040000  1.0
  O  O47  1  0.01905000  0.76163000  0.46970000  1.0
  O  O48  1  0.75471000  0.65357000  0.39990000  1.0
  O  O49  1  0.25465000  0.05348000  0.60016000  1.0
  O  O50  1  0.67968000  0.73434000  0.56340000  1.0
  O  O51  1  0.17964000  0.29771000  0.43666000  1.0
  O  O52  1  0.69051000  0.48545000  0.62297000  1.0
  O  O53  1  0.19068000  0.10840000  0.37705000  1.0
  O  O54  1  0.41094000  0.64246000  0.49510000  1.0
  O  O55  1  0.91091000  0.13756000  0.50482000  1.0
  O  O56  1  0.95673000  0.70794000  0.04030000  1.0
  O  O57  1  0.45625000  0.74833000  0.96015000  1.0
  O  O58  1  0.82759000  0.53037000  0.22267000  1.0
  O  O59  1  0.32702000  0.75351000  0.77760000  1.0
  O  O60  1  0.71973000  0.03906000  0.13584000  1.0
  O  O61  1  0.21965000  0.17491000  0.86373000  1.0
  O  O62  1  0.50318000  0.95400000  0.30772000  1.0
  O  O63  1  0.00229000  0.26173000  0.69228000  1.0
