# generated using pymatgen
data_TbH16C24N3O8
_symmetry_space_group_name_H-M   'P 1'
_cell_length_a   9.32213000
_cell_length_b   11.28320000
_cell_length_c   12.53040000
_cell_angle_alpha   65.88480000
_cell_angle_beta   73.50730000
_cell_angle_gamma   86.24480000
_symmetry_Int_Tables_number   1
_chemical_formula_structural   TbH16C24N3O8
_chemical_formula_sum   'Tb2 H32 C48 N6 O16'
_cell_volume   1151.54765608
_cell_formula_units_Z   2
loop_
 _symmetry_equiv_pos_site_id
 _symmetry_equiv_pos_as_xyz
  1  'x, y, z'
loop_
 _atom_site_type_symbol
 _atom_site_label
 _atom_site_symmetry_multiplicity
 _atom_site_fract_x
 _atom_site_fract_y
 _atom_site_fract_z
 _atom_site_occupancy
  Tb  Tb0  1  0.74642000  0.03298000  0.01265000  1.0
  Tb  Tb1  1  0.25358000  0.96702000  0.98735000  1.0
  H  H2  1  0.12841000  0.88073000  0.29470000  1.0
  H  H3  1  0.87159000  0.11927000  0.70530000  1.0
  H  H4  1  0.05141000  0.84985000  0.66192000  1.0
  H  H5  1  0.94859000  0.15015000  0.33808000  1.0
  H  H6  1  0.29893000  0.96255000  0.60271000  1.0
  H  H7  1  0.70106000  0.03744000  0.39730000  1.0
  H  H8  1  0.46670000  0.02771000  0.38780000  1.0
  H  H9  1  0.53330000  0.97230000  0.61221000  1.0
  H  H10  1  0.80766000  0.66990000  0.38725000  1.0
  H  H11  1  0.19235000  0.33009000  0.61275000  1.0
  H  H12  1  0.62102000  0.27676000  0.53202000  1.0
  H  H13  1  0.37897000  0.72324000  0.46798000  1.0
  H  H14  1  0.50467000  0.33929000  0.36182000  1.0
  H  H15  1  0.49533000  0.66071000  0.63818000  1.0
  H  H16  1  0.54271000  0.56590000  0.20365000  1.0
  H  H17  1  0.45730000  0.43410000  0.79634000  1.0
  H  H18  1  0.74581000  0.80304000  0.91015000  1.0
  H  H19  1  0.25419000  0.19697000  0.08985000  1.0
  H  H20  1  0.81839000  0.47111000  0.81569000  1.0
  H  H21  1  0.18161000  0.52889000  0.18429000  1.0
  H  H22  1  0.08517000  0.47934000  0.81367000  1.0
  H  H23  1  0.91483000  0.52066000  0.18633000  1.0
  H  H24  1  0.18176000  0.64949000  0.85987000  1.0
  H  H25  1  0.81823000  0.35051000  0.14014000  1.0
  H  H26  1  0.02942000  0.18154000  0.81629000  1.0
  H  H27  1  0.97059000  0.81846000  0.18371000  1.0
  H  H28  1  0.59507000  0.27387000  0.00485000  1.0
  H  H29  1  0.40493000  0.72613000  0.99514000  1.0
  H  H30  1  0.52906000  0.22938000  0.92160000  1.0
  H  H31  1  0.47095000  0.77062000  0.07840000  1.0
  H  H32  1  0.89431000  0.27155000  0.77724000  1.0
  H  H33  1  0.10569000  0.72845000  0.22277000  1.0
  C  C34  1  0.41093000  0.98839000  0.20453000  1.0
  C  C35  1  0.58908000  0.01162000  0.79547000  1.0
  C  C36  1  0.30787000  0.95643000  0.33021000  1.0
  C  C37  1  0.69213000  0.04357000  0.66979000  1.0
  C  C38  1  0.16586000  0.89719000  0.36258000  1.0
  C  C39  1  0.83413000  0.10281000  0.63742000  1.0
  C  C40  1  0.07489000  0.85677000  0.48304000  1.0
  C  C41  1  0.92510000  0.14323000  0.51696000  1.0
  C  C42  1  0.93202000  0.79184000  0.51814000  1.0
  C  C43  1  0.06799000  0.20815000  0.48186000  1.0
  C  C44  1  0.12393000  0.88005000  0.56940000  1.0
  C  C45  1  0.87607000  0.11995000  0.43060000  1.0
  C  C46  1  0.26373000  0.94270000  0.53545000  1.0
  C  C47  1  0.73626000  0.05730000  0.46455000  1.0
  C  C48  1  0.35621000  0.97979000  0.41652000  1.0
  C  C49  1  0.64379000  0.02021000  0.58348000  1.0
  C  C50  1  0.69901000  0.76879000  0.19179000  1.0
  C  C51  1  0.30100000  0.23121000  0.80822000  1.0
  C  C52  1  0.67814000  0.63185000  0.28505000  1.0
  C  C53  1  0.32187000  0.36814000  0.71495000  1.0
  C  C54  1  0.74431000  0.59734000  0.37998000  1.0
  C  C55  1  0.25570000  0.40266000  0.62002000  1.0
  C  C56  1  0.72398000  0.46900000  0.46833000  1.0
  C  C57  1  0.27602000  0.53099000  0.53167000  1.0
  C  C58  1  0.79045000  0.43192000  0.56585000  1.0
  C  C59  1  0.20954000  0.56807000  0.43415000  1.0
  C  C60  1  0.63729000  0.37570000  0.46209000  1.0
  C  C61  1  0.36270000  0.62430000  0.53791000  1.0
  C  C62  1  0.57255000  0.41090000  0.36673000  1.0
  C  C63  1  0.42744000  0.58910000  0.63327000  1.0
  C  C64  1  0.59294000  0.53836000  0.27842000  1.0
  C  C65  1  0.40707000  0.46164000  0.72158000  1.0
  C  C66  1  0.02663000  0.84015000  0.91287000  1.0
  C  C67  1  0.97334000  0.15985000  0.08713000  1.0
  C  C68  1  0.96913000  0.73628000  0.88739000  1.0
  C  C69  1  0.03087000  0.26372000  0.11261000  1.0
  C  C70  1  0.81936000  0.73202000  0.88887000  1.0
  C  C71  1  0.18064000  0.26799000  0.11112000  1.0
  C  C72  1  0.76535000  0.63611000  0.86352000  1.0
  C  C73  1  0.23465000  0.36389000  0.13647000  1.0
  C  C74  1  0.61144000  0.63483000  0.86698000  1.0
  C  C75  1  0.38855000  0.36518000  0.13301000  1.0
  C  C76  1  0.86107000  0.54446000  0.83623000  1.0
  C  C77  1  0.13894000  0.45555000  0.16376000  1.0
  C  C78  1  0.01050000  0.54997000  0.83488000  1.0
  C  C79  1  0.98950000  0.45003000  0.16512000  1.0
  C  C80  1  0.06496000  0.64465000  0.86064000  1.0
  C  C81  1  0.93504000  0.35535000  0.13936000  1.0
  N  N82  1  0.81479000  0.73887000  0.54728000  1.0
  N  N83  1  0.18521000  0.26112000  0.45272000  1.0
  N  N84  1  0.84451000  0.39820000  0.64612000  1.0
  N  N85  1  0.15548000  0.60179000  0.35389000  1.0
  N  N86  1  0.48357000  0.63808000  0.87397000  1.0
  N  N87  1  0.51645000  0.36193000  0.12602000  1.0
  O  O88  1  0.54647000  0.02060000  0.18464000  1.0
  O  O89  1  0.45352000  0.97940000  0.81536000  1.0
  O  O90  1  0.35685000  0.97889000  0.12550000  1.0
  O  O91  1  0.64314000  0.02112000  0.87449000  1.0
  O  O92  1  0.79003000  0.84858000  0.19229000  1.0
  O  O93  1  0.20997000  0.15142000  0.80772000  1.0
  O  O94  1  0.62680000  0.80621000  0.11203000  1.0
  O  O95  1  0.37320000  0.19379000  0.88797000  1.0
  O  O96  1  0.93510000  0.91857000  0.94102000  1.0
  O  O97  1  0.06490000  0.08143000  0.05897000  1.0
  O  O98  1  0.16508000  0.84460000  0.90498000  1.0
  O  O99  1  0.83492000  0.15540000  0.09503000  1.0
  O  O100  1  0.62120000  0.23605000  0.94434000  1.0
  O  O101  1  0.37880000  0.76395000  0.05565000  1.0
  O  O102  1  0.91904000  0.19022000  0.83775000  1.0
  O  O103  1  0.08096000  0.80978000  0.16225000  1.0
