# generated using pymatgen
data_CdH22C24S2(N2O3)2
_symmetry_space_group_name_H-M   'P 1'
_cell_length_a   5.58698000
_cell_length_b   14.16200000
_cell_length_c   15.16900000
_cell_angle_alpha   90.00000000
_cell_angle_beta   90.00000000
_cell_angle_gamma   94.48360000
_symmetry_Int_Tables_number   1
_chemical_formula_structural   CdH22C24S2(N2O3)2
_chemical_formula_sum   'Cd2 H44 C48 S4 N8 O12'
_cell_volume   1196.54096245
_cell_formula_units_Z   2
loop_
 _symmetry_equiv_pos_site_id
 _symmetry_equiv_pos_as_xyz
  1  'x, y, z'
loop_
 _atom_site_type_symbol
 _atom_site_label
 _atom_site_symmetry_multiplicity
 _atom_site_fract_x
 _atom_site_fract_y
 _atom_site_fract_z
 _atom_site_occupancy
  Cd  Cd0  1  0.50001000  0.50000000  0.50000000  1.0
  Cd  Cd1  1  0.99999000  0.00000000  0.00000000  1.0
  H  H2  1  0.89748000  0.40284000  0.63141000  1.0
  H  H3  1  0.60252000  0.09717000  0.13141000  1.0
  H  H4  1  0.10255000  0.59717000  0.36858000  1.0
  H  H5  1  0.39745000  0.90283000  0.86858000  1.0
  H  H6  1  0.93527000  0.24297000  0.70725000  1.0
  H  H7  1  0.56473000  0.25704000  0.20725000  1.0
  H  H8  1  0.06476000  0.75704000  0.29275000  1.0
  H  H9  1  0.43524000  0.74296000  0.79274000  1.0
  H  H10  1  0.23321000  0.30025000  0.53186000  1.0
  H  H11  1  0.26678000  0.19975000  0.03185000  1.0
  H  H12  1  0.76682000  0.69975000  0.46814000  1.0
  H  H13  1  0.73319000  0.80025000  0.96814000  1.0
  H  H14  1  0.52615000  0.00227000  0.62275000  1.0
  H  H15  1  0.97386000  0.49773000  0.12275000  1.0
  H  H16  1  0.47386000  0.99773000  0.37726000  1.0
  H  H17  1  0.02613000  0.50227000  0.87726000  1.0
  H  H18  1  0.36331000  0.03793000  0.71619000  1.0
  H  H19  1  0.13670000  0.46207000  0.21619000  1.0
  H  H20  1  0.63668000  0.96208000  0.28382000  1.0
  H  H21  1  0.86330000  0.53793000  0.78382000  1.0
  H  H22  1  0.42881000  0.85191000  0.55942000  1.0
  H  H23  1  0.07120000  0.64809000  0.05943000  1.0
  H  H24  1  0.57119000  0.14810000  0.44057000  1.0
  H  H25  1  0.92878000  0.35190000  0.94057000  1.0
  H  H26  1  0.17472000  0.70016000  0.55423000  1.0
  H  H27  1  0.32530000  0.79984000  0.05423000  1.0
  H  H28  1  0.82531000  0.29985000  0.44577000  1.0
  H  H29  1  0.67467000  0.20016000  0.94577000  1.0
  H  H30  1  0.65336000  0.81977000  0.71983000  1.0
  H  H31  1  0.84667000  0.68022000  0.21982000  1.0
  H  H32  1  0.34666000  0.18022000  0.28018000  1.0
  H  H33  1  0.15333000  0.31978000  0.78017000  1.0
  H  H34  1  0.90738000  0.97137000  0.72602000  1.0
  H  H35  1  0.59265000  0.52862000  0.22603000  1.0
  H  H36  1  0.09263000  0.02862000  0.27399000  1.0
  H  H37  1  0.40735000  0.47138000  0.77398000  1.0
  H  H38  1  0.65781000  0.42736000  0.35176000  1.0
  H  H39  1  0.84218000  0.07264000  0.85176000  1.0
  H  H40  1  0.34220000  0.57264000  0.64824000  1.0
  H  H41  1  0.15780000  0.92736000  0.14824000  1.0
  H  H42  1  0.91663000  0.44555000  0.39983000  1.0
  H  H43  1  0.58336000  0.05445000  0.89983000  1.0
  H  H44  1  0.08338000  0.55445000  0.60017000  1.0
  H  H45  1  0.41662000  0.94554000  0.10017000  1.0
  C  C46  1  0.76036000  0.34404000  0.62538000  1.0
  C  C47  1  0.73964000  0.15596000  0.12538000  1.0
  C  C48  1  0.23967000  0.65597000  0.37461000  1.0
  C  C49  1  0.26033000  0.84403000  0.87461000  1.0
  C  C50  1  0.78282000  0.25667000  0.66547000  1.0
  C  C51  1  0.71719000  0.24333000  0.16547000  1.0
  C  C52  1  0.21720000  0.74333000  0.33453000  1.0
  C  C53  1  0.28279000  0.75667000  0.83453000  1.0
  C  C54  1  0.39380000  0.28680000  0.56907000  1.0
  C  C55  1  0.10621000  0.21320000  0.06907000  1.0
  C  C56  1  0.60622000  0.71320000  0.43092000  1.0
  C  C57  1  0.89378000  0.78680000  0.93092000  1.0
  C  C58  1  0.42640000  0.19728000  0.60601000  1.0
  C  C59  1  0.07360000  0.30273000  0.10601000  1.0
  C  C60  1  0.57362000  0.80272000  0.39399000  1.0
  C  C61  1  0.92638000  0.69727000  0.89399000  1.0
  C  C62  1  0.34574000  0.01123000  0.64834000  1.0
  C  C63  1  0.15427000  0.48877000  0.14834000  1.0
  C  C64  1  0.65426000  0.98878000  0.35167000  1.0
  C  C65  1  0.84572000  0.51123000  0.85166000  1.0
  C  C66  1  0.18631000  0.92126000  0.64321000  1.0
  C  C67  1  0.31371000  0.57873000  0.14322000  1.0
  C  C68  1  0.81370000  0.07874000  0.35679000  1.0
  C  C69  1  0.68628000  0.42126000  0.85679000  1.0
  C  C70  1  0.25804000  0.84452000  0.59451000  1.0
  C  C71  1  0.24197000  0.65547000  0.09452000  1.0
  C  C72  1  0.74196000  0.15548000  0.40549000  1.0
  C  C73  1  0.75802000  0.34452000  0.90548000  1.0
  C  C74  1  0.11585000  0.75931000  0.59196000  1.0
  C  C75  1  0.38417000  0.74069000  0.09197000  1.0
  C  C76  1  0.88417000  0.24070000  0.40804000  1.0
  C  C77  1  0.61581000  0.25930000  0.90803000  1.0
  C  C78  1  0.89816000  0.74886000  0.63807000  1.0
  C  C79  1  0.60186000  0.75113000  0.13807000  1.0
  C  C80  1  0.10186000  0.25114000  0.36193000  1.0
  C  C81  1  0.39812000  0.24886000  0.86193000  1.0
  C  C82  1  0.82469000  0.82668000  0.68557000  1.0
  C  C83  1  0.67535000  0.67331000  0.18557000  1.0
  C  C84  1  0.17533000  0.17332000  0.31444000  1.0
  C  C85  1  0.32464000  0.32669000  0.81444000  1.0
  C  C86  1  0.96618000  0.91182000  0.68826000  1.0
  C  C87  1  0.53384000  0.58817000  0.18826000  1.0
  C  C88  1  0.03384000  0.08818000  0.31175000  1.0
  C  C89  1  0.46615000  0.41182000  0.81175000  1.0
  C  C90  1  0.74104000  0.65772000  0.63510000  1.0
  C  C91  1  0.75897000  0.84228000  0.13510000  1.0
  C  C92  1  0.25897000  0.34228000  0.36491000  1.0
  C  C93  1  0.24102000  0.15772000  0.86490000  1.0
  S  S94  1  0.21565000  0.10268000  0.58336000  1.0
  S  S95  1  0.28436000  0.39732000  0.08336000  1.0
  S  S96  1  0.78436000  0.89732000  0.41664000  1.0
  S  S97  1  0.71563000  0.60268000  0.91664000  1.0
  N  N98  1  0.56292000  0.35814000  0.57722000  1.0
  N  N99  1  0.93708000  0.14186000  0.07722000  1.0
  N  N100  1  0.43711000  0.64186000  0.42277000  1.0
  N  N101  1  0.06289000  0.85814000  0.92277000  1.0
  N  N102  1  0.61922000  0.18323000  0.65532000  1.0
  N  N103  1  0.88079000  0.31677000  0.15531000  1.0
  N  N104  1  0.38081000  0.81677000  0.34469000  1.0
  N  N105  1  0.11919000  0.68323000  0.84468000  1.0
  O  O106  1  0.80441000  0.59197000  0.58220000  1.0
  O  O107  1  0.69559000  0.90803000  0.08220000  1.0
  O  O108  1  0.19559000  0.40803000  0.41780000  1.0
  O  O109  1  0.30440000  0.09197000  0.91780000  1.0
  O  O110  1  0.76573000  0.47562000  0.38532000  1.0
  O  O111  1  0.73426000  0.02438000  0.88532000  1.0
  O  O112  1  0.23428000  0.52438000  0.61468000  1.0
  O  O113  1  0.26572000  0.97562000  0.11468000  1.0
  O  O114  1  0.55379000  0.65055000  0.68178000  1.0
  O  O115  1  0.94623000  0.84945000  0.18178000  1.0
  O  O116  1  0.44623000  0.34945000  0.31822000  1.0
  O  O117  1  0.05376000  0.15055000  0.81822000  1.0
