# generated using pymatgen
data_SnH12C9IN3
_symmetry_space_group_name_H-M   'P 1'
_cell_length_a   8.48045000
_cell_length_b   11.06380000
_cell_length_c   13.74010000
_cell_angle_alpha   89.99990000
_cell_angle_beta   103.94300000
_cell_angle_gamma   89.99990000
_symmetry_Int_Tables_number   1
_chemical_formula_structural   SnH12C9IN3
_chemical_formula_sum   'Sn4 H48 C36 I4 N12'
_cell_volume   1251.19419550
_cell_formula_units_Z   4
loop_
 _symmetry_equiv_pos_site_id
 _symmetry_equiv_pos_as_xyz
  1  'x, y, z'
loop_
 _atom_site_type_symbol
 _atom_site_label
 _atom_site_symmetry_multiplicity
 _atom_site_fract_x
 _atom_site_fract_y
 _atom_site_fract_z
 _atom_site_occupancy
  Sn  Sn0  1  0.41332000  0.25681000  0.18715000  1.0
  Sn  Sn1  1  0.08668000  0.75681000  0.31285000  1.0
  Sn  Sn2  1  0.58668000  0.74319000  0.81285000  1.0
  Sn  Sn3  1  0.91332000  0.24319000  0.68715000  1.0
  H  H4  1  0.36056000  0.15335000  0.35541000  1.0
  H  H5  1  0.13944000  0.65335000  0.14459000  1.0
  H  H6  1  0.63945000  0.84665000  0.64459000  1.0
  H  H7  1  0.86056000  0.34665000  0.85541000  1.0
  H  H8  1  0.38229000  0.31285000  0.37399000  1.0
  H  H9  1  0.11771000  0.81285000  0.12601000  1.0
  H  H10  1  0.61771000  0.68715000  0.62601000  1.0
  H  H11  1  0.88229000  0.18715000  0.87399000  1.0
  H  H12  1  0.09433000  0.33899000  0.25963000  1.0
  H  H13  1  0.40567000  0.83899000  0.24037000  1.0
  H  H14  1  0.90567000  0.66101000  0.74037000  1.0
  H  H15  1  0.59433000  0.16101000  0.75963000  1.0
  H  H16  1  0.07808000  0.18101000  0.24879000  1.0
  H  H17  1  0.42192000  0.68101000  0.25121000  1.0
  H  H18  1  0.92192000  0.81899000  0.75121000  1.0
  H  H19  1  0.57808000  0.31899000  0.74879000  1.0
  H  H20  1  0.27851000  0.47478000  0.13862000  1.0
  H  H21  1  0.22149000  0.97478000  0.36138000  1.0
  H  H22  1  0.72150000  0.52522000  0.86138000  1.0
  H  H23  1  0.77851000  0.02522000  0.63862000  1.0
  H  H24  1  0.43458000  0.45063000  0.07392000  1.0
  H  H25  1  0.06542000  0.95063000  0.42608000  1.0
  H  H26  1  0.56543000  0.54937000  0.92608000  1.0
  H  H27  1  0.93458000  0.04937000  0.57392000  1.0
  H  H28  1  0.24619000  0.31016000  0.95291000  1.0
  H  H29  1  0.25381000  0.81016000  0.54709000  1.0
  H  H30  1  0.75381000  0.68984000  0.04709000  1.0
  H  H31  1  0.74619000  0.18984000  0.45290000  1.0
  H  H32  1  0.08929000  0.33971000  0.01394000  1.0
  H  H33  1  0.41071000  0.83971000  0.48606000  1.0
  H  H34  1  0.91071000  0.66029000  0.98606000  1.0
  H  H35  1  0.58929000  0.16029000  0.51393000  1.0
  H  H36  1  0.77756000  0.73844000  0.33110000  1.0
  H  H37  1  0.72244000  0.23844000  0.16890000  1.0
  H  H38  1  0.22244000  0.26156000  0.66890000  1.0
  H  H39  1  0.27756000  0.76156000  0.83110000  1.0
  H  H40  1  0.79777000  0.66666667  0.21873000  1.0
  H  H41  1  0.70223000  0.16673000  0.28127000  1.0
  H  H42  1  0.20223000  0.33327000  0.78127000  1.0
  H  H43  1  0.29777000  0.83327000  0.71873000  1.0
  H  H44  1  0.96154000  0.49601000  0.34092000  1.0
  H  H45  1  0.53845000  0.99601000  0.15908000  1.0
  H  H46  1  0.03845000  0.50399000  0.65908000  1.0
  H  H47  1  0.46154000  0.00399000  0.84092000  1.0
  H  H48  1  0.87430000  0.56077000  0.43272000  1.0
  H  H49  1  0.62570000  0.06077000  0.06728000  1.0
  H  H50  1  0.12570000  0.43923000  0.56728000  1.0
  H  H51  1  0.37430000  0.93923000  0.93272000  1.0
  C  C52  1  0.32256000  0.24205000  0.32221000  1.0
  C  C53  1  0.17744000  0.74205000  0.17779000  1.0
  C  C54  1  0.67744000  0.75795000  0.67779000  1.0
  C  C55  1  0.82256000  0.25795000  0.82221000  1.0
  C  C56  1  0.13709000  0.25412000  0.29917000  1.0
  C  C57  1  0.36291000  0.75412000  0.20083000  1.0
  C  C58  1  0.86291000  0.74588000  0.70083000  1.0
  C  C59  1  0.63709000  0.24588000  0.79917000  1.0
  C  C60  1  0.07549000  0.25032000  0.38912000  1.0
  C  C61  1  0.42451000  0.75032000  0.11089000  1.0
  C  C62  1  0.92451000  0.74968000  0.61088000  1.0
  C  C63  1  0.57549000  0.24968000  0.88912000  1.0
  C  C64  1  0.32612000  0.41113000  0.09143000  1.0
  C  C65  1  0.17387000  0.91113000  0.40857000  1.0
  C  C66  1  0.67388000  0.58887000  0.90857000  1.0
  C  C67  1  0.82612000  0.08887000  0.59143000  1.0
  C  C68  1  0.19816000  0.37900000  0.99605000  1.0
  C  C69  1  0.30184000  0.87900000  0.50394000  1.0
  C  C70  1  0.80184000  0.62100000  0.00395000  1.0
  C  C71  1  0.69816000  0.12100000  0.49605000  1.0
  C  C72  1  0.14710000  0.48307000  0.93140000  1.0
  C  C73  1  0.35290000  0.98306000  0.56859000  1.0
  C  C74  1  0.85290000  0.51694000  0.06859000  1.0
  C  C75  1  0.64709000  0.01693000  0.43140000  1.0
  C  C76  1  0.84991000  0.67379000  0.29975000  1.0
  C  C77  1  0.65009000  0.17379000  0.20025000  1.0
  C  C78  1  0.15008000  0.32621000  0.70025000  1.0
  C  C79  1  0.34991000  0.82621000  0.79975000  1.0
  C  C80  1  0.85777000  0.55037000  0.35123000  1.0
  C  C81  1  0.64223000  0.05037000  0.14877000  1.0
  C  C82  1  0.14223000  0.44963000  0.64877000  1.0
  C  C83  1  0.35777000  0.94963000  0.85123000  1.0
  C  C84  1  0.71333000  0.47879000  0.31317000  1.0
  C  C85  1  0.78666000  0.97878000  0.18683000  1.0
  C  C86  1  0.28666000  0.52121000  0.68683000  1.0
  C  C87  1  0.21333000  0.02121000  0.81317000  1.0
  I  I88  1  0.20227000  0.07260000  0.08346000  1.0
  I  I89  1  0.29773000  0.57260000  0.41654000  1.0
  I  I90  1  0.79773000  0.92740000  0.91654000  1.0
  I  I91  1  0.70226000  0.42740000  0.58346000  1.0
  N  N92  1  0.02688000  0.24766000  0.46163000  1.0
  N  N93  1  0.47313000  0.74765000  0.03836000  1.0
  N  N94  1  0.97313000  0.75234000  0.53836000  1.0
  N  N95  1  0.52687000  0.25234000  0.96164000  1.0
  N  N96  1  0.10531000  0.56637000  0.87946000  1.0
  N  N97  1  0.39470000  0.06637000  0.62054000  1.0
  N  N98  1  0.89470000  0.43363000  0.12055000  1.0
  N  N99  1  0.60530000  0.93363000  0.37945000  1.0
  N  N100  1  0.59812000  0.42142000  0.27959000  1.0
  N  N101  1  0.90188000  0.92142000  0.22041000  1.0
  N  N102  1  0.40188000  0.57858000  0.72041000  1.0
  N  N103  1  0.09811000  0.07858000  0.77959000  1.0
