# generated using pymatgen
data_ZnH14C18Br2(N2O)2
_symmetry_space_group_name_H-M   'P 1'
_cell_length_a   8.74821000
_cell_length_b   9.54574000
_cell_length_c   13.60550000
_cell_angle_alpha   73.23080000
_cell_angle_beta   73.91340000
_cell_angle_gamma   66.62510000
_symmetry_Int_Tables_number   1
_chemical_formula_structural   ZnH14C18Br2(N2O)2
_chemical_formula_sum   'Zn2 H28 C36 Br4 N8 O4'
_cell_volume   981.32970099
_cell_formula_units_Z   2
loop_
 _symmetry_equiv_pos_site_id
 _symmetry_equiv_pos_as_xyz
  1  'x, y, z'
loop_
 _atom_site_type_symbol
 _atom_site_label
 _atom_site_symmetry_multiplicity
 _atom_site_fract_x
 _atom_site_fract_y
 _atom_site_fract_z
 _atom_site_occupancy
  Zn  Zn0  1  0.48923000  0.45128000  0.26853000  1.0
  Zn  Zn1  1  0.51077000  0.54872000  0.73147000  1.0
  H  H2  1  0.80332000  0.43838000  0.10936000  1.0
  H  H3  1  0.19667000  0.56162000  0.89064000  1.0
  H  H4  1  0.11040000  0.38005000  0.10773000  1.0
  H  H5  1  0.88960000  0.61995000  0.89227000  1.0
  H  H6  1  0.20937000  0.29744000  0.27781000  1.0
  H  H7  1  0.79063000  0.70256000  0.72219000  1.0
  H  H8  1  0.69409000  0.34010000  0.43379000  1.0
  H  H9  1  0.30591000  0.65990000  0.56621000  1.0
  H  H10  1  0.12236000  0.28304000  0.46418000  1.0
  H  H11  1  0.87764000  0.71696000  0.53582000  1.0
  H  H12  1  0.04050000  0.38667000  0.61084000  1.0
  H  H13  1  0.95950000  0.61333000  0.38915000  1.0
  H  H14  1  0.13670000  0.34745000  0.77599000  1.0
  H  H15  1  0.86330000  0.65255000  0.22401000  1.0
  H  H16  1  0.09135000  0.89201000  0.87347000  1.0
  H  H17  1  0.90865000  0.10799000  0.12653000  1.0
  H  H18  1  0.98986000  0.93451000  0.71140000  1.0
  H  H19  1  0.01014000  0.06549000  0.28860000  1.0
  H  H20  1  0.28699000  0.86830000  0.94193000  1.0
  H  H21  1  0.71301000  0.13169000  0.05807000  1.0
  H  H22  1  0.32807000  0.12517000  0.08487000  1.0
  H  H23  1  0.67192000  0.87484000  0.91513000  1.0
  H  H24  1  0.44315000  0.00971000  0.25073000  1.0
  H  H25  1  0.55685000  0.99029000  0.74927000  1.0
  H  H26  1  0.49909000  0.72582000  0.32833000  1.0
  H  H27  1  0.50092000  0.27418000  0.67168000  1.0
  H  H28  1  0.33870000  0.66767000  0.08728000  1.0
  H  H29  1  0.66130000  0.33233000  0.91272000  1.0
  C  C30  1  0.85276000  0.40189000  0.18139000  1.0
  C  C31  1  0.14724000  0.59812000  0.81861000  1.0
  C  C32  1  0.02220000  0.36971000  0.18135000  1.0
  C  C33  1  0.97779000  0.63029000  0.81865000  1.0
  C  C34  1  0.07682000  0.32342000  0.27628000  1.0
  C  C35  1  0.92318000  0.67658000  0.72372000  1.0
  C  C36  1  0.96049000  0.30983000  0.36978000  1.0
  C  C37  1  0.03951000  0.69017000  0.63022000  1.0
  C  C38  1  0.79083000  0.34624000  0.36404000  1.0
  C  C39  1  0.20916000  0.65376000  0.63596000  1.0
  C  C40  1  0.94530000  0.18156000  0.55514000  1.0
  C  C41  1  0.05470000  0.81844000  0.44486000  1.0
  C  C42  1  0.01400000  0.16002000  0.64956000  1.0
  C  C43  1  0.98600000  0.83997000  0.35044000  1.0
  C  C44  1  0.05497000  0.27730000  0.66759000  1.0
  C  C45  1  0.94504000  0.72270000  0.33240000  1.0
  C  C46  1  0.10834000  0.25623000  0.75967000  1.0
  C  C47  1  0.89166000  0.74377000  0.24033000  1.0
  C  C48  1  0.12534000  0.11707000  0.83411000  1.0
  C  C49  1  0.87466000  0.88292000  0.16589000  1.0
  C  C50  1  0.08498000  0.99955000  0.81566000  1.0
  C  C51  1  0.91502000  0.00045000  0.18434000  1.0
  C  C52  1  0.02747000  0.02221000  0.72477000  1.0
  C  C53  1  0.97253000  0.97778000  0.27523000  1.0
  C  C54  1  0.17943000  0.10489000  0.93221000  1.0
  C  C55  1  0.82057000  0.89511000  0.06778000  1.0
  C  C56  1  0.32170000  0.90619000  0.07358000  1.0
  C  C57  1  0.67830000  0.09381000  0.92642000  1.0
  C  C58  1  0.35380000  0.00255000  0.12031000  1.0
  C  C59  1  0.64620000  0.99745000  0.87969000  1.0
  C  C60  1  0.41805000  0.93755000  0.21240000  1.0
  C  C61  1  0.58196000  0.06246000  0.78760000  1.0
  C  C62  1  0.45090000  0.77994000  0.25559000  1.0
  C  C63  1  0.54910000  0.22007000  0.74441000  1.0
  C  C64  1  0.35883000  0.74819000  0.12123000  1.0
  C  C65  1  0.64117000  0.25181000  0.87877000  1.0
  Br  Br66  1  0.47875000  0.33995000  0.13481000  1.0
  Br  Br67  1  0.52124000  0.66005000  0.86519000  1.0
  Br  Br68  1  0.34373000  0.39396000  0.44204000  1.0
  Br  Br69  1  0.65627000  0.60603000  0.55796000  1.0
  N  N70  1  0.74049000  0.39098000  0.27165000  1.0
  N  N71  1  0.25950000  0.60902000  0.72835000  1.0
  N  N72  1  0.01337000  0.26554000  0.46521000  1.0
  N  N73  1  0.98663000  0.73446000  0.53479000  1.0
  N  N74  1  0.25773000  0.95502000  0.98138000  1.0
  N  N75  1  0.74227000  0.04497000  0.01862000  1.0
  N  N76  1  0.42274000  0.68731000  0.20931000  1.0
  N  N77  1  0.57726000  0.31269000  0.79070000  1.0
  O  O78  1  0.83565000  0.12849000  0.55849000  1.0
  O  O79  1  0.16434000  0.87151000  0.44151000  1.0
  O  O80  1  0.15360000  0.22165000  0.96582000  1.0
  O  O81  1  0.84640000  0.77834000  0.03418000  1.0
