# generated using pymatgen
data_ZnP2H8C7(NO4)2
_symmetry_space_group_name_H-M   'P 1'
_cell_length_a   7.41813000
_cell_length_b   9.69704000
_cell_length_c   16.06930000
_cell_angle_alpha   90.00000000
_cell_angle_beta   90.00030000
_cell_angle_gamma   90.53620000
_symmetry_Int_Tables_number   1
_chemical_formula_structural   ZnP2H8C7(NO4)2
_chemical_formula_sum   'Zn4 P8 H32 C28 N8 O32'
_cell_volume   1155.87685476
_cell_formula_units_Z   4
loop_
 _symmetry_equiv_pos_site_id
 _symmetry_equiv_pos_as_xyz
  1  'x, y, z'
loop_
 _atom_site_type_symbol
 _atom_site_label
 _atom_site_symmetry_multiplicity
 _atom_site_fract_x
 _atom_site_fract_y
 _atom_site_fract_z
 _atom_site_occupancy
  Zn  Zn0  1  0.22778000  0.70537000  0.31536000  1.0
  Zn  Zn1  1  0.77222000  0.79463000  0.81536000  1.0
  Zn  Zn2  1  0.77222000  0.29463000  0.68464000  1.0
  Zn  Zn3  1  0.22778000  0.20537000  0.18464000  1.0
  P  P4  1  0.10762000  0.39766000  0.34915000  1.0
  P  P5  1  0.89237000  0.10234000  0.84915000  1.0
  P  P6  1  0.89238000  0.60234000  0.65085000  1.0
  P  P7  1  0.10763000  0.89766000  0.15085000  1.0
  P  P8  1  0.51520000  0.47388000  0.35228000  1.0
  P  P9  1  0.48480000  0.02612000  0.85228000  1.0
  P  P10  1  0.48480000  0.52612000  0.64772000  1.0
  P  P11  1  0.51520000  0.97388000  0.14772000  1.0
  H  H12  1  0.84558000  0.39434000  0.41396000  1.0
  H  H13  1  0.15443000  0.10566000  0.91396000  1.0
  H  H14  1  0.15442000  0.60566000  0.58604000  1.0
  H  H15  1  0.84558000  0.89434000  0.08604000  1.0
  H  H16  1  0.49069000  0.41978000  0.22163000  1.0
  H  H17  1  0.50932000  0.08022000  0.72163000  1.0
  H  H18  1  0.50930000  0.58022000  0.77837000  1.0
  H  H19  1  0.49069000  0.91978000  0.27837000  1.0
  H  H20  1  0.27714000  0.35093000  0.56516000  1.0
  H  H21  1  0.72286000  0.14907000  0.06516000  1.0
  H  H22  1  0.72286000  0.64908000  0.43484000  1.0
  H  H23  1  0.27714000  0.85093000  0.93484000  1.0
  H  H24  1  0.39410000  0.18189000  0.37519000  1.0
  H  H25  1  0.60590000  0.31810000  0.87519000  1.0
  H  H26  1  0.60590000  0.81811000  0.62481000  1.0
  H  H27  1  0.39410000  0.68189000  0.12481000  1.0
  H  H28  1  0.16783000  0.25108000  0.68305000  1.0
  H  H29  1  0.83218000  0.24892000  0.18305000  1.0
  H  H30  1  0.83218000  0.74892000  0.31695000  1.0
  H  H31  1  0.16782000  0.75108000  0.81694000  1.0
  H  H32  1  0.10764000  0.99383000  0.68823000  1.0
  H  H33  1  0.89237000  0.50617000  0.18823000  1.0
  H  H34  1  0.89236000  0.00618000  0.31177000  1.0
  H  H35  1  0.10763000  0.49383000  0.81177000  1.0
  H  H36  1  0.17154000  0.85687000  0.55823000  1.0
  H  H37  1  0.82846000  0.64312000  0.05823000  1.0
  H  H38  1  0.82846000  0.14312000  0.44177000  1.0
  H  H39  1  0.17153000  0.35688000  0.94177000  1.0
  H  H40  1  0.31011000  0.45115000  0.46320000  1.0
  H  H41  1  0.68989000  0.04884000  0.96320000  1.0
  H  H42  1  0.68989000  0.54885000  0.53680000  1.0
  H  H43  1  0.31011000  0.95116000  0.03680000  1.0
  C  C44  1  0.19116000  0.18280000  0.63059000  1.0
  C  C45  1  0.80884000  0.31719000  0.13059000  1.0
  C  C46  1  0.80884000  0.81721000  0.36941000  1.0
  C  C47  1  0.19116000  0.68281000  0.86941000  1.0
  C  C48  1  0.16111000  0.04261000  0.63236000  1.0
  C  C49  1  0.83890000  0.45739000  0.13236000  1.0
  C  C50  1  0.83890000  0.95740000  0.36764000  1.0
  C  C51  1  0.16110000  0.54260000  0.86764000  1.0
  C  C52  1  0.19930000  0.96733000  0.56038000  1.0
  C  C53  1  0.80070000  0.53266000  0.06037000  1.0
  C  C54  1  0.80070000  0.03267000  0.43963000  1.0
  C  C55  1  0.19929000  0.46734000  0.93963000  1.0
  C  C56  1  0.26887000  0.03029000  0.48924000  1.0
  C  C57  1  0.73113000  0.46971000  0.98924000  1.0
  C  C58  1  0.73113000  0.96971000  0.51076000  1.0
  C  C59  1  0.26885000  0.53029000  0.01075000  1.0
  C  C60  1  0.29765000  0.17590000  0.48998000  1.0
  C  C61  1  0.70236000  0.32409000  0.98998000  1.0
  C  C62  1  0.70236000  0.82411000  0.51002000  1.0
  C  C63  1  0.29764000  0.67591000  0.01002000  1.0
  C  C64  1  0.30075000  0.94516000  0.41323000  1.0
  C  C65  1  0.69924000  0.55483000  0.91323000  1.0
  C  C66  1  0.69925000  0.05484000  0.58677000  1.0
  C  C67  1  0.30074000  0.44517000  0.08677000  1.0
  C  C68  1  0.32410000  0.39022000  0.40580000  1.0
  C  C69  1  0.67590000  0.10978000  0.90581000  1.0
  C  C70  1  0.67591000  0.60977000  0.59420000  1.0
  C  C71  1  0.32409000  0.89023000  0.09420000  1.0
  N  N72  1  0.25444000  0.24490000  0.56104000  1.0
  N  N73  1  0.74557000  0.25510000  0.06105000  1.0
  N  N74  1  0.74557000  0.75510000  0.43896000  1.0
  N  N75  1  0.25443000  0.74489000  0.93895000  1.0
  N  N76  1  0.36386000  0.24643000  0.42421000  1.0
  N  N77  1  0.63615000  0.25357000  0.92422000  1.0
  N  N78  1  0.63615000  0.75357000  0.57578000  1.0
  N  N79  1  0.36385000  0.74643000  0.07578000  1.0
  O  O80  1  0.23081000  0.82412000  0.41459000  1.0
  O  O81  1  0.76919000  0.67588000  0.91459000  1.0
  O  O82  1  0.76919000  0.17588000  0.58542000  1.0
  O  O83  1  0.23081000  0.32412000  0.08542000  1.0
  O  O84  1  0.39140000  0.99628000  0.35330000  1.0
  O  O85  1  0.60859000  0.50372000  0.85330000  1.0
  O  O86  1  0.60861000  0.00372000  0.64671000  1.0
  O  O87  1  0.39139000  0.49629000  0.14671000  1.0
  O  O88  1  0.11780000  0.29448000  0.27837000  1.0
  O  O89  1  0.88219000  0.20551000  0.77837000  1.0
  O  O90  1  0.88219000  0.70552000  0.72163000  1.0
  O  O91  1  0.11781000  0.79448000  0.22163000  1.0
  O  O92  1  0.06331000  0.54544000  0.32503000  1.0
  O  O93  1  0.93669000  0.95456000  0.82504000  1.0
  O  O94  1  0.93669000  0.45456000  0.67497000  1.0
  O  O95  1  0.06331000  0.04544000  0.17496000  1.0
  O  O96  1  0.96811000  0.34378000  0.41580000  1.0
  O  O97  1  0.03189000  0.15622000  0.91580000  1.0
  O  O98  1  0.03189000  0.65622000  0.58420000  1.0
  O  O99  1  0.96811000  0.84378000  0.08420000  1.0
  O  O100  1  0.55418000  0.38174000  0.27338000  1.0
  O  O101  1  0.44583000  0.11826000  0.77338000  1.0
  O  O102  1  0.44582000  0.61827000  0.72662000  1.0
  O  O103  1  0.55418000  0.88174000  0.22663000  1.0
  O  O104  1  0.67401000  0.47200000  0.41217000  1.0
  O  O105  1  0.32600000  0.02800000  0.91216000  1.0
  O  O106  1  0.32599000  0.52800000  0.58783000  1.0
  O  O107  1  0.67400000  0.97200000  0.08784000  1.0
  O  O108  1  0.46243000  0.61869000  0.32659000  1.0
  O  O109  1  0.53757000  0.88131000  0.82659000  1.0
  O  O110  1  0.53757000  0.38131000  0.67341000  1.0
  O  O111  1  0.46243000  0.11869000  0.17341000  1.0
