# generated using pymatgen
data_CoH9C12N3O4
_symmetry_space_group_name_H-M   'P 1'
_cell_length_a   8.67705000
_cell_length_b   9.39621000
_cell_length_c   9.85243699
_cell_angle_alpha   99.69848309
_cell_angle_beta   114.83728405
_cell_angle_gamma   97.46780000
_symmetry_Int_Tables_number   1
_chemical_formula_structural   CoH9C12N3O4
_chemical_formula_sum   'Co2 H18 C24 N6 O8'
_cell_volume   700.23902839
_cell_formula_units_Z   2
loop_
 _symmetry_equiv_pos_site_id
 _symmetry_equiv_pos_as_xyz
  1  'x, y, z'
loop_
 _atom_site_type_symbol
 _atom_site_label
 _atom_site_symmetry_multiplicity
 _atom_site_fract_x
 _atom_site_fract_y
 _atom_site_fract_z
 _atom_site_occupancy
  Co  Co0  1  0.21377000  0.64815000  0.13199000  1.0
  Co  Co1  1  0.78623000  0.35185000  0.86801000  1.0
  H  H2  1  0.47617000  0.84837000  0.15084000  1.0
  H  H3  1  0.52383000  0.15163000  0.84916000  1.0
  H  H4  1  0.37408000  0.39164000  0.71646000  1.0
  H  H5  1  0.62592000  0.60836000  0.28354000  1.0
  H  H6  1  0.14267000  0.05959000  0.97706000  1.0
  H  H7  1  0.85733000  0.94040000  0.02294000  1.0
  H  H8  1  0.32498000  0.37911000  0.40855000  1.0
  H  H9  1  0.67502000  0.62088000  0.59144000  1.0
  H  H10  1  0.57103000  0.01173000  0.38738000  1.0
  H  H11  1  0.42898000  0.98827000  0.61262000  1.0
  H  H12  1  0.36216000  0.91043000  0.88475000  1.0
  H  H13  1  0.63784000  0.08957000  0.11525000  1.0
  H  H14  1  0.15539000  0.84782000  0.87606000  1.0
  H  H15  1  0.84460000  0.15218000  0.12393000  1.0
  H  H16  1  0.38118000  0.65597000  0.68833000  1.0
  H  H17  1  0.61883000  0.34404000  0.31168000  1.0
  H  H18  1  0.26648000  0.34461000  0.91630000  1.0
  H  H19  1  0.73352000  0.65540000  0.08370000  1.0
  C  C20  1  0.35329000  0.01349000  0.17232000  1.0
  C  C21  1  0.64671000  0.98651000  0.82768000  1.0
  C  C22  1  0.23253000  0.09551000  0.09969000  1.0
  C  C23  1  0.76747000  0.90449000  0.90031000  1.0
  C  C24  1  0.22649000  0.22821000  0.18502000  1.0
  C  C25  1  0.77351000  0.77179000  0.81498000  1.0
  C  C26  1  0.33341000  0.27657000  0.34437000  1.0
  C  C27  1  0.66659000  0.72343000  0.65562000  1.0
  C  C28  1  0.45586000  0.19613000  0.41614000  1.0
  C  C29  1  0.54415000  0.80387000  0.58386000  1.0
  C  C30  1  0.46950000  0.06868000  0.32987000  1.0
  C  C31  1  0.53050000  0.93132000  0.67013000  1.0
  C  C32  1  0.29159000  0.83710000  0.92656000  1.0
  C  C33  1  0.70841000  0.16290000  0.07344000  1.0
  C  C34  1  0.30164000  0.68089000  0.87863000  1.0
  C  C35  1  0.69836000  0.31911000  0.12137000  1.0
  C  C36  1  0.34397000  0.61328000  0.76818000  1.0
  C  C37  1  0.65603000  0.38673000  0.23182000  1.0
  C  C38  1  0.28489000  0.44902000  0.88609000  1.0
  C  C39  1  0.71511000  0.55099000  0.11391000  1.0
  C  C40  1  0.11137000  0.32355000  0.10410000  1.0
  C  C41  1  0.88863000  0.67645000  0.89590000  1.0
  C  C42  1  0.58055000  0.24812000  0.58345000  1.0
  C  C43  1  0.41946000  0.75188000  0.41655000  1.0
  N  N44  1  0.36067000  0.87722000  0.09471000  1.0
  N  N45  1  0.63933000  0.12278000  0.90529000  1.0
  N  N46  1  0.26518000  0.57698000  0.95200000  1.0
  N  N47  1  0.73482000  0.42302000  0.04800000  1.0
  N  N48  1  0.33130000  0.46714000  0.77393000  1.0
  N  N49  1  0.66870000  0.53286000  0.22607000  1.0
  O  O50  1  0.14298000  0.45814000  0.17657000  1.0
  O  O51  1  0.85703000  0.54185000  0.82344000  1.0
  O  O52  1  0.99049000  0.26429000  0.96735000  1.0
  O  O53  1  0.00951000  0.73571000  0.03265000  1.0
  O  O54  1  0.52671000  0.30410000  0.68073000  1.0
  O  O55  1  0.47330000  0.69591000  0.31927000  1.0
  O  O56  1  0.73663000  0.23660000  0.63097000  1.0
  O  O57  1  0.26337000  0.76340000  0.36903000  1.0
