# generated using pymatgen
data_Cu7H30C24N6(Cl4O3)2
_symmetry_space_group_name_H-M   'P 1'
_cell_length_a   8.01004000
_cell_length_b   11.16370000
_cell_length_c   11.63960000
_cell_angle_alpha   66.52430000
_cell_angle_beta   83.85070000
_cell_angle_gamma   86.54370000
_symmetry_Int_Tables_number   1
_chemical_formula_structural   Cu7H30C24N6(Cl4O3)2
_chemical_formula_sum   'Cu7 H30 C24 N6 Cl8 O6'
_cell_volume   949.01178954
_cell_formula_units_Z   1
loop_
 _symmetry_equiv_pos_site_id
 _symmetry_equiv_pos_as_xyz
  1  'x, y, z'
loop_
 _atom_site_type_symbol
 _atom_site_label
 _atom_site_symmetry_multiplicity
 _atom_site_fract_x
 _atom_site_fract_y
 _atom_site_fract_z
 _atom_site_occupancy
  Cu  Cu0  1  0.69667000  0.60691000  0.54798000  1.0
  Cu  Cu1  1  0.30333000  0.39309000  0.45202000  1.0
  Cu  Cu2  1  0.90165000  0.39560000  0.35530000  1.0
  Cu  Cu3  1  0.09835000  0.60440000  0.64470000  1.0
  Cu  Cu4  1  0.04656000  0.32846000  0.68099000  1.0
  Cu  Cu5  1  0.95344000  0.67153000  0.31901000  1.0
  Cu  Cu6  1  0.00000000  0.00000000  0.00000000  1.0
  H  H7  1  0.65084000  0.88144000  0.31786000  1.0
  H  H8  1  0.34915000  0.11856000  0.68214000  1.0
  H  H9  1  0.68393000  0.92572000  0.44674000  1.0
  H  H10  1  0.31607000  0.07429000  0.55326000  1.0
  H  H11  1  0.42604000  0.71871000  0.46937000  1.0
  H  H12  1  0.57395000  0.28130000  0.53062000  1.0
  H  H13  1  0.62869000  0.76656000  0.66063000  1.0
  H  H14  1  0.37131000  0.23344000  0.33937000  1.0
  H  H15  1  0.47218000  0.63673000  0.69659000  1.0
  H  H16  1  0.52782000  0.36327000  0.30341000  1.0
  H  H17  1  0.94638000  0.11257000  0.37821000  1.0
  H  H18  1  0.05363000  0.88743000  0.62179000  1.0
  H  H19  1  0.76758000  0.17502000  0.28890000  1.0
  H  H20  1  0.23242000  0.82498000  0.71110000  1.0
  H  H21  1  0.11114000  0.31298000  0.22734000  1.0
  H  H22  1  0.88886000  0.68702000  0.77266000  1.0
  H  H23  1  0.74890000  0.41383000  0.16012000  1.0
  H  H24  1  0.25110000  0.58616000  0.83988000  1.0
  H  H25  1  0.94029000  0.51331000  0.11816000  1.0
  H  H26  1  0.05971000  0.48669000  0.88184000  1.0
  H  H27  1  0.45869000  0.70356000  0.19063000  1.0
  H  H28  1  0.54132000  0.29645000  0.80937000  1.0
  H  H29  1  0.58332000  0.82496000  0.06973000  1.0
  H  H30  1  0.41668000  0.17504000  0.93027000  1.0
  H  H31  1  0.34149000  0.65498000  0.00972000  1.0
  H  H32  1  0.65850000  0.34502000  0.99028000  1.0
  H  H33  1  0.72457000  0.69813000  0.95526000  1.0
  H  H34  1  0.27542000  0.30187000  0.04473000  1.0
  H  H35  1  0.59825000  0.59916000  0.90085000  1.0
  H  H36  1  0.40174000  0.40083000  0.09915000  1.0
  C  C37  1  0.35210000  0.98013000  0.29706000  1.0
  C  C38  1  0.64790000  0.01987000  0.70294000  1.0
  C  C39  1  0.10910000  0.04923000  0.20995000  1.0
  C  C40  1  0.89090000  0.95077000  0.79005000  1.0
  C  C41  1  0.28965000  0.91781000  0.14568000  1.0
  C  C42  1  0.71035000  0.08219000  0.85432000  1.0
  C  C43  1  0.59531000  0.88611000  0.40629000  1.0
  C  C44  1  0.40469000  0.11389000  0.59371000  1.0
  C  C45  1  0.52659000  0.75841000  0.49973000  1.0
  C  C46  1  0.47341000  0.24159000  0.50027000  1.0
  C  C47  1  0.55163000  0.71255000  0.62645000  1.0
  C  C48  1  0.44838000  0.28745000  0.37356000  1.0
  C  C49  1  0.90497000  0.17315000  0.28533000  1.0
  C  C50  1  0.09504000  0.82684000  0.71467000  1.0
  C  C51  1  0.97451000  0.30796000  0.23410000  1.0
  C  C52  1  0.02549000  0.69204000  0.76590000  1.0
  C  C53  1  0.88064000  0.41977000  0.17324000  1.0
  C  C54  1  0.11936000  0.58023000  0.82677000  1.0
  C  C55  1  0.46875000  0.76841000  0.09020000  1.0
  C  C56  1  0.53125000  0.23160000  0.90979000  1.0
  C  C57  1  0.46416000  0.69239000  0.01072000  1.0
  C  C58  1  0.53584000  0.30762000  0.98927000  1.0
  C  C59  1  0.60215000  0.66261000  0.95145000  1.0
  C  C60  1  0.39785000  0.33738000  0.04855000  1.0
  N  N61  1  0.21085000  0.05289000  0.29152000  1.0
  N  N62  1  0.78915000  0.94711000  0.70848000  1.0
  N  N63  1  0.14405000  0.98733000  0.13109000  1.0
  N  N64  1  0.85595000  0.01267000  0.86891000  1.0
  N  N65  1  0.39615000  0.90919000  0.22886000  1.0
  N  N66  1  0.60385000  0.09082000  0.77114000  1.0
  Cl  Cl67  1  0.81478000  0.45603000  0.71107000  1.0
  Cl  Cl68  1  0.18523000  0.54397000  0.28893000  1.0
  Cl  Cl69  1  0.70489000  0.53865000  0.38688000  1.0
  Cl  Cl70  1  0.29511000  0.46135000  0.61312000  1.0
  Cl  Cl71  1  0.98719000  0.24770000  0.53945000  1.0
  Cl  Cl72  1  0.01281000  0.75230000  0.46055000  1.0
  Cl  Cl73  1  0.10507000  0.21026000  0.87932000  1.0
  Cl  Cl74  1  0.89493000  0.78974000  0.12068000  1.0
  O  O75  1  0.45467000  0.98207000  0.37921000  1.0
  O  O76  1  0.54533000  0.01794000  0.62079000  1.0
  O  O77  1  0.95848000  0.10773000  0.19978000  1.0
  O  O78  1  0.04152000  0.89227000  0.80022000  1.0
  O  O79  1  0.32193000  0.85717000  0.06832000  1.0
  O  O80  1  0.67807000  0.14284000  0.93168000  1.0
