# generated using pymatgen
data_CdH24C38N2O5
_symmetry_space_group_name_H-M   'P 1'
_cell_length_a   10.70040000
_cell_length_b   10.75530000
_cell_length_c   13.37830000
_cell_angle_alpha   93.58590000
_cell_angle_beta   109.31100000
_cell_angle_gamma   97.38560000
_symmetry_Int_Tables_number   1
_chemical_formula_structural   CdH24C38N2O5
_chemical_formula_sum   'Cd2 H48 C76 N4 O10'
_cell_volume   1431.86846055
_cell_formula_units_Z   2
loop_
 _symmetry_equiv_pos_site_id
 _symmetry_equiv_pos_as_xyz
  1  'x, y, z'
loop_
 _atom_site_type_symbol
 _atom_site_label
 _atom_site_symmetry_multiplicity
 _atom_site_fract_x
 _atom_site_fract_y
 _atom_site_fract_z
 _atom_site_occupancy
  Cd  Cd0  1  0.69302000  0.43566000  0.57698000  1.0
  Cd  Cd1  1  0.30698000  0.56433000  0.42302000  1.0
  H  H2  1  0.59287000  0.64582000  0.40429000  1.0
  H  H3  1  0.40713000  0.35418000  0.59571000  1.0
  H  H4  1  0.61976000  0.71518000  0.23740000  1.0
  H  H5  1  0.38024000  0.28482000  0.76260000  1.0
  H  H6  1  0.88431000  0.22307000  0.64952000  1.0
  H  H7  1  0.11569000  0.77693000  0.35048000  1.0
  H  H8  1  0.03332000  0.10195000  0.58691000  1.0
  H  H9  1  0.96668000  0.89805000  0.41309000  1.0
  H  H10  1  0.08647000  0.32980000  0.29676000  1.0
  H  H11  1  0.91353000  0.67020000  0.70324000  1.0
  H  H12  1  0.97862000  0.49704000  0.20542000  1.0
  H  H13  1  0.02138000  0.50296000  0.79458000  1.0
  H  H14  1  0.77455000  0.46109000  0.06155000  1.0
  H  H15  1  0.22545000  0.53891000  0.93846000  1.0
  H  H16  1  0.79840000  0.54096000  0.89752000  1.0
  H  H17  1  0.20160000  0.45903000  0.10248000  1.0
  H  H18  1  0.82364000  0.77048000  0.88237000  1.0
  H  H19  1  0.17635000  0.22951000  0.11763000  1.0
  H  H20  1  0.83183000  0.92236000  0.03450000  1.0
  H  H21  1  0.16817000  0.07763000  0.96550000  1.0
  H  H22  1  0.80971000  0.84331000  0.19875000  1.0
  H  H23  1  0.19028000  0.15669000  0.80125000  1.0
  H  H24  1  0.26110000  0.14930000  0.57254000  1.0
  H  H25  1  0.73890000  0.85070000  0.42746000  1.0
  H  H26  1  0.41429000  0.03819000  0.51077000  1.0
  H  H27  1  0.58572000  0.96181000  0.48923000  1.0
  H  H28  1  0.97910000  0.10592000  0.25203000  1.0
  H  H29  1  0.02090000  0.89408000  0.74797000  1.0
  H  H30  1  0.92338000  0.32452000  0.94157000  1.0
  H  H31  1  0.07662000  0.67548000  0.05843000  1.0
  H  H32  1  0.91722000  0.23999000  0.11121000  1.0
  H  H33  1  0.08278000  0.76001000  0.88879000  1.0
  H  H34  1  0.51051000  0.05746000  0.94695000  1.0
  H  H35  1  0.48949000  0.94254000  0.05305000  1.0
  H  H36  1  0.52011000  0.13854000  0.77880000  1.0
  H  H37  1  0.47989000  0.86146000  0.22120000  1.0
  H  H38  1  0.57058000  0.29695000  0.06876000  1.0
  H  H39  1  0.42941000  0.70305000  0.93124000  1.0
  H  H40  1  0.44674000  0.39854000  0.16951000  1.0
  H  H41  1  0.55326000  0.60147000  0.83049000  1.0
  H  H42  1  0.57627000  0.16283000  0.41899000  1.0
  H  H43  1  0.42373000  0.83717000  0.58101000  1.0
  H  H44  1  0.69710000  0.05479000  0.31629000  1.0
  H  H45  1  0.30290000  0.94521000  0.68370000  1.0
  H  H46  1  0.13057000  0.98852000  0.18998000  1.0
  H  H47  1  0.86943000  0.01148000  0.81002000  1.0
  H  H48  1  0.34978000  0.95651000  0.31890000  1.0
  H  H49  1  0.65022000  0.04349000  0.68110000  1.0
  C  C50  1  0.66273000  0.60781000  0.37171000  1.0
  C  C51  1  0.33727000  0.39219000  0.62829000  1.0
  C  C52  1  0.68040000  0.64781000  0.27888000  1.0
  C  C53  1  0.31960000  0.35219000  0.72112000  1.0
  C  C54  1  0.77165000  0.60064000  0.23892000  1.0
  C  C55  1  0.22835000  0.39936000  0.76108000  1.0
  C  C56  1  0.84273000  0.50781000  0.29470000  1.0
  C  C57  1  0.15728000  0.49219000  0.70530000  1.0
  C  C58  1  0.81479000  0.46960000  0.38620000  1.0
  C  C59  1  0.18521000  0.53040000  0.61380000  1.0
  C  C60  1  0.87940000  0.37059000  0.44097000  1.0
  C  C61  1  0.12060000  0.62941000  0.55903000  1.0
  C  C62  1  0.90815000  0.24493000  0.57885000  1.0
  C  C63  1  0.09185000  0.75507000  0.42115000  1.0
  C  C64  1  0.99403000  0.17943000  0.54445000  1.0
  C  C65  1  0.00597000  0.82057000  0.45555000  1.0
  C  C66  1  0.02449000  0.21008000  0.45476000  1.0
  C  C67  1  0.97551000  0.78992000  0.54524000  1.0
  C  C68  1  0.96976000  0.31274000  0.40277000  1.0
  C  C69  1  0.03024000  0.68726000  0.59723000  1.0
  C  C70  1  0.00586000  0.36359000  0.31814000  1.0
  C  C71  1  0.99415000  0.63641000  0.68186000  1.0
  C  C72  1  0.94466000  0.45668000  0.26624000  1.0
  C  C73  1  0.05534000  0.54332000  0.73376000  1.0
  C  C74  1  0.79079000  0.64639000  0.14215000  1.0
  C  C75  1  0.20921000  0.35361000  0.85785000  1.0
  C  C76  1  0.78904000  0.56237000  0.05654000  1.0
  C  C77  1  0.21096000  0.43763000  0.94346000  1.0
  C  C78  1  0.80199000  0.60694000  0.96417000  1.0
  C  C79  1  0.19801000  0.39306000  0.03583000  1.0
  C  C80  1  0.81708000  0.73654000  0.95589000  1.0
  C  C81  1  0.18292000  0.26346000  0.04411000  1.0
  C  C82  1  0.82020000  0.82117000  0.04056000  1.0
  C  C83  1  0.17979000  0.17883000  0.95944000  1.0
  C  C84  1  0.80657000  0.77654000  0.13276000  1.0
  C  C85  1  0.19343000  0.22345000  0.86724000  1.0
  C  C86  1  0.11162000  0.13851000  0.41631000  1.0
  C  C87  1  0.88838000  0.86149000  0.58369000  1.0
  C  C88  1  0.23256000  0.11427000  0.48868000  1.0
  C  C89  1  0.76744000  0.88573000  0.51132000  1.0
  C  C90  1  0.31841000  0.05094000  0.45353000  1.0
  C  C91  1  0.68159000  0.94907000  0.54647000  1.0
  C  C92  1  0.07541000  0.09204000  0.30822000  1.0
  C  C93  1  0.92459000  0.90796000  0.69178000  1.0
  C  C94  1  0.72033000  0.30071000  0.75353000  1.0
  C  C95  1  0.27967000  0.69929000  0.24647000  1.0
  C  C96  1  0.72099000  0.23919000  0.85112000  1.0
  C  C97  1  0.27901000  0.76081000  0.14889000  1.0
  C  C98  1  0.83433000  0.26468000  0.94369000  1.0
  C  C99  1  0.16568000  0.73532000  0.05631000  1.0
  C  C100  1  0.83131000  0.21754000  0.03773000  1.0
  C  C101  1  0.16869000  0.78246000  0.96227000  1.0
  C  C102  1  0.71368000  0.14537000  0.03840000  1.0
  C  C103  1  0.28632000  0.85464000  0.96160000  1.0
  C  C104  1  0.60170000  0.11396000  0.94563000  1.0
  C  C105  1  0.39830000  0.88604000  0.05437000  1.0
  C  C106  1  0.60638000  0.16077000  0.85213000  1.0
  C  C107  1  0.39362000  0.83923000  0.14787000  1.0
  C  C108  1  0.63913000  0.16770000  0.18596000  1.0
  C  C109  1  0.36087000  0.83230000  0.81403000  1.0
  C  C110  1  0.57039000  0.26551000  0.14444000  1.0
  C  C111  1  0.42961000  0.73449000  0.85555000  1.0
  C  C112  1  0.50053000  0.32238000  0.20097000  1.0
  C  C113  1  0.49947000  0.67762000  0.79903000  1.0
  C  C114  1  0.50065000  0.28547000  0.29938000  1.0
  C  C115  1  0.49935000  0.71452000  0.70062000  1.0
  C  C116  1  0.57281000  0.18922000  0.34093000  1.0
  C  C117  1  0.42719000  0.81078000  0.65907000  1.0
  C  C118  1  0.64041000  0.12929000  0.28436000  1.0
  C  C119  1  0.35959000  0.87071000  0.71563000  1.0
  C  C120  1  0.43302000  0.35400000  0.36221000  1.0
  C  C121  1  0.56698000  0.64599000  0.63779000  1.0
  C  C122  1  0.16028000  0.02595000  0.27362000  1.0
  C  C123  1  0.83972000  0.97406000  0.72638000  1.0
  C  C124  1  0.28296000  0.00703000  0.34593000  1.0
  C  C125  1  0.71704000  0.99297000  0.65407000  1.0
  N  N126  1  0.72872000  0.52188000  0.42456000  1.0
  N  N127  1  0.27128000  0.47812000  0.57544000  1.0
  N  N128  1  0.85025000  0.33572000  0.52735000  1.0
  N  N129  1  0.14975000  0.66428000  0.47265000  1.0
  O  O130  1  0.61636000  0.27312000  0.66965000  1.0
  O  O131  1  0.38364000  0.72688000  0.33035000  1.0
  O  O132  1  0.82217000  0.37977000  0.75912000  1.0
  O  O133  1  0.17783000  0.62023000  0.24088000  1.0
  O  O134  1  0.71015000  0.10463000  0.13483000  1.0
  O  O135  1  0.28985000  0.89537000  0.86517000  1.0
  O  O136  1  0.47692000  0.35748000  0.46325000  1.0
  O  O137  1  0.52308000  0.64251000  0.53675000  1.0
  O  O138  1  0.33539000  0.40886000  0.31160000  1.0
  O  O139  1  0.66461000  0.59113000  0.68840000  1.0
