# generated using pymatgen
data_Zn4H32C54O13
_symmetry_space_group_name_H-M   'P 1'
_cell_length_a   21.65220000
_cell_length_b   21.65220000
_cell_length_c   34.71770000
_cell_angle_alpha   90.00010000
_cell_angle_beta   90.00000000
_cell_angle_gamma   89.99990000
_symmetry_Int_Tables_number   1
_chemical_formula_structural   Zn4H32C54O13
_chemical_formula_sum   'Zn8 H64 C108 O26'
_cell_volume   16276.27451434
_cell_formula_units_Z   2
loop_
 _symmetry_equiv_pos_site_id
 _symmetry_equiv_pos_as_xyz
  1  'x, y, z'
loop_
 _atom_site_type_symbol
 _atom_site_label
 _atom_site_symmetry_multiplicity
 _atom_site_fract_x
 _atom_site_fract_y
 _atom_site_fract_z
 _atom_site_occupancy
  Zn  Zn0  1  0.44748000  0.55252000  0.03240000  1.0
  Zn  Zn1  1  0.44748000  0.44748000  0.96760000  1.0
  Zn  Zn2  1  0.55252000  0.44748000  0.03240000  1.0
  Zn  Zn3  1  0.55252000  0.55252000  0.96760000  1.0
  Zn  Zn4  1  0.55252000  0.44748000  0.46760000  1.0
  Zn  Zn5  1  0.44748000  0.44748000  0.53240000  1.0
  Zn  Zn6  1  0.44748000  0.55252000  0.46760000  1.0
  Zn  Zn7  1  0.55252000  0.55252000  0.53240000  1.0
  H  H8  1  0.56963000  0.25669000  0.04401000  1.0
  H  H9  1  0.56990000  0.14148000  0.04413000  1.0
  H  H10  1  0.43038000  0.25669000  0.95599000  1.0
  H  H11  1  0.43010000  0.14148000  0.95587000  1.0
  H  H12  1  0.49989000  0.05718000  0.93798000  1.0
  H  H13  1  0.50011000  0.05717000  0.06202000  1.0
  H  H14  1  0.43037000  0.74330000  0.04401000  1.0
  H  H15  1  0.43010000  0.85851000  0.04413000  1.0
  H  H16  1  0.56963000  0.74330000  0.95599000  1.0
  H  H17  1  0.56991000  0.85851000  0.95587000  1.0
  H  H18  1  0.49989000  0.94282000  0.06202000  1.0
  H  H19  1  0.50011000  0.94282000  0.93798000  1.0
  H  H20  1  0.57004000  0.42997000  0.15146000  1.0
  H  H21  1  0.57062000  0.42938000  0.22229000  1.0
  H  H22  1  0.42997000  0.57004000  0.34854000  1.0
  H  H23  1  0.42938000  0.57062000  0.27771000  1.0
  H  H24  1  0.57003000  0.42996000  0.34854000  1.0
  H  H25  1  0.57062000  0.42938000  0.27771000  1.0
  H  H26  1  0.42996000  0.57003000  0.15146000  1.0
  H  H27  1  0.42938000  0.57062000  0.22229000  1.0
  H  H28  1  0.57004000  0.57003000  0.84854000  1.0
  H  H29  1  0.57062000  0.57062000  0.77771000  1.0
  H  H30  1  0.42997000  0.42996000  0.65146000  1.0
  H  H31  1  0.42938000  0.42938000  0.72229000  1.0
  H  H32  1  0.57003000  0.57004000  0.65146000  1.0
  H  H33  1  0.57062000  0.57062000  0.72229000  1.0
  H  H34  1  0.42996000  0.42997000  0.84854000  1.0
  H  H35  1  0.42938000  0.42938000  0.77771000  1.0
  H  H36  1  0.74330000  0.42966000  0.04357000  1.0
  H  H37  1  0.85851000  0.42944000  0.04373000  1.0
  H  H38  1  0.74330000  0.57034000  0.95643000  1.0
  H  H39  1  0.85851000  0.57056000  0.95627000  1.0
  H  H40  1  0.94281000  0.59945000  0.99993000  1.0
  H  H41  1  0.94281000  0.40055000  0.00007000  1.0
  H  H42  1  0.25670000  0.42966000  0.95643000  1.0
  H  H43  1  0.14149000  0.42944000  0.95627000  1.0
  H  H44  1  0.25670000  0.57034000  0.04357000  1.0
  H  H45  1  0.14149000  0.57055000  0.04373000  1.0
  H  H46  1  0.05719000  0.40055000  0.99993000  1.0
  H  H47  1  0.05719000  0.59945000  0.00007000  1.0
  H  H48  1  0.25670000  0.56962000  0.45599000  1.0
  H  H49  1  0.14149000  0.56990000  0.45587000  1.0
  H  H50  1  0.25670000  0.43037000  0.54401000  1.0
  H  H51  1  0.14149000  0.43010000  0.54413000  1.0
  H  H52  1  0.05718000  0.49989000  0.56202000  1.0
  H  H53  1  0.05718000  0.50011000  0.43798000  1.0
  H  H54  1  0.74331000  0.43037000  0.45599000  1.0
  H  H55  1  0.85852000  0.43009000  0.45587000  1.0
  H  H56  1  0.74331000  0.56962000  0.54401000  1.0
  H  H57  1  0.85852000  0.56990000  0.54413000  1.0
  H  H58  1  0.94283000  0.49989000  0.43798000  1.0
  H  H59  1  0.94283000  0.50011000  0.56202000  1.0
  H  H60  1  0.42966000  0.74330000  0.45643000  1.0
  H  H61  1  0.42944000  0.85851000  0.45627000  1.0
  H  H62  1  0.57034000  0.74330000  0.54357000  1.0
  H  H63  1  0.57056000  0.85851000  0.54373000  1.0
  H  H64  1  0.59945000  0.94281000  0.50007000  1.0
  H  H65  1  0.40055000  0.94281000  0.49993000  1.0
  H  H66  1  0.42966000  0.25670000  0.54357000  1.0
  H  H67  1  0.42944000  0.14149000  0.54373000  1.0
  H  H68  1  0.57034000  0.25670000  0.45643000  1.0
  H  H69  1  0.57056000  0.14149000  0.45627000  1.0
  H  H70  1  0.40055000  0.05719000  0.50007000  1.0
  H  H71  1  0.59945000  0.05719000  0.49993000  1.0
  C  C72  1  0.33250000  0.50000000  0.00000000  1.0
  C  C73  1  0.50000000  0.33249000  0.00000000  1.0
  C  C74  1  0.50000000  0.50000000  0.10400000  1.0
  C  C75  1  0.66750000  0.50000000  0.00000000  1.0
  C  C76  1  0.50000000  0.66750000  0.00000000  1.0
  C  C77  1  0.50000000  0.50000000  0.89600000  1.0
  C  C78  1  0.50000000  0.33250000  0.50000000  1.0
  C  C79  1  0.33250000  0.50000000  0.50000000  1.0
  C  C80  1  0.50000000  0.50000000  0.39600000  1.0
  C  C81  1  0.50000000  0.66750000  0.50000000  1.0
  C  C82  1  0.66751000  0.50000000  0.50000000  1.0
  C  C83  1  0.50000000  0.50000000  0.60400000  1.0
  C  C84  1  0.50000000  0.26362000  0.00000000  1.0
  C  C85  1  0.53902000  0.23092000  0.02499000  1.0
  C  C86  1  0.53875000  0.16671000  0.02509000  1.0
  C  C87  1  0.46098000  0.23092000  0.97501000  1.0
  C  C88  1  0.46125000  0.16671000  0.97491000  1.0
  C  C89  1  0.50000000  0.13352000  0.00000000  1.0
  C  C90  1  0.50000000  0.06540000  0.00000000  1.0
  C  C91  1  0.49963000  0.03212000  0.96525000  1.0
  C  C92  1  0.50038000  0.03212000  0.03475000  1.0
  C  C93  1  0.50000000  0.73638000  0.00000000  1.0
  C  C94  1  0.46098000  0.76908000  0.02499000  1.0
  C  C95  1  0.46125000  0.83329000  0.02509000  1.0
  C  C96  1  0.53902000  0.76908000  0.97501000  1.0
  C  C97  1  0.53875000  0.83329000  0.97492000  1.0
  C  C98  1  0.50000000  0.86647000  0.00000000  1.0
  C  C99  1  0.50000000  0.93460000  0.00000000  1.0
  C  C100  1  0.49963000  0.96788000  0.03475000  1.0
  C  C101  1  0.50038000  0.96788000  0.96525000  1.0
  C  C102  1  0.50000000  0.50000000  0.14693000  1.0
  C  C103  1  0.50000000  0.50000000  0.35307000  1.0
  C  C104  1  0.53941000  0.46059000  0.16744000  1.0
  C  C105  1  0.53930000  0.46070000  0.20745000  1.0
  C  C106  1  0.46059000  0.53941000  0.33256000  1.0
  C  C107  1  0.46070000  0.53930000  0.29255000  1.0
  C  C108  1  0.53941000  0.46059000  0.33256000  1.0
  C  C109  1  0.53930000  0.46070000  0.29255000  1.0
  C  C110  1  0.46059000  0.53940000  0.16744000  1.0
  C  C111  1  0.46070000  0.53930000  0.20745000  1.0
  C  C112  1  0.50000000  0.50000000  0.22864000  1.0
  C  C113  1  0.50000000  0.50000000  0.27136000  1.0
  C  C114  1  0.50000000  0.50000000  0.85307000  1.0
  C  C115  1  0.50000000  0.50000000  0.64693000  1.0
  C  C116  1  0.53941000  0.53940000  0.83256000  1.0
  C  C117  1  0.53930000  0.53930000  0.79256000  1.0
  C  C118  1  0.46060000  0.46059000  0.66744000  1.0
  C  C119  1  0.46070000  0.46070000  0.70745000  1.0
  C  C120  1  0.53941000  0.53941000  0.66744000  1.0
  C  C121  1  0.53930000  0.53930000  0.70745000  1.0
  C  C122  1  0.46059000  0.46059000  0.83256000  1.0
  C  C123  1  0.46070000  0.46070000  0.79256000  1.0
  C  C124  1  0.50000000  0.50000000  0.77136000  1.0
  C  C125  1  0.50000000  0.50000000  0.72864000  1.0
  C  C126  1  0.73637000  0.50000000  0.00000000  1.0
  C  C127  1  0.76907000  0.46005000  0.02441000  1.0
  C  C128  1  0.83328000  0.45989000  0.02424000  1.0
  C  C129  1  0.76907000  0.53995000  0.97559000  1.0
  C  C130  1  0.83328000  0.54011000  0.97576000  1.0
  C  C131  1  0.86647000  0.50000000  0.00000000  1.0
  C  C132  1  0.93461000  0.50000000  0.00000000  1.0
  C  C133  1  0.96788000  0.55573000  0.99977000  1.0
  C  C134  1  0.96788000  0.44427000  0.00023000  1.0
  C  C135  1  0.26363000  0.50000000  0.00000000  1.0
  C  C136  1  0.23093000  0.46005000  0.97559000  1.0
  C  C137  1  0.16672000  0.45989000  0.97576000  1.0
  C  C138  1  0.23093000  0.53995000  0.02441000  1.0
  C  C139  1  0.16672000  0.54011000  0.02424000  1.0
  C  C140  1  0.13353000  0.50000000  0.00000000  1.0
  C  C141  1  0.06539000  0.50000000  0.00000000  1.0
  C  C142  1  0.03212000  0.44427000  0.99977000  1.0
  C  C143  1  0.03212000  0.55573000  0.00023000  1.0
  C  C144  1  0.26362000  0.50000000  0.50000000  1.0
  C  C145  1  0.23092000  0.53902000  0.47501000  1.0
  C  C146  1  0.16671000  0.53875000  0.47491000  1.0
  C  C147  1  0.23092000  0.46098000  0.52499000  1.0
  C  C148  1  0.16671000  0.46126000  0.52509000  1.0
  C  C149  1  0.13353000  0.50000000  0.50000000  1.0
  C  C150  1  0.06540000  0.50000000  0.50000000  1.0
  C  C151  1  0.03212000  0.49962000  0.53475000  1.0
  C  C152  1  0.03212000  0.50038000  0.46525000  1.0
  C  C153  1  0.73638000  0.50000000  0.50000000  1.0
  C  C154  1  0.76908000  0.46098000  0.47501000  1.0
  C  C155  1  0.83329000  0.46125000  0.47491000  1.0
  C  C156  1  0.76908000  0.53902000  0.52499000  1.0
  C  C157  1  0.83329000  0.53874000  0.52509000  1.0
  C  C158  1  0.86648000  0.50000000  0.50000000  1.0
  C  C159  1  0.93460000  0.50000000  0.50000000  1.0
  C  C160  1  0.96788000  0.49963000  0.46525000  1.0
  C  C161  1  0.96788000  0.50037000  0.53475000  1.0
  C  C162  1  0.50000000  0.73637000  0.50000000  1.0
  C  C163  1  0.46005000  0.76907000  0.47559000  1.0
  C  C164  1  0.45989000  0.83328000  0.47576000  1.0
  C  C165  1  0.53995000  0.76907000  0.52441000  1.0
  C  C166  1  0.54011000  0.83328000  0.52424000  1.0
  C  C167  1  0.50000000  0.86647000  0.50000000  1.0
  C  C168  1  0.50000000  0.93461000  0.50000000  1.0
  C  C169  1  0.55573000  0.96788000  0.50023000  1.0
  C  C170  1  0.44427000  0.96788000  0.49977000  1.0
  C  C171  1  0.50000000  0.26363000  0.50000000  1.0
  C  C172  1  0.46005000  0.23093000  0.52441000  1.0
  C  C173  1  0.45989000  0.16672000  0.52424000  1.0
  C  C174  1  0.53995000  0.23093000  0.47559000  1.0
  C  C175  1  0.54011000  0.16672000  0.47576000  1.0
  C  C176  1  0.50000000  0.13353000  0.50000000  1.0
  C  C177  1  0.50000000  0.06539000  0.50000000  1.0
  C  C178  1  0.44427000  0.03212000  0.50023000  1.0
  C  C179  1  0.55573000  0.03212000  0.49977000  1.0
  O  O180  1  0.50000000  0.50000000  0.00000000  1.0
  O  O181  1  0.35928000  0.53715000  0.02324000  1.0
  O  O182  1  0.46293000  0.35927000  0.97671000  1.0
  O  O183  1  0.53722000  0.46276000  0.08736000  1.0
  O  O184  1  0.35928000  0.46286000  0.97676000  1.0
  O  O185  1  0.46278000  0.53724000  0.08736000  1.0
  O  O186  1  0.53707000  0.35927000  0.02329000  1.0
  O  O187  1  0.64072000  0.46285000  0.02324000  1.0
  O  O188  1  0.53707000  0.64073000  0.97671000  1.0
  O  O189  1  0.64072000  0.53715000  0.97676000  1.0
  O  O190  1  0.46293000  0.64073000  0.02329000  1.0
  O  O191  1  0.46279000  0.46277000  0.91264000  1.0
  O  O192  1  0.53722000  0.53723000  0.91264000  1.0
  O  O193  1  0.50000000  0.50000000  0.50000000  1.0
  O  O194  1  0.53714000  0.35928000  0.47676000  1.0
  O  O195  1  0.35927000  0.46293000  0.52329000  1.0
  O  O196  1  0.46276000  0.53722000  0.41264000  1.0
  O  O197  1  0.46285000  0.35928000  0.52324000  1.0
  O  O198  1  0.53723000  0.46279000  0.41264000  1.0
  O  O199  1  0.35927000  0.53707000  0.47671000  1.0
  O  O200  1  0.46286000  0.64072000  0.47676000  1.0
  O  O201  1  0.64073000  0.53707000  0.52329000  1.0
  O  O202  1  0.53715000  0.64072000  0.52324000  1.0
  O  O203  1  0.64073000  0.46293000  0.47671000  1.0
  O  O204  1  0.46277000  0.46278000  0.58736000  1.0
  O  O205  1  0.53724000  0.53722000  0.58736000  1.0
