# generated using pymatgen
data_H9PbC13SNO5
_symmetry_space_group_name_H-M   'P 1'
_cell_length_a   7.89138000
_cell_length_b   8.24323000
_cell_length_c   11.54640000
_cell_angle_alpha   107.97900000
_cell_angle_beta   101.96700000
_cell_angle_gamma   102.06300000
_symmetry_Int_Tables_number   1
_chemical_formula_structural   H9PbC13SNO5
_chemical_formula_sum   'H18 Pb2 C26 S2 N2 O10'
_cell_volume   668.14172389
_cell_formula_units_Z   2
loop_
 _symmetry_equiv_pos_site_id
 _symmetry_equiv_pos_as_xyz
  1  'x, y, z'
loop_
 _atom_site_type_symbol
 _atom_site_label
 _atom_site_symmetry_multiplicity
 _atom_site_fract_x
 _atom_site_fract_y
 _atom_site_fract_z
 _atom_site_occupancy
  H  H0  1  0.95866000  0.07691000  0.42377000  1.0
  H  H1  1  0.04134000  0.92308000  0.57622000  1.0
  H  H2  1  0.64109000  0.96655000  0.28295000  1.0
  H  H3  1  0.35891000  0.03345000  0.71705000  1.0
  H  H4  1  0.84488000  0.12891000  0.00385000  1.0
  H  H5  1  0.15511000  0.87109000  0.99615000  1.0
  H  H6  1  0.15595000  0.23233000  0.15622000  1.0
  H  H7  1  0.84404000  0.76767000  0.84377000  1.0
  H  H8  1  0.42919000  0.92660000  0.09473000  1.0
  H  H9  1  0.57080000  0.07340000  0.90527000  1.0
  H  H10  1  0.01672000  0.39368000  0.58624000  1.0
  H  H11  1  0.98328000  0.60632000  0.41377000  1.0
  H  H12  1  0.97826000  0.31970000  0.93443000  1.0
  H  H13  1  0.02174000  0.68031000  0.06558000  1.0
  H  H14  1  0.30084000  0.50142000  0.04185000  1.0
  H  H15  1  0.69917000  0.49858000  0.95815000  1.0
  H  H16  1  0.48273000  0.62307000  0.91697000  1.0
  H  H17  1  0.51728000  0.37694000  0.08303000  1.0
  Pb  Pb18  1  0.38626000  0.22018000  0.43883000  1.0
  Pb  Pb19  1  0.61374000  0.77982000  0.56117000  1.0
  C  C20  1  0.92871000  0.08529000  0.32951000  1.0
  C  C21  1  0.07129000  0.91470000  0.67048000  1.0
  C  C22  1  0.75172000  0.02412000  0.25137000  1.0
  C  C23  1  0.24827000  0.97587000  0.74862000  1.0
  C  C24  1  0.71496000  0.04097000  0.13181000  1.0
  C  C25  1  0.28503000  0.95903000  0.86819000  1.0
  C  C26  1  0.86416000  0.11542000  0.09623000  1.0
  C  C27  1  0.13583000  0.88458000  0.90377000  1.0
  C  C28  1  0.03723000  0.17256000  0.17982000  1.0
  C  C29  1  0.96277000  0.82744000  0.82018000  1.0
  C  C30  1  0.52764000  0.98712000  0.05498000  1.0
  C  C31  1  0.47236000  0.01288000  0.94503000  1.0
  C  C32  1  0.37372000  0.58348000  0.67118000  1.0
  C  C33  1  0.62628000  0.41652000  0.32882000  1.0
  C  C34  1  0.26270000  0.51194000  0.74432000  1.0
  C  C35  1  0.73731000  0.48806000  0.25568000  1.0
  C  C36  1  0.07977000  0.41470000  0.68516000  1.0
  C  C37  1  0.92024000  0.58530000  0.31485000  1.0
  C  C38  1  0.97917000  0.34815000  0.75534000  1.0
  C  C39  1  0.02084000  0.65185000  0.24467000  1.0
  C  C40  1  0.05895000  0.37507000  0.88231000  1.0
  C  C41  1  0.94106000  0.62494000  0.11770000  1.0
  C  C42  1  0.24027000  0.47509000  0.94148000  1.0
  C  C43  1  0.75974000  0.52492000  0.05852000  1.0
  C  C44  1  0.34153000  0.54385000  0.87281000  1.0
  C  C45  1  0.65847000  0.45615000  0.12719000  1.0
  S  S46  1  0.74339000  0.23378000  0.68462000  1.0
  S  S47  1  0.25661000  0.76623000  0.31538000  1.0
  N  N48  1  0.06949000  0.15904000  0.29528000  1.0
  N  N49  1  0.93050000  0.84096000  0.70471000  1.0
  O  O50  1  0.64662000  0.36891000  0.70533000  1.0
  O  O51  1  0.35338000  0.63109000  0.29468000  1.0
  O  O52  1  0.72036000  0.13695000  0.54795000  1.0
  O  O53  1  0.27964000  0.86305000  0.45205000  1.0
  O  O54  1  0.69970000  0.10756000  0.74928000  1.0
  O  O55  1  0.30031000  0.89244000  0.25073000  1.0
  O  O56  1  0.32070000  0.51358000  0.54921000  1.0
  O  O57  1  0.67930000  0.48642000  0.45079000  1.0
  O  O58  1  0.51743000  0.71392000  0.73274000  1.0
  O  O59  1  0.48258000  0.28608000  0.26725000  1.0
