# generated using pymatgen
data_ZnH10C12N2O5
_symmetry_space_group_name_H-M   'P 1'
_cell_length_a   8.00001000
_cell_length_b   9.91371000
_cell_length_c   16.99250000
_cell_angle_alpha   83.49590000
_cell_angle_beta   76.64580000
_cell_angle_gamma   66.20980000
_symmetry_Int_Tables_number   1
_chemical_formula_structural   ZnH10C12N2O5
_chemical_formula_sum   'Zn4 H40 C48 N8 O20'
_cell_volume   1199.50848452
_cell_formula_units_Z   4
loop_
 _symmetry_equiv_pos_site_id
 _symmetry_equiv_pos_as_xyz
  1  'x, y, z'
loop_
 _atom_site_type_symbol
 _atom_site_label
 _atom_site_symmetry_multiplicity
 _atom_site_fract_x
 _atom_site_fract_y
 _atom_site_fract_z
 _atom_site_occupancy
  Zn  Zn0  1  0.96316000  0.81306000  0.71285000  1.0
  Zn  Zn1  1  0.48902000  0.68717000  0.78618000  1.0
  Zn  Zn2  1  0.03684000  0.18694000  0.28715000  1.0
  Zn  Zn3  1  0.51098000  0.31283000  0.21382000  1.0
  H  H4  1  0.85048000  0.26075000  0.86497000  1.0
  H  H5  1  0.97684000  0.23951000  0.63508000  1.0
  H  H6  1  0.14951000  0.73925000  0.13503000  1.0
  H  H7  1  0.02316000  0.76049000  0.36492000  1.0
  H  H8  1  0.25962000  0.60536000  0.96020000  1.0
  H  H9  1  0.82474000  0.89462000  0.53985000  1.0
  H  H10  1  0.74038000  0.39464000  0.03980000  1.0
  H  H11  1  0.17525000  0.10539000  0.46016000  1.0
  H  H12  1  0.28137000  0.17550000  0.04556000  1.0
  H  H13  1  0.50168000  0.32493000  0.45449000  1.0
  H  H14  1  0.71864000  0.82450000  0.95443000  1.0
  H  H15  1  0.49832000  0.67508000  0.54552000  1.0
  H  H16  1  0.11898000  0.34928000  0.81710000  1.0
  H  H17  1  0.28665000  0.15040000  0.68221000  1.0
  H  H18  1  0.88102000  0.65072000  0.18289000  1.0
  H  H19  1  0.71335000  0.84960000  0.31779000  1.0
  H  H20  1  0.37340000  0.96000000  0.97027000  1.0
  H  H21  1  0.30381000  0.54021000  0.53000000  1.0
  H  H22  1  0.62660000  0.04000000  0.02973000  1.0
  H  H23  1  0.69619000  0.45979000  0.46999000  1.0
  H  H24  1  0.20089000  0.91396000  0.94301000  1.0
  H  H25  1  0.05853000  0.58632000  0.55675000  1.0
  H  H26  1  0.79911000  0.08604000  0.05698000  1.0
  H  H27  1  0.94147000  0.41368000  0.44325000  1.0
  H  H28  1  0.13806000  0.02905000  0.02842000  1.0
  H  H29  1  0.19522000  0.47154000  0.47132000  1.0
  H  H30  1  0.86194000  0.97096000  0.97157000  1.0
  H  H31  1  0.80479000  0.52845000  0.52868000  1.0
  H  H32  1  0.55722000  0.02509000  0.81152000  1.0
  H  H33  1  0.39513000  0.47321000  0.68824000  1.0
  H  H34  1  0.44277000  0.97491000  0.18847000  1.0
  H  H35  1  0.60487000  0.52678000  0.31175000  1.0
  H  H36  1  0.52880000  0.27806000  0.88164000  1.0
  H  H37  1  0.68969000  0.22048000  0.61857000  1.0
  H  H38  1  0.47119000  0.72194000  0.11835000  1.0
  H  H39  1  0.31032000  0.77951000  0.38143000  1.0
  H  H40  1  0.09691000  0.02214000  0.78887000  1.0
  H  H41  1  0.90821000  0.47900000  0.71087000  1.0
  H  H42  1  0.90308000  0.97786000  0.21113000  1.0
  H  H43  1  0.09178000  0.52100000  0.28914000  1.0
  C  C44  1  0.18659000  0.48918000  0.88189000  1.0
  C  C45  1  0.55802000  0.01069000  0.61773000  1.0
  C  C46  1  0.81341000  0.51082000  0.11811000  1.0
  C  C47  1  0.44197000  0.98932000  0.38228000  1.0
  C  C48  1  0.24158000  0.50546000  0.95149000  1.0
  C  C49  1  0.69835000  0.99459000  0.54847000  1.0
  C  C50  1  0.75842000  0.49454000  0.04851000  1.0
  C  C51  1  0.30165000  0.00542000  0.45154000  1.0
  C  C52  1  0.27318000  0.39262000  0.01007000  1.0
  C  C53  1  0.67538000  0.10762000  0.48998000  1.0
  C  C54  1  0.72682000  0.60738000  0.98993000  1.0
  C  C55  1  0.32462000  0.89238000  0.51003000  1.0
  C  C56  1  0.25282000  0.26224000  0.99918000  1.0
  C  C57  1  0.51400000  0.23801000  0.50075000  1.0
  C  C58  1  0.74719000  0.73775000  0.00082000  1.0
  C  C59  1  0.48601000  0.76200000  0.49926000  1.0
  C  C60  1  0.19742000  0.24686000  0.92948000  1.0
  C  C61  1  0.37421000  0.25326000  0.57023000  1.0
  C  C62  1  0.80258000  0.75314000  0.07052000  1.0
  C  C63  1  0.62579000  0.74674000  0.42977000  1.0
  C  C64  1  0.16262000  0.36109000  0.87118000  1.0
  C  C65  1  0.39567000  0.13884000  0.62838000  1.0
  C  C66  1  0.83739000  0.63891000  0.12882000  1.0
  C  C67  1  0.60434000  0.86116000  0.37163000  1.0
  C  C68  1  0.14890000  0.61118000  0.82027000  1.0
  C  C69  1  0.58069000  0.88843000  0.67910000  1.0
  C  C70  1  0.85110000  0.38882000  0.17973000  1.0
  C  C71  1  0.41931000  0.11156000  0.32090000  1.0
  C  C72  1  0.33501000  0.41157000  0.08351000  1.0
  C  C73  1  0.82920000  0.08848000  0.41684000  1.0
  C  C74  1  0.66499000  0.58843000  0.91649000  1.0
  C  C75  1  0.17080000  0.91152000  0.58316000  1.0
  C  C76  1  0.22511000  0.00026000  0.96764000  1.0
  C  C77  1  0.19330000  0.50003000  0.53225000  1.0
  C  C78  1  0.77489000  0.99974000  0.03236000  1.0
  C  C79  1  0.80670000  0.49997000  0.46775000  1.0
  C  C80  1  0.66437000  0.06197000  0.81699000  1.0
  C  C81  1  0.54442000  0.43695000  0.68278000  1.0
  C  C82  1  0.33563000  0.93802000  0.18301000  1.0
  C  C83  1  0.45558000  0.56304000  0.31722000  1.0
  C  C84  1  0.64716000  0.18602000  0.85234000  1.0
  C  C85  1  0.68660000  0.31296000  0.64770000  1.0
  C  C86  1  0.35283000  0.81398000  0.14766000  1.0
  C  C87  1  0.31340000  0.68703000  0.35230000  1.0
  C  C88  1  0.94664000  0.05571000  0.80442000  1.0
  C  C89  1  0.80733000  0.44473000  0.69534000  1.0
  C  C90  1  0.05335000  0.94429000  0.19558000  1.0
  C  C91  1  0.19267000  0.55526000  0.30466000  1.0
  N  N92  1  0.85207000  0.98212000  0.78686000  1.0
  N  N93  1  0.62183000  0.51772000  0.71268000  1.0
  N  N94  1  0.14793000  0.01788000  0.21314000  1.0
  N  N95  1  0.37816000  0.48228000  0.28732000  1.0
  N  N96  1  0.82532000  0.17910000  0.84409000  1.0
  N  N97  1  0.84925000  0.32080000  0.65593000  1.0
  N  N98  1  0.17467000  0.82090000  0.15591000  1.0
  N  N99  1  0.15075000  0.67920000  0.34407000  1.0
  O  O100  1  0.03964000  0.61841000  0.77422000  1.0
  O  O101  1  0.43274000  0.88141000  0.72461000  1.0
  O  O102  1  0.96037000  0.38159000  0.22578000  1.0
  O  O103  1  0.56727000  0.11858000  0.27538000  1.0
  O  O104  1  0.22027000  0.70699000  0.81633000  1.0
  O  O105  1  0.74353000  0.79233000  0.68342000  1.0
  O  O106  1  0.77973000  0.29302000  0.18367000  1.0
  O  O107  1  0.25647000  0.20766000  0.31658000  1.0
  O  O108  1  0.30067000  0.53798000  0.10542000  1.0
  O  O109  1  0.94247000  0.96200000  0.39509000  1.0
  O  O110  1  0.69932000  0.46202000  0.89459000  1.0
  O  O111  1  0.05753000  0.03801000  0.60491000  1.0
  O  O112  1  0.42725000  0.28975000  0.11902000  1.0
  O  O113  1  0.83567000  0.21013000  0.38148000  1.0
  O  O114  1  0.57275000  0.71025000  0.88098000  1.0
  O  O115  1  0.16433000  0.78987000  0.61853000  1.0
  O  O116  1  0.17568000  0.12403000  0.91251000  1.0
  O  O117  1  0.21300000  0.37608000  0.58717000  1.0
  O  O118  1  0.82433000  0.87597000  0.08748000  1.0
  O  O119  1  0.78700000  0.62393000  0.41283000  1.0
