# generated using pymatgen
data_Cd3H20C24(N2O5)3
_symmetry_space_group_name_H-M   'P 1'
_cell_length_a   8.40195000
_cell_length_b   10.99170000
_cell_length_c   18.58300000
_cell_angle_alpha   78.72990000
_cell_angle_beta   80.94340000
_cell_angle_gamma   70.01610000
_symmetry_Int_Tables_number   1
_chemical_formula_structural   Cd3H20C24(N2O5)3
_chemical_formula_sum   'Cd6 H40 C48 N12 O30'
_cell_volume   1574.07429618
_cell_formula_units_Z   2
loop_
 _symmetry_equiv_pos_site_id
 _symmetry_equiv_pos_as_xyz
  1  'x, y, z'
loop_
 _atom_site_type_symbol
 _atom_site_label
 _atom_site_symmetry_multiplicity
 _atom_site_fract_x
 _atom_site_fract_y
 _atom_site_fract_z
 _atom_site_occupancy
  Cd  Cd0  1  0.55330000  0.73479000  0.42298000  1.0
  Cd  Cd1  1  0.44671000  0.26520000  0.57702000  1.0
  Cd  Cd2  1  0.00994000  0.68378000  0.26546000  1.0
  Cd  Cd3  1  0.99006000  0.31622000  0.73454000  1.0
  Cd  Cd4  1  0.74399000  0.78640000  0.08714000  1.0
  Cd  Cd5  1  0.25601000  0.21360000  0.91286000  1.0
  H  H6  1  0.71409000  0.89106000  0.22655000  1.0
  H  H7  1  0.28591000  0.10894000  0.77345000  1.0
  H  H8  1  0.85396000  0.94987000  0.17757000  1.0
  H  H9  1  0.14604000  0.05013000  0.82243000  1.0
  H  H10  1  0.10997000  0.51576000  0.40092000  1.0
  H  H11  1  0.89003000  0.48424000  0.59908000  1.0
  H  H12  1  0.94807000  0.49201000  0.37759000  1.0
  H  H13  1  0.05193000  0.50799000  0.62241000  1.0
  H  H14  1  0.34566000  0.67458000  0.30126000  1.0
  H  H15  1  0.65434000  0.32542000  0.69875000  1.0
  H  H16  1  0.30396000  0.77894000  0.22618000  1.0
  H  H17  1  0.69604000  0.22106000  0.77382000  1.0
  H  H18  1  0.68235000  0.91756000  0.50892000  1.0
  H  H19  1  0.31765000  0.08244000  0.49108000  1.0
  H  H20  1  0.09495000  0.90649000  0.34320000  1.0
  H  H21  1  0.90506000  0.09351000  0.65680000  1.0
  H  H22  1  0.82647000  0.10698000  0.48932000  1.0
  H  H23  1  0.17353000  0.89302000  0.51068000  1.0
  H  H24  1  0.01431000  0.08897000  0.42575000  1.0
  H  H25  1  0.98569000  0.91104000  0.57425000  1.0
  H  H26  1  0.39972000  0.52815000  0.16206000  1.0
  H  H27  1  0.60027000  0.47185000  0.83794000  1.0
  H  H28  1  0.09592000  0.59422000  0.98777000  1.0
  H  H29  1  0.90408000  0.40579000  0.01223000  1.0
  H  H30  1  0.51145000  0.37045000  0.05311000  1.0
  H  H31  1  0.48855000  0.62955000  0.94689000  1.0
  H  H32  1  0.39433000  0.42662000  0.97521000  1.0
  H  H33  1  0.60567000  0.57338000  0.02480000  1.0
  H  H34  1  0.26625000  0.64218000  0.86520000  1.0
  H  H35  1  0.73375000  0.35782000  0.13480000  1.0
  H  H36  1  0.34104000  0.84606000  0.81255000  1.0
  H  H37  1  0.65895000  0.15395000  0.18745000  1.0
  H  H38  1  0.41454000  0.89120000  0.67559000  1.0
  H  H39  1  0.58545000  0.10880000  0.32440000  1.0
  H  H40  1  0.78571000  0.82697000  0.64502000  1.0
  H  H41  1  0.21430000  0.17304000  0.35498000  1.0
  H  H42  1  0.95285000  0.62393000  0.72055000  1.0
  H  H43  1  0.04716000  0.37608000  0.27945000  1.0
  H  H44  1  0.94819000  0.61771000  0.85573000  1.0
  H  H45  1  0.05182000  0.38229000  0.14427000  1.0
  C  C46  1  0.77503000  0.89217000  0.46195000  1.0
  C  C47  1  0.22497000  0.10783000  0.53805000  1.0
  C  C48  1  0.98335000  0.88853000  0.37518000  1.0
  C  C49  1  0.01665000  0.11147000  0.62482000  1.0
  C  C50  1  0.94492000  0.03721000  0.46861000  1.0
  C  C51  1  0.05508000  0.96279000  0.53139000  1.0
  C  C52  1  0.29150000  0.56186000  0.12978000  1.0
  C  C53  1  0.70849000  0.43814000  0.87022000  1.0
  C  C54  1  0.13709000  0.59811000  0.03946000  1.0
  C  C55  1  0.86291000  0.40189000  0.96054000  1.0
  C  C56  1  0.44277000  0.45858000  0.01712000  1.0
  C  C57  1  0.55723000  0.54142000  0.98288000  1.0
  C  C58  1  0.39015000  0.71402000  0.65528000  1.0
  C  C59  1  0.60986000  0.28598000  0.34472000  1.0
  C  C60  1  0.34883000  0.59923000  0.68487000  1.0
  C  C61  1  0.65117000  0.40077000  0.31513000  1.0
  C  C62  1  0.30414000  0.57480000  0.76130000  1.0
  C  C63  1  0.69585000  0.42521000  0.23870000  1.0
  C  C64  1  0.30084000  0.66447000  0.80627000  1.0
  C  C65  1  0.69916000  0.33553000  0.19373000  1.0
  C  C66  1  0.33892000  0.77903000  0.77667000  1.0
  C  C67  1  0.66108000  0.22097000  0.22333000  1.0
  C  C68  1  0.38199000  0.80369000  0.70102000  1.0
  C  C69  1  0.61801000  0.19631000  0.29898000  1.0
  C  C70  1  0.45150000  0.74072000  0.57542000  1.0
  C  C71  1  0.54849000  0.25928000  0.42458000  1.0
  C  C72  1  0.36396000  0.49684000  0.63815000  1.0
  C  C73  1  0.63604000  0.50316000  0.36185000  1.0
  C  C74  1  0.26106000  0.45281000  0.79638000  1.0
  C  C75  1  0.73894000  0.54719000  0.20362000  1.0
  C  C76  1  0.78662000  0.81688000  0.85473000  1.0
  C  C77  1  0.21338000  0.18312000  0.14526000  1.0
  C  C78  1  0.69126000  0.93229000  0.81252000  1.0
  C  C79  1  0.30874000  0.06771000  0.18748000  1.0
  C  C80  1  0.69401000  0.93534000  0.73617000  1.0
  C  C81  1  0.30599000  0.06466000  0.26383000  1.0
  C  C82  1  0.79051000  0.82438000  0.70357000  1.0
  C  C83  1  0.20949000  0.17562000  0.29642000  1.0
  C  C84  1  0.88202000  0.71021000  0.74590000  1.0
  C  C85  1  0.11798000  0.28979000  0.25410000  1.0
  C  C86  1  0.87894000  0.70672000  0.82130000  1.0
  C  C87  1  0.12106000  0.29328000  0.17870000  1.0
  C  C88  1  0.78795000  0.80710000  0.93620000  1.0
  C  C89  1  0.21205000  0.19290000  0.06380000  1.0
  C  C90  1  0.57559000  0.04573000  0.85014000  1.0
  C  C91  1  0.42442000  0.95427000  0.14986000  1.0
  C  C92  1  0.58987000  0.05166000  0.68779000  1.0
  C  C93  1  0.41014000  0.94834000  0.31221000  1.0
  N  N94  1  0.77914000  0.80757000  0.41959000  1.0
  N  N95  1  0.22086000  0.19243000  0.58041000  1.0
  N  N96  1  0.91004000  0.80569000  0.36446000  1.0
  N  N97  1  0.08996000  0.19431000  0.63555000  1.0
  N  N98  1  0.90139000  0.94490000  0.43557000  1.0
  N  N99  1  0.09861000  0.05510000  0.56443000  1.0
  N  N100  1  0.13622000  0.63578000  0.14982000  1.0
  N  N101  1  0.86377000  0.36422000  0.85018000  1.0
  N  N102  1  0.03900000  0.65968000  0.09264000  1.0
  N  N103  1  0.96100000  0.34032000  0.90736000  1.0
  N  N104  1  0.29671000  0.53550000  0.06067000  1.0
  N  N105  1  0.70329000  0.46450000  0.93933000  1.0
  O  O106  1  0.46961000  0.85084000  0.54897000  1.0
  O  O107  1  0.53039000  0.14915000  0.45103000  1.0
  O  O108  1  0.48233000  0.64789000  0.53751000  1.0
  O  O109  1  0.51767000  0.35211000  0.46249000  1.0
  O  O110  1  0.50198000  0.39914000  0.64137000  1.0
  O  O111  1  0.49802000  0.60086000  0.35863000  1.0
  O  O112  1  0.24643000  0.50381000  0.60100000  1.0
  O  O113  1  0.75357000  0.49619000  0.39900000  1.0
  O  O114  1  0.19320000  0.40339000  0.75840000  1.0
  O  O115  1  0.80679000  0.59661000  0.24160000  1.0
  O  O116  1  0.29747000  0.40886000  0.86263000  1.0
  O  O117  1  0.70253000  0.59114000  0.13737000  1.0
  O  O118  1  0.78744000  0.69726000  0.97565000  1.0
  O  O119  1  0.21257000  0.30273000  0.02435000  1.0
  O  O120  1  0.79032000  0.90371000  0.96298000  1.0
  O  O121  1  0.20968000  0.09629000  0.03702000  1.0
  O  O122  1  0.60380000  0.15333000  0.84148000  1.0
  O  O123  1  0.39619000  0.84667000  0.15853000  1.0
  O  O124  1  0.44539000  0.02287000  0.88857000  1.0
  O  O125  1  0.55462000  0.97713000  0.11143000  1.0
  O  O126  1  0.44033000  0.11751000  0.71056000  1.0
  O  O127  1  0.55967000  0.88249000  0.28944000  1.0
  O  O128  1  0.65798000  0.07940000  0.62246000  1.0
  O  O129  1  0.34202000  0.92060000  0.37754000  1.0
  O  O130  1  0.82901000  0.86867000  0.19638000  1.0
  O  O131  1  0.17099000  0.13133000  0.80362000  1.0
  O  O132  1  0.06359000  0.50228000  0.35942000  1.0
  O  O133  1  0.93641000  0.49773000  0.64058000  1.0
  O  O134  1  0.25187000  0.73170000  0.27115000  1.0
  O  O135  1  0.74813000  0.26830000  0.72885000  1.0
