# generated using pymatgen
data_CdH22C40(NO2)4
_symmetry_space_group_name_H-M   'P 1'
_cell_length_a   12.88680000
_cell_length_b   12.88680000
_cell_length_c   29.65290000
_cell_angle_alpha   89.99950000
_cell_angle_beta   89.99960000
_cell_angle_gamma   77.05900000
_symmetry_Int_Tables_number   1
_chemical_formula_structural   CdH22C40(NO2)4
_chemical_formula_sum   'Cd4 H88 C160 N16 O32'
_cell_volume   4799.37060507
_cell_formula_units_Z   4
loop_
 _symmetry_equiv_pos_site_id
 _symmetry_equiv_pos_as_xyz
  1  'x, y, z'
loop_
 _atom_site_type_symbol
 _atom_site_label
 _atom_site_symmetry_multiplicity
 _atom_site_fract_x
 _atom_site_fract_y
 _atom_site_fract_z
 _atom_site_occupancy
  Cd  Cd0  1  0.40417000  0.59582000  0.04334000  1.0
  Cd  Cd1  1  0.09582000  0.90418000  0.54334000  1.0
  Cd  Cd2  1  0.90417000  0.09583000  0.45666000  1.0
  Cd  Cd3  1  0.59582000  0.40418000  0.95666000  1.0
  H  H4  1  0.19243000  0.66513000  0.41959000  1.0
  H  H5  1  0.24025000  0.61520000  0.32951000  1.0
  H  H6  1  0.42092000  0.34339000  0.06078000  1.0
  H  H7  1  0.30518000  0.21009000  0.06393000  1.0
  H  H8  1  0.03507000  0.47110000  0.03966000  1.0
  H  H9  1  0.16184000  0.59133000  0.03576000  1.0
  H  H10  1  0.06838000  0.05716000  0.15437000  1.0
  H  H11  1  0.90127000  0.22076000  0.94501000  1.0
  H  H12  1  0.30757000  0.83487000  0.91959000  1.0
  H  H13  1  0.25974000  0.88480000  0.82951000  1.0
  H  H14  1  0.07907000  0.15661000  0.56078000  1.0
  H  H15  1  0.19482000  0.28992000  0.56393000  1.0
  H  H16  1  0.46493000  0.02890000  0.53966000  1.0
  H  H17  1  0.33815000  0.90868000  0.53576000  1.0
  H  H18  1  0.43161000  0.44284000  0.65437000  1.0
  H  H19  1  0.59873000  0.27924000  0.44501000  1.0
  H  H20  1  0.83487000  0.30757000  0.08041000  1.0
  H  H21  1  0.88480000  0.25975000  0.17049000  1.0
  H  H22  1  0.15661000  0.07907000  0.43922000  1.0
  H  H23  1  0.28991000  0.19482000  0.43607000  1.0
  H  H24  1  0.02890000  0.46492000  0.46034000  1.0
  H  H25  1  0.90867000  0.33815000  0.46424000  1.0
  H  H26  1  0.44284000  0.43161000  0.34564000  1.0
  H  H27  1  0.27924000  0.59873000  0.55499000  1.0
  H  H28  1  0.66512000  0.19243000  0.58041000  1.0
  H  H29  1  0.61520000  0.24026000  0.67049000  1.0
  H  H30  1  0.34339000  0.42092000  0.93922000  1.0
  H  H31  1  0.21009000  0.30518000  0.93606000  1.0
  H  H32  1  0.47111000  0.03507000  0.96034000  1.0
  H  H33  1  0.59133000  0.16185000  0.96424000  1.0
  H  H34  1  0.05716000  0.06839000  0.84563000  1.0
  H  H35  1  0.22076000  0.90127000  0.05499000  1.0
  H  H36  1  0.80757000  0.33487000  0.58041000  1.0
  H  H37  1  0.75974000  0.38480000  0.67049000  1.0
  H  H38  1  0.57908000  0.65661000  0.93922000  1.0
  H  H39  1  0.69482000  0.78991000  0.93607000  1.0
  H  H40  1  0.96493000  0.52890000  0.96034000  1.0
  H  H41  1  0.83815000  0.40867000  0.96424000  1.0
  H  H42  1  0.93162000  0.94284000  0.84563000  1.0
  H  H43  1  0.09873000  0.77924000  0.05499000  1.0
  H  H44  1  0.69243000  0.16513000  0.08041000  1.0
  H  H45  1  0.74025000  0.11520000  0.17049000  1.0
  H  H46  1  0.92092000  0.84339000  0.43922000  1.0
  H  H47  1  0.80518000  0.71009000  0.43607000  1.0
  H  H48  1  0.53507000  0.97110000  0.46034000  1.0
  H  H49  1  0.66184000  0.09133000  0.46424000  1.0
  H  H50  1  0.56839000  0.55715000  0.34563000  1.0
  H  H51  1  0.40127000  0.72076000  0.55499000  1.0
  H  H52  1  0.16513000  0.69243000  0.91959000  1.0
  H  H53  1  0.11520000  0.74025000  0.82951000  1.0
  H  H54  1  0.84339000  0.92092000  0.56078000  1.0
  H  H55  1  0.71008000  0.80518000  0.56393000  1.0
  H  H56  1  0.97110000  0.53507000  0.53966000  1.0
  H  H57  1  0.09133000  0.66185000  0.53576000  1.0
  H  H58  1  0.55716000  0.56838000  0.65437000  1.0
  H  H59  1  0.72076000  0.40127000  0.44501000  1.0
  H  H60  1  0.33487000  0.80757000  0.41959000  1.0
  H  H61  1  0.38480000  0.75975000  0.32951000  1.0
  H  H62  1  0.65661000  0.57908000  0.06078000  1.0
  H  H63  1  0.78991000  0.69482000  0.06393000  1.0
  H  H64  1  0.52890000  0.96493000  0.03966000  1.0
  H  H65  1  0.40867000  0.83816000  0.03576000  1.0
  H  H66  1  0.94284000  0.93162000  0.15437000  1.0
  H  H67  1  0.77924000  0.09873000  0.94501000  1.0
  H  H68  1  0.16151000  0.83849000  0.15572000  1.0
  H  H69  1  0.11177000  0.88823000  0.23474000  1.0
  H  H70  1  0.36720000  0.63280000  0.28043000  1.0
  H  H71  1  0.41436000  0.58564000  0.20124000  1.0
  H  H72  1  0.07193000  0.92808000  0.29659000  1.0
  H  H73  1  0.02900000  0.97100000  0.37630000  1.0
  H  H74  1  0.33848000  0.66151000  0.65572000  1.0
  H  H75  1  0.38823000  0.61176000  0.73474000  1.0
  H  H76  1  0.13280000  0.86720000  0.78043000  1.0
  H  H77  1  0.08564000  0.91436000  0.70124000  1.0
  H  H78  1  0.42807000  0.57193000  0.79659000  1.0
  H  H79  1  0.47100000  0.52900000  0.87630000  1.0
  H  H80  1  0.66151000  0.33849000  0.34428000  1.0
  H  H81  1  0.61177000  0.38823000  0.26526000  1.0
  H  H82  1  0.86720000  0.13280000  0.21957000  1.0
  H  H83  1  0.91436000  0.08564000  0.29876000  1.0
  H  H84  1  0.57193000  0.42808000  0.20341000  1.0
  H  H85  1  0.52900000  0.47100000  0.12370000  1.0
  H  H86  1  0.83849000  0.16151000  0.84428000  1.0
  H  H87  1  0.88823000  0.11177000  0.76526000  1.0
  H  H88  1  0.63280000  0.36720000  0.71957000  1.0
  H  H89  1  0.58564000  0.41436000  0.79876000  1.0
  H  H90  1  0.92807000  0.07193000  0.70341000  1.0
  H  H91  1  0.97100000  0.02900000  0.62370000  1.0
  C  C92  1  0.20482000  0.72086000  0.39378000  1.0
  C  C93  1  0.23108000  0.69418000  0.34408000  1.0
  C  C94  1  0.33504000  0.36758000  0.05600000  1.0
  C  C95  1  0.27086000  0.29411000  0.05815000  1.0
  C  C96  1  0.16177000  0.33082000  0.05135000  1.0
  C  C97  1  0.12003000  0.43898000  0.04401000  1.0
  C  C98  1  0.19049000  0.50633000  0.04185000  1.0
  C  C99  1  0.09229000  0.19327000  0.09008000  1.0
  C  C100  1  0.02309000  0.11606000  0.08816000  1.0
  C  C101  1  0.01818000  0.05136000  0.12530000  1.0
  C  C102  1  0.95965000  0.11094000  0.04969000  1.0
  C  C103  1  0.96338000  0.17592000  0.01145000  1.0
  C  C104  1  0.89963000  0.16997000  0.97422000  1.0
  C  C105  1  0.03388000  0.25179000  0.01120000  1.0
  C  C106  1  0.29518000  0.77914000  0.89378000  1.0
  C  C107  1  0.26892000  0.80582000  0.84408000  1.0
  C  C108  1  0.16495000  0.13243000  0.55600000  1.0
  C  C109  1  0.22914000  0.20590000  0.55815000  1.0
  C  C110  1  0.33823000  0.16918000  0.55135000  1.0
  C  C111  1  0.37997000  0.06102000  0.54401000  1.0
  C  C112  1  0.30950000  0.99367000  0.54186000  1.0
  C  C113  1  0.40771000  0.30673000  0.59008000  1.0
  C  C114  1  0.47691000  0.38394000  0.58816000  1.0
  C  C115  1  0.48181000  0.44864000  0.62530000  1.0
  C  C116  1  0.54035000  0.38906000  0.54969000  1.0
  C  C117  1  0.53662000  0.32408000  0.51145000  1.0
  C  C118  1  0.60037000  0.33003000  0.47422000  1.0
  C  C119  1  0.46612000  0.24821000  0.51120000  1.0
  C  C120  1  0.77914000  0.29518000  0.10622000  1.0
  C  C121  1  0.80582000  0.26892000  0.15592000  1.0
  C  C122  1  0.13242000  0.16496000  0.44400000  1.0
  C  C123  1  0.20590000  0.22914000  0.44185000  1.0
  C  C124  1  0.16918000  0.33822000  0.44865000  1.0
  C  C125  1  0.06102000  0.37997000  0.45599000  1.0
  C  C126  1  0.99367000  0.30951000  0.45815000  1.0
  C  C127  1  0.30673000  0.40771000  0.40992000  1.0
  C  C128  1  0.38394000  0.47691000  0.41185000  1.0
  C  C129  1  0.44865000  0.48181000  0.37470000  1.0
  C  C130  1  0.38906000  0.54035000  0.45031000  1.0
  C  C131  1  0.32408000  0.53662000  0.48855000  1.0
  C  C132  1  0.33003000  0.60037000  0.52579000  1.0
  C  C133  1  0.24821000  0.46612000  0.48880000  1.0
  C  C134  1  0.72086000  0.20482000  0.60622000  1.0
  C  C135  1  0.69418000  0.23108000  0.65592000  1.0
  C  C136  1  0.36758000  0.33504000  0.94399000  1.0
  C  C137  1  0.29410000  0.27086000  0.94184000  1.0
  C  C138  1  0.33082000  0.16177000  0.94865000  1.0
  C  C139  1  0.43898000  0.12003000  0.95599000  1.0
  C  C140  1  0.50633000  0.19049000  0.95814000  1.0
  C  C141  1  0.19327000  0.09229000  0.90992000  1.0
  C  C142  1  0.11606000  0.02309000  0.91184000  1.0
  C  C143  1  0.05136000  0.01818000  0.87470000  1.0
  C  C144  1  0.11094000  0.95965000  0.95031000  1.0
  C  C145  1  0.17592000  0.96338000  0.98855000  1.0
  C  C146  1  0.16997000  0.89963000  0.02578000  1.0
  C  C147  1  0.25179000  0.03388000  0.98880000  1.0
  C  C148  1  0.79518000  0.27914000  0.60622000  1.0
  C  C149  1  0.76892000  0.30582000  0.65592000  1.0
  C  C150  1  0.66496000  0.63242000  0.94400000  1.0
  C  C151  1  0.72915000  0.70590000  0.94185000  1.0
  C  C152  1  0.83823000  0.66918000  0.94865000  1.0
  C  C153  1  0.87997000  0.56102000  0.95599000  1.0
  C  C154  1  0.80951000  0.49367000  0.95815000  1.0
  C  C155  1  0.90772000  0.80673000  0.90992000  1.0
  C  C156  1  0.97691000  0.88394000  0.91184000  1.0
  C  C157  1  0.98182000  0.94864000  0.87470000  1.0
  C  C158  1  0.04036000  0.88906000  0.95031000  1.0
  C  C159  1  0.03662000  0.82408000  0.98855000  1.0
  C  C160  1  0.10037000  0.83003000  0.02578000  1.0
  C  C161  1  0.96612000  0.74821000  0.98880000  1.0
  C  C162  1  0.70482000  0.22086000  0.10623000  1.0
  C  C163  1  0.73108000  0.19418000  0.15592000  1.0
  C  C164  1  0.83504000  0.86758000  0.44400000  1.0
  C  C165  1  0.77086000  0.79410000  0.44185000  1.0
  C  C166  1  0.66177000  0.83082000  0.44865000  1.0
  C  C167  1  0.62003000  0.93898000  0.45599000  1.0
  C  C168  1  0.69049000  0.00633000  0.45815000  1.0
  C  C169  1  0.59229000  0.69327000  0.40992000  1.0
  C  C170  1  0.52309000  0.61606000  0.41184000  1.0
  C  C171  1  0.51819000  0.55135000  0.37470000  1.0
  C  C172  1  0.45965000  0.61094000  0.45031000  1.0
  C  C173  1  0.46338000  0.67592000  0.48855000  1.0
  C  C174  1  0.39963000  0.66997000  0.52578000  1.0
  C  C175  1  0.53388000  0.75178000  0.48880000  1.0
  C  C176  1  0.22086000  0.70482000  0.89378000  1.0
  C  C177  1  0.19418000  0.73108000  0.84408000  1.0
  C  C178  1  0.86758000  0.83504000  0.55600000  1.0
  C  C179  1  0.79410000  0.77086000  0.55815000  1.0
  C  C180  1  0.83082000  0.66177000  0.55135000  1.0
  C  C181  1  0.93898000  0.62003000  0.54401000  1.0
  C  C182  1  0.00633000  0.69049000  0.54186000  1.0
  C  C183  1  0.69327000  0.59229000  0.59009000  1.0
  C  C184  1  0.61606000  0.52309000  0.58816000  1.0
  C  C185  1  0.55135000  0.51818000  0.62530000  1.0
  C  C186  1  0.61094000  0.45964000  0.54969000  1.0
  C  C187  1  0.67592000  0.46338000  0.51145000  1.0
  C  C188  1  0.66997000  0.39962000  0.47422000  1.0
  C  C189  1  0.75180000  0.53388000  0.51119000  1.0
  C  C190  1  0.27914000  0.79519000  0.39377000  1.0
  C  C191  1  0.30582000  0.76892000  0.34408000  1.0
  C  C192  1  0.63242000  0.66496000  0.05600000  1.0
  C  C193  1  0.70590000  0.72914000  0.05815000  1.0
  C  C194  1  0.66918000  0.83823000  0.05135000  1.0
  C  C195  1  0.56102000  0.87997000  0.04401000  1.0
  C  C196  1  0.49367000  0.80951000  0.04185000  1.0
  C  C197  1  0.80673000  0.90771000  0.09009000  1.0
  C  C198  1  0.88394000  0.97691000  0.08816000  1.0
  C  C199  1  0.94864000  0.98182000  0.12530000  1.0
  C  C200  1  0.88906000  0.04035000  0.04969000  1.0
  C  C201  1  0.82408000  0.03662000  0.01145000  1.0
  C  C202  1  0.83003000  0.10037000  0.97422000  1.0
  C  C203  1  0.74821000  0.96612000  0.01120000  1.0
  C  C204  1  0.32199000  0.67801000  0.12600000  1.0
  C  C205  1  0.29096000  0.70904000  0.17351000  1.0
  C  C206  1  0.20589000  0.79411000  0.18356000  1.0
  C  C207  1  0.17850000  0.82150000  0.22818000  1.0
  C  C208  1  0.32081000  0.67919000  0.25358000  1.0
  C  C209  1  0.34813000  0.65187000  0.20919000  1.0
  C  C210  1  0.23528000  0.76472000  0.26425000  1.0
  C  C211  1  0.20731000  0.79269000  0.31252000  1.0
  C  C212  1  0.11822000  0.88178000  0.32339000  1.0
  C  C213  1  0.09435000  0.90565000  0.36678000  1.0
  C  C214  1  0.15880000  0.84120000  0.40155000  1.0
  C  C215  1  0.13385000  0.86615000  0.45050000  1.0
  C  C216  1  0.17801000  0.82199000  0.62600000  1.0
  C  C217  1  0.20904000  0.79096000  0.67351000  1.0
  C  C218  1  0.29411000  0.70589000  0.68356000  1.0
  C  C219  1  0.32150000  0.67850000  0.72818000  1.0
  C  C220  1  0.17919000  0.82081000  0.75358000  1.0
  C  C221  1  0.15187000  0.84813000  0.70919000  1.0
  C  C222  1  0.26472000  0.73528000  0.76425000  1.0
  C  C223  1  0.29269000  0.70731000  0.81252000  1.0
  C  C224  1  0.38178000  0.61822000  0.82339000  1.0
  C  C225  1  0.40565000  0.59435000  0.86678000  1.0
  C  C226  1  0.34120000  0.65880000  0.90155000  1.0
  C  C227  1  0.36615000  0.63385000  0.95050000  1.0
  C  C228  1  0.82199000  0.17801000  0.37400000  1.0
  C  C229  1  0.79096000  0.20904000  0.32649000  1.0
  C  C230  1  0.70589000  0.29411000  0.31644000  1.0
  C  C231  1  0.67850000  0.32150000  0.27182000  1.0
  C  C232  1  0.82081000  0.17919000  0.24642000  1.0
  C  C233  1  0.84813000  0.15187000  0.29081000  1.0
  C  C234  1  0.73528000  0.26472000  0.23575000  1.0
  C  C235  1  0.70731000  0.29269000  0.18748000  1.0
  C  C236  1  0.61822000  0.38178000  0.17661000  1.0
  C  C237  1  0.59435000  0.40565000  0.13322000  1.0
  C  C238  1  0.65881000  0.34120000  0.09844000  1.0
  C  C239  1  0.63385000  0.36615000  0.04950000  1.0
  C  C240  1  0.67801000  0.32199000  0.87400000  1.0
  C  C241  1  0.70904000  0.29096000  0.82649000  1.0
  C  C242  1  0.79411000  0.20589000  0.81644000  1.0
  C  C243  1  0.82150000  0.17850000  0.77182000  1.0
  C  C244  1  0.67919000  0.32081000  0.74642000  1.0
  C  C245  1  0.65187000  0.34813000  0.79081000  1.0
  C  C246  1  0.76472000  0.23528000  0.73575000  1.0
  C  C247  1  0.79269000  0.20732000  0.68748000  1.0
  C  C248  1  0.88178000  0.11822000  0.67661000  1.0
  C  C249  1  0.90565000  0.09435000  0.63322000  1.0
  C  C250  1  0.84119000  0.15881000  0.59844000  1.0
  C  C251  1  0.86614000  0.13385000  0.54950000  1.0
  N  N252  1  0.29608000  0.47121000  0.04714000  1.0
  N  N253  1  0.09307000  0.25704000  0.05094000  1.0
  N  N254  1  0.20391000  0.02880000  0.54714000  1.0
  N  N255  1  0.40693000  0.24296000  0.55094000  1.0
  N  N256  1  0.02879000  0.20392000  0.45286000  1.0
  N  N257  1  0.24296000  0.40693000  0.44906000  1.0
  N  N258  1  0.47121000  0.29608000  0.95286000  1.0
  N  N259  1  0.25704000  0.09306000  0.94905000  1.0
  N  N260  1  0.70392000  0.52879000  0.95286000  1.0
  N  N261  1  0.90694000  0.74296000  0.94906000  1.0
  N  N262  1  0.79608000  0.97121000  0.45286000  1.0
  N  N263  1  0.59307000  0.75704000  0.44906000  1.0
  N  N264  1  0.97120000  0.79608000  0.54714000  1.0
  N  N265  1  0.75704000  0.59306000  0.55094000  1.0
  N  N266  1  0.52879000  0.70392000  0.04714000  1.0
  N  N267  1  0.74296000  0.90694000  0.05095000  1.0
  O  O268  1  0.14501000  0.20497000  0.12333000  1.0
  O  O269  1  0.04198000  0.30824000  0.97838000  1.0
  O  O270  1  0.35499000  0.29503000  0.62334000  1.0
  O  O271  1  0.45802000  0.19175000  0.47838000  1.0
  O  O272  1  0.29503000  0.35499000  0.37667000  1.0
  O  O273  1  0.19175000  0.45802000  0.52162000  1.0
  O  O274  1  0.20498000  0.14501000  0.87666000  1.0
  O  O275  1  0.30824000  0.04198000  0.02162000  1.0
  O  O276  1  0.85500000  0.79503000  0.87666000  1.0
  O  O277  1  0.95802000  0.69176000  0.02162000  1.0
  O  O278  1  0.64501000  0.70497000  0.37666000  1.0
  O  O279  1  0.54198000  0.80825000  0.52162000  1.0
  O  O280  1  0.70497000  0.64500000  0.62333000  1.0
  O  O281  1  0.80824000  0.54197000  0.47838000  1.0
  O  O282  1  0.79502000  0.85500000  0.12333000  1.0
  O  O283  1  0.69176000  0.95802000  0.97838000  1.0
  O  O284  1  0.19048000  0.80953000  0.48056000  1.0
  O  O285  1  0.05651000  0.94350000  0.46104000  1.0
  O  O286  1  0.27119000  0.72881000  0.09307000  1.0
  O  O287  1  0.40125000  0.59875000  0.12062000  1.0
  O  O288  1  0.30952000  0.69048000  0.98056000  1.0
  O  O289  1  0.44349000  0.55651000  0.96104000  1.0
  O  O290  1  0.22880000  0.77119000  0.59307000  1.0
  O  O291  1  0.09875000  0.90125000  0.62062000  1.0
  O  O292  1  0.69048000  0.30953000  0.01944000  1.0
  O  O293  1  0.55650000  0.44349000  0.03896000  1.0
  O  O294  1  0.77119000  0.22881000  0.40693000  1.0
  O  O295  1  0.90125000  0.09875000  0.37938000  1.0
  O  O296  1  0.80952000  0.19048000  0.51944000  1.0
  O  O297  1  0.94349000  0.05651000  0.53896000  1.0
  O  O298  1  0.72881000  0.27119000  0.90693000  1.0
  O  O299  1  0.59875000  0.40125000  0.87938000  1.0
