# generated using pymatgen
data_CoH20C19(NO2)2
_symmetry_space_group_name_H-M   'P 1'
_cell_length_a   8.20462000
_cell_length_b   10.87990000
_cell_length_c   11.03850000
_cell_angle_alpha   61.88560000
_cell_angle_beta   74.38910000
_cell_angle_gamma   84.02040000
_symmetry_Int_Tables_number   1
_chemical_formula_structural   CoH20C19(NO2)2
_chemical_formula_sum   'Co2 H40 C38 N4 O8'
_cell_volume   836.73601395
_cell_formula_units_Z   2
loop_
 _symmetry_equiv_pos_site_id
 _symmetry_equiv_pos_as_xyz
  1  'x, y, z'
loop_
 _atom_site_type_symbol
 _atom_site_label
 _atom_site_symmetry_multiplicity
 _atom_site_fract_x
 _atom_site_fract_y
 _atom_site_fract_z
 _atom_site_occupancy
  Co  Co0  1  0.13580000  0.65517000  0.99988000  1.0
  Co  Co1  1  0.86420000  0.34482000  0.00011000  1.0
  H  H2  1  0.96620000  0.54966000  0.31212000  1.0
  H  H3  1  0.03380000  0.45034000  0.68786000  1.0
  H  H4  1  0.95582000  0.33571000  0.53831000  1.0
  H  H5  1  0.04419000  0.66431000  0.46168000  1.0
  H  H6  1  0.34137000  0.39264000  0.08987000  1.0
  H  H7  1  0.65863000  0.60734000  0.91013000  1.0
  H  H8  1  0.34222000  0.17276000  0.30078000  1.0
  H  H9  1  0.65780000  0.82724000  0.69923000  1.0
  H  H10  1  0.97498000  0.16199000  0.72483000  1.0
  H  H11  1  0.02500000  0.83800000  0.27518000  1.0
  H  H12  1  0.28360000  0.98067000  0.46539000  1.0
  H  H13  1  0.71647000  0.01934000  0.53462000  1.0
  H  H14  1  0.97418000  0.93499000  0.93154000  1.0
  H  H15  1  0.02580000  0.06499000  0.06846000  1.0
  H  H16  1  0.27444000  0.76192000  0.68848000  1.0
  H  H17  1  0.72562000  0.23809000  0.31153000  1.0
  H  H18  1  0.60979000  0.47460000  0.32828000  1.0
  H  H19  1  0.39023000  0.52541000  0.67173000  1.0
  H  H20  1  0.51510000  0.51255000  0.19033000  1.0
  H  H21  1  0.48490000  0.48743000  0.80970000  1.0
  H  H22  1  0.46698000  0.89790000  0.09337000  1.0
  H  H23  1  0.53299000  0.10209000  0.90664000  1.0
  H  H24  1  0.62215000  0.82362000  0.00107000  1.0
  H  H25  1  0.37784000  0.17639000  0.99893000  1.0
  H  H26  1  0.71283000  0.66897000  0.35210000  1.0
  H  H27  1  0.28715000  0.33104000  0.64790000  1.0
  H  H28  1  0.75808000  0.81693000  0.18404000  1.0
  H  H29  1  0.24191000  0.18307000  0.81596000  1.0
  H  H30  1  0.57182000  0.82259000  0.43665000  1.0
  H  H31  1  0.42817000  0.17743000  0.56334000  1.0
  H  H32  1  0.55063000  0.94955000  0.26866000  1.0
  H  H33  1  0.44935000  0.05046000  0.73133000  1.0
  H  H34  1  0.28686000  0.75282000  0.48819000  1.0
  H  H35  1  0.71314000  0.24719000  0.51181000  1.0
  H  H36  1  0.28093000  0.86127000  0.31059000  1.0
  H  H37  1  0.71905000  0.13873000  0.68941000  1.0
  H  H38  1  0.26592000  0.63439000  0.32219000  1.0
  H  H39  1  0.73407000  0.36562000  0.67781000  1.0
  H  H40  1  0.39594000  0.56074000  0.44294000  1.0
  H  H41  1  0.60404000  0.43927000  0.55706000  1.0
  C  C42  1  0.04656000  0.46233000  0.31508000  1.0
  C  C43  1  0.95344000  0.53766000  0.68491000  1.0
  C  C44  1  0.04126000  0.34168000  0.44135000  1.0
  C  C45  1  0.95875000  0.65833000  0.55864000  1.0
  C  C46  1  0.14173000  0.22858000  0.44179000  1.0
  C  C47  1  0.85827000  0.77142000  0.55822000  1.0
  C  C48  1  0.25226000  0.37538000  0.18975000  1.0
  C  C49  1  0.74774000  0.62461000  0.81024000  1.0
  C  C50  1  0.25249000  0.25047000  0.31117000  1.0
  C  C51  1  0.74751000  0.74953000  0.68883000  1.0
  C  C52  1  0.13154000  0.09493000  0.57181000  1.0
  C  C53  1  0.86848000  0.90508000  0.42820000  1.0
  C  C54  1  0.04242000  0.07786000  0.70710000  1.0
  C  C55  1  0.95758000  0.92213000  0.29290000  1.0
  C  C56  1  0.21438000  0.97740000  0.56589000  1.0
  C  C57  1  0.78566000  0.02261000  0.43412000  1.0
  C  C58  1  0.04200000  0.95008000  0.82582000  1.0
  C  C59  1  0.95799000  0.04991000  0.17418000  1.0
  C  C60  1  0.20970000  0.85421000  0.68950000  1.0
  C  C61  1  0.79034000  0.14579000  0.31051000  1.0
  C  C62  1  0.77905000  0.55695000  0.12642000  1.0
  C  C63  1  0.22094000  0.44306000  0.87358000  1.0
  C  C64  1  0.60452000  0.55495000  0.22052000  1.0
  C  C65  1  0.39548000  0.44505000  0.77949000  1.0
  C  C66  1  0.53817000  0.68876000  0.22773000  1.0
  C  C67  1  0.46182000  0.31124000  0.77228000  1.0
  C  C68  1  0.50392000  0.80199000  0.08458000  1.0
  C  C69  1  0.49607000  0.19801000  0.91542000  1.0
  C  C70  1  0.65441000  0.75371000  0.27302000  1.0
  C  C71  1  0.34558000  0.24629000  0.72698000  1.0
  C  C72  1  0.53758000  0.83705000  0.34147000  1.0
  C  C73  1  0.46241000  0.16296000  0.65852000  1.0
  C  C74  1  0.35538000  0.78151000  0.37809000  1.0
  C  C75  1  0.64462000  0.21850000  0.62191000  1.0
  C  C76  1  0.37582000  0.65551000  0.34896000  1.0
  C  C77  1  0.62417000  0.34449000  0.65104000  1.0
  C  C78  1  0.36523000  0.75888000  0.04450000  1.0
  C  C79  1  0.63477000  0.24110000  0.95550000  1.0
  N  N80  1  0.14754000  0.47939000  0.18936000  1.0
  N  N81  1  0.85246000  0.52059000  0.81063000  1.0
  N  N82  1  0.12519000  0.83917000  0.81879000  1.0
  N  N83  1  0.87482000  0.16083000  0.18121000  1.0
  O  O84  1  0.87920000  0.66199000  0.07202000  1.0
  O  O85  1  0.12079000  0.33801000  0.92798000  1.0
  O  O86  1  0.81803000  0.44656000  0.11387000  1.0
  O  O87  1  0.18194000  0.55344000  0.88612000  1.0
  O  O88  1  0.40321000  0.69001000  0.97399000  1.0
  O  O89  1  0.59679000  0.30998000  0.02601000  1.0
  O  O90  1  0.21041000  0.78543000  0.08566000  1.0
  O  O91  1  0.78958000  0.21455000  0.91435000  1.0
