# generated using pymatgen
data_Co3H82C88S2(NO)16
_symmetry_space_group_name_H-M   'P 1'
_cell_length_a   10.49530000
_cell_length_b   18.88960000
_cell_length_c   22.98017819
_cell_angle_alpha   97.75349115
_cell_angle_beta   103.17042941
_cell_angle_gamma   90.03280000
_symmetry_Int_Tables_number   1
_chemical_formula_structural   Co3H82C88S2(NO)16
_chemical_formula_sum   'Co6 H164 C176 S4 N32 O32'
_cell_volume   4393.16096970
_cell_formula_units_Z   2
loop_
 _symmetry_equiv_pos_site_id
 _symmetry_equiv_pos_as_xyz
  1  'x, y, z'
loop_
 _atom_site_type_symbol
 _atom_site_label
 _atom_site_symmetry_multiplicity
 _atom_site_fract_x
 _atom_site_fract_y
 _atom_site_fract_z
 _atom_site_occupancy
  Co  Co0  1  0.54980000  0.06943000  0.72037000  1.0
  Co  Co1  1  0.82945000  0.43055000  0.27978000  1.0
  Co  Co2  1  0.45020000  0.93061000  0.27958000  1.0
  Co  Co3  1  0.16498000  0.56997000  0.72006000  1.0
  Co  Co4  1  0.99579000  0.25026000  0.00009000  1.0
  Co  Co5  1  0.00358000  0.74955000  0.99958000  1.0
  H  H6  1  0.08407000  0.06386000  0.49359000  1.0
  H  H7  1  0.05923000  0.04115000  0.56273000  1.0
  H  H8  1  0.70505000  0.94667000  0.65833000  1.0
  H  H9  1  0.69433000  0.75025000  0.66061000  1.0
  H  H10  1  0.75966000  0.81937000  0.62986000  1.0
  H  H11  1  0.86611000  0.77831000  0.75665000  1.0
  H  H12  1  0.92955000  0.75165000  0.69274000  1.0
  H  H13  1  0.36094000  0.64084000  0.64250000  1.0
  H  H14  1  0.42408000  0.73189000  0.58434000  1.0
  H  H15  1  0.36270000  0.85776000  0.60264000  1.0
  H  H16  1  0.24134000  0.89842000  0.68296000  1.0
  H  H17  1  0.10684000  0.71573000  0.80028000  1.0
  H  H18  1  0.07999000  0.84741000  0.81759000  1.0
  H  H19  1  0.15952000  0.90452000  0.78052000  1.0
  H  H20  1  0.57071000  0.09498000  0.83151000  1.0
  H  H21  1  0.69107000  0.04426000  0.82610000  1.0
  H  H22  1  0.45577000  0.97605000  0.82264000  1.0
  H  H23  1  0.42000000  0.87049000  0.87170000  1.0
  H  H24  1  0.49901000  0.75163000  0.83941000  1.0
  H  H25  1  0.62036000  0.73435000  0.75725000  1.0
  H  H26  1  0.64269000  0.15398000  0.61134000  1.0
  H  H27  1  0.61710000  0.19456000  0.51089000  1.0
  H  H28  1  0.44044000  0.14439000  0.42447000  1.0
  H  H29  1  0.27930000  0.05135000  0.43530000  1.0
  H  H30  1  0.31935000  0.97325000  0.63940000  1.0
  H  H31  1  0.16303000  0.92269000  0.54272000  1.0
  H  H32  1  0.18631000  0.94503000  0.47338000  1.0
  H  H33  1  0.14218000  0.05074000  0.69808000  1.0
  H  H34  1  0.24414000  0.15578000  0.88158000  1.0
  H  H35  1  0.84388000  0.14717000  0.78122000  1.0
  H  H36  1  0.05906000  0.33808000  0.90546000  1.0
  H  H37  1  0.05738000  0.43846000  0.84556000  1.0
  H  H38  1  0.92166000  0.54430000  0.86058000  1.0
  H  H39  1  0.78334000  0.55332000  0.93522000  1.0
  H  H40  1  0.78804000  0.34977000  0.05955000  1.0
  H  H41  1  0.72414000  0.53724000  0.03837000  1.0
  H  H42  1  0.67891000  0.46609000  0.07330000  1.0
  H  H43  1  0.51284000  0.41993000  0.97919000  1.0
  H  H44  1  0.55528000  0.49058000  0.94295000  1.0
  H  H45  1  0.91553000  0.90863000  0.74957000  1.0
  H  H46  1  0.98301000  0.88081000  0.68736000  1.0
  H  H47  1  0.58968000  0.43623000  0.50680000  1.0
  H  H48  1  0.49589000  0.45879000  0.43759000  1.0
  H  H49  1  0.04634000  0.55333000  0.34176000  1.0
  H  H50  1  0.03351000  0.74979000  0.33961000  1.0
  H  H51  1  0.12928000  0.68069000  0.37039000  1.0
  H  H52  1  0.10923000  0.72181000  0.24363000  1.0
  H  H53  1  0.23685000  0.74808000  0.30748000  1.0
  H  H54  1  0.71597000  0.85914000  0.35824000  1.0
  H  H55  1  0.83730000  0.76800000  0.41590000  1.0
  H  H56  1  0.75845000  0.64194000  0.39695000  1.0
  H  H57  1  0.55762000  0.60117000  0.31629000  1.0
  H  H58  1  0.30520000  0.78411000  0.19963000  1.0
  H  H59  1  0.26095000  0.65234000  0.18226000  1.0
  H  H60  1  0.37738000  0.59516000  0.21915000  1.0
  H  H61  1  0.73969000  0.40490000  0.16861000  1.0
  H  H62  1  0.86546000  0.45570000  0.17405000  1.0
  H  H63  1  0.63323000  0.52376000  0.17733000  1.0
  H  H64  1  0.54888000  0.62929000  0.12811000  1.0
  H  H65  1  0.66028000  0.74813000  0.16043000  1.0
  H  H66  1  0.86315000  0.76557000  0.24291000  1.0
  H  H67  1  0.03116000  0.34602000  0.38891000  1.0
  H  H68  1  0.10642000  0.30582000  0.48946000  1.0
  H  H69  1  0.01649000  0.35619000  0.57594000  1.0
  H  H70  1  0.84396000  0.44881000  0.56500000  1.0
  H  H71  1  0.67966000  0.52643000  0.36073000  1.0
  H  H72  1  0.62014000  0.57713000  0.45730000  1.0
  H  H73  1  0.71257000  0.55495000  0.52669000  1.0
  H  H74  1  0.44437000  0.44918000  0.30208000  1.0
  H  H75  1  0.36274000  0.34414000  0.11860000  1.0
  H  H76  1  0.06268000  0.35308000  0.21899000  1.0
  H  H77  1  0.15354000  0.16240000  0.09474000  1.0
  H  H78  1  0.21154000  0.06198000  0.15461000  1.0
  H  H79  1  0.06082000  0.95604000  0.13946000  1.0
  H  H80  1  0.84805000  0.94703000  0.06481000  1.0
  H  H81  1  0.72836000  0.15087000  0.94086000  1.0
  H  H82  1  0.68587000  0.96324000  0.96166000  1.0
  H  H83  1  0.60576000  0.03441000  0.92684000  1.0
  H  H84  1  0.53317000  0.08011000  0.02090000  1.0
  H  H85  1  0.61195000  0.00947000  0.05706000  1.0
  H  H86  1  0.16445000  0.59126000  0.25037000  1.0
  H  H87  1  0.29455000  0.61875000  0.31247000  1.0
  H  H88  1  0.91595000  0.93617000  0.50635000  1.0
  H  H89  1  0.94075000  0.95893000  0.43721000  1.0
  H  H90  1  0.29514000  0.05329000  0.34171000  1.0
  H  H91  1  0.30572000  0.24973000  0.33939000  1.0
  H  H92  1  0.24060000  0.18062000  0.37021000  1.0
  H  H93  1  0.13406000  0.22151000  0.24338000  1.0
  H  H94  1  0.07044000  0.24811000  0.30724000  1.0
  H  H95  1  0.64221000  0.35913000  0.35854000  1.0
  H  H96  1  0.57768000  0.26795000  0.41599000  1.0
  H  H97  1  0.63669000  0.14178000  0.39684000  1.0
  H  H98  1  0.75699000  0.10102000  0.31616000  1.0
  H  H99  1  0.89435000  0.28400000  0.19987000  1.0
  H  H100  1  0.92039000  0.15212000  0.18232000  1.0
  H  H101  1  0.84100000  0.09505000  0.21941000  1.0
  H  H102  1  0.42925000  0.90499000  0.16845000  1.0
  H  H103  1  0.30899000  0.95580000  0.17385000  1.0
  H  H104  1  0.54416000  0.02386000  0.17730000  1.0
  H  H105  1  0.58003000  0.12944000  0.12827000  1.0
  H  H106  1  0.50117000  0.24829000  0.16060000  1.0
  H  H107  1  0.37998000  0.26559000  0.24286000  1.0
  H  H108  1  0.35733000  0.84601000  0.38867000  1.0
  H  H109  1  0.38299000  0.80542000  0.48912000  1.0
  H  H110  1  0.55966000  0.85563000  0.57554000  1.0
  H  H111  1  0.72074000  0.94868000  0.56469000  1.0
  H  H112  1  0.68068000  0.02673000  0.36059000  1.0
  H  H113  1  0.83688000  0.07736000  0.45725000  1.0
  H  H114  1  0.81367000  0.05500000  0.52660000  1.0
  H  H115  1  0.85785000  0.94917000  0.30187000  1.0
  H  H116  1  0.75585000  0.84414000  0.11838000  1.0
  H  H117  1  0.15612000  0.85277000  0.21870000  1.0
  H  H118  1  0.94090000  0.66185000  0.09447000  1.0
  H  H119  1  0.94289000  0.56155000  0.15446000  1.0
  H  H120  1  0.07860000  0.45573000  0.13941000  1.0
  H  H121  1  0.21678000  0.44670000  0.06469000  1.0
  H  H122  1  0.21163000  0.65017000  0.94025000  1.0
  H  H123  1  0.27591000  0.46281000  0.96147000  1.0
  H  H124  1  0.32106000  0.53402000  0.92657000  1.0
  H  H125  1  0.48711000  0.58015000  0.02070000  1.0
  H  H126  1  0.44466000  0.50948000  0.05691000  1.0
  H  H127  1  0.08500000  0.09113000  0.25043000  1.0
  H  H128  1  0.01729000  0.11890000  0.31260000  1.0
  H  H129  1  0.40965000  0.56413000  0.49377000  1.0
  H  H130  1  0.50334000  0.54159000  0.56297000  1.0
  H  H131  1  0.95440000  0.44688000  0.65954000  1.0
  H  H132  1  0.96792000  0.25028000  0.66109000  1.0
  H  H133  1  0.87264000  0.31943000  0.63015000  1.0
  H  H134  1  0.89074000  0.27817000  0.75671000  1.0
  H  H135  1  0.76376000  0.25200000  0.69255000  1.0
  H  H136  1  0.28402000  0.14101000  0.64162000  1.0
  H  H137  1  0.16268000  0.23224000  0.58409000  1.0
  H  H138  1  0.24142000  0.35830000  0.60314000  1.0
  H  H139  1  0.44232000  0.39904000  0.68376000  1.0
  H  H140  1  0.69474000  0.21591000  0.80027000  1.0
  H  H141  1  0.73893000  0.34772000  0.81779000  1.0
  H  H142  1  0.62260000  0.40489000  0.78079000  1.0
  H  H143  1  0.25954000  0.59467000  0.83068000  1.0
  H  H144  1  0.13291000  0.54409000  0.82518000  1.0
  H  H145  1  0.36792000  0.47628000  0.82355000  1.0
  H  H146  1  0.45319000  0.37045000  0.87233000  1.0
  H  H147  1  0.34176000  0.25159000  0.83980000  1.0
  H  H148  1  0.13855000  0.23436000  0.75751000  1.0
  H  H149  1  0.96774000  0.65561000  0.61058000  1.0
  H  H150  1  0.89278000  0.69506000  0.50967000  1.0
  H  H151  1  0.98321000  0.64411000  0.42358000  1.0
  H  H152  1  0.15584000  0.55146000  0.43508000  1.0
  H  H153  1  0.31821000  0.47490000  0.63993000  1.0
  H  H154  1  0.37851000  0.42353000  0.54359000  1.0
  H  H155  1  0.28644000  0.44542000  0.47401000  1.0
  H  H156  1  0.55515000  0.55044000  0.69735000  1.0
  H  H157  1  0.63573000  0.65489000  0.88086000  1.0
  H  H158  1  0.93673000  0.64677000  0.78100000  1.0
  H  H159  1  0.84639000  0.83749000  0.90504000  1.0
  H  H160  1  0.78843000  0.93804000  0.84530000  1.0
  H  H161  1  0.93923000  0.04398000  0.86056000  1.0
  H  H162  1  0.15198000  0.05288000  0.93524000  1.0
  H  H163  1  0.27134000  0.84888000  0.05903000  1.0
  H  H164  1  0.31388000  0.03660000  0.03834000  1.0
  H  H165  1  0.39407000  0.96544000  0.07314000  1.0
  H  H166  1  0.46675000  0.91983000  0.97907000  1.0
  H  H167  1  0.38794000  0.99049000  0.94295000  1.0
  H  H168  1  0.83572000  0.40879000  0.74976000  1.0
  H  H169  1  0.70585000  0.38117000  0.68756000  1.0
  C  C170  1  0.06484000  0.01883000  0.51658000  1.0
  C  C171  1  0.65883000  0.92452000  0.68993000  1.0
  C  C172  1  0.74764000  0.80216000  0.67217000  1.0
  C  C173  1  0.88071000  0.79556000  0.71464000  1.0
  C  C174  1  0.22992000  0.79070000  0.70487000  1.0
  C  C175  1  0.25933000  0.71773000  0.69288000  1.0
  C  C176  1  0.33217000  0.69598000  0.64998000  1.0
  C  C177  1  0.36746000  0.74749000  0.61810000  1.0
  C  C178  1  0.33286000  0.81936000  0.62876000  1.0
  C  C179  1  0.26471000  0.84251000  0.67287000  1.0
  C  C180  1  0.15443000  0.72746000  0.76501000  1.0
  C  C181  1  0.09626000  0.85627000  0.77349000  1.0
  C  C182  1  0.60587000  0.84635000  0.74480000  1.0
  C  C183  1  0.55901000  0.91464000  0.76188000  1.0
  C  C184  1  0.49192000  0.92418000  0.80845000  1.0
  C  C185  1  0.47281000  0.86468000  0.83568000  1.0
  C  C186  1  0.51804000  0.79694000  0.81751000  1.0
  C  C187  1  0.58580000  0.78664000  0.77166000  1.0
  C  C188  1  0.37408000  0.05192000  0.52988000  1.0
  C  C189  1  0.47548000  0.07993000  0.57986000  1.0
  C  C190  1  0.56411000  0.13225000  0.57364000  1.0
  C  C191  1  0.54889000  0.15420000  0.51715000  1.0
  C  C192  1  0.44800000  0.12547000  0.46782000  1.0
  C  C193  1  0.35813000  0.07377000  0.47306000  1.0
  C  C194  1  0.35821000  0.00435000  0.61069000  1.0
  C  C195  1  0.17810000  0.96767000  0.51896000  1.0
  C  C196  1  0.11283000  0.07992000  0.73687000  1.0
  C  C197  1  0.20723000  0.10100000  0.79036000  1.0
  C  C198  1  0.17047000  0.13908000  0.84022000  1.0
  C  C199  1  0.04010000  0.15725000  0.83643000  1.0
  C  C200  1  0.94592000  0.13527000  0.78334000  1.0
  C  C201  1  0.98249000  0.09685000  0.73399000  1.0
  C  C202  1  0.34831000  0.08587000  0.79319000  1.0
  C  C203  1  0.99789000  0.19926000  0.88823000  1.0
  C  C204  1  0.84117000  0.44864000  0.96111000  1.0
  C  C205  1  0.91814000  0.38817000  0.95266000  1.0
  C  C206  1  0.99804000  0.38391000  0.91125000  1.0
  C  C207  1  0.99682000  0.44088000  0.87856000  1.0
  C  C208  1  0.91969000  0.50080000  0.88700000  1.0
  C  C209  1  0.84073000  0.50609000  0.92856000  1.0
  C  C210  1  0.81794000  0.37164000  0.02319000  1.0
  C  C211  1  0.68455000  0.48191000  0.02965000  1.0
  C  C212  1  0.54844000  0.47606000  0.98701000  1.0
  C  C213  1  0.96571000  0.86421000  0.72909000  1.0
  C  C214  1  0.54768000  0.48120000  0.48370000  1.0
  C  C215  1  0.96858000  0.57548000  0.31020000  1.0
  C  C216  1  0.07509000  0.69785000  0.32806000  1.0
  C  C217  1  0.16572000  0.70435000  0.28556000  1.0
  C  C218  1  0.52346000  0.70900000  0.29485000  1.0
  C  C219  1  0.56421000  0.78212000  0.30734000  1.0
  C  C220  1  0.67978000  0.80393000  0.35036000  1.0
  C  C221  1  0.74719000  0.75236000  0.38200000  1.0
  C  C222  1  0.70239000  0.68037000  0.37096000  1.0
  C  C223  1  0.59059000  0.65714000  0.32664000  1.0
  C  C224  1  0.38779000  0.77245000  0.23501000  1.0
  C  C225  1  0.32144000  0.64345000  0.22629000  1.0
  C  C226  1  0.86085000  0.65358000  0.25536000  1.0
  C  C227  1  0.79696000  0.58526000  0.23822000  1.0
  C  C228  1  0.68354000  0.57566000  0.19156000  1.0
  C  C229  1  0.63749000  0.63514000  0.16424000  1.0
  C  C230  1  0.70096000  0.70289000  0.18245000  1.0
  C  C231  1  0.81424000  0.71325000  0.22844000  1.0
  C  C232  1  0.84388000  0.44797000  0.47032000  1.0
  C  C233  1  0.89537000  0.41999000  0.42033000  1.0
  C  C234  1  0.99033000  0.36780000  0.42661000  1.0
  C  C235  1  0.03185000  0.34608000  0.48318000  1.0
  C  C236  1  0.98041000  0.37489000  0.53253000  1.0
  C  C237  1  0.88500000  0.42638000  0.52722000  1.0
  C  C238  1  0.74718000  0.49539000  0.38946000  1.0
  C  C239  1  0.65878000  0.53221000  0.48116000  1.0
  C  C240  1  0.37618000  0.42002000  0.26332000  1.0
  C  C241  1  0.41713000  0.39891000  0.20982000  1.0
  C  C242  1  0.33048000  0.36087000  0.15998000  1.0
  C  C243  1  0.20383000  0.34284000  0.16381000  1.0
  C  C244  1  0.16268000  0.36489000  0.21688000  1.0
  C  C245  1  0.24866000  0.40323000  0.26623000  1.0
  C  C246  1  0.55541000  0.41394000  0.20693000  1.0
  C  C247  1  0.10974000  0.30091000  0.11201000  1.0
  C  C248  1  0.87992000  0.05182000  0.03906000  1.0
  C  C249  1  0.96541000  0.11231000  0.04753000  1.0
  C  C250  1  0.08669000  0.11655000  0.08891000  1.0
  C  C251  1  0.11809000  0.05955000  0.12157000  1.0
  C  C252  1  0.03250000  0.99959000  0.11308000  1.0
  C  C253  1  0.91204000  0.99431000  0.07152000  1.0
  C  C254  1  0.79461000  0.12896000  0.97715000  1.0
  C  C255  1  0.65489000  0.01852000  0.97046000  1.0
  C  C256  1  0.56118000  0.02405000  0.01301000  1.0
  C  C257  1  0.23550000  0.63553000  0.27084000  1.0
  C  C258  1  0.93516000  0.98123000  0.48336000  1.0
  C  C259  1  0.34131000  0.07543000  0.31010000  1.0
  C  C260  1  0.25254000  0.19778000  0.32788000  1.0
  C  C261  1  0.11946000  0.20425000  0.28539000  1.0
  C  C262  1  0.77058000  0.20889000  0.29496000  1.0
  C  C263  1  0.74275000  0.28203000  0.30755000  1.0
  C  C264  1  0.67012000  0.30386000  0.35056000  1.0
  C  C265  1  0.63385000  0.25226000  0.38208000  1.0
  C  C266  1  0.66713000  0.18023000  0.37093000  1.0
  C  C267  1  0.73469000  0.15701000  0.32662000  1.0
  C  C268  1  0.84698000  0.27235000  0.23522000  1.0
  C  C269  1  0.90410000  0.14335000  0.22643000  1.0
  C  C270  1  0.39432000  0.15360000  0.25525000  1.0
  C  C271  1  0.44102000  0.08529000  0.23810000  1.0
  C  C272  1  0.50805000  0.07574000  0.19151000  1.0
  C  C273  1  0.52721000  0.13524000  0.16429000  1.0
  C  C274  1  0.48213000  0.20299000  0.18252000  1.0
  C  C275  1  0.41445000  0.21330000  0.22840000  1.0
  C  C276  1  0.62593000  0.94808000  0.47010000  1.0
  C  C277  1  0.52452000  0.92006000  0.42012000  1.0
  C  C278  1  0.43591000  0.86774000  0.42636000  1.0
  C  C279  1  0.45118000  0.84580000  0.48285000  1.0
  C  C280  1  0.55207000  0.87453000  0.53218000  1.0
  C  C281  1  0.64191000  0.92625000  0.52692000  1.0
  C  C282  1  0.64180000  0.99563000  0.38929000  1.0
  C  C283  1  0.82186000  0.03236000  0.48101000  1.0
  C  C284  1  0.88717000  0.91998000  0.26309000  1.0
  C  C285  1  0.79278000  0.89888000  0.20960000  1.0
  C  C286  1  0.82953000  0.86081000  0.15974000  1.0
  C  C287  1  0.95990000  0.84267000  0.16351000  1.0
  C  C288  1  0.05408000  0.86467000  0.21660000  1.0
  C  C289  1  0.01752000  0.90307000  0.26597000  1.0
  C  C290  1  0.65172000  0.91403000  0.20678000  1.0
  C  C291  1  0.00215000  0.80064000  0.11169000  1.0
  C  C292  1  0.15883000  0.55135000  0.03879000  1.0
  C  C293  1  0.08172000  0.61178000  0.04720000  1.0
  C  C294  1  0.00195000  0.61605000  0.08866000  1.0
  C  C295  1  0.00335000  0.55912000  0.12142000  1.0
  C  C296  1  0.08054000  0.49922000  0.11298000  1.0
  C  C297  1  0.15939000  0.49393000  0.07137000  1.0
  C  C298  1  0.18175000  0.62829000  0.97661000  1.0
  C  C299  1  0.31544000  0.51815000  0.97020000  1.0
  C  C300  1  0.45153000  0.52402000  0.01286000  1.0
  C  C301  1  0.03466000  0.13551000  0.27089000  1.0
  C  C302  1  0.45147000  0.51914000  0.51689000  1.0
  C  C303  1  0.03221000  0.42476000  0.69109000  1.0
  C  C304  1  0.92627000  0.30221000  0.67256000  1.0
  C  C305  1  0.83481000  0.29570000  0.71470000  1.0
  C  C306  1  0.47656000  0.29113000  0.70510000  1.0
  C  C307  1  0.43579000  0.21802000  0.69258000  1.0
  C  C308  1  0.32021000  0.19624000  0.64956000  1.0
  C  C309  1  0.25277000  0.24786000  0.61799000  1.0
  C  C310  1  0.29758000  0.31985000  0.62908000  1.0
  C  C311  1  0.40941000  0.34305000  0.67339000  1.0
  C  C312  1  0.61217000  0.22760000  0.76490000  1.0
  C  C313  1  0.67859000  0.35659000  0.77371000  1.0
  C  C314  1  0.14050000  0.34642000  0.74540000  1.0
  C  C315  1  0.20421000  0.41481000  0.76276000  1.0
  C  C316  1  0.31784000  0.42430000  0.80929000  1.0
  C  C317  1  0.36431000  0.36472000  0.83633000  1.0
  C  C318  1  0.30081000  0.29695000  0.81801000  1.0
  C  C319  1  0.18739000  0.28667000  0.77213000  1.0
  C  C320  1  0.15565000  0.55315000  0.52981000  1.0
  C  C321  1  0.10423000  0.58175000  0.57963000  1.0
  C  C322  1  0.00900000  0.63374000  0.57304000  1.0
  C  C323  1  0.96750000  0.65491000  0.51627000  1.0
  C  C324  1  0.01928000  0.62573000  0.46711000  1.0
  C  C325  1  0.11464000  0.57422000  0.47273000  1.0
  C  C326  1  0.25154000  0.50614000  0.61102000  1.0
  C  C327  1  0.34016000  0.46833000  0.51951000  1.0
  C  C328  1  0.62347000  0.57926000  0.73624000  1.0
  C  C329  1  0.58206000  0.60011000  0.78966000  1.0
  C  C330  1  0.66843000  0.63828000  0.83957000  1.0
  C  C331  1  0.79510000  0.65668000  0.83588000  1.0
  C  C332  1  0.83668000  0.63475000  0.78289000  1.0
  C  C333  1  0.75105000  0.59626000  0.73351000  1.0
  C  C334  1  0.44288000  0.58519000  0.79179000  1.0
  C  C335  1  0.88914000  0.69867000  0.88773000  1.0
  C  C336  1  0.12002000  0.94805000  0.96086000  1.0
  C  C337  1  0.03452000  0.88755000  0.95231000  1.0
  C  C338  1  0.91326000  0.88335000  0.91092000  1.0
  C  C339  1  0.88187000  0.94042000  0.87832000  1.0
  C  C340  1  0.96749000  0.00039000  0.88689000  1.0
  C  C341  1  0.08794000  0.00560000  0.92846000  1.0
  C  C342  1  0.20516000  0.87083000  0.02273000  1.0
  C  C343  1  0.34495000  0.98134000  0.02953000  1.0
  C  C344  1  0.43870000  0.97589000  0.98699000  1.0
  C  C345  1  0.76478000  0.36448000  0.72924000  1.0
  S  S346  1  0.85959000  0.07374000  0.66624000  1.0
  S  S347  1  0.19354000  0.42637000  0.33402000  1.0
  S  S348  1  0.14042000  0.92615000  0.33373000  1.0
  S  S349  1  0.80591000  0.57343000  0.66569000  1.0
  N  N350  1  0.59337000  0.96226000  0.72599000  1.0
  N  N351  1  0.66826000  0.85483000  0.69887000  1.0
  N  N352  1  0.20723000  0.67938000  0.73035000  1.0
  N  N353  1  0.16584000  0.79503000  0.75182000  1.0
  N  N354  1  0.46237000  0.04849000  0.62986000  1.0
  N  N355  1  0.30195000  0.00373000  0.55124000  1.0
  N  N356  1  0.90043000  0.34101000  0.99204000  1.0
  N  N357  1  0.77851000  0.43611000  0.00617000  1.0
  N  N358  1  0.86718000  0.53768000  0.27411000  1.0
  N  N359  1  0.96897000  0.64519000  0.30135000  1.0
  N  N360  1  0.47461000  0.82049000  0.26997000  1.0
  N  N361  1  0.41285000  0.70466000  0.24784000  1.0
  N  N362  1  0.83231000  0.45137000  0.37030000  1.0
  N  N363  1  0.75029000  0.49604000  0.44891000  1.0
  N  N364  1  0.90832000  0.15954000  0.00824000  1.0
  N  N365  1  0.77220000  0.06441000  0.99408000  1.0
  N  N366  1  0.40666000  0.03768000  0.27400000  1.0
  N  N367  1  0.33200000  0.14513000  0.30120000  1.0
  N  N368  1  0.79532000  0.32041000  0.27024000  1.0
  N  N369  1  0.83432000  0.20455000  0.24796000  1.0
  N  N370  1  0.53763000  0.95149000  0.37011000  1.0
  N  N371  1  0.69803000  0.99628000  0.44874000  1.0
  N  N372  1  0.09920000  0.65889000  0.00774000  1.0
  N  N373  1  0.22138000  0.56388000  0.99369000  1.0
  N  N374  1  0.13341000  0.46260000  0.72734000  1.0
  N  N375  1  0.03233000  0.35484000  0.69955000  1.0
  N  N376  1  0.52532000  0.17959000  0.72992000  1.0
  N  N377  1  0.58718000  0.29539000  0.75210000  1.0
  N  N378  1  0.16684000  0.55075000  0.62988000  1.0
  N  N379  1  0.24867000  0.50495000  0.55156000  1.0
  N  N380  1  0.09149000  0.84026000  0.99156000  1.0
  N  N381  1  0.22765000  0.93542000  0.00586000  1.0
  O  O382  1  0.37562000  0.05561000  0.74433000  1.0
  O  O383  1  0.43127000  0.10359000  0.84294000  1.0
  O  O384  1  0.88017000  0.21515000  0.88426000  1.0
  O  O385  1  0.08897000  0.21748000  0.93666000  1.0
  O  O386  1  0.73591000  0.08222000  0.68660000  1.0
  O  O387  1  0.87818000  0.12563000  0.62664000  1.0
  O  O388  1  0.88129000  0.99960000  0.64255000  1.0
  O  O389  1  0.65615000  0.09008000  0.81665000  1.0
  O  O390  1  0.63150000  0.44429000  0.25577000  1.0
  O  O391  1  0.58871000  0.39611000  0.15720000  1.0
  O  O392  1  0.99595000  0.28508000  0.11602000  1.0
  O  O393  1  0.15239000  0.28273000  0.06356000  1.0
  O  O394  1  0.04951000  0.41807000  0.31372000  1.0
  O  O395  1  0.25140000  0.37441000  0.37360000  1.0
  O  O396  1  0.23933000  0.50046000  0.35771000  1.0
  O  O397  1  0.83992000  0.40989000  0.18352000  1.0
  O  O398  1  0.62445000  0.94435000  0.25563000  1.0
  O  O399  1  0.56874000  0.89627000  0.15704000  1.0
  O  O400  1  0.11987000  0.78470000  0.11573000  1.0
  O  O401  1  0.91114000  0.78249000  0.06323000  1.0
  O  O402  1  0.26410000  0.91772000  0.31337000  1.0
  O  O403  1  0.12185000  0.87418000  0.37328000  1.0
  O  O404  1  0.11869000  0.00025000  0.35749000  1.0
  O  O405  1  0.34380000  0.90994000  0.18328000  1.0
  O  O406  1  0.36749000  0.55613000  0.74255000  1.0
  O  O407  1  0.40908000  0.60274000  0.84163000  1.0
  O  O408  1  0.00289000  0.71459000  0.88368000  1.0
  O  O409  1  0.84677000  0.71668000  0.93629000  1.0
  O  O410  1  0.95022000  0.58158000  0.68571000  1.0
  O  O411  1  0.74847000  0.62573000  0.62643000  1.0
  O  O412  1  0.76044000  0.49943000  0.64174000  1.0
  O  O413  1  0.15858000  0.59003000  0.81598000  1.0
