# generated using pymatgen
data_ZnH4C4(IN)2
_symmetry_space_group_name_H-M   'P 1'
_cell_length_a   6.44827000
_cell_length_b   14.25000000
_cell_length_c   19.05750000
_cell_angle_alpha   89.99950000
_cell_angle_beta   90.18490000
_cell_angle_gamma   89.99970000
_symmetry_Int_Tables_number   1
_chemical_formula_structural   ZnH4C4(IN)2
_chemical_formula_sum   'Zn8 H32 C32 I16 N16'
_cell_volume   1751.14353517
_cell_formula_units_Z   8
loop_
 _symmetry_equiv_pos_site_id
 _symmetry_equiv_pos_as_xyz
  1  'x, y, z'
loop_
 _atom_site_type_symbol
 _atom_site_label
 _atom_site_symmetry_multiplicity
 _atom_site_fract_x
 _atom_site_fract_y
 _atom_site_fract_z
 _atom_site_occupancy
  Zn  Zn0  1  0.83159000  0.26853000  0.08381000  1.0
  Zn  Zn1  1  0.16841000  0.76853000  0.41619000  1.0
  Zn  Zn2  1  0.16842000  0.73147000  0.91619000  1.0
  Zn  Zn3  1  0.83159000  0.23147000  0.58381000  1.0
  Zn  Zn4  1  0.38458000  0.27048000  0.33163000  1.0
  Zn  Zn5  1  0.61541000  0.77047000  0.16837000  1.0
  Zn  Zn6  1  0.61541000  0.72953000  0.66837000  1.0
  Zn  Zn7  1  0.38458000  0.22953000  0.83163000  1.0
  H  H8  1  0.05712000  0.23632000  0.22103000  1.0
  H  H9  1  0.94288000  0.73631000  0.27898000  1.0
  H  H10  1  0.94288000  0.76369000  0.77898000  1.0
  H  H11  1  0.05711000  0.26368000  0.72103000  1.0
  H  H12  1  0.45678000  0.46014000  0.25867000  1.0
  H  H13  1  0.54321000  0.96014000  0.24133000  1.0
  H  H14  1  0.54322000  0.53986000  0.74133000  1.0
  H  H15  1  0.45680000  0.03986000  0.75866000  1.0
  H  H16  1  0.31708000  0.54410000  0.15165000  1.0
  H  H17  1  0.68292000  0.04410000  0.34835000  1.0
  H  H18  1  0.68292000  0.45590000  0.84835000  1.0
  H  H19  1  0.31708000  0.95590000  0.65165000  1.0
  H  H20  1  0.04774000  0.45810000  0.07843000  1.0
  H  H21  1  0.95225000  0.95810000  0.42157000  1.0
  H  H22  1  0.95226000  0.54190000  0.92157000  1.0
  H  H23  1  0.04774000  0.04190000  0.57843000  1.0
  H  H24  1  0.08010000  0.29103000  0.94744000  1.0
  H  H25  1  0.91990000  0.79103000  0.55257000  1.0
  H  H26  1  0.91991000  0.70897000  0.05257000  1.0
  H  H27  1  0.08010000  0.20897000  0.44743000  1.0
  H  H28  1  0.06304000  0.08434000  0.10201000  1.0
  H  H29  1  0.93698000  0.58434000  0.39799000  1.0
  H  H30  1  0.93697000  0.91566000  0.89799000  1.0
  H  H31  1  0.06303000  0.41566000  0.60201000  1.0
  H  H32  1  0.28314000  0.97827000  0.02618000  1.0
  H  H33  1  0.71687000  0.47827000  0.47382000  1.0
  H  H34  1  0.71686000  0.02173000  0.97382000  1.0
  H  H35  1  0.28314000  0.52173000  0.52619000  1.0
  H  H36  1  0.40236000  0.04374000  0.90883000  1.0
  H  H37  1  0.59763000  0.54374000  0.59117000  1.0
  H  H38  1  0.59764000  0.95625000  0.09117000  1.0
  H  H39  1  0.40237000  0.45626000  0.40883000  1.0
  C  C40  1  0.11604000  0.30491000  0.20506000  1.0
  C  C41  1  0.88395000  0.80491000  0.29493000  1.0
  C  C42  1  0.88396000  0.69509000  0.79494000  1.0
  C  C43  1  0.11604000  0.19509000  0.70506000  1.0
  C  C44  1  0.33431000  0.42992000  0.22609000  1.0
  C  C45  1  0.66567000  0.92992000  0.27390000  1.0
  C  C46  1  0.66568000  0.57008000  0.77391000  1.0
  C  C47  1  0.33433000  0.07008000  0.72609000  1.0
  C  C48  1  0.25924000  0.47528000  0.16675000  1.0
  C  C49  1  0.74076000  0.97528000  0.33325000  1.0
  C  C50  1  0.74075000  0.52473000  0.83325000  1.0
  C  C51  1  0.25924000  0.02473000  0.66675000  1.0
  C  C52  1  0.11174000  0.42850000  0.12669000  1.0
  C  C53  1  0.88824000  0.92850000  0.37330000  1.0
  C  C54  1  0.88825000  0.57150000  0.87331000  1.0
  C  C55  1  0.11175000  0.07150000  0.62669000  1.0
  C  C56  1  0.12839000  0.22165000  0.96567000  1.0
  C  C57  1  0.87160000  0.72165000  0.53433000  1.0
  C  C58  1  0.87161000  0.77835000  0.03433000  1.0
  C  C59  1  0.12840000  0.27836000  0.46566000  1.0
  C  C60  1  0.11951000  0.10622000  0.05052000  1.0
  C  C61  1  0.88050000  0.60621000  0.44948000  1.0
  C  C62  1  0.88049000  0.89378000  0.94948000  1.0
  C  C63  1  0.11951000  0.39379000  0.55052000  1.0
  C  C64  1  0.24173000  0.04867000  0.00887000  1.0
  C  C65  1  0.75828000  0.54867000  0.49113000  1.0
  C  C66  1  0.75828000  0.95133000  0.99113000  1.0
  C  C67  1  0.24172000  0.45133000  0.50887000  1.0
  C  C68  1  0.30645000  0.08438000  0.94478000  1.0
  C  C69  1  0.69354000  0.58438000  0.55522000  1.0
  C  C70  1  0.69354000  0.91561000  0.05522000  1.0
  C  C71  1  0.30646000  0.41562000  0.44479000  1.0
  I  I72  1  0.63666000  0.14742000  0.15744000  1.0
  I  I73  1  0.36334000  0.64742000  0.34256000  1.0
  I  I74  1  0.36334000  0.85258000  0.84256000  1.0
  I  I75  1  0.63666000  0.35258000  0.65744000  1.0
  I  I76  1  0.63740000  0.37687000  0.00260000  1.0
  I  I77  1  0.36259000  0.87687000  0.49740000  1.0
  I  I78  1  0.36260000  0.62313000  0.99740000  1.0
  I  I79  1  0.63741000  0.12313000  0.50260000  1.0
  I  I80  1  0.23727000  0.10531000  0.32223000  1.0
  I  I81  1  0.76273000  0.60530000  0.17777000  1.0
  I  I82  1  0.76273000  0.89469000  0.67777000  1.0
  I  I83  1  0.23727000  0.39470000  0.82223000  1.0
  I  I84  1  0.75139000  0.34133000  0.34114000  1.0
  I  I85  1  0.24861000  0.84132000  0.15886000  1.0
  I  I86  1  0.24861000  0.65867000  0.65887000  1.0
  I  I87  1  0.75138000  0.15867000  0.84114000  1.0
  N  N88  1  0.04114000  0.34319000  0.14606000  1.0
  N  N89  1  0.95885000  0.84319000  0.35394000  1.0
  N  N90  1  0.95886000  0.65681000  0.85394000  1.0
  N  N91  1  0.04114000  0.15681000  0.64606000  1.0
  N  N92  1  0.26179000  0.34489000  0.24523000  1.0
  N  N93  1  0.73821000  0.84489000  0.25477000  1.0
  N  N94  1  0.73821000  0.65511000  0.75477000  1.0
  N  N95  1  0.26179000  0.15511000  0.74523000  1.0
  N  N96  1  0.25344000  0.17150000  0.92415000  1.0
  N  N97  1  0.74657000  0.67150000  0.57585000  1.0
  N  N98  1  0.74657000  0.82849000  0.07586000  1.0
  N  N99  1  0.25343000  0.32850000  0.42415000  1.0
  N  N100  1  0.05895000  0.19155000  0.02796000  1.0
  N  N101  1  0.94106000  0.69155000  0.47205000  1.0
  N  N102  1  0.94106000  0.80845000  0.97205000  1.0
  N  N103  1  0.05895000  0.30845000  0.52795000  1.0
