# generated using pymatgen
data_CdH12C10N4O5
_symmetry_space_group_name_H-M   'P 1'
_cell_length_a   8.08051000
_cell_length_b   12.32180000
_cell_length_c   12.87950000
_cell_angle_alpha   90.00000000
_cell_angle_beta   95.10140000
_cell_angle_gamma   90.00000000
_symmetry_Int_Tables_number   1
_chemical_formula_structural   CdH12C10N4O5
_chemical_formula_sum   'Cd4 H48 C40 N16 O20'
_cell_volume   1277.28622278
_cell_formula_units_Z   4
loop_
 _symmetry_equiv_pos_site_id
 _symmetry_equiv_pos_as_xyz
  1  'x, y, z'
loop_
 _atom_site_type_symbol
 _atom_site_label
 _atom_site_symmetry_multiplicity
 _atom_site_fract_x
 _atom_site_fract_y
 _atom_site_fract_z
 _atom_site_occupancy
  Cd  Cd0  1  0.87220000  0.41547000  0.82286000  1.0
  Cd  Cd1  1  0.62779000  0.91547000  0.67714000  1.0
  Cd  Cd2  1  0.12780000  0.58453000  0.17714000  1.0
  Cd  Cd3  1  0.37221000  0.08453000  0.32286000  1.0
  H  H4  1  0.86006000  0.64760000  0.66258000  1.0
  H  H5  1  0.63994000  0.14760000  0.83742000  1.0
  H  H6  1  0.13994000  0.35240000  0.33742000  1.0
  H  H7  1  0.36007000  0.85240000  0.16258000  1.0
  H  H8  1  0.24595000  0.53712000  0.88039000  1.0
  H  H9  1  0.25405000  0.03712000  0.61961000  1.0
  H  H10  1  0.75405000  0.46288000  0.11961000  1.0
  H  H11  1  0.74595000  0.96288000  0.38039000  1.0
  H  H12  1  0.98053000  0.79713000  0.57938000  1.0
  H  H13  1  0.51947000  0.29713000  0.92062000  1.0
  H  H14  1  0.01947000  0.20287000  0.42062000  1.0
  H  H15  1  0.48053000  0.70287000  0.07938000  1.0
  H  H16  1  0.19753000  0.77840000  0.56389000  1.0
  H  H17  1  0.30246000  0.27840000  0.93611000  1.0
  H  H18  1  0.80246000  0.22160000  0.43611000  1.0
  H  H19  1  0.69754000  0.72160000  0.06389000  1.0
  H  H20  1  0.13651000  0.87031000  0.65894000  1.0
  H  H21  1  0.36349000  0.37031000  0.84106000  1.0
  H  H22  1  0.86349000  0.12969000  0.34106000  1.0
  H  H23  1  0.63650000  0.62969000  0.15894000  1.0
  H  H24  1  0.49157000  0.52611000  0.71330000  1.0
  H  H25  1  0.00843000  0.02611000  0.78670000  1.0
  H  H26  1  0.50843000  0.47389000  0.28670000  1.0
  H  H27  1  0.99157000  0.97389000  0.21330000  1.0
  H  H28  1  0.75442000  0.24748000  0.63301000  1.0
  H  H29  1  0.74558000  0.74747000  0.86699000  1.0
  H  H30  1  0.24558000  0.75252000  0.36699000  1.0
  H  H31  1  0.25442000  0.25253000  0.13301000  1.0
  H  H32  1  0.23351000  0.51478000  0.60330000  1.0
  H  H33  1  0.26649000  0.01478000  0.89670000  1.0
  H  H34  1  0.76649000  0.48522000  0.39670000  1.0
  H  H35  1  0.73351000  0.98522000  0.10330000  1.0
  H  H36  1  0.17007000  0.38331000  0.55767000  1.0
  H  H37  1  0.32993000  0.88331000  0.94233000  1.0
  H  H38  1  0.82993000  0.61669000  0.44233000  1.0
  H  H39  1  0.67007000  0.11669000  0.05767000  1.0
  H  H40  1  0.26909000  0.47341000  0.47344000  1.0
  H  H41  1  0.23091000  0.97341000  0.02656000  1.0
  H  H42  1  0.73091000  0.52659000  0.52657000  1.0
  H  H43  1  0.76909000  0.02659000  0.97344000  1.0
  H  H44  1  0.63455000  0.56757000  0.89608000  1.0
  H  H45  1  0.86545000  0.06757000  0.60392000  1.0
  H  H46  1  0.36545000  0.43243000  0.10392000  1.0
  H  H47  1  0.13455000  0.93243000  0.39608000  1.0
  H  H48  1  0.80688000  0.57390000  0.96399000  1.0
  H  H49  1  0.69312000  0.07390000  0.53601000  1.0
  H  H50  1  0.19312000  0.42611000  0.03601000  1.0
  H  H51  1  0.30688000  0.92610000  0.46399000  1.0
  C  C52  1  0.97943000  0.63828000  0.70768000  1.0
  C  C53  1  0.52057000  0.13828000  0.79231000  1.0
  C  C54  1  0.02057000  0.36172000  0.29231000  1.0
  C  C55  1  0.47943000  0.86172000  0.20769000  1.0
  C  C56  1  0.24136000  0.67158000  0.76529000  1.0
  C  C57  1  0.25864000  0.17158000  0.73471000  1.0
  C  C58  1  0.75864000  0.32842000  0.23471000  1.0
  C  C59  1  0.74137000  0.82842000  0.26529000  1.0
  C  C60  1  0.18226000  0.58330000  0.81713000  1.0
  C  C61  1  0.31773000  0.08330000  0.68287000  1.0
  C  C62  1  0.81773000  0.41670000  0.18287000  1.0
  C  C63  1  0.68227000  0.91670000  0.31713000  1.0
  C  C64  1  0.40842000  0.72284000  0.78027000  1.0
  C  C65  1  0.09157000  0.22284000  0.71973000  1.0
  C  C66  1  0.59157000  0.27716000  0.21973000  1.0
  C  C67  1  0.90843000  0.77716000  0.28027000  1.0
  C  C68  1  0.10550000  0.79340000  0.61968000  1.0
  C  C69  1  0.39450000  0.29340000  0.88032000  1.0
  C  C70  1  0.89450000  0.20660000  0.38032000  1.0
  C  C71  1  0.60551000  0.70660000  0.11968000  1.0
  C  C72  1  0.52339000  0.45197000  0.67350000  1.0
  C  C73  1  0.97661000  0.95197000  0.82650000  1.0
  C  C74  1  0.47661000  0.54803000  0.32650000  1.0
  C  C75  1  0.02339000  0.04803000  0.17350000  1.0
  C  C76  1  0.50741000  0.31106000  0.56587000  1.0
  C  C77  1  0.99259000  0.81106000  0.93413000  1.0
  C  C78  1  0.49259000  0.68894000  0.43413000  1.0
  C  C79  1  0.00741000  0.18894000  0.06587000  1.0
  C  C80  1  0.65454000  0.30699000  0.62935000  1.0
  C  C81  1  0.84546000  0.80699000  0.87065000  1.0
  C  C82  1  0.34546000  0.69301000  0.37065000  1.0
  C  C83  1  0.15454000  0.19301000  0.12935000  1.0
  C  C84  1  0.44626000  0.23419000  0.48378000  1.0
  C  C85  1  0.05374000  0.73419000  0.01622000  1.0
  C  C86  1  0.55374000  0.76581000  0.51622000  1.0
  C  C87  1  0.94626000  0.26581000  0.98378000  1.0
  C  C88  1  0.26447000  0.44650000  0.55420000  1.0
  C  C89  1  0.23553000  0.94650000  0.94580000  1.0
  C  C90  1  0.73553000  0.55350000  0.44580000  1.0
  C  C91  1  0.76447000  0.05350000  0.05420000  1.0
  N  N92  1  0.02020000  0.56388000  0.78103000  1.0
  N  N93  1  0.47980000  0.06388000  0.71897000  1.0
  N  N94  1  0.97980000  0.43612000  0.21897000  1.0
  N  N95  1  0.52020000  0.93612000  0.28103000  1.0
  N  N96  1  0.10891000  0.70563000  0.69605000  1.0
  N  N97  1  0.39109000  0.20563000  0.80395000  1.0
  N  N98  1  0.89109000  0.29437000  0.30395000  1.0
  N  N99  1  0.60891000  0.79437000  0.19605000  1.0
  N  N100  1  0.66286000  0.39452000  0.69535000  1.0
  N  N101  1  0.83714000  0.89452000  0.80465000  1.0
  N  N102  1  0.33714000  0.60548000  0.30465000  1.0
  N  N103  1  0.16286000  0.10548000  0.19535000  1.0
  N  N104  1  0.42612000  0.40477000  0.59539000  1.0
  N  N105  1  0.07388000  0.90476000  0.90461000  1.0
  N  N106  1  0.57388000  0.59524000  0.40461000  1.0
  N  N107  1  0.92612000  0.09524000  0.09539000  1.0
  O  O108  1  0.52693000  0.66289000  0.81754000  1.0
  O  O109  1  0.97306000  0.16289000  0.68246000  1.0
  O  O110  1  0.47306000  0.33711000  0.18246000  1.0
  O  O111  1  0.02694000  0.83711000  0.31754000  1.0
  O  O112  1  0.41823000  0.82241000  0.75516000  1.0
  O  O113  1  0.08176000  0.32242000  0.74484000  1.0
  O  O114  1  0.58177000  0.17758000  0.24484000  1.0
  O  O115  1  0.91824000  0.67758000  0.25515000  1.0
  O  O116  1  0.31731000  0.25558000  0.42389000  1.0
  O  O117  1  0.18269000  0.75558000  0.07611000  1.0
  O  O118  1  0.68269000  0.74442000  0.57611000  1.0
  O  O119  1  0.81731000  0.24442000  0.92389000  1.0
  O  O120  1  0.53126000  0.14695000  0.47500000  1.0
  O  O121  1  0.96874000  0.64695000  0.02500000  1.0
  O  O122  1  0.46874000  0.85305000  0.52500000  1.0
  O  O123  1  0.03126000  0.35305000  0.97500000  1.0
  O  O124  1  0.71974000  0.52201000  0.93545000  1.0
  O  O125  1  0.78026000  0.02201000  0.56455000  1.0
  O  O126  1  0.28026000  0.47799000  0.06455000  1.0
  O  O127  1  0.21974000  0.97799000  0.43545000  1.0
