# generated using pymatgen
data_MnH15C24N2O5
_symmetry_space_group_name_H-M   'P 1'
_cell_length_a   9.33647000
_cell_length_b   10.06620000
_cell_length_c   11.89000000
_cell_angle_alpha   67.36000000
_cell_angle_beta   89.99960000
_cell_angle_gamma   89.99920000
_symmetry_Int_Tables_number   1
_chemical_formula_structural   MnH15C24N2O5
_chemical_formula_sum   'Mn2 H30 C48 N4 O10'
_cell_volume   1031.34599329
_cell_formula_units_Z   2
loop_
 _symmetry_equiv_pos_site_id
 _symmetry_equiv_pos_as_xyz
  1  'x, y, z'
loop_
 _atom_site_type_symbol
 _atom_site_label
 _atom_site_symmetry_multiplicity
 _atom_site_fract_x
 _atom_site_fract_y
 _atom_site_fract_z
 _atom_site_occupancy
  Mn  Mn0  1  0.95717000  0.07404000  0.13683000  1.0
  Mn  Mn1  1  0.95717000  0.92597000  0.86317000  1.0
  H  H2  1  0.04731000  0.87719000  0.41714000  1.0
  H  H3  1  0.04731000  0.12279000  0.58286000  1.0
  H  H4  1  0.92293000  0.75190000  0.61866000  1.0
  H  H5  1  0.92294000  0.24808000  0.38134000  1.0
  H  H6  1  0.65637000  0.75206000  0.62593000  1.0
  H  H7  1  0.65637000  0.24794000  0.37407000  1.0
  H  H8  1  0.42264000  0.83552000  0.51215000  1.0
  H  H9  1  0.42264000  0.16448000  0.48785000  1.0
  H  H10  1  0.29514000  0.97535000  0.31720000  1.0
  H  H11  1  0.29515000  0.02465000  0.68279000  1.0
  H  H12  1  0.30658000  0.13001000  0.09599000  1.0
  H  H13  1  0.30658000  0.86999000  0.90400000  1.0
  H  H14  1  0.72678000  0.21845000  0.92758000  1.0
  H  H15  1  0.72678000  0.78153000  0.07242000  1.0
  H  H16  1  0.97373000  0.57010000  0.09975000  1.0
  H  H17  1  0.97373000  0.42992000  0.90024000  1.0
  H  H18  1  0.30878000  0.72919000  0.26235000  1.0
  H  H19  1  0.30878000  0.27081000  0.73765000  1.0
  H  H20  1  0.31274000  0.28472000  0.29419000  1.0
  H  H21  1  0.31273000  0.71528000  0.70581000  1.0
  H  H22  1  0.44969000  0.62785000  0.42099000  1.0
  H  H23  1  0.44969000  0.37215000  0.57902000  1.0
  H  H24  1  0.54518000  0.67922000  0.28106000  1.0
  H  H25  1  0.54518000  0.32078000  0.71895000  1.0
  H  H26  1  0.79284000  0.63838000  0.27625000  1.0
  H  H27  1  0.79284000  0.36161000  0.72375000  1.0
  H  H28  1  0.02292000  0.56809000  0.38770000  1.0
  H  H29  1  0.02292000  0.43190000  0.61230000  1.0
  H  H30  1  0.45808000  0.25181000  0.91016000  1.0
  H  H31  1  0.45807000  0.74818000  0.08983000  1.0
  C  C32  1  0.93068000  0.87673000  0.42398000  1.0
  C  C33  1  0.93067000  0.12326000  0.57602000  1.0
  C  C34  1  0.86097000  0.80649000  0.53625000  1.0
  C  C35  1  0.86097000  0.19350000  0.46375000  1.0
  C  C36  1  0.71309000  0.80707000  0.54036000  1.0
  C  C37  1  0.71309000  0.19293000  0.45964000  1.0
  C  C38  1  0.63503000  0.87953000  0.43210000  1.0
  C  C39  1  0.63503000  0.12047000  0.56790000  1.0
  C  C40  1  0.48184000  0.88949000  0.42771000  1.0
  C  C41  1  0.48184000  0.11050000  0.57230000  1.0
  C  C42  1  0.41150000  0.96530000  0.32126000  1.0
  C  C43  1  0.41150000  0.03471000  0.67873000  1.0
  C  C44  1  0.48949000  0.03627000  0.21033000  1.0
  C  C45  1  0.48950000  0.96373000  0.78967000  1.0
  C  C46  1  0.42264000  0.11872000  0.09859000  1.0
  C  C47  1  0.42263000  0.88128000  0.90140000  1.0
  C  C48  1  0.65619000  0.16844000  0.00570000  1.0
  C  C49  1  0.65618000  0.83155000  0.99430000  1.0
  C  C50  1  0.64112000  0.02612000  0.21109000  1.0
  C  C51  1  0.64111000  0.97389000  0.78891000  1.0
  C  C52  1  0.71490000  0.94795000  0.32348000  1.0
  C  C53  1  0.71490000  0.05205000  0.67653000  1.0
  C  C54  1  0.05923000  0.29304000  0.17960000  1.0
  C  C55  1  0.05923000  0.70696000  0.82040000  1.0
  C  C56  1  0.13415000  0.41463000  0.19839000  1.0
  C  C57  1  0.13416000  0.58538000  0.80161000  1.0
  C  C58  1  0.07244000  0.55197000  0.15223000  1.0
  C  C59  1  0.07244000  0.44804000  0.84777000  1.0
  C  C60  1  0.13751000  0.66398000  0.17492000  1.0
  C  C61  1  0.13751000  0.33603000  0.82507000  1.0
  C  C62  1  0.26442000  0.63985000  0.24361000  1.0
  C  C63  1  0.26442000  0.36016000  0.75639000  1.0
  C  C64  1  0.32928000  0.50395000  0.28443000  1.0
  C  C65  1  0.32928000  0.49605000  0.71556000  1.0
  C  C66  1  0.26344000  0.39104000  0.26229000  1.0
  C  C67  1  0.26344000  0.60897000  0.73771000  1.0
  C  C68  1  0.06794000  0.80887000  0.13009000  1.0
  C  C69  1  0.06794000  0.19114000  0.86991000  1.0
  C  C70  1  0.52418000  0.58921000  0.36850000  1.0
  C  C71  1  0.52419000  0.41079000  0.63150000  1.0
  C  C72  1  0.66216000  0.53972000  0.43655000  1.0
  C  C73  1  0.66216000  0.46027000  0.56345000  1.0
  C  C74  1  0.79251000  0.57732000  0.37459000  1.0
  C  C75  1  0.79252000  0.42267000  0.62541000  1.0
  C  C76  1  0.92214000  0.53835000  0.43715000  1.0
  C  C77  1  0.92214000  0.46164000  0.56286000  1.0
  C  C78  1  0.50690000  0.18567000  0.99681000  1.0
  C  C79  1  0.50690000  0.81431000  0.00320000  1.0
  N  N80  1  0.86034000  0.94550000  0.32040000  1.0
  N  N81  1  0.86034000  0.05450000  0.67961000  1.0
  N  N82  1  0.72193000  0.09033000  0.10959000  1.0
  N  N83  1  0.72193000  0.90966000  0.89042000  1.0
  O  O84  1  0.10966000  0.90191000  0.17162000  1.0
  O  O85  1  0.10966000  0.09810000  0.82838000  1.0
  O  O86  1  0.96507000  0.83211000  0.05373000  1.0
  O  O87  1  0.96508000  0.16790000  0.94627000  1.0
  O  O88  1  0.92954000  0.30687000  0.14580000  1.0
  O  O89  1  0.92956000  0.69314000  0.85422000  1.0
  O  O90  1  0.12872000  0.17549000  0.19973000  1.0
  O  O91  1  0.12873000  0.82452000  0.80025000  1.0
  O  O92  1  0.45757000  0.47211000  0.34576000  1.0
  O  O93  1  0.45757000  0.52790000  0.65424000  1.0
