# generated using pymatgen
data_Cu5Mo6As6H40C28(N4O5)6
_symmetry_space_group_name_H-M   'P 1'
_cell_length_a   9.28525000
_cell_length_b   13.01500000
_cell_length_c   14.57570000
_cell_angle_alpha   101.15300000
_cell_angle_beta   90.91100000
_cell_angle_gamma   109.89600000
_symmetry_Int_Tables_number   1
_chemical_formula_structural   Cu5Mo6As6H40C28(N4O5)6
_chemical_formula_sum   'Cu5 Mo6 As6 H40 C28 N24 O30'
_cell_volume   1618.63099320
_cell_formula_units_Z   1
loop_
 _symmetry_equiv_pos_site_id
 _symmetry_equiv_pos_as_xyz
  1  'x, y, z'
loop_
 _atom_site_type_symbol
 _atom_site_label
 _atom_site_symmetry_multiplicity
 _atom_site_fract_x
 _atom_site_fract_y
 _atom_site_fract_z
 _atom_site_occupancy
  Cu  Cu0  1  0.59809000  0.42541000  0.45703000  1.0
  Cu  Cu1  1  0.40191000  0.57459000  0.54297000  1.0
  Cu  Cu2  1  0.82409000  0.88707000  0.91621000  1.0
  Cu  Cu3  1  0.17591000  0.11294000  0.08380000  1.0
  Cu  Cu4  1  0.00000000  0.00000000  0.50000000  1.0
  Mo  Mo5  1  0.86103000  0.72332000  0.50320000  1.0
  Mo  Mo6  1  0.13896000  0.27667000  0.49680000  1.0
  Mo  Mo7  1  0.90849000  0.80449000  0.29581000  1.0
  Mo  Mo8  1  0.09150000  0.19551000  0.70419000  1.0
  Mo  Mo9  1  0.97226000  0.92098000  0.70457000  1.0
  Mo  Mo10  1  0.02774000  0.07902000  0.29543000  1.0
  As  As11  1  0.66733000  0.96758000  0.36910000  1.0
  As  As12  1  0.33267000  0.03241000  0.63090000  1.0
  As  As13  1  0.75711000  0.16306000  0.56378000  1.0
  As  As14  1  0.24289000  0.83694000  0.43622000  1.0
  As  As15  1  0.63612000  0.89402000  0.57372000  1.0
  As  As16  1  0.36388000  0.10598000  0.42628000  1.0
  H  H17  1  0.90374000  0.51658000  0.59796000  1.0
  H  H18  1  0.09626000  0.48343000  0.40204000  1.0
  H  H19  1  0.75298000  0.04501000  0.09041000  1.0
  H  H20  1  0.24703000  0.95500000  0.90960000  1.0
  H  H21  1  0.34520000  0.32413000  0.28286000  1.0
  H  H22  1  0.65480000  0.67588000  0.71713000  1.0
  H  H23  1  0.11627000  0.22174000  0.91934000  1.0
  H  H24  1  0.88374000  0.77827000  0.08065000  1.0
  H  H25  1  0.44477000  0.32155000  0.62530000  1.0
  H  H26  1  0.55523000  0.67845000  0.37470000  1.0
  H  H27  1  0.47136000  0.31381000  0.79222000  1.0
  H  H28  1  0.52864000  0.68619000  0.20778000  1.0
  H  H29  1  0.63238000  0.41777000  0.86327000  1.0
  H  H30  1  0.36763000  0.58223000  0.13673000  1.0
  H  H31  1  0.65487000  0.19985000  0.75031000  1.0
  H  H32  1  0.34513000  0.80014000  0.24969000  1.0
  H  H33  1  0.77724000  0.28998000  0.84837000  1.0
  H  H34  1  0.22275000  0.71001000  0.15163000  1.0
  H  H35  1  0.52989000  0.23896000  0.94314000  1.0
  H  H36  1  0.47011000  0.76104000  0.05686000  1.0
  H  H37  1  0.44297000  0.13161000  0.84353000  1.0
  H  H38  1  0.55703000  0.86839000  0.15646000  1.0
  H  H39  1  0.68797000  0.02208000  0.79862000  1.0
  H  H40  1  0.31203000  0.97792000  0.20138000  1.0
  H  H41  1  0.80466000  0.54520000  0.30956000  1.0
  H  H42  1  0.19534000  0.45480000  0.69044000  1.0
  H  H43  1  0.79499000  0.59066000  0.13737000  1.0
  H  H44  1  0.20502000  0.40934000  0.86263000  1.0
  H  H45  1  0.62170000  0.51263000  0.06374000  1.0
  H  H46  1  0.37830000  0.48737000  0.93626000  1.0
  H  H47  1  0.81333000  0.43936000  0.99816000  1.0
  H  H48  1  0.18667000  0.56064000  0.00184000  1.0
  H  H49  1  0.69857000  0.33790000  0.05839000  1.0
  H  H50  1  0.30143000  0.66210000  0.94161000  1.0
  H  H51  1  0.01166000  0.51938000  0.13372000  1.0
  H  H52  1  0.98834000  0.48062000  0.86628000  1.0
  H  H53  1  0.90088000  0.42399000  0.19817000  1.0
  H  H54  1  0.09912000  0.57601000  0.80183000  1.0
  H  H55  1  0.02820000  0.28257000  0.20409000  1.0
  H  H56  1  0.97181000  0.71743000  0.79591000  1.0
  C  C57  1  0.80181000  0.46983000  0.62766000  1.0
  C  C58  1  0.19819000  0.53017000  0.37234000  1.0
  C  C59  1  0.71629000  0.05663000  0.02298000  1.0
  C  C60  1  0.28372000  0.94337000  0.97702000  1.0
  C  C61  1  0.45347000  0.37992000  0.26627000  1.0
  C  C62  1  0.54652000  0.62009000  0.73372000  1.0
  C  C63  1  0.07945000  0.25560000  0.98515000  1.0
  C  C64  1  0.92055000  0.74440000  0.01486000  1.0
  C  C65  1  0.56747000  0.36975000  0.63826000  1.0
  C  C66  1  0.43253000  0.63025000  0.36174000  1.0
  C  C67  1  0.59772000  0.34691000  0.80269000  1.0
  C  C68  1  0.40228000  0.65309000  0.19731000  1.0
  C  C69  1  0.65710000  0.25483000  0.81818000  1.0
  C  C70  1  0.34289000  0.74517000  0.18182000  1.0
  C  C71  1  0.55425000  0.18598000  0.88167000  1.0
  C  C72  1  0.44574000  0.81402000  0.11832000  1.0
  C  C73  1  0.68411000  0.04266000  0.87411000  1.0
  C  C74  1  0.31589000  0.95734000  0.12589000  1.0
  C  C75  1  0.68838000  0.49125000  0.28225000  1.0
  C  C76  1  0.31162000  0.50874000  0.71775000  1.0
  C  C77  1  0.70804000  0.50726000  0.11296000  1.0
  C  C78  1  0.29196000  0.49274000  0.88704000  1.0
  C  C79  1  0.78143000  0.42349000  0.06757000  1.0
  C  C80  1  0.21857000  0.57651000  0.93243000  1.0
  C  C81  1  0.92518000  0.43552000  0.12676000  1.0
  C  C82  1  0.07482000  0.56448000  0.87324000  1.0
  C  C83  1  0.03756000  0.28511000  0.13049000  1.0
  C  C84  1  0.96245000  0.71490000  0.86952000  1.0
  N  N85  1  0.65985000  0.42002000  0.57806000  1.0
  N  N86  1  0.34015000  0.57999000  0.42194000  1.0
  N  N87  1  0.65114000  0.38970000  0.71972000  1.0
  N  N88  1  0.34886000  0.61030000  0.28028000  1.0
  N  N89  1  0.62704000  0.11807000  0.91978000  1.0
  N  N90  1  0.37296000  0.88194000  0.08022000  1.0
  N  N91  1  0.74148000  0.00157000  0.93795000  1.0
  N  N92  1  0.25853000  0.99844000  0.06205000  1.0
  N  N93  1  0.57924000  0.43318000  0.33055000  1.0
  N  N94  1  0.42076000  0.56682000  0.66945000  1.0
  N  N95  1  0.62888000  0.47335000  0.19355000  1.0
  N  N96  1  0.37112000  0.52665000  0.80645000  1.0
  N  N97  1  0.09392000  0.22221000  0.06740000  1.0
  N  N98  1  0.90609000  0.77779000  0.93260000  1.0
  N  N99  1  0.99217000  0.35224000  0.08713000  1.0
  N  N100  1  0.00783000  0.64776000  0.91287000  1.0
  N  N101  1  0.80061000  0.45342000  0.71464000  1.0
  N  N102  1  0.19938000  0.54658000  0.28536000  1.0
  N  N103  1  0.64700000  0.12849000  0.01458000  1.0
  N  N104  1  0.35300000  0.87152000  0.98542000  1.0
  N  N105  1  0.47970000  0.40201000  0.18181000  1.0
  N  N106  1  0.52031000  0.59800000  0.81819000  1.0
  N  N107  1  0.01803000  0.33494000  0.99460000  1.0
  N  N108  1  0.98197000  0.66506000  0.00540000  1.0
  O  O109  1  0.69060000  0.10402000  0.43973000  1.0
  O  O110  1  0.30939000  0.89597000  0.56027000  1.0
  O  O111  1  0.94861000  0.15725000  0.56290000  1.0
  O  O112  1  0.05139000  0.84275000  0.43710000  1.0
  O  O113  1  0.66552000  0.04168000  0.61665000  1.0
  O  O114  1  0.33448000  0.95832000  0.38335000  1.0
  O  O115  1  0.58272000  0.87699000  0.44954000  1.0
  O  O116  1  0.41728000  0.12301000  0.55046000  1.0
  O  O117  1  0.86484000  0.97002000  0.38167000  1.0
  O  O118  1  0.13516000  0.02997000  0.61833000  1.0
  O  O119  1  0.83538000  0.90125000  0.56416000  1.0
  O  O120  1  0.16462000  0.09874000  0.43584000  1.0
  O  O121  1  0.12673000  0.94476000  0.78374000  1.0
  O  O122  1  0.87327000  0.05524000  0.21626000  1.0
  O  O123  1  0.80884000  0.85476000  0.75830000  1.0
  O  O124  1  0.19116000  0.14524000  0.24170000  1.0
  O  O125  1  0.98976000  0.79429000  0.61886000  1.0
  O  O126  1  0.01023000  0.20570000  0.38114000  1.0
  O  O127  1  0.68161000  0.66486000  0.54363000  1.0
  O  O128  1  0.31839000  0.33514000  0.45637000  1.0
  O  O129  1  0.92361000  0.61278000  0.46720000  1.0
  O  O130  1  0.07639000  0.38722000  0.53280000  1.0
  O  O131  1  0.77729000  0.73726000  0.38570000  1.0
  O  O132  1  0.22270000  0.26274000  0.61430000  1.0
  O  O133  1  0.98717000  0.70516000  0.25025000  1.0
  O  O134  1  0.01283000  0.29484000  0.74975000  1.0
  O  O135  1  0.75879000  0.78430000  0.21325000  1.0
  O  O136  1  0.24121000  0.21570000  0.78675000  1.0
  O  O137  1  0.05717000  0.93561000  0.26982000  1.0
  O  O138  1  0.94283000  0.06439000  0.73018000  1.0
