# generated using pymatgen
data_CdH26C24SN8O7
_symmetry_space_group_name_H-M   'P 1'
_cell_length_a   8.50476000
_cell_length_b   12.73540000
_cell_length_c   13.62480000
_cell_angle_alpha   87.28200000
_cell_angle_beta   81.13610000
_cell_angle_gamma   82.26030000
_symmetry_Int_Tables_number   1
_chemical_formula_structural   CdH26C24SN8O7
_chemical_formula_sum   'Cd2 H52 C48 S2 N16 O14'
_cell_volume   1444.27925549
_cell_formula_units_Z   2
loop_
 _symmetry_equiv_pos_site_id
 _symmetry_equiv_pos_as_xyz
  1  'x, y, z'
loop_
 _atom_site_type_symbol
 _atom_site_label
 _atom_site_symmetry_multiplicity
 _atom_site_fract_x
 _atom_site_fract_y
 _atom_site_fract_z
 _atom_site_occupancy
  Cd  Cd0  1  0.76576000  0.26648000  0.22309000  1.0
  Cd  Cd1  1  0.23423000  0.73353000  0.77691000  1.0
  H  H2  1  0.04653000  0.38238000  0.23358000  1.0
  H  H3  1  0.95347000  0.61762000  0.76642000  1.0
  H  H4  1  0.10917000  0.27212000  0.19167000  1.0
  H  H5  1  0.89083000  0.72788000  0.80832000  1.0
  H  H6  1  0.60513000  0.79601000  0.91437000  1.0
  H  H7  1  0.39487000  0.20399000  0.08563000  1.0
  H  H8  1  0.82345000  0.76649000  0.52905000  1.0
  H  H9  1  0.17656000  0.23350000  0.47095000  1.0
  H  H10  1  0.09006000  0.75403000  0.35840000  1.0
  H  H11  1  0.90995000  0.24598000  0.64160000  1.0
  H  H12  1  0.10773000  0.81142000  0.47132000  1.0
  H  H13  1  0.89228000  0.18858000  0.52867000  1.0
  H  H14  1  0.75915000  0.61146000  0.57276000  1.0
  H  H15  1  0.24086000  0.38854000  0.42724000  1.0
  H  H16  1  0.04557000  0.19624000  0.84000000  1.0
  H  H17  1  0.95443000  0.80376000  0.16000000  1.0
  H  H18  1  0.73439000  0.92015000  0.88567000  1.0
  H  H19  1  0.26562000  0.07985000  0.11434000  1.0
  H  H20  1  0.37900000  0.72952000  0.00841000  1.0
  H  H21  1  0.62100000  0.27048000  0.99158000  1.0
  H  H22  1  0.42547000  0.78256000  0.11680000  1.0
  H  H23  1  0.57451000  0.21744000  0.88319000  1.0
  H  H24  1  0.15596000  0.98591000  0.40367000  1.0
  H  H25  1  0.84405000  0.01409000  0.59633000  1.0
  H  H26  1  0.03850000  0.15813000  0.33985000  1.0
  H  H27  1  0.96150000  0.84187000  0.66014000  1.0
  H  H28  1  0.62773000  0.03858000  0.29152000  1.0
  H  H29  1  0.37227000  0.96142000  0.70848000  1.0
  H  H30  1  0.82933000  0.47614000  0.32838000  1.0
  H  H31  1  0.17068000  0.52385000  0.67162000  1.0
  H  H32  1  0.32503000  0.59147000  0.16260000  1.0
  H  H33  1  0.67496000  0.40853000  0.83739000  1.0
  H  H34  1  0.99732000  0.27934000  0.00780000  1.0
  H  H35  1  0.00268000  0.72066000  0.99220000  1.0
  H  H36  1  0.89407000  0.45629000  0.06745000  1.0
  H  H37  1  0.10592000  0.54372000  0.93255000  1.0
  H  H38  1  0.57678000  0.22734000  0.43953000  1.0
  H  H39  1  0.42322000  0.77266000  0.56047000  1.0
  H  H40  1  0.69431000  0.05994000  0.12516000  1.0
  H  H41  1  0.30569000  0.94007000  0.87484000  1.0
  H  H42  1  0.79125000  0.63675000  0.00298000  1.0
  H  H43  1  0.20874000  0.36325000  0.99702000  1.0
  H  H44  1  0.44276000  0.41271000  0.21555000  1.0
  H  H45  1  0.55724000  0.58729000  0.78445000  1.0
  H  H46  1  0.91008000  0.03817000  0.81769000  1.0
  H  H47  1  0.08992000  0.96182000  0.18231000  1.0
  H  H48  1  0.52441000  0.30169000  0.61122000  1.0
  H  H49  1  0.47559000  0.69831000  0.38878000  1.0
  H  H50  1  0.63296000  0.46915000  0.63923000  1.0
  H  H51  1  0.36704000  0.53085000  0.36077000  1.0
  H  H52  1  0.72706000  0.85900000  0.35670000  1.0
  H  H53  1  0.27294000  0.14100000  0.64330000  1.0
  C  C54  1  0.02158000  0.79960000  0.42140000  1.0
  C  C55  1  0.97842000  0.20040000  0.57860000  1.0
  C  C56  1  0.96662000  0.16428000  0.90156000  1.0
  C  C57  1  0.03339000  0.83572000  0.09845000  1.0
  C  C58  1  0.47801000  0.73902000  0.04918000  1.0
  C  C59  1  0.52198000  0.26098000  0.95082000  1.0
  C  C60  1  0.03828000  0.99270000  0.37977000  1.0
  C  C61  1  0.96173000  0.00730000  0.62023000  1.0
  C  C62  1  0.97282000  0.09015000  0.34409000  1.0
  C  C63  1  0.02718000  0.90985000  0.65590000  1.0
  C  C64  1  0.74446000  0.02286000  0.31667000  1.0
  C  C65  1  0.25554000  0.97714000  0.68333000  1.0
  C  C66  1  0.76391000  0.43886000  0.39254000  1.0
  C  C67  1  0.23609000  0.56114000  0.60746000  1.0
  C  C68  1  0.45223000  0.56474000  0.13903000  1.0
  C  C69  1  0.54776000  0.43526000  0.86097000  1.0
  C  C70  1  0.94094000  0.21068000  0.99421000  1.0
  C  C71  1  0.05906000  0.78932000  0.00579000  1.0
  C  C72  1  0.76813000  0.48918000  0.08533000  1.0
  C  C73  1  0.23187000  0.51083000  0.91467000  1.0
  C  C74  1  0.62277000  0.29962000  0.45556000  1.0
  C  C75  1  0.37724000  0.70038000  0.54445000  1.0
  C  C76  1  0.77274000  0.08729000  0.06138000  1.0
  C  C77  1  0.22726000  0.91271000  0.93862000  1.0
  C  C78  1  0.89374000  0.63749000  0.43602000  1.0
  C  C79  1  0.10627000  0.36250000  0.56398000  1.0
  C  C80  1  0.71132000  0.58989000  0.05138000  1.0
  C  C81  1  0.28867000  0.41012000  0.94862000  1.0
  C  C82  1  0.74032000  0.48647000  0.48580000  1.0
  C  C83  1  0.25968000  0.51352000  0.51420000  1.0
  C  C84  1  0.63659000  0.88681000  0.02949000  1.0
  C  C85  1  0.36340000  0.11319000  0.97052000  1.0
  C  C86  1  0.51720000  0.46477000  0.16899000  1.0
  C  C87  1  0.48279000  0.53524000  0.83101000  1.0
  C  C88  1  0.79345000  0.03487000  0.97054000  1.0
  C  C89  1  0.20655000  0.96513000  0.02946000  1.0
  C  C90  1  0.55043000  0.63008000  0.07967000  1.0
  C  C91  1  0.44956000  0.36993000  0.92033000  1.0
  C  C92  1  0.89212000  0.07614000  0.88938000  1.0
  C  C93  1  0.10789000  0.92386000  0.11062000  1.0
  C  C94  1  0.59397000  0.34175000  0.55029000  1.0
  C  C95  1  0.40604000  0.65825000  0.44971000  1.0
  C  C96  1  0.65375000  0.43469000  0.56596000  1.0
  C  C97  1  0.34625000  0.56531000  0.43404000  1.0
  C  C98  1  0.95141000  0.90627000  0.38428000  1.0
  C  C99  1  0.04860000  0.09373000  0.61571000  1.0
  C  C100  1  0.80067000  0.92315000  0.35304000  1.0
  C  C101  1  0.19933000  0.07686000  0.64696000  1.0
  S  S102  1  0.34514000  0.22020000  0.28395000  1.0
  S  S103  1  0.65486000  0.77979000  0.71605000  1.0
  N  N104  1  0.82964000  0.10542000  0.31145000  1.0
  N  N105  1  0.17036000  0.89458000  0.68854000  1.0
  N  N106  1  0.58573000  0.80275000  0.98989000  1.0
  N  N107  1  0.41426000  0.19725000  0.01011000  1.0
  N  N108  1  0.90406000  0.73535000  0.47008000  1.0
  N  N109  1  0.09595000  0.26465000  0.52992000  1.0
  N  N110  1  0.67358000  0.42733000  0.14350000  1.0
  N  N111  1  0.32641000  0.57268000  0.85650000  1.0
  N  N112  1  0.70701000  0.34805000  0.37905000  1.0
  N  N113  1  0.29300000  0.65195000  0.62095000  1.0
  N  N114  1  0.84480000  0.17277000  0.07191000  1.0
  N  N115  1  0.15520000  0.82723000  0.92809000  1.0
  N  N116  1  0.79221000  0.58143000  0.50209000  1.0
  N  N117  1  0.20780000  0.41857000  0.49791000  1.0
  N  N118  1  0.72035000  0.94729000  0.95685000  1.0
  N  N119  1  0.27964000  0.05271000  0.04315000  1.0
  O  O120  1  0.27892000  0.33274000  0.30619000  1.0
  O  O121  1  0.72109000  0.66725000  0.69380000  1.0
  O  O122  1  0.51224000  0.21376000  0.22911000  1.0
  O  O123  1  0.48776000  0.78623000  0.77088000  1.0
  O  O124  1  0.24665000  0.18081000  0.21277000  1.0
  O  O125  1  0.75335000  0.81919000  0.78723000  1.0
  O  O126  1  0.61120000  0.90569000  0.11945000  1.0
  O  O127  1  0.38877000  0.09432000  0.88055000  1.0
  O  O128  1  0.02115000  0.33364000  0.18672000  1.0
  O  O129  1  0.97885000  0.66636000  0.81328000  1.0
  O  O130  1  0.33671000  0.15444000  0.37623000  1.0
  O  O131  1  0.66329000  0.84555000  0.62377000  1.0
  O  O132  1  0.96838000  0.60272000  0.35585000  1.0
  O  O133  1  0.03163000  0.39727000  0.64415000  1.0
