# generated using pymatgen
data_AgH6C5N3O5
_symmetry_space_group_name_H-M   'P 1'
_cell_length_a   4.84922000
_cell_length_b   12.34580000
_cell_length_c   14.86560000
_cell_angle_alpha   67.35100000
_cell_angle_beta   90.00030000
_cell_angle_gamma   90.00010000
_symmetry_Int_Tables_number   1
_chemical_formula_structural   AgH6C5N3O5
_chemical_formula_sum   'Ag4 H24 C20 N12 O20'
_cell_volume   821.33320105
_cell_formula_units_Z   4
loop_
 _symmetry_equiv_pos_site_id
 _symmetry_equiv_pos_as_xyz
  1  'x, y, z'
loop_
 _atom_site_type_symbol
 _atom_site_label
 _atom_site_symmetry_multiplicity
 _atom_site_fract_x
 _atom_site_fract_y
 _atom_site_fract_z
 _atom_site_occupancy
  Ag  Ag0  1  0.11583000  0.81023000  0.75896000  1.0
  Ag  Ag1  1  0.61583000  0.68977000  0.74104000  1.0
  Ag  Ag2  1  0.88417000  0.18977000  0.24104000  1.0
  Ag  Ag3  1  0.38417000  0.31023000  0.25896000  1.0
  H  H4  1  0.95101000  0.06797000  0.60888000  1.0
  H  H5  1  0.45100000  0.43203000  0.89112000  1.0
  H  H6  1  0.04900000  0.93203000  0.39112000  1.0
  H  H7  1  0.54900000  0.56797000  0.10888000  1.0
  H  H8  1  0.77962000  0.09063000  0.49792000  1.0
  H  H9  1  0.27962000  0.40937000  0.00208000  1.0
  H  H10  1  0.22037000  0.90936000  0.50208000  1.0
  H  H11  1  0.72038000  0.59063000  0.99792000  1.0
  H  H12  1  0.84563000  0.20997000  0.69108000  1.0
  H  H13  1  0.34562000  0.29003000  0.80892000  1.0
  H  H14  1  0.15437000  0.79003000  0.30892000  1.0
  H  H15  1  0.65438000  0.70997000  0.19107000  1.0
  H  H16  1  0.49497000  0.40524000  0.64153000  1.0
  H  H17  1  0.99496000  0.09476000  0.85847000  1.0
  H  H18  1  0.50504000  0.59476000  0.35847000  1.0
  H  H19  1  0.00503000  0.90524000  0.14153000  1.0
  H  H20  1  0.31342000  0.21579000  0.46297000  1.0
  H  H21  1  0.81341000  0.28421000  0.03703000  1.0
  H  H22  1  0.68658000  0.78421000  0.53703000  1.0
  H  H23  1  0.18659000  0.71579000  0.96297000  1.0
  H  H24  1  0.19266000  0.39350000  0.50055000  1.0
  H  H25  1  0.69266000  0.10650000  0.99945000  1.0
  H  H26  1  0.80734000  0.60650000  0.49945000  1.0
  H  H27  1  0.30734000  0.89350000  0.00055000  1.0
  C  C28  1  0.57965000  0.96737000  0.62701000  1.0
  C  C29  1  0.07965000  0.53263000  0.87299000  1.0
  C  C30  1  0.42035000  0.03262000  0.37300000  1.0
  C  C31  1  0.92035000  0.46737000  0.12701000  1.0
  C  C32  1  0.74769000  0.07902000  0.57422000  1.0
  C  C33  1  0.24768000  0.42097000  0.92578000  1.0
  C  C34  1  0.25232000  0.92097000  0.42578000  1.0
  C  C35  1  0.75231000  0.57902000  0.07422000  1.0
  C  C36  1  0.68432000  0.24165000  0.63696000  1.0
  C  C37  1  0.18431000  0.25835000  0.86304000  1.0
  C  C38  1  0.31568000  0.75835000  0.36304000  1.0
  C  C39  1  0.81569000  0.74165000  0.13696000  1.0
  C  C40  1  0.51190000  0.33652000  0.61317000  1.0
  C  C41  1  0.01189000  0.16348000  0.88682000  1.0
  C  C42  1  0.48810000  0.66348000  0.38683000  1.0
  C  C43  1  0.98811000  0.83652000  0.11317000  1.0
  C  C44  1  0.40975000  0.24101000  0.51779000  1.0
  C  C45  1  0.90975000  0.25899000  0.98221000  1.0
  C  C46  1  0.59025000  0.75898000  0.48221000  1.0
  C  C47  1  0.09025000  0.74102000  0.01779000  1.0
  N  N48  1  0.61851000  0.18433000  0.57607000  1.0
  N  N49  1  0.11851000  0.31567000  0.92393000  1.0
  N  N50  1  0.38149000  0.81566000  0.42394000  1.0
  N  N51  1  0.88149000  0.68433000  0.07607000  1.0
  N  N52  1  0.34364000  0.33345000  0.53920000  1.0
  N  N53  1  0.84364000  0.16655000  0.96080000  1.0
  N  N54  1  0.65636000  0.66655000  0.46080000  1.0
  N  N55  1  0.15636000  0.83345000  0.03920000  1.0
  N  N56  1  0.66409000  0.91732000  0.86472000  1.0
  N  N57  1  0.16409000  0.58268000  0.63528000  1.0
  N  N58  1  0.33591000  0.08268000  0.13528000  1.0
  N  N59  1  0.83591000  0.41732000  0.36472000  1.0
  O  O60  1  0.34694000  0.97613000  0.66111000  1.0
  O  O61  1  0.84694000  0.52387000  0.83889000  1.0
  O  O62  1  0.65306000  0.02386000  0.33889000  1.0
  O  O63  1  0.15306000  0.47613000  0.16111000  1.0
  O  O64  1  0.70002000  0.87417000  0.62993000  1.0
  O  O65  1  0.20002000  0.62583000  0.87007000  1.0
  O  O66  1  0.29999000  0.12583000  0.37007000  1.0
  O  O67  1  0.79998000  0.37417000  0.12993000  1.0
  O  O68  1  0.86737000  0.96139000  0.80816000  1.0
  O  O69  1  0.36737000  0.53861000  0.69184000  1.0
  O  O70  1  0.13263000  0.03861000  0.19183000  1.0
  O  O71  1  0.63263000  0.46139000  0.30817000  1.0
  O  O72  1  0.57642000  0.81604000  0.87724000  1.0
  O  O73  1  0.07642000  0.68396000  0.62276000  1.0
  O  O74  1  0.42357000  0.18396000  0.12276000  1.0
  O  O75  1  0.92357000  0.31604000  0.37724000  1.0
  O  O76  1  0.55224000  0.97587000  0.90912000  1.0
  O  O77  1  0.05224000  0.52413000  0.59088000  1.0
  O  O78  1  0.44776000  0.02414000  0.09088000  1.0
  O  O79  1  0.94776000  0.47587000  0.40912000  1.0
