# generated using pymatgen
data_BiH9C10(ClO2)2
_symmetry_space_group_name_H-M   'P 1'
_cell_length_a   8.72499000
_cell_length_b   9.96363000
_cell_length_c   14.45200000
_cell_angle_alpha   90.00000000
_cell_angle_beta   90.00000000
_cell_angle_gamma   90.00000000
_symmetry_Int_Tables_number   1
_chemical_formula_structural   BiH9C10(ClO2)2
_chemical_formula_sum   'Bi4 H36 C40 Cl8 O16'
_cell_volume   1256.34953219
_cell_formula_units_Z   4
loop_
 _symmetry_equiv_pos_site_id
 _symmetry_equiv_pos_as_xyz
  1  'x, y, z'
loop_
 _atom_site_type_symbol
 _atom_site_label
 _atom_site_symmetry_multiplicity
 _atom_site_fract_x
 _atom_site_fract_y
 _atom_site_fract_z
 _atom_site_occupancy
  Bi  Bi0  1  0.36548000  0.75815000  0.17763000  1.0
  Bi  Bi1  1  0.86548000  0.24185000  0.82237000  1.0
  Bi  Bi2  1  0.36548000  0.25815000  0.82237000  1.0
  Bi  Bi3  1  0.86548000  0.74185000  0.17763000  1.0
  H  H4  1  0.99917000  0.11624000  0.14007000  1.0
  H  H5  1  0.49917000  0.88376000  0.85993000  1.0
  H  H6  1  0.99917000  0.61624000  0.85993000  1.0
  H  H7  1  0.49917000  0.38377000  0.14006000  1.0
  H  H8  1  0.01232000  0.04535000  0.02690000  1.0
  H  H9  1  0.51232000  0.95465000  0.97310000  1.0
  H  H10  1  0.01232000  0.54535000  0.97310000  1.0
  H  H11  1  0.51232000  0.45466000  0.02689000  1.0
  H  H12  1  0.20942000  0.99019000  0.31371000  1.0
  H  H13  1  0.70942000  0.00981000  0.68629000  1.0
  H  H14  1  0.20942000  0.49019000  0.68630000  1.0
  H  H15  1  0.70942000  0.50981000  0.31371000  1.0
  H  H16  1  0.23770000  0.06430000  0.47621000  1.0
  H  H17  1  0.73769000  0.93570000  0.52379000  1.0
  H  H18  1  0.23769000  0.56429000  0.52379000  1.0
  H  H19  1  0.73769000  0.43570000  0.47621000  1.0
  H  H20  1  0.40503000  0.93653000  0.58478000  1.0
  H  H21  1  0.90502000  0.06347000  0.41522000  1.0
  H  H22  1  0.40502000  0.43653000  0.41523000  1.0
  H  H23  1  0.90502000  0.56347000  0.58478000  1.0
  H  H24  1  0.54433000  0.73357000  0.52888000  1.0
  H  H25  1  0.04433000  0.26643000  0.47112000  1.0
  H  H26  1  0.54433000  0.23357000  0.47112000  1.0
  H  H27  1  0.04433000  0.76643000  0.52888000  1.0
  H  H28  1  0.51735000  0.65955000  0.36704000  1.0
  H  H29  1  0.01735000  0.34044000  0.63296000  1.0
  H  H30  1  0.51735000  0.15956000  0.63296000  1.0
  H  H31  1  0.01735000  0.84045000  0.36704000  1.0
  H  H32  1  0.02051000  0.38067000  0.20168000  1.0
  H  H33  1  0.52051000  0.61933000  0.79832000  1.0
  H  H34  1  0.02051000  0.88067000  0.79832000  1.0
  H  H35  1  0.52051000  0.11933000  0.20168000  1.0
  H  H36  1  0.02666000  0.43740000  0.31827000  1.0
  H  H37  1  0.52666000  0.56260000  0.68172000  1.0
  H  H38  1  0.02666000  0.93740000  0.68172000  1.0
  H  H39  1  0.52666000  0.06260000  0.31827000  1.0
  C  C40  1  0.19810000  0.99424000  0.11687000  1.0
  C  C41  1  0.69810000  0.00575000  0.88313000  1.0
  C  C42  1  0.19810000  0.49425000  0.88313000  1.0
  C  C43  1  0.69810000  0.50575000  0.11687000  1.0
  C  C44  1  0.07794000  0.09255000  0.08323000  1.0
  C  C45  1  0.57795000  0.90745000  0.91678000  1.0
  C  C46  1  0.07794000  0.59255000  0.91678000  1.0
  C  C47  1  0.57794000  0.40745000  0.08322000  1.0
  C  C48  1  0.36248000  0.82007000  0.32854000  1.0
  C  C49  1  0.86248000  0.17993000  0.67146000  1.0
  C  C50  1  0.36248000  0.32007000  0.67146000  1.0
  C  C51  1  0.86248000  0.67992000  0.32854000  1.0
  C  C52  1  0.28392000  0.93382000  0.36018000  1.0
  C  C53  1  0.78392000  0.06618000  0.63982000  1.0
  C  C54  1  0.28392000  0.43382000  0.63982000  1.0
  C  C55  1  0.78392000  0.56618000  0.36018000  1.0
  C  C56  1  0.29910000  0.97557000  0.45221000  1.0
  C  C57  1  0.79909000  0.02443000  0.54779000  1.0
  C  C58  1  0.29909000  0.47557000  0.54779000  1.0
  C  C59  1  0.79909000  0.52443000  0.45221000  1.0
  C  C60  1  0.39311000  0.90407000  0.51307000  1.0
  C  C61  1  0.89310000  0.09593000  0.48693000  1.0
  C  C62  1  0.39310000  0.40407000  0.48694000  1.0
  C  C63  1  0.89310000  0.59593000  0.51307000  1.0
  C  C64  1  0.47076000  0.79009000  0.48189000  1.0
  C  C65  1  0.97076000  0.20991000  0.51811000  1.0
  C  C66  1  0.47075000  0.29009000  0.51811000  1.0
  C  C67  1  0.97076000  0.70991000  0.48189000  1.0
  C  C68  1  0.45544000  0.74833000  0.39007000  1.0
  C  C69  1  0.95544000  0.25167000  0.60992000  1.0
  C  C70  1  0.45544000  0.24833000  0.60993000  1.0
  C  C71  1  0.95544000  0.75167000  0.39007000  1.0
  C  C72  1  0.20011000  0.52021000  0.23181000  1.0
  C  C73  1  0.70011000  0.47979000  0.76819000  1.0
  C  C74  1  0.20011000  0.02021000  0.76819000  1.0
  C  C75  1  0.70011000  0.97979000  0.23181000  1.0
  C  C76  1  0.09730000  0.40501000  0.25938000  1.0
  C  C77  1  0.59730000  0.59499000  0.74062000  1.0
  C  C78  1  0.09730000  0.90501000  0.74062000  1.0
  C  C79  1  0.59729000  0.09499000  0.25938000  1.0
  Cl  Cl80  1  0.15649000  0.24511000  0.04033000  1.0
  Cl  Cl81  1  0.65649000  0.75488000  0.95967000  1.0
  Cl  Cl82  1  0.15649000  0.74512000  0.95967000  1.0
  Cl  Cl83  1  0.65648000  0.25489000  0.04033000  1.0
  Cl  Cl84  1  0.19866000  0.25812000  0.29242000  1.0
  Cl  Cl85  1  0.69866000  0.74189000  0.70757000  1.0
  Cl  Cl86  1  0.19866000  0.75811000  0.70757000  1.0
  Cl  Cl87  1  0.69866000  0.24189000  0.29243000  1.0
  O  O88  1  0.14334000  0.89207000  0.16168000  1.0
  O  O89  1  0.64334000  0.10793000  0.83832000  1.0
  O  O90  1  0.14334000  0.39207000  0.83833000  1.0
  O  O91  1  0.64334000  0.60793000  0.16168000  1.0
  O  O92  1  0.33871000  0.00623000  0.10123000  1.0
  O  O93  1  0.83871000  0.99377000  0.89878000  1.0
  O  O94  1  0.33871000  0.50623000  0.89878000  1.0
  O  O95  1  0.83871000  0.49377000  0.10122000  1.0
  O  O96  1  0.34284000  0.51927000  0.24347000  1.0
  O  O97  1  0.84284000  0.48073000  0.75653000  1.0
  O  O98  1  0.34284000  0.01927000  0.75653000  1.0
  O  O99  1  0.84284000  0.98073000  0.24347000  1.0
  O  O100  1  0.13332000  0.62397000  0.19582000  1.0
  O  O101  1  0.63333000  0.37603000  0.80418000  1.0
  O  O102  1  0.13333000  0.12397000  0.80419000  1.0
  O  O103  1  0.63332000  0.87603000  0.19582000  1.0
