# generated using pymatgen
data_Zn4H12C24S3O22
_symmetry_space_group_name_H-M   'P 1'
_cell_length_a   18.10888089
_cell_length_b   18.20680000
_cell_length_c   18.23830000
_cell_angle_alpha   119.08300000
_cell_angle_beta   119.43066113
_cell_angle_gamma   60.94070049
_symmetry_Int_Tables_number   1
_chemical_formula_structural   Zn4H12C24S3O22
_chemical_formula_sum   'Zn8 H24 C48 S6 O44'
_cell_volume   4329.48569466
_cell_formula_units_Z   2
loop_
 _symmetry_equiv_pos_site_id
 _symmetry_equiv_pos_as_xyz
  1  'x, y, z'
loop_
 _atom_site_type_symbol
 _atom_site_label
 _atom_site_symmetry_multiplicity
 _atom_site_fract_x
 _atom_site_fract_y
 _atom_site_fract_z
 _atom_site_occupancy
  Zn  Zn0  1  0.95126000  0.94839000  0.04586000  1.0
  Zn  Zn1  1  0.13239000  0.94611000  0.05143000  1.0
  Zn  Zn2  1  0.96241000  0.12092000  0.05158000  1.0
  Zn  Zn3  1  0.95918000  0.95237000  0.87625000  1.0
  Zn  Zn4  1  0.54325000  0.53107000  0.45706000  1.0
  Zn  Zn5  1  0.36934000  0.53169000  0.46522000  1.0
  Zn  Zn6  1  0.54414000  0.53605000  0.63718000  1.0
  Zn  Zn7  1  0.55244000  0.35974000  0.46868000  1.0
  H  H8  1  0.10759000  0.85305000  0.27884000  1.0
  H  H9  1  0.20971000  0.75245000  0.37110000  1.0
  H  H10  1  0.27064000  0.70203000  0.10985000  1.0
  H  H11  1  0.48739000  0.59315000  0.30705000  1.0
  H  H12  1  0.68223000  0.16565000  0.09327000  1.0
  H  H13  1  0.58793000  0.26840000  0.19034000  1.0
  H  H14  1  0.91631000  0.21779000  0.31534000  1.0
  H  H15  1  0.90907000  0.39707000  0.46795000  1.0
  H  H16  1  0.85735000  0.72871000  0.89208000  1.0
  H  H17  1  0.76122000  0.63039000  0.79213000  1.0
  H  H18  1  0.72839000  0.86454000  0.70143000  1.0
  H  H19  1  0.60455000  0.87913000  0.54539000  1.0
  H  H20  1  0.26079000  0.13325000  0.31238000  1.0
  H  H21  1  0.35286000  0.23427000  0.41097000  1.0
  H  H22  1  0.16383000  0.23485000  0.10053000  1.0
  H  H23  1  0.14703000  0.43264000  0.13703000  1.0
  H  H24  1  0.29820000  0.86256000  0.89618000  1.0
  H  H25  1  0.39138000  0.76438000  0.79627000  1.0
  H  H26  1  0.11459000  0.71401000  0.72664000  1.0
  H  H27  1  0.07891000  0.57813000  0.59255000  1.0
  H  H28  1  0.70181000  0.24685000  0.86424000  1.0
  H  H29  1  0.60412000  0.34242000  0.76688000  1.0
  H  H30  1  0.91715000  0.15829000  0.76936000  1.0
  H  H31  1  0.84855000  0.21519000  0.53899000  1.0
  C  C32  1  0.12792000  0.84782000  0.13730000  1.0
  C  C33  1  0.18388000  0.78545000  0.19008000  1.0
  C  C34  1  0.16531000  0.79813000  0.26217000  1.0
  C  C35  1  0.22199000  0.74189000  0.31335000  1.0
  C  C36  1  0.29679000  0.67138000  0.29273000  1.0
  C  C37  1  0.35808000  0.61904000  0.35597000  1.0
  C  C38  1  0.31214000  0.65663000  0.21723000  1.0
  C  C39  1  0.25697000  0.71388000  0.16724000  1.0
  C  C40  1  0.86248000  0.12813000  0.14065000  1.0
  C  C41  1  0.80485000  0.18631000  0.19815000  1.0
  C  C42  1  0.71282000  0.19902000  0.16341000  1.0
  C  C43  1  0.66018000  0.25565000  0.21788000  1.0
  C  C44  1  0.69945000  0.29615000  0.30882000  1.0
  C  C45  1  0.64060000  0.35339000  0.36607000  1.0
  C  C46  1  0.79226000  0.28013000  0.34323000  1.0
  C  C47  1  0.84476000  0.22763000  0.28822000  1.0
  C  C48  1  0.85727000  0.85889000  0.86078000  1.0
  C  C49  1  0.79967000  0.80067000  0.80122000  1.0
  C  C50  1  0.80850000  0.73585000  0.82802000  1.0
  C  C51  1  0.75498000  0.68172000  0.77285000  1.0
  C  C52  1  0.69121000  0.69207000  0.69114000  1.0
  C  C53  1  0.63720000  0.63007000  0.63570000  1.0
  C  C54  1  0.68120000  0.75881000  0.66543000  1.0
  C  C55  1  0.73599000  0.81209000  0.71981000  1.0
  C  C56  1  0.14491000  0.12404000  0.14426000  1.0
  C  C57  1  0.20465000  0.18003000  0.20151000  1.0
  C  C58  1  0.26006000  0.17769000  0.28795000  1.0
  C  C59  1  0.31219000  0.23330000  0.34251000  1.0
  C  C60  1  0.31352000  0.28858000  0.31047000  1.0
  C  C61  1  0.37067000  0.34779000  0.37380000  1.0
  C  C62  1  0.26193000  0.28625000  0.22198000  1.0
  C  C63  1  0.20553000  0.23436000  0.16836000  1.0
  C  C64  1  0.14152000  0.85434000  0.87206000  1.0
  C  C65  1  0.19946000  0.79546000  0.81509000  1.0
  C  C66  1  0.27844000  0.80896000  0.83663000  1.0
  C  C67  1  0.33034000  0.75418000  0.78146000  1.0
  C  C68  1  0.30553000  0.68455000  0.70560000  1.0
  C  C69  1  0.36275000  0.63100000  0.64741000  1.0
  C  C70  1  0.22797000  0.66914000  0.68665000  1.0
  C  C71  1  0.17447000  0.72528000  0.74024000  1.0
  C  C72  1  0.86993000  0.13343000  0.87442000  1.0
  C  C73  1  0.81348000  0.19332000  0.81924000  1.0
  C  C74  1  0.72664000  0.24764000  0.82107000  1.0
  C  C75  1  0.67251000  0.30141000  0.76738000  1.0
  C  C76  1  0.70571000  0.30435000  0.71424000  1.0
  C  C77  1  0.64332000  0.36009000  0.65434000  1.0
  C  C78  1  0.79486000  0.25404000  0.71745000  1.0
  C  C79  1  0.84813000  0.19687000  0.76777000  1.0
  S  S80  1  0.39830000  0.56197000  0.17696000  1.0
  S  S81  1  0.84704000  0.31844000  0.45995000  1.0
  S  S82  1  0.59353000  0.77993000  0.56567000  1.0
  S  S83  1  0.27726000  0.33818000  0.17111000  1.0
  S  S84  1  0.20070000  0.57342000  0.59716000  1.0
  S  S85  1  0.84812000  0.27451000  0.67201000  1.0
  O  O86  1  0.00134000  0.99101000  0.00628000  1.0
  O  O87  1  0.16700000  0.85330000  0.09880000  1.0
  O  O88  1  0.04659000  0.89043000  0.13525000  1.0
  O  O89  1  0.32127000  0.60230000  0.38720000  1.0
  O  O90  1  0.44276000  0.60012000  0.37750000  1.0
  O  O91  1  0.39811000  0.48561000  0.18209000  1.0
  O  O92  1  0.38998000  0.56264000  0.09487000  1.0
  O  O93  1  0.48628000  0.58703000  0.24894000  1.0
  O  O94  1  0.91359000  0.16118000  0.14570000  1.0
  O  O95  1  0.85652000  0.05053000  0.09271000  1.0
  O  O96  1  0.63318000  0.31343000  0.40176000  1.0
  O  O97  1  0.60279000  0.43435000  0.37063000  1.0
  O  O98  1  0.78907000  0.40068000  0.50094000  1.0
  O  O99  1  0.89013000  0.24345000  0.49142000  1.0
  O  O100  1  0.92982000  0.33605000  0.46719000  1.0
  O  O101  1  0.86380000  0.90057000  0.82567000  1.0
  O  O102  1  0.89529000  0.86156000  0.94195000  1.0
  O  O103  1  0.61417000  0.61197000  0.67894000  1.0
  O  O104  1  0.62193000  0.60037000  0.55228000  1.0
  O  O105  1  0.62380000  0.72611000  0.48990000  1.0
  O  O106  1  0.51208000  0.78431000  0.56529000  1.0
  O  O107  1  0.58328000  0.88140000  0.58674000  1.0
  O  O108  1  0.06550000  0.16067000  0.09884000  1.0
  O  O109  1  0.17803000  0.04459000  0.14565000  1.0
  O  O110  1  0.45432000  0.30947000  0.38697000  1.0
  O  O111  1  0.33016000  0.42795000  0.41037000  1.0
  O  O112  1  0.30373000  0.41465000  0.23718000  1.0
  O  O113  1  0.32785000  0.26937000  0.11390000  1.0
  O  O114  1  0.17694000  0.37195000  0.10487000  1.0
  O  O115  1  0.05918000  0.85874000  0.83443000  1.0
  O  O116  1  0.17875000  0.89511000  0.95310000  1.0
  O  O117  1  0.44682000  0.61148000  0.68778000  1.0
  O  O118  1  0.32186000  0.61323000  0.56396000  1.0
  O  O119  1  0.14154000  0.59427000  0.51604000  1.0
  O  O120  1  0.28148000  0.49864000  0.60139000  1.0
  O  O121  1  0.14127000  0.55966000  0.63062000  1.0
  O  O122  1  0.91580000  0.05504000  0.83832000  1.0
  O  O123  1  0.86713000  0.16545000  0.95317000  1.0
  O  O124  1  0.61230000  0.44290000  0.69228000  1.0
  O  O125  1  0.62395000  0.31742000  0.57137000  1.0
  O  O126  1  0.80044000  0.36370000  0.66745000  1.0
  O  O127  1  0.94290000  0.24957000  0.72035000  1.0
  O  O128  1  0.82847000  0.20447000  0.57420000  1.0
  O  O129  1  0.50138000  0.49040000  0.50652000  1.0
