# generated using pymatgen
data_Zn4H27C40N17O2
_symmetry_space_group_name_H-M   'P 1'
_cell_length_a   12.61000000
_cell_length_b   12.66980000
_cell_length_c   12.75677638
_cell_angle_alpha   70.38581156
_cell_angle_beta   70.76364458
_cell_angle_gamma   60.94900000
_symmetry_Int_Tables_number   1
_chemical_formula_structural   Zn4H27C40N17O2
_chemical_formula_sum   'Zn4 H27 C40 N17 O2'
_cell_volume   1643.65157039
_cell_formula_units_Z   1
loop_
 _symmetry_equiv_pos_site_id
 _symmetry_equiv_pos_as_xyz
  1  'x, y, z'
loop_
 _atom_site_type_symbol
 _atom_site_label
 _atom_site_symmetry_multiplicity
 _atom_site_fract_x
 _atom_site_fract_y
 _atom_site_fract_z
 _atom_site_occupancy
  Zn  Zn0  1  0.81456000  0.68161000  0.99459000  1.0
  Zn  Zn1  1  0.20679000  0.28973000  0.00402000  1.0
  Zn  Zn2  1  0.01688000  0.50545000  0.15984000  1.0
  Zn  Zn3  1  0.98963000  0.47373000  0.84041000  1.0
  H  H4  1  0.93097000  0.88114000  0.84828000  1.0
  H  H5  1  0.21794000  0.50486000  0.27025000  1.0
  H  H6  1  0.95790000  0.65216000  0.58943000  1.0
  H  H7  1  0.46454000  0.23406000  0.06376000  1.0
  H  H8  1  0.70871000  0.92711000  0.79155000  1.0
  H  H9  1  0.11632000  0.67137000  0.68113000  1.0
  H  H10  1  0.21421000  0.62973000  0.04689000  1.0
  H  H11  1  0.61582000  0.56719000  0.15104000  1.0
  H  H12  1  0.08800000  0.08720000  0.14131000  1.0
  H  H13  1  0.83384000  0.54703000  0.40268000  1.0
  H  H14  1  0.99585000  0.27003000  0.74052000  1.0
  H  H15  1  0.26458000  0.02472000  0.95368000  1.0
  H  H16  1  0.56269000  0.78670000  0.19101000  1.0
  H  H17  1  0.85398000  0.28469000  0.95379000  1.0
  H  H18  1  0.83283000  0.38016000  0.32286000  1.0
  H  H19  1  0.76486000  0.07192000  0.64223000  1.0
  H  H20  1  0.81028000  0.22629000  0.48203000  1.0
  H  H21  1  0.95947000  0.97310000  0.25992000  1.0
  H  H22  1  0.91387000  0.81771000  0.42107000  1.0
  H  H23  1  0.29111000  0.61768000  0.50330000  1.0
  H  H24  1  0.43905000  0.67229000  0.33842000  1.0
  H  H25  1  0.65161000  0.63379000  0.56386000  1.0
  H  H26  1  0.50578000  0.57503000  0.72869000  1.0
  H  H27  1  0.62649000  0.28204000  0.05996000  1.0
  H  H28  1  0.46543000  0.47122000  0.21288000  1.0
  H  H29  1  0.22362000  0.85557000  0.94367000  1.0
  H  H30  1  0.02114000  0.03006000  0.80356000  1.0
  C  C31  1  0.99103000  0.80663000  0.90391000  1.0
  C  C32  1  0.32948000  0.44023000  0.81298000  1.0
  C  C33  1  0.26185000  0.43604000  0.21836000  1.0
  C  C34  1  0.89649000  0.70440000  0.65481000  1.0
  C  C35  1  0.38755000  0.29838000  0.11299000  1.0
  C  C36  1  0.77088000  0.84436000  0.75787000  1.0
  C  C37  1  0.17691000  0.59092000  0.73255000  1.0
  C  C38  1  0.13566000  0.67786000  0.00511000  1.0
  C  C39  1  0.09788000  0.79372000  0.92957000  1.0
  C  C40  1  0.30527000  0.54524000  0.72174000  1.0
  C  C41  1  0.38815000  0.37353000  0.17259000  1.0
  C  C42  1  0.83160000  0.83297000  0.64518000  1.0
  C  C43  1  0.68715000  0.50743000  0.09469000  1.0
  C  C44  1  0.03496000  0.17132000  0.17388000  1.0
  C  C45  1  0.78332000  0.60670000  0.33493000  1.0
  C  C46  1  0.06411000  0.22667000  0.79389000  1.0
  C  C47  1  0.20064000  0.10148000  0.90257000  1.0
  C  C48  1  0.64509000  0.72679000  0.22698000  1.0
  C  C49  1  0.80918000  0.36330000  0.99394000  1.0
  C  C50  1  0.90557000  0.32022000  0.26727000  1.0
  C  C51  1  0.69584000  0.40175000  0.07196000  1.0
  C  C52  1  0.93770000  0.19672000  0.26920000  1.0
  C  C53  1  0.65479000  0.66763000  0.34057000  1.0
  C  C54  1  0.12467000  0.10096000  0.84280000  1.0
  C  C55  1  0.80668000  0.04941000  0.55838000  1.0
  C  C56  1  0.83243000  0.13721000  0.46728000  1.0
  C  C57  1  0.89308000  0.11085000  0.35855000  1.0
  C  C58  1  0.91780000  0.99512000  0.34396000  1.0
  C  C59  1  0.89197000  0.90706000  0.43529000  1.0
  C  C60  1  0.84001000  0.93044000  0.54555000  1.0
  C  C61  1  0.36938000  0.62271000  0.51691000  1.0
  C  C62  1  0.45251000  0.65397000  0.42408000  1.0
  C  C63  1  0.55830000  0.65410000  0.43868000  1.0
  C  C64  1  0.57319000  0.62887000  0.55032000  1.0
  C  C65  1  0.49074000  0.59637000  0.64335000  1.0
  C  C66  1  0.38901000  0.58920000  0.62825000  1.0
  C  C67  1  0.60384000  0.35379000  0.10340000  1.0
  C  C68  1  0.48937000  0.39954000  0.16876000  1.0
  C  C69  1  0.14695000  0.88395000  0.90315000  1.0
  C  C70  1  0.09718000  0.00193000  0.84477000  1.0
  N  N71  1  0.96725000  0.70760000  0.96193000  1.0
  N  N72  1  0.22380000  0.42819000  0.87155000  1.0
  N  N73  1  0.19221000  0.40296000  0.18635000  1.0
  N  N74  1  0.87731000  0.64470000  0.76405000  1.0
  N  N75  1  0.27107000  0.31746000  0.11967000  1.0
  N  N76  1  0.79849000  0.73229000  0.82832000  1.0
  N  N77  1  0.13108000  0.51927000  0.82227000  1.0
  N  N78  1  0.05566000  0.62825000  0.02442000  1.0
  N  N79  1  0.78614000  0.53004000  0.03309000  1.0
  N  N80  1  0.05962000  0.27105000  0.12197000  1.0
  N  N81  1  0.84485000  0.62585000  0.22685000  1.0
  N  N82  1  0.09949000  0.29591000  0.82357000  1.0
  N  N83  1  0.18470000  0.21712000  0.89172000  1.0
  N  N84  1  0.75829000  0.70191000  0.15953000  1.0
  N  N85  1  0.86136000  0.44166000  0.97114000  1.0
  N  N86  1  0.97967000  0.36280000  0.17939000  1.0
  N  N87  1  0.44282000  0.33869000  0.83638000  1.0
  O  O88  1  0.43755000  0.23832000  0.89528000  1.0
  O  O89  1  0.54119000  0.35104000  0.79620000  1.0
