# generated using pymatgen
data_MnH16C26(N4O)2
_symmetry_space_group_name_H-M   'P 1'
_cell_length_a   7.05559000
_cell_length_b   7.31838000
_cell_length_c   13.73820000
_cell_angle_alpha   78.68830000
_cell_angle_beta   84.18110000
_cell_angle_gamma   68.45240000
_symmetry_Int_Tables_number   1
_chemical_formula_structural   MnH16C26(N4O)2
_chemical_formula_sum   'Mn1 H16 C26 N8 O2'
_cell_volume   646.65027935
_cell_formula_units_Z   1
loop_
 _symmetry_equiv_pos_site_id
 _symmetry_equiv_pos_as_xyz
  1  'x, y, z'
loop_
 _atom_site_type_symbol
 _atom_site_label
 _atom_site_symmetry_multiplicity
 _atom_site_fract_x
 _atom_site_fract_y
 _atom_site_fract_z
 _atom_site_occupancy
  Mn  Mn0  1  0.00001000  0.00000000  0.00000000  1.0
  H  H1  1  0.80091000  0.42270000  0.98809000  1.0
  H  H2  1  0.19911000  0.57730000  0.01191000  1.0
  H  H3  1  0.88581000  0.78670000  0.66575000  1.0
  H  H4  1  0.11420000  0.21329000  0.33425000  1.0
  H  H5  1  0.84149000  0.68894000  0.51131000  1.0
  H  H6  1  0.15849000  0.31106000  0.48869000  1.0
  H  H7  1  0.18672000  0.89113000  0.56923000  1.0
  H  H8  1  0.81328000  0.10888000  0.43078000  1.0
  H  H9  1  0.23003000  0.99022000  0.72226000  1.0
  H  H10  1  0.76997000  0.00978000  0.27775000  1.0
  H  H11  1  0.93832000  0.54247000  0.83410000  1.0
  H  H12  1  0.06169000  0.45752000  0.16590000  1.0
  H  H13  1  0.72017000  0.48150000  0.81576000  1.0
  H  H14  1  0.27983000  0.51851000  0.18424000  1.0
  H  H15  1  0.97314000  0.30988000  0.80024000  1.0
  H  H16  1  0.02684000  0.69011000  0.19976000  1.0
  C  C17  1  0.56138000  0.89516000  0.70637000  1.0
  C  C18  1  0.43862000  0.10485000  0.29363000  1.0
  C  C19  1  0.73258000  0.81116000  0.64426000  1.0
  C  C20  1  0.26742000  0.18883000  0.35574000  1.0
  C  C21  1  0.70838000  0.75454000  0.55784000  1.0
  C  C22  1  0.29161000  0.24546000  0.44216000  1.0
  C  C23  1  0.51072000  0.77895000  0.52897000  1.0
  C  C24  1  0.48927000  0.22106000  0.47103000  1.0
  C  C25  1  0.33939000  0.86766000  0.59059000  1.0
  C  C26  1  0.66060000  0.13235000  0.40942000  1.0
  C  C27  1  0.36435000  0.92240000  0.67700000  1.0
  C  C28  1  0.63564000  0.07761000  0.32300000  1.0
  C  C29  1  0.58449000  0.94176000  0.80104000  1.0
  C  C30  1  0.41553000  0.05822000  0.19896000  1.0
  C  C31  1  0.76537000  0.94256000  0.83286000  1.0
  C  C32  1  0.23463000  0.05745000  0.16713000  1.0
  C  C33  1  0.42292000  0.97439000  0.87095000  1.0
  C  C34  1  0.57709000  0.02561000  0.12905000  1.0
  C  C35  1  0.48222000  0.71663000  0.44164000  1.0
  C  C36  1  0.51779000  0.28337000  0.55835000  1.0
  C  C37  1  0.64434000  0.61858000  0.37951000  1.0
  C  C38  1  0.35564000  0.38144000  0.62048000  1.0
  C  C39  1  0.28576000  0.73975000  0.41425000  1.0
  C  C40  1  0.71424000  0.26026000  0.58575000  1.0
  C  C41  1  0.87598000  0.42317000  0.84294000  1.0
  C  C42  1  0.12402000  0.57683000  0.15706000  1.0
  N  N43  1  0.91136000  0.94491000  0.86644000  1.0
  N  N44  1  0.08866000  0.05509000  0.13356000  1.0
  N  N45  1  0.28556000  0.99350000  0.92888000  1.0
  N  N46  1  0.71446000  0.00648000  0.07112000  1.0
  N  N47  1  0.77311000  0.53216000  0.32679000  1.0
  N  N48  1  0.22689000  0.46784000  0.67321000  1.0
  N  N49  1  0.12337000  0.75776000  0.39132000  1.0
  N  N50  1  0.87662000  0.24225000  0.60867000  1.0
  O  O51  1  0.88089000  0.32698000  0.94605000  1.0
  O  O52  1  0.11911000  0.67301000  0.05395000  1.0
