# generated using pymatgen
data_Zr3H8C20(N3O8)2
_symmetry_space_group_name_H-M   'P 1'
_cell_length_a   16.48840000
_cell_length_b   17.17880000
_cell_length_c   17.20280000
_cell_angle_alpha   71.25030000
_cell_angle_beta   89.95230000
_cell_angle_gamma   89.80800000
_symmetry_Int_Tables_number   1
_chemical_formula_structural   Zr3H8C20(N3O8)2
_chemical_formula_sum   'Zr6 H16 C40 N12 O32'
_cell_volume   4614.09713135
_cell_formula_units_Z   2
loop_
 _symmetry_equiv_pos_site_id
 _symmetry_equiv_pos_as_xyz
  1  'x, y, z'
loop_
 _atom_site_type_symbol
 _atom_site_label
 _atom_site_symmetry_multiplicity
 _atom_site_fract_x
 _atom_site_fract_y
 _atom_site_fract_z
 _atom_site_occupancy
  Zr  Zr0  1  0.10323000  0.89930000  0.10661000  1.0
  Zr  Zr1  1  0.88697000  0.90818000  0.09867000  1.0
  Zr  Zr2  1  0.11326000  0.07734000  0.92948000  1.0
  Zr  Zr3  1  0.89761000  0.08504000  0.92041000  1.0
  Zr  Zr4  1  0.00070000  0.90227000  0.92507000  1.0
  Zr  Zr5  1  0.99983000  0.08184000  0.10334000  1.0
  H  H6  1  0.99891000  0.92050000  0.22471000  1.0
  H  H7  1  0.82839000  0.92804000  0.94002000  1.0
  H  H8  1  0.00245000  0.20434000  0.94022000  1.0
  H  H9  1  0.17386000  0.91867000  0.94902000  1.0
  H  H10  1  0.72362000  0.89311000  0.07506000  1.0
  H  H11  1  0.75582000  0.00938000  0.00067000  1.0
  H  H12  1  0.90208000  0.19352000  0.76928000  1.0
  H  H13  1  0.01815000  0.19224000  0.81172000  1.0
  H  H14  1  0.27109000  0.09494000  0.95425000  1.0
  H  H15  1  0.24465000  0.97838000  0.02979000  1.0
  H  H16  1  0.09614000  0.74773000  0.21364000  1.0
  H  H17  1  0.98254000  0.79061000  0.21400000  1.0
  H  H18  1  0.10184000  0.17413000  0.76865000  1.0
  H  H19  1  0.26142000  0.93863000  0.12879000  1.0
  H  H20  1  0.89521000  0.79413000  0.25994000  1.0
  H  H21  1  0.73933000  0.10841000  0.95945000  1.0
  C  C22  1  0.12805000  0.75852000  0.01878000  1.0
  C  C23  1  0.86031000  0.99855000  0.23745000  1.0
  C  C24  1  0.86514000  0.76632000  0.01007000  1.0
  C  C25  1  0.13818000  0.00022000  0.23804000  1.0
  C  C26  1  0.14252000  0.21256000  0.02337000  1.0
  C  C27  1  0.87367000  0.99503000  0.78088000  1.0
  C  C28  1  0.86225000  0.21689000  0.02158000  1.0
  C  C29  1  0.13297000  0.98818000  0.78553000  1.0
  C  C30  1  0.26025000  0.99722000  0.44566000  1.0
  C  C31  1  0.37749000  0.99218000  0.51523000  1.0
  C  C32  1  0.25724000  0.98919000  0.57943000  1.0
  C  C33  1  0.74137000  0.99654000  0.44648000  1.0
  C  C34  1  0.74458000  0.99276000  0.57899000  1.0
  C  C35  1  0.62426000  0.99306000  0.51598000  1.0
  C  C36  1  0.26024000  0.42105000  0.02440000  1.0
  C  C37  1  0.25563000  0.55361000  0.02089000  1.0
  C  C38  1  0.37662000  0.49067000  0.02311000  1.0
  C  C39  1  0.74095000  0.42354000  0.02507000  1.0
  C  C40  1  0.74299000  0.55740000  0.01746000  1.0
  C  C41  1  0.62323000  0.49209000  0.02286000  1.0
  C  C42  1  0.46308000  0.49259000  0.02343000  1.0
  C  C43  1  0.53673000  0.49296000  0.02349000  1.0
  C  C44  1  0.53771000  0.99217000  0.51752000  1.0
  C  C45  1  0.46405000  0.99188000  0.51687000  1.0
  C  C46  1  0.82948000  0.99355000  0.70884000  1.0
  C  C47  1  0.79001000  0.99253000  0.64956000  1.0
  C  C48  1  0.78280000  0.99853000  0.37311000  1.0
  C  C49  1  0.81790000  0.99962000  0.31065000  1.0
  C  C50  1  0.17514000  0.98725000  0.71202000  1.0
  C  C51  1  0.21254000  0.98713000  0.65112000  1.0
  C  C52  1  0.21843000  0.00070000  0.37204000  1.0
  C  C53  1  0.18236000  0.00211000  0.31000000  1.0
  C  C54  1  0.81812000  0.28852000  0.02515000  1.0
  C  C55  1  0.78287000  0.35036000  0.02639000  1.0
  C  C56  1  0.82359000  0.69195000  0.01117000  1.0
  C  C57  1  0.78701000  0.62991000  0.01349000  1.0
  C  C58  1  0.21967000  0.34761000  0.02531000  1.0
  C  C59  1  0.18536000  0.28517000  0.02520000  1.0
  C  C60  1  0.17115000  0.68505000  0.01911000  1.0
  C  C61  1  0.20991000  0.62463000  0.01952000  1.0
  N  N62  1  0.34196000  0.99726000  0.44315000  1.0
  N  N63  1  0.33881000  0.98768000  0.58557000  1.0
  N  N64  1  0.21426000  0.99355000  0.51157000  1.0
  N  N65  1  0.78746000  0.99517000  0.51154000  1.0
  N  N66  1  0.66303000  0.99134000  0.58549000  1.0
  N  N67  1  0.65966000  0.99575000  0.44451000  1.0
  N  N68  1  0.21345000  0.48607000  0.02253000  1.0
  N  N69  1  0.33713000  0.56015000  0.02096000  1.0
  N  N70  1  0.34198000  0.41913000  0.02490000  1.0
  N  N71  1  0.78646000  0.48981000  0.02086000  1.0
  N  N72  1  0.66135000  0.56282000  0.01785000  1.0
  N  N73  1  0.65927000  0.42034000  0.02688000  1.0
  O  O74  1  0.14367000  0.78524000  0.07820000  1.0
  O  O75  1  0.07999000  0.78977000  0.95902000  1.0
  O  O76  1  0.84356000  0.93894000  0.21140000  1.0
  O  O77  1  0.91084000  0.05623000  0.20732000  1.0
  O  O78  1  0.84504000  0.79623000  0.06603000  1.0
  O  O79  1  0.91668000  0.79500000  0.95281000  1.0
  O  O80  1  0.15883000  0.94417000  0.20817000  1.0
  O  O81  1  0.08232000  0.05371000  0.21250000  1.0
  O  O82  1  0.07085000  0.79955000  0.21177000  1.0
  O  O83  1  0.23801000  0.92580000  0.08235000  1.0
  O  O84  1  0.91826000  0.79495000  0.20763000  1.0
  O  O85  1  0.76290000  0.93563000  0.07317000  1.0
  O  O86  1  0.99657000  0.88063000  0.05003000  1.0
  O  O87  1  0.99828000  0.94218000  0.16520000  1.0
  O  O88  1  0.16284000  0.18328000  0.96685000  1.0
  O  O89  1  0.08810000  0.18584000  0.07782000  1.0
  O  O90  1  0.85829000  0.05545000  0.80636000  1.0
  O  O91  1  0.92244000  0.93562000  0.81206000  1.0
  O  O92  1  0.84198000  0.18773000  0.96516000  1.0
  O  O93  1  0.91820000  0.19086000  0.07472000  1.0
  O  O94  1  0.14809000  0.04864000  0.81073000  1.0
  O  O95  1  0.08569000  0.92809000  0.81823000  1.0
  O  O96  1  0.08204000  0.18643000  0.81685000  1.0
  O  O97  1  0.23734000  0.04909000  0.95286000  1.0
  O  O98  1  0.92861000  0.19002000  0.82077000  1.0
  O  O99  1  0.76288000  0.06147000  0.94731000  1.0
  O  O100  1  0.00364000  0.14466000  0.96177000  1.0
  O  O101  1  0.00393000  0.02694000  0.90390000  1.0
  O  O102  1  0.08836000  0.02793000  0.05351000  1.0
  O  O103  1  0.87785000  0.94710000  0.95846000  1.0
  O  O104  1  0.12464000  0.93820000  0.96789000  1.0
  O  O105  1  0.91038000  0.03226000  0.04976000  1.0
