# generated using pymatgen
data_Zn2H6C6N9Cl
_symmetry_space_group_name_H-M   'P 1'
_cell_length_a   7.50756000
_cell_length_b   9.93724000
_cell_length_c   17.54390000
_cell_angle_alpha   90.00000000
_cell_angle_beta   90.00010000
_cell_angle_gamma   90.00000000
_symmetry_Int_Tables_number   1
_chemical_formula_structural   Zn2H6C6N9Cl
_chemical_formula_sum   'Zn8 H24 C24 N36 Cl4'
_cell_volume   1308.85258113
_cell_formula_units_Z   4
loop_
 _symmetry_equiv_pos_site_id
 _symmetry_equiv_pos_as_xyz
  1  'x, y, z'
loop_
 _atom_site_type_symbol
 _atom_site_label
 _atom_site_symmetry_multiplicity
 _atom_site_fract_x
 _atom_site_fract_y
 _atom_site_fract_z
 _atom_site_occupancy
  Zn  Zn0  1  0.52796000  0.25000000  0.26631000  1.0
  Zn  Zn1  1  0.97204000  0.75000000  0.76631000  1.0
  Zn  Zn2  1  0.47204000  0.75000000  0.73369000  1.0
  Zn  Zn3  1  0.02796000  0.25000000  0.23369000  1.0
  Zn  Zn4  1  0.38937000  0.75000000  0.07753000  1.0
  Zn  Zn5  1  0.11063000  0.25000000  0.57753000  1.0
  Zn  Zn6  1  0.61063000  0.25000000  0.92247000  1.0
  Zn  Zn7  1  0.88937000  0.75000000  0.42247000  1.0
  H  H8  1  0.44775000  0.25000000  0.08099000  1.0
  H  H9  1  0.05225000  0.75000000  0.58099000  1.0
  H  H10  1  0.55225000  0.75000000  0.91901000  1.0
  H  H11  1  0.94775000  0.25000000  0.41901000  1.0
  H  H12  1  0.04346000  0.96605000  0.11787000  1.0
  H  H13  1  0.45654000  0.03395000  0.61787000  1.0
  H  H14  1  0.95654000  0.46605000  0.88213000  1.0
  H  H15  1  0.54346000  0.53395000  0.38213000  1.0
  H  H16  1  0.95654000  0.03395000  0.88213000  1.0
  H  H17  1  0.54346000  0.96605000  0.38213000  1.0
  H  H18  1  0.04346000  0.53395000  0.11787000  1.0
  H  H19  1  0.45654000  0.46605000  0.61787000  1.0
  H  H20  1  0.99612000  0.25000000  0.03213000  1.0
  H  H21  1  0.50388000  0.75000000  0.53213000  1.0
  H  H22  1  0.00388000  0.75000000  0.96787000  1.0
  H  H23  1  0.49612000  0.25000000  0.46787000  1.0
  H  H24  1  0.58029000  0.95034000  0.18527000  1.0
  H  H25  1  0.91971000  0.04966000  0.68527000  1.0
  H  H26  1  0.41971000  0.45034000  0.81473000  1.0
  H  H27  1  0.08029000  0.54966000  0.31473000  1.0
  H  H28  1  0.41971000  0.04966000  0.81473000  1.0
  H  H29  1  0.08029000  0.95034000  0.31473000  1.0
  H  H30  1  0.58029000  0.54966000  0.18527000  1.0
  H  H31  1  0.91971000  0.45034000  0.68527000  1.0
  C  C32  1  0.59132000  0.25000000  0.08812000  1.0
  C  C33  1  0.90868000  0.75000000  0.58812000  1.0
  C  C34  1  0.40868000  0.75000000  0.91188000  1.0
  C  C35  1  0.09132000  0.25000000  0.41188000  1.0
  C  C36  1  0.17071000  0.98991000  0.14413000  1.0
  C  C37  1  0.32928000  0.01009000  0.64413000  1.0
  C  C38  1  0.82929000  0.48991000  0.85587000  1.0
  C  C39  1  0.67071000  0.51009000  0.35587000  1.0
  C  C40  1  0.82929000  0.01009000  0.85587000  1.0
  C  C41  1  0.67071000  0.98991000  0.35587000  1.0
  C  C42  1  0.17071000  0.51009000  0.14413000  1.0
  C  C43  1  0.32928000  0.48991000  0.64413000  1.0
  C  C44  1  0.86950000  0.25000000  0.06240000  1.0
  C  C45  1  0.63050000  0.75000000  0.56240000  1.0
  C  C46  1  0.13050000  0.75000000  0.93761000  1.0
  C  C47  1  0.36950000  0.25000000  0.43760000  1.0
  C  C48  1  0.44248000  0.98163000  0.17968000  1.0
  C  C49  1  0.05752000  0.01837000  0.67968000  1.0
  C  C50  1  0.55752000  0.48163000  0.82032000  1.0
  C  C51  1  0.94248000  0.51837000  0.32032000  1.0
  C  C52  1  0.55752000  0.01837000  0.82032000  1.0
  C  C53  1  0.94248000  0.98163000  0.32032000  1.0
  C  C54  1  0.44248000  0.51837000  0.17968000  1.0
  C  C55  1  0.05752000  0.48163000  0.67968000  1.0
  N  N56  1  0.37256000  0.09034000  0.21198000  1.0
  N  N57  1  0.12744000  0.90966000  0.71198000  1.0
  N  N58  1  0.62744000  0.59034000  0.78802000  1.0
  N  N59  1  0.87256000  0.40966000  0.28802000  1.0
  N  N60  1  0.62744000  0.90966000  0.78802000  1.0
  N  N61  1  0.87256000  0.09034000  0.28802000  1.0
  N  N62  1  0.37256000  0.40966000  0.21198000  1.0
  N  N63  1  0.12743000  0.59034000  0.71198000  1.0
  N  N64  1  0.32113000  0.91523000  0.13655000  1.0
  N  N65  1  0.17887000  0.08477000  0.63655000  1.0
  N  N66  1  0.67887000  0.41523000  0.86345000  1.0
  N  N67  1  0.82113000  0.58477000  0.36345000  1.0
  N  N68  1  0.67887000  0.08477000  0.86345000  1.0
  N  N69  1  0.82113000  0.91523000  0.36345000  1.0
  N  N70  1  0.32113000  0.58477000  0.13655000  1.0
  N  N71  1  0.17887000  0.41523000  0.63655000  1.0
  N  N72  1  0.67581000  0.25000000  0.15452000  1.0
  N  N73  1  0.82419000  0.75000000  0.65452000  1.0
  N  N74  1  0.32419000  0.75000000  0.84548000  1.0
  N  N75  1  0.17581000  0.25000000  0.34548000  1.0
  N  N76  1  0.85407000  0.25000000  0.13809000  1.0
  N  N77  1  0.64593000  0.75000000  0.63809000  1.0
  N  N78  1  0.14593000  0.75000000  0.86191000  1.0
  N  N79  1  0.35407000  0.25000000  0.36191000  1.0
  N  N80  1  0.19844000  0.09597000  0.18907000  1.0
  N  N81  1  0.30156000  0.90403000  0.68907000  1.0
  N  N82  1  0.80156000  0.59596000  0.81093000  1.0
  N  N83  1  0.69844000  0.40403000  0.31093000  1.0
  N  N84  1  0.80156000  0.90403000  0.81093000  1.0
  N  N85  1  0.69844000  0.09597000  0.31093000  1.0
  N  N86  1  0.19844000  0.40403000  0.18907000  1.0
  N  N87  1  0.30156000  0.59597000  0.68907000  1.0
  N  N88  1  0.70656000  0.25000000  0.02857000  1.0
  N  N89  1  0.79344000  0.75000000  0.52857000  1.0
  N  N90  1  0.29344000  0.75000000  0.97143000  1.0
  N  N91  1  0.20656000  0.25000000  0.47143000  1.0
  Cl  Cl92  1  0.69284000  0.75000000  0.07153000  1.0
  Cl  Cl93  1  0.80716000  0.25000000  0.57153000  1.0
  Cl  Cl94  1  0.30716000  0.25000000  0.92847000  1.0
  Cl  Cl95  1  0.19284000  0.75000000  0.42847000  1.0
