# generated using pymatgen
data_ZnH13C21NO4
_symmetry_space_group_name_H-M   'P 1'
_cell_length_a   14.77730000
_cell_length_b   16.12620000
_cell_length_c   17.19320000
_cell_angle_alpha   89.11400000
_cell_angle_beta   84.46340000
_cell_angle_gamma   89.11200000
_symmetry_Int_Tables_number   1
_chemical_formula_structural   ZnH13C21NO4
_chemical_formula_sum   'Zn2 H26 C42 N2 O8'
_cell_volume   4077.16308363
_cell_formula_units_Z   2
loop_
 _symmetry_equiv_pos_site_id
 _symmetry_equiv_pos_as_xyz
  1  'x, y, z'
loop_
 _atom_site_type_symbol
 _atom_site_label
 _atom_site_symmetry_multiplicity
 _atom_site_fract_x
 _atom_site_fract_y
 _atom_site_fract_z
 _atom_site_occupancy
  Zn  Zn0  1  0.59401000  0.49373000  0.49922000  1.0
  Zn  Zn1  1  0.40438000  0.49741000  0.50519000  1.0
  H  H2  1  0.38381000  0.58701000  0.27290000  1.0
  H  H3  1  0.62197000  0.52877000  0.73733000  1.0
  H  H4  1  0.93814000  0.63656000  0.52519000  1.0
  H  H5  1  0.06063000  0.35606000  0.47464000  1.0
  H  H6  1  0.93590000  0.40145000  0.60345000  1.0
  H  H7  1  0.06284000  0.59115000  0.39644000  1.0
  H  H8  1  0.33114000  0.54434000  0.75286000  1.0
  H  H9  1  0.66834000  0.52691000  0.24833000  1.0
  H  H10  1  0.39880000  0.59927000  0.00776000  1.0
  H  H11  1  0.60803000  0.59686000  0.99383000  1.0
  H  H12  1  0.67642000  0.56483000  0.10633000  1.0
  H  H13  1  0.32756000  0.58777000  0.89202000  1.0
  H  H14  1  0.62051000  0.57090000  0.87542000  1.0
  H  H15  1  0.39026000  0.62688000  0.13221000  1.0
  H  H16  1  0.41839000  0.94692000  0.62300000  1.0
  H  H17  1  0.58085000  0.04459000  0.37712000  1.0
  H  H18  1  0.57590000  0.04715000  0.61005000  1.0
  H  H19  1  0.42356000  0.94422000  0.39015000  1.0
  H  H20  1  0.04256000  0.54262000  0.62626000  1.0
  H  H21  1  0.95623000  0.45001000  0.37363000  1.0
  H  H22  1  0.26772000  0.00561000  0.51528000  1.0
  H  H23  1  0.30162000  0.09597000  0.56284000  1.0
  H  H24  1  0.30394000  0.09520000  0.45926000  1.0
  H  H25  1  0.73240000  0.98284000  0.48473000  1.0
  H  H26  1  0.69352000  0.89412000  0.54091000  1.0
  H  H27  1  0.69574000  0.89330000  0.43747000  1.0
  C  C28  1  0.49841000  0.65788000  0.50670000  1.0
  C  C29  1  0.50065000  0.33434000  0.49684000  1.0
  C  C30  1  0.54184000  0.02357000  0.56128000  1.0
  C  C31  1  0.45753000  0.96801000  0.43891000  1.0
  C  C32  1  0.45469000  0.96952000  0.56845000  1.0
  C  C33  1  0.54462000  0.02213000  0.43175000  1.0
  C  C34  1  0.49874000  0.74739000  0.50594000  1.0
  C  C35  1  0.49976000  0.24466000  0.49579000  1.0
  C  C36  1  0.58744000  0.96682000  0.49488000  1.0
  C  C37  1  0.41180000  0.02464000  0.50528000  1.0
  C  C38  1  0.49927000  0.91064000  0.50224000  1.0
  C  C39  1  0.49990000  0.08115000  0.49805000  1.0
  C  C40  1  0.49853000  0.82300000  0.50430000  1.0
  C  C41  1  0.50039000  0.16897000  0.49630000  1.0
  C  C42  1  0.96628000  0.57439000  0.51399000  1.0
  C  C43  1  0.03247000  0.41819000  0.48590000  1.0
  C  C44  1  0.02230000  0.52204000  0.57035000  1.0
  C  C45  1  0.97647000  0.47054000  0.42958000  1.0
  C  C46  1  0.03379000  0.54907000  0.44231000  1.0
  C  C47  1  0.96507000  0.44350000  0.55761000  1.0
  C  C48  1  0.09187000  0.49669000  0.49865000  1.0
  C  C49  1  0.90692000  0.49584000  0.50131000  1.0
  C  C50  1  0.51805000  0.52149000  0.35158000  1.0
  C  C51  1  0.48025000  0.50551000  0.65380000  1.0
  C  C52  1  0.18767000  0.49700000  0.49853000  1.0
  C  C53  1  0.81104000  0.49479000  0.50232000  1.0
  C  C54  1  0.52479000  0.55144000  0.26836000  1.0
  C  C55  1  0.47675000  0.53246000  0.73706000  1.0
  C  C56  1  0.44735000  0.58206000  0.23534000  1.0
  C  C57  1  0.55793000  0.54193000  0.77214000  1.0
  C  C58  1  0.45148000  0.60398000  0.15671000  1.0
  C  C59  1  0.55645000  0.56611000  0.84926000  1.0
  C  C60  1  0.53327000  0.59469000  0.10778000  1.0
  C  C61  1  0.47342000  0.58181000  0.89482000  1.0
  C  C62  1  0.61203000  0.57014000  0.14299000  1.0
  C  C63  1  0.39250000  0.57489000  0.85809000  1.0
  C  C64  1  0.60797000  0.54846000  0.22185000  1.0
  C  C65  1  0.39392000  0.55040000  0.78067000  1.0
  C  C66  1  0.53882000  0.59993000  0.02281000  1.0
  C  C67  1  0.46793000  0.59713000  0.97849000  1.0
  C  C68  1  0.31616000  0.05707000  0.51096000  1.0
  C  C69  1  0.68242000  0.93266000  0.48918000  1.0
  N  N70  1  0.26611000  0.49729000  0.49967000  1.0
  N  N71  1  0.73246000  0.49339000  0.50278000  1.0
  O  O72  1  0.57589000  0.62160000  0.49778000  1.0
  O  O73  1  0.42401000  0.37170000  0.49580000  1.0
  O  O74  1  0.42074000  0.62393000  0.51597000  1.0
  O  O75  1  0.57800000  0.36764000  0.49903000  1.0
  O  O76  1  0.59196000  0.50149000  0.38022000  1.0
  O  O77  1  0.40523000  0.49322000  0.62515000  1.0
  O  O78  1  0.43847000  0.51801000  0.38745000  1.0
  O  O79  1  0.55931000  0.49815000  0.61727000  1.0
