# generated using pymatgen
data_CuAg2H6C14(NO5)2
_symmetry_space_group_name_H-M   'P 1'
_cell_length_a   5.05691000
_cell_length_b   8.87092000
_cell_length_c   8.97382000
_cell_angle_alpha   95.26670000
_cell_angle_beta   95.54430000
_cell_angle_gamma   102.98500000
_symmetry_Int_Tables_number   1
_chemical_formula_structural   CuAg2H6C14(NO5)2
_chemical_formula_sum   'Cu1 Ag2 H6 C14 N2 O10'
_cell_volume   387.74880929
_cell_formula_units_Z   1
loop_
 _symmetry_equiv_pos_site_id
 _symmetry_equiv_pos_as_xyz
  1  'x, y, z'
loop_
 _atom_site_type_symbol
 _atom_site_label
 _atom_site_symmetry_multiplicity
 _atom_site_fract_x
 _atom_site_fract_y
 _atom_site_fract_z
 _atom_site_occupancy
  Cu  Cu0  1  0.00000000  0.00000000  0.00000000  1.0
  Ag  Ag1  1  0.58900000  0.96692000  0.35130000  1.0
  Ag  Ag2  1  0.41099000  0.03308000  0.64870000  1.0
  H  H3  1  0.29229000  0.55914000  0.44983000  1.0
  H  H4  1  0.70770000  0.44086000  0.55017000  1.0
  H  H5  1  0.00623000  0.68370000  0.27871000  1.0
  H  H6  1  0.99376000  0.31630000  0.72130000  1.0
  H  H7  1  0.69950000  0.52033000  0.06186000  1.0
  H  H8  1  0.30051000  0.47967000  0.93814000  1.0
  C  C9  1  0.14335000  0.33266000  0.32561000  1.0
  C  C10  1  0.85666000  0.66733000  0.67439000  1.0
  C  C11  1  0.15988000  0.49112000  0.35266000  1.0
  C  C12  1  0.84012000  0.50889000  0.64734000  1.0
  C  C13  1  0.00061000  0.56030000  0.25732000  1.0
  C  C14  1  0.99939000  0.43970000  0.74268000  1.0
  C  C15  1  0.82689000  0.46848000  0.13652000  1.0
  C  C16  1  0.17312000  0.53153000  0.86348000  1.0
  C  C17  1  0.81376000  0.31012000  0.11019000  1.0
  C  C18  1  0.18625000  0.68988000  0.88981000  1.0
  C  C19  1  0.29791000  0.23723000  0.41573000  1.0
  C  C20  1  0.70209000  0.76277000  0.58427000  1.0
  C  C21  1  0.63441000  0.20914000  0.97738000  1.0
  C  C22  1  0.36559000  0.79086000  0.02262000  1.0
  N  N23  1  0.97281000  0.24721000  0.20598000  1.0
  N  N24  1  0.02720000  0.75279000  0.79402000  1.0
  O  O25  1  0.95013000  0.09278000  0.19534000  1.0
  O  O26  1  0.04988000  0.90722000  0.80466000  1.0
  O  O27  1  0.50206000  0.20705000  0.35906000  1.0
  O  O28  1  0.49794000  0.79295000  0.64093000  1.0
  O  O29  1  0.20758000  0.19793000  0.53646000  1.0
  O  O30  1  0.79242000  0.80207000  0.46354000  1.0
  O  O31  1  0.72630000  0.10135000  0.90624000  1.0
  O  O32  1  0.27369000  0.89865000  0.09376000  1.0
  O  O33  1  0.41252000  0.24106000  0.93685000  1.0
  O  O34  1  0.58749000  0.75895000  0.06314000  1.0
