# generated using pymatgen
data_Zn4H51C82N20O5F13
_symmetry_space_group_name_H-M   'P 1'
_cell_length_a   19.92970000
_cell_length_b   20.26650000
_cell_length_c   21.15164725
_cell_angle_alpha   106.36612619
_cell_angle_beta   107.67933153
_cell_angle_gamma   111.51300000
_symmetry_Int_Tables_number   1
_chemical_formula_structural   Zn4H51C82N20O5F13
_chemical_formula_sum   'Zn4 H51 C82 N20 O5 F13'
_cell_volume   6787.12325053
_cell_formula_units_Z   1
loop_
 _symmetry_equiv_pos_site_id
 _symmetry_equiv_pos_as_xyz
  1  'x, y, z'
loop_
 _atom_site_type_symbol
 _atom_site_label
 _atom_site_symmetry_multiplicity
 _atom_site_fract_x
 _atom_site_fract_y
 _atom_site_fract_z
 _atom_site_occupancy
  Zn  Zn0  1  0.90607000  0.87508000  0.51629000  1.0
  Zn  Zn1  1  0.11173000  0.09640000  0.51330000  1.0
  Zn  Zn2  1  0.11170000  0.99116000  0.62048000  1.0
  Zn  Zn3  1  0.91427000  0.97336000  0.38479000  1.0
  H  H4  1  0.12844000  0.81991000  0.59795000  1.0
  H  H5  1  0.40720000  0.82674000  0.29084000  1.0
  H  H6  1  0.04055000  0.48547000  0.55228000  1.0
  H  H7  1  0.15409000  0.59655000  0.52806000  1.0
  H  H8  1  0.01200000  0.47155000  0.30891000  1.0
  H  H9  1  0.34645000  0.29289000  0.88172000  1.0
  H  H10  1  0.39242000  0.41022000  0.99602000  1.0
  H  H11  1  0.47464000  0.52636000  0.17730000  1.0
  H  H12  1  0.61698000  0.62863000  0.26924000  1.0
  H  H13  1  0.25903000  0.49067000  0.86573000  1.0
  H  H14  1  0.59035000  0.78800000  0.17627000  1.0
  H  H15  1  0.93154000  0.95988000  0.24707000  1.0
  H  H16  1  0.92029000  0.99703000  0.15798000  1.0
  H  H17  1  0.83774000  0.06383000  0.86850000  1.0
  H  H18  1  0.80714000  0.03007000  0.43107000  1.0
  H  H19  1  0.84506000  0.02277000  0.74926000  1.0
  H  H20  1  0.09590000  0.16930000  0.98934000  1.0
  H  H21  1  0.10478000  0.12854000  0.87186000  1.0
  H  H22  1  0.11359000  0.09919000  0.76596000  1.0
  H  H23  1  0.35062000  0.95964000  0.59108000  1.0
  H  H24  1  0.26937000  0.86011000  0.54352000  1.0
  H  H25  1  0.28446000  0.85871000  0.66598000  1.0
  H  H26  1  0.15528000  0.17969000  0.40135000  1.0
  H  H27  1  0.37719000  0.88345000  0.66062000  1.0
  H  H28  1  0.36437000  0.95910000  0.71354000  1.0
  H  H29  1  0.53604000  0.13978000  0.51014000  1.0
  H  H30  1  0.48469000  0.11189000  0.41360000  1.0
  H  H31  1  0.61693000  0.19396000  0.41711000  1.0
  H  H32  1  0.59828000  0.25302000  0.48226000  1.0
  H  H33  1  0.66892000  0.22103000  0.51315000  1.0
  H  H34  1  0.88542000  0.43514000  0.51314000  1.0
  H  H35  1  0.82420000  0.37591000  0.41551000  1.0
  H  H36  1  0.74599000  0.44882000  0.41438000  1.0
  H  H37  1  0.90903000  0.73676000  0.40174000  1.0
  H  H38  1  0.74212000  0.40634000  0.47725000  1.0
  H  H39  1  0.80781000  0.50965000  0.51148000  1.0
  H  H40  1  0.10151000  0.27413000  0.37394000  1.0
  H  H41  1  0.14247000  0.33054000  0.33043000  1.0
  H  H42  1  0.24312000  0.31675000  0.46435000  1.0
  H  H43  1  0.28341000  0.37091000  0.41918000  1.0
  H  H44  1  0.23136000  0.40013000  0.46661000  1.0
  H  H45  1  0.06087000  0.31527000  0.17567000  1.0
  H  H46  1  0.11197000  0.30515000  0.12051000  1.0
  H  H47  1  0.24542000  0.41317000  0.23175000  1.0
  H  H48  1  0.72689000  0.88021000  0.25577000  1.0
  H  H49  1  0.17584000  0.44783000  0.20754000  1.0
  H  H50  1  0.19281000  0.42580000  0.28488000  1.0
  H  H51  1  0.51250000  0.88396000  0.50660000  1.0
  H  H52  1  0.48945000  0.01779000  0.54074000  1.0
  H  H53  1  0.35015000  0.79042000  0.39095000  1.0
  H  H54  1  0.10408000  0.25531000  0.57493000  1.0
  C  C55  1  0.92201000  0.97230000  0.66521000  1.0
  C  C56  1  0.96143000  0.76750000  0.45569000  1.0
  C  C57  1  0.74855000  0.84268000  0.27203000  1.0
  C  C58  1  0.05021000  0.20949000  0.52417000  1.0
  C  C59  1  0.20974000  0.95862000  0.54502000  1.0
  C  C60  1  0.70404000  0.76641000  0.26476000  1.0
  C  C61  1  0.21778000  0.95540000  0.47990000  1.0
  C  C62  1  0.02133000  0.74859000  0.48428000  1.0
  C  C63  1  0.04151000  0.08151000  0.29834000  1.0
  C  C64  1  0.47265000  0.97564000  0.48555000  1.0
  C  C65  1  0.48307000  0.90108000  0.46661000  1.0
  C  C66  1  0.00234000  0.21926000  0.46685000  1.0
  C  C67  1  0.65130000  0.92263000  0.42282000  1.0
  C  C68  1  0.26967000  0.93940000  0.45379000  1.0
  C  C69  1  0.50408000  0.99623000  0.42980000  1.0
  C  C70  1  0.22597000  0.17543000  0.73745000  1.0
  C  C71  1  0.51566000  0.92103000  0.41101000  1.0
  C  C72  1  0.41394000  0.94281000  0.36522000  1.0
  C  C73  1  0.38203000  0.92388000  0.42153000  1.0
  C  C74  1  0.42523000  0.86883000  0.34647000  1.0
  C  C75  1  0.39467000  0.84907000  0.40229000  1.0
  C  C76  1  0.58685000  0.92083000  0.41203000  1.0
  C  C77  1  0.24489000  0.25127000  0.74216000  1.0
  C  C78  1  0.31764000  0.92922000  0.43332000  1.0
  C  C79  1  0.09685000  0.54400000  0.48541000  1.0
  C  C80  1  0.03352000  0.48393000  0.49856000  1.0
  C  C81  1  0.01215000  0.28738000  0.45736000  1.0
  C  C82  1  0.79619000  0.97751000  0.43962000  1.0
  C  C83  1  0.02517000  0.67967000  0.45321000  1.0
  C  C84  1  0.08699000  0.47421000  0.42157000  1.0
  C  C85  1  0.02397000  0.41150000  0.43523000  1.0
  C  C86  1  0.01788000  0.47531000  0.36304000  1.0
  C  C87  1  0.02681000  0.54664000  0.42739000  1.0
  C  C88  1  0.72491000  0.92306000  0.43659000  1.0
  C  C89  1  0.95516000  0.41502000  0.37653000  1.0
  C  C90  1  0.96252000  0.48474000  0.44055000  1.0
  C  C91  1  0.01958000  0.34383000  0.44416000  1.0
  C  C92  1  0.02799000  0.61848000  0.43310000  1.0
  C  C93  1  0.61717000  0.71401000  0.22617000  1.0
  C  C94  1  0.22035000  0.23321000  0.66697000  1.0
  C  C95  1  0.56659000  0.73146000  0.17856000  1.0
  C  C96  1  0.48716000  0.67464000  0.12946000  1.0
  C  C97  1  0.45403000  0.59696000  0.12372000  1.0
  C  C98  1  0.50119000  0.58530000  0.18000000  1.0
  C  C99  1  0.76744000  0.75234000  0.29835000  1.0
  C  C100  1  0.58076000  0.64192000  0.23015000  1.0
  C  C101  1  0.35136000  0.40021000  0.94234000  1.0
  C  C102  1  0.32586000  0.33528000  0.87833000  1.0
  C  C103  1  0.32788000  0.45734000  0.93896000  1.0
  C  C104  1  0.27504000  0.32302000  0.80803000  1.0
  C  C105  1  0.25155000  0.38037000  0.80693000  1.0
  C  C106  1  0.74546000  0.86752000  0.45022000  1.0
  C  C107  1  0.27737000  0.44697000  0.86981000  1.0
  C  C108  1  0.97521000  0.07086000  0.80153000  1.0
  C  C109  1  0.04597000  0.11559000  0.87028000  1.0
  C  C110  1  0.16414000  0.98034000  0.44912000  1.0
  C  C111  1  0.04181000  0.13900000  0.93639000  1.0
  C  C112  1  0.96597000  0.11849000  0.93599000  1.0
  C  C113  1  0.89590000  0.07891000  0.86786000  1.0
  C  C114  1  0.90036000  0.05559000  0.80152000  1.0
  C  C115  1  0.95493000  0.07665000  0.11246000  1.0
  C  C116  1  0.96579000  0.05476000  0.16907000  1.0
  C  C117  1  0.01261000  0.14859000  0.11927000  1.0
  C  C118  1  0.94221000  0.14056000  0.41667000  1.0
  C  C119  1  0.03366000  0.10575000  0.23915000  1.0
  C  C120  1  0.08960000  0.18012000  0.24971000  1.0
  C  C121  1  0.07322000  0.81071000  0.55701000  1.0
  C  C122  1  0.07965000  0.20131000  0.19092000  1.0
  C  C123  1  0.05208000  0.05388000  0.72586000  1.0
  C  C124  1  0.98108000  0.03649000  0.73417000  1.0
  C  C125  1  0.30150000  0.91547000  0.59479000  1.0
  C  C126  1  0.33338000  0.90360000  0.66282000  1.0
  C  C127  1  0.54298000  0.13009000  0.45897000  1.0
  C  C128  1  0.61095000  0.20385000  0.46842000  1.0
  C  C129  1  0.84898000  0.43416000  0.46142000  1.0
  C  C130  1  0.78234000  0.45093000  0.46645000  1.0
  C  C131  1  0.15308000  0.29729000  0.36179000  1.0
  C  C132  1  0.98674000  0.01038000  0.29388000  1.0
  C  C133  1  0.23247000  0.34910000  0.43203000  1.0
  C  C134  1  0.11922000  0.32315000  0.17728000  1.0
  C  C135  1  0.18736000  0.40734000  0.22865000  1.0
  C  C136  1  0.10026000  0.12304000  0.37335000  1.0
  N  N137  1  0.95391000  0.95190000  0.62088000  1.0
  N  N138  1  0.36365000  0.53011000  0.00117000  1.0
  N  N139  1  0.95344000  0.12441000  0.99886000  1.0
  N  N140  1  0.02122000  0.13185000  0.50804000  1.0
  N  N141  1  0.01861000  0.16148000  0.05963000  1.0
  N  N142  1  0.19119000  0.11880000  0.66919000  1.0
  N  N143  1  0.85290000  0.95519000  0.45259000  1.0
  N  N144  1  0.18773000  0.15603000  0.62309000  1.0
  N  N145  1  0.82010000  0.88562000  0.45846000  1.0
  N  N146  1  0.95254000  0.08955000  0.44067000  1.0
  N  N147  1  0.03580000  0.00374000  0.65890000  1.0
  N  N148  1  0.12764000  0.99779000  0.49008000  1.0
  N  N149  1  0.84096000  0.81094000  0.32295000  1.0
  N  N150  1  0.04639000  0.86200000  0.57160000  1.0
  N  N151  1  0.01009000  0.01019000  0.36075000  1.0
  N  N152  1  0.08032000  0.08038000  0.40940000  1.0
  N  N153  1  0.97697000  0.83497000  0.50833000  1.0
  N  N154  1  0.82866000  0.86810000  0.30586000  1.0
  N  N155  1  0.15641000  0.98263000  0.54959000  1.0
  N  N156  1  0.39244000  0.52660000  0.06215000  1.0
  O  O157  1  0.24519000  0.94371000  0.60043000  1.0
  O  O158  1  0.56272000  0.06734000  0.44204000  1.0
  O  O159  1  0.90125000  0.49524000  0.44874000  1.0
  O  O160  1  0.15729000  0.23135000  0.31697000  1.0
  O  O161  1  0.13968000  0.27225000  0.20611000  1.0
  F  F162  1  0.84165000  0.93031000  0.64058000  1.0
  F  F163  1  0.23035000  0.28388000  0.63665000  1.0
  F  F164  1  0.70107000  0.80329000  0.45561000  1.0
  F  F165  1  0.87898000  0.11429000  0.35179000  1.0
  F  F166  1  0.75889000  0.68606000  0.30642000  1.0
  F  F167  1  0.15124000  0.98787000  0.38661000  1.0
  F  F168  1  0.37779000  0.96266000  0.31293000  1.0
  F  F169  1  0.88468000  0.34942000  0.32046000  1.0
  F  F170  1  0.15014000  0.46927000  0.41132000  1.0
  F  F171  1  0.23924000  0.15584000  0.79435000  1.0
  F  F172  1  0.19970000  0.36971000  0.74049000  1.0
  F  F173  1  0.44207000  0.69339000  0.08316000  1.0
  F  F174  1  0.88946000  0.02297000  0.04604000  1.0
