# generated using pymatgen
data_Zn4H16C62O13F24
_symmetry_space_group_name_H-M   'P 1'
_cell_length_a   21.60790000
_cell_length_b   21.60790000
_cell_length_c   34.43930000
_cell_angle_alpha   89.99970000
_cell_angle_beta   89.99970000
_cell_angle_gamma   89.99980000
_symmetry_Int_Tables_number   1
_chemical_formula_structural   Zn4H16C62O13F24
_chemical_formula_sum   'Zn8 H32 C124 O26 F48'
_cell_volume   16079.75540112
_cell_formula_units_Z   2
loop_
 _symmetry_equiv_pos_site_id
 _symmetry_equiv_pos_as_xyz
  1  'x, y, z'
loop_
 _atom_site_type_symbol
 _atom_site_label
 _atom_site_symmetry_multiplicity
 _atom_site_fract_x
 _atom_site_fract_y
 _atom_site_fract_z
 _atom_site_occupancy
  Zn  Zn0  1  0.44849000  0.55210000  0.03351000  1.0
  Zn  Zn1  1  0.44850000  0.44790000  0.96649000  1.0
  Zn  Zn2  1  0.55150000  0.44790000  0.03351000  1.0
  Zn  Zn3  1  0.55151000  0.55210000  0.96649000  1.0
  Zn  Zn4  1  0.55210000  0.44850000  0.46649000  1.0
  Zn  Zn5  1  0.44790000  0.44850000  0.53351000  1.0
  Zn  Zn6  1  0.44790000  0.55151000  0.46649000  1.0
  Zn  Zn7  1  0.55211000  0.55150000  0.53351000  1.0
  H  H8  1  0.42909000  0.56804000  0.15079000  1.0
  H  H9  1  0.57091000  0.43195000  0.15079000  1.0
  H  H10  1  0.56805000  0.42909000  0.34921000  1.0
  H  H11  1  0.43195000  0.57091000  0.34921000  1.0
  H  H12  1  0.42909000  0.43196000  0.84921000  1.0
  H  H13  1  0.57091000  0.56805000  0.84920000  1.0
  H  H14  1  0.56805000  0.57091000  0.65079000  1.0
  H  H15  1  0.43196000  0.42909000  0.65079000  1.0
  H  H16  1  0.32655000  0.61597000  0.28318000  1.0
  H  H17  1  0.37827000  0.62244000  0.32268000  1.0
  H  H18  1  0.38403000  0.67377000  0.28294000  1.0
  H  H19  1  0.38403000  0.67345000  0.21682000  1.0
  H  H20  1  0.37756000  0.62173000  0.17732000  1.0
  H  H21  1  0.32622000  0.61597000  0.21706000  1.0
  H  H22  1  0.67345000  0.38403000  0.28318000  1.0
  H  H23  1  0.62173000  0.37756000  0.32268000  1.0
  H  H24  1  0.61597000  0.32623000  0.28294000  1.0
  H  H25  1  0.61597000  0.32655000  0.21682000  1.0
  H  H26  1  0.62244000  0.37827000  0.17732000  1.0
  H  H27  1  0.67377000  0.38403000  0.21706000  1.0
  H  H28  1  0.32656000  0.38403000  0.71682000  1.0
  H  H29  1  0.37827000  0.37756000  0.67732000  1.0
  H  H30  1  0.38403000  0.32622000  0.71706000  1.0
  H  H31  1  0.38403000  0.32655000  0.78318000  1.0
  H  H32  1  0.37756000  0.37827000  0.82268000  1.0
  H  H33  1  0.32623000  0.38403000  0.78294000  1.0
  H  H34  1  0.67345000  0.61597000  0.71682000  1.0
  H  H35  1  0.62174000  0.62244000  0.67732000  1.0
  H  H36  1  0.61598000  0.67377000  0.71706000  1.0
  H  H37  1  0.61597000  0.67345000  0.78318000  1.0
  H  H38  1  0.62244000  0.62173000  0.82268000  1.0
  H  H39  1  0.67378000  0.61598000  0.78294000  1.0
  C  C40  1  0.33572000  0.50000000  0.00000000  1.0
  C  C41  1  0.50001000  0.33484000  0.00000000  1.0
  C  C42  1  0.49999000  0.50000000  0.10485000  1.0
  C  C43  1  0.66428000  0.50001000  0.00000000  1.0
  C  C44  1  0.50000000  0.66517000  0.00000000  1.0
  C  C45  1  0.50001000  0.50000000  0.89515000  1.0
  C  C46  1  0.50000000  0.33572000  0.50000000  1.0
  C  C47  1  0.33484000  0.50000000  0.50000000  1.0
  C  C48  1  0.50000000  0.50001000  0.39515000  1.0
  C  C49  1  0.50000000  0.66428000  0.50000000  1.0
  C  C50  1  0.66516000  0.49999000  0.50000000  1.0
  C  C51  1  0.50000000  0.50000000  0.60485000  1.0
  C  C52  1  0.50001000  0.26549000  0.00000000  1.0
  C  C53  1  0.55038000  0.23188000  0.01468000  1.0
  C  C54  1  0.55021000  0.16744000  0.01461000  1.0
  C  C55  1  0.44964000  0.23188000  0.98532000  1.0
  C  C56  1  0.44980000  0.16745000  0.98539000  1.0
  C  C57  1  0.50000000  0.13396000  0.00000000  1.0
  C  C58  1  0.50000000  0.06566000  0.00000000  1.0
  C  C59  1  0.49979000  0.03221000  0.96525000  1.0
  C  C60  1  0.50021000  0.03221000  0.03475000  1.0
  C  C61  1  0.50000000  0.73451000  0.00000000  1.0
  C  C62  1  0.44963000  0.76812000  0.01468000  1.0
  C  C63  1  0.44980000  0.83256000  0.01461000  1.0
  C  C64  1  0.55037000  0.76812000  0.98532000  1.0
  C  C65  1  0.55020000  0.83256000  0.98539000  1.0
  C  C66  1  0.50000000  0.86605000  0.00000000  1.0
  C  C67  1  0.50000000  0.93434000  0.00000000  1.0
  C  C68  1  0.49979000  0.96779000  0.03475000  1.0
  C  C69  1  0.50021000  0.96779000  0.96524000  1.0
  C  C70  1  0.45960000  0.53904000  0.16803000  1.0
  C  C71  1  0.45884000  0.54069000  0.20874000  1.0
  C  C72  1  0.41803000  0.58170000  0.22993000  1.0
  C  C73  1  0.54039000  0.46096000  0.16803000  1.0
  C  C74  1  0.54116000  0.45930000  0.20874000  1.0
  C  C75  1  0.58196000  0.41830000  0.22994000  1.0
  C  C76  1  0.53904000  0.45961000  0.33197000  1.0
  C  C77  1  0.54069000  0.45884000  0.29126000  1.0
  C  C78  1  0.58170000  0.41804000  0.27006000  1.0
  C  C79  1  0.46096000  0.54039000  0.33197000  1.0
  C  C80  1  0.45930000  0.54116000  0.29126000  1.0
  C  C81  1  0.41830000  0.58196000  0.27006000  1.0
  C  C82  1  0.50000000  0.49999000  0.14802000  1.0
  C  C83  1  0.50000000  0.50000000  0.22942000  1.0
  C  C84  1  0.50000000  0.50000000  0.35197000  1.0
  C  C85  1  0.50000000  0.50000000  0.27058000  1.0
  C  C86  1  0.45961000  0.46096000  0.83197000  1.0
  C  C87  1  0.45885000  0.45930000  0.79126000  1.0
  C  C88  1  0.41804000  0.41829000  0.77006000  1.0
  C  C89  1  0.54040000  0.53904000  0.83197000  1.0
  C  C90  1  0.54116000  0.54069000  0.79125000  1.0
  C  C91  1  0.58197000  0.58170000  0.77006000  1.0
  C  C92  1  0.53904000  0.54039000  0.66803000  1.0
  C  C93  1  0.54070000  0.54116000  0.70874000  1.0
  C  C94  1  0.58171000  0.58196000  0.72993000  1.0
  C  C95  1  0.46096000  0.45961000  0.66803000  1.0
  C  C96  1  0.45931000  0.45884000  0.70874000  1.0
  C  C97  1  0.41830000  0.41803000  0.72994000  1.0
  C  C98  1  0.50000000  0.50000000  0.85197000  1.0
  C  C99  1  0.50001000  0.50000000  0.77058000  1.0
  C  C100  1  0.50000000  0.50000000  0.64803000  1.0
  C  C101  1  0.50001000  0.50000000  0.72941000  1.0
  C  C102  1  0.73379000  0.50000000  0.00000000  1.0
  C  C103  1  0.76759000  0.47698000  0.03165000  1.0
  C  C104  1  0.83208000  0.47707000  0.03153000  1.0
  C  C105  1  0.76759000  0.52302000  0.96835000  1.0
  C  C106  1  0.83208000  0.52293000  0.96847000  1.0
  C  C107  1  0.86576000  0.50000000  0.00000000  1.0
  C  C108  1  0.93418000  0.50000000  0.00000000  1.0
  C  C109  1  0.96777000  0.55537000  0.99985000  1.0
  C  C110  1  0.96777000  0.44463000  0.00015000  1.0
  C  C111  1  0.26622000  0.50000000  0.00000000  1.0
  C  C112  1  0.23241000  0.47698000  0.96835000  1.0
  C  C113  1  0.16792000  0.47707000  0.96847000  1.0
  C  C114  1  0.23241000  0.52303000  0.03165000  1.0
  C  C115  1  0.16792000  0.52294000  0.03153000  1.0
  C  C116  1  0.13424000  0.50000000  0.00000000  1.0
  C  C117  1  0.06582000  0.50000000  0.00000000  1.0
  C  C118  1  0.03224000  0.44463000  0.99985000  1.0
  C  C119  1  0.03224000  0.55537000  0.00015000  1.0
  C  C120  1  0.26549000  0.50000000  0.50000000  1.0
  C  C121  1  0.23188000  0.55037000  0.48532000  1.0
  C  C122  1  0.16744000  0.55020000  0.48539000  1.0
  C  C123  1  0.23188000  0.44963000  0.51468000  1.0
  C  C124  1  0.16744000  0.44980000  0.51461000  1.0
  C  C125  1  0.13395000  0.50000000  0.50000000  1.0
  C  C126  1  0.06566000  0.50000000  0.50000000  1.0
  C  C127  1  0.03221000  0.49978000  0.53476000  1.0
  C  C128  1  0.03221000  0.50021000  0.46525000  1.0
  C  C129  1  0.73450000  0.49999000  0.50000000  1.0
  C  C130  1  0.76812000  0.44962000  0.48532000  1.0
  C  C131  1  0.83255000  0.44979000  0.48540000  1.0
  C  C132  1  0.76812000  0.55036000  0.51468000  1.0
  C  C133  1  0.83256000  0.55020000  0.51461000  1.0
  C  C134  1  0.86604000  0.49999000  0.50000000  1.0
  C  C135  1  0.93434000  0.50000000  0.50000000  1.0
  C  C136  1  0.96779000  0.49979000  0.46525000  1.0
  C  C137  1  0.96779000  0.50021000  0.53475000  1.0
  C  C138  1  0.50000000  0.73379000  0.50000000  1.0
  C  C139  1  0.47698000  0.76759000  0.46835000  1.0
  C  C140  1  0.47706000  0.83208000  0.46847000  1.0
  C  C141  1  0.52302000  0.76759000  0.53165000  1.0
  C  C142  1  0.52294000  0.83208000  0.53153000  1.0
  C  C143  1  0.50000000  0.86576000  0.50000000  1.0
  C  C144  1  0.50000000  0.93418000  0.50000000  1.0
  C  C145  1  0.55537000  0.96777000  0.50014000  1.0
  C  C146  1  0.44462000  0.96777000  0.49985000  1.0
  C  C147  1  0.50000000  0.26621000  0.50000000  1.0
  C  C148  1  0.47698000  0.23241000  0.53165000  1.0
  C  C149  1  0.47706000  0.16792000  0.53153000  1.0
  C  C150  1  0.52302000  0.23241000  0.46835000  1.0
  C  C151  1  0.52293000  0.16792000  0.46847000  1.0
  C  C152  1  0.49999000  0.13424000  0.50000000  1.0
  C  C153  1  0.49999000  0.06582000  0.50000000  1.0
  C  C154  1  0.44462000  0.03224000  0.50014000  1.0
  C  C155  1  0.55537000  0.03223000  0.49985000  1.0
  C  C156  1  0.37504000  0.62532000  0.29107000  1.0
  C  C157  1  0.37468000  0.62496000  0.20892000  1.0
  C  C158  1  0.62496000  0.37468000  0.29107000  1.0
  C  C159  1  0.62532000  0.37504000  0.20893000  1.0
  C  C160  1  0.37504000  0.37468000  0.70893000  1.0
  C  C161  1  0.37468000  0.37504000  0.79107000  1.0
  C  C162  1  0.62496000  0.62532000  0.70893000  1.0
  C  C163  1  0.62532000  0.62496000  0.79107000  1.0
  O  O164  1  0.50000000  0.50000000  0.00000000  1.0
  O  O165  1  0.36169000  0.54648000  0.01571000  1.0
  O  O166  1  0.47529000  0.36076000  0.97074000  1.0
  O  O167  1  0.54416000  0.47119000  0.08787000  1.0
  O  O168  1  0.36170000  0.45352000  0.98429000  1.0
  O  O169  1  0.45583000  0.52881000  0.08787000  1.0
  O  O170  1  0.52472000  0.36077000  0.02926000  1.0
  O  O171  1  0.63831000  0.45352000  0.01572000  1.0
  O  O172  1  0.52472000  0.63924000  0.97074000  1.0
  O  O173  1  0.63831000  0.54648000  0.98429000  1.0
  O  O174  1  0.47528000  0.63923000  0.02926000  1.0
  O  O175  1  0.45584000  0.47119000  0.91213000  1.0
  O  O176  1  0.54417000  0.52881000  0.91213000  1.0
  O  O177  1  0.50000000  0.50000000  0.50000000  1.0
  O  O178  1  0.54648000  0.36169000  0.48429000  1.0
  O  O179  1  0.36076000  0.47528000  0.52926000  1.0
  O  O180  1  0.47119000  0.54417000  0.41213000  1.0
  O  O181  1  0.45352000  0.36169000  0.51571000  1.0
  O  O182  1  0.52881000  0.45584000  0.41213000  1.0
  O  O183  1  0.36076000  0.52472000  0.47074000  1.0
  O  O184  1  0.45352000  0.63831000  0.48429000  1.0
  O  O185  1  0.63923000  0.52471000  0.52927000  1.0
  O  O186  1  0.54648000  0.63831000  0.51572000  1.0
  O  O187  1  0.63923000  0.47528000  0.47074000  1.0
  O  O188  1  0.47120000  0.45583000  0.58787000  1.0
  O  O189  1  0.52881000  0.54416000  0.58787000  1.0
  F  F190  1  0.39882000  0.26091000  0.97191000  1.0
  F  F191  1  0.39976000  0.13699000  0.97170000  1.0
  F  F192  1  0.60120000  0.26091000  0.02809000  1.0
  F  F193  1  0.60023000  0.13698000  0.02831000  1.0
  F  F194  1  0.49999000  0.06263000  0.93101000  1.0
  F  F195  1  0.50002000  0.93738000  0.93101000  1.0
  F  F196  1  0.50003000  0.06262000  0.06899000  1.0
  F  F197  1  0.49997000  0.93738000  0.06899000  1.0
  F  F198  1  0.60024000  0.86302000  0.97169000  1.0
  F  F199  1  0.60119000  0.73909000  0.97191000  1.0
  F  F200  1  0.39976000  0.86302000  0.02830000  1.0
  F  F201  1  0.39881000  0.73909000  0.02809000  1.0
  F  F202  1  0.73869000  0.54409000  0.93633000  1.0
  F  F203  1  0.86242000  0.54452000  0.93696000  1.0
  F  F204  1  0.73868000  0.45590000  0.06367000  1.0
  F  F205  1  0.86242000  0.45548000  0.06304000  1.0
  F  F206  1  0.93744000  0.60999000  0.99992000  1.0
  F  F207  1  0.06256000  0.60999000  0.00007000  1.0
  F  F208  1  0.93744000  0.39001000  0.00008000  1.0
  F  F209  1  0.06256000  0.39001000  0.99992000  1.0
  F  F210  1  0.13758000  0.54452000  0.06303000  1.0
  F  F211  1  0.26132000  0.54410000  0.06367000  1.0
  F  F212  1  0.13758000  0.45548000  0.93696000  1.0
  F  F213  1  0.26131000  0.45590000  0.93633000  1.0
  F  F214  1  0.26091000  0.39881000  0.52809000  1.0
  F  F215  1  0.13698000  0.39976000  0.52831000  1.0
  F  F216  1  0.26091000  0.60119000  0.47191000  1.0
  F  F217  1  0.13698000  0.60023000  0.47169000  1.0
  F  F218  1  0.06262000  0.49997000  0.56899000  1.0
  F  F219  1  0.93737000  0.50001000  0.56899000  1.0
  F  F220  1  0.06262000  0.50001000  0.43101000  1.0
  F  F221  1  0.93738000  0.49997000  0.43101000  1.0
  F  F222  1  0.86301000  0.60023000  0.52830000  1.0
  F  F223  1  0.73909000  0.60118000  0.52809000  1.0
  F  F224  1  0.86302000  0.39976000  0.47170000  1.0
  F  F225  1  0.73909000  0.39880000  0.47191000  1.0
  F  F226  1  0.54409000  0.73869000  0.56367000  1.0
  F  F227  1  0.54453000  0.86242000  0.56304000  1.0
  F  F228  1  0.45591000  0.73869000  0.43633000  1.0
  F  F229  1  0.45548000  0.86242000  0.43697000  1.0
  F  F230  1  0.60999000  0.93744000  0.50007000  1.0
  F  F231  1  0.60998000  0.06256000  0.49992000  1.0
  F  F232  1  0.39001000  0.93744000  0.49993000  1.0
  F  F233  1  0.39001000  0.06256000  0.50007000  1.0
  F  F234  1  0.54452000  0.13758000  0.43697000  1.0
  F  F235  1  0.54409000  0.26132000  0.43633000  1.0
  F  F236  1  0.45548000  0.13757000  0.56304000  1.0
  F  F237  1  0.45591000  0.26131000  0.56368000  1.0
