# generated using pymatgen
data_ZnH21C33N3O4
_symmetry_space_group_name_H-M   'P 1'
_cell_length_a   13.81540000
_cell_length_b   16.61020000
_cell_length_c   17.02320000
_cell_angle_alpha   90.00140000
_cell_angle_beta   90.35520000
_cell_angle_gamma   89.60490000
_symmetry_Int_Tables_number   1
_chemical_formula_structural   ZnH21C33N3O4
_chemical_formula_sum   'Zn2 H42 C66 N6 O8'
_cell_volume   3906.25738186
_cell_formula_units_Z   2
loop_
 _symmetry_equiv_pos_site_id
 _symmetry_equiv_pos_as_xyz
  1  'x, y, z'
loop_
 _atom_site_type_symbol
 _atom_site_label
 _atom_site_symmetry_multiplicity
 _atom_site_fract_x
 _atom_site_fract_y
 _atom_site_fract_z
 _atom_site_occupancy
  Zn  Zn0  1  0.60072000  0.99954000  0.50038000  1.0
  Zn  Zn1  1  0.39928000  0.00042000  0.49964000  1.0
  H  H2  1  0.74930000  0.12322000  0.49925000  1.0
  H  H3  1  0.75164000  0.87639000  0.50106000  1.0
  H  H4  1  0.25069000  0.87677000  0.50079000  1.0
  H  H5  1  0.24838000  0.12360000  0.49889000  1.0
  H  H6  1  0.34326000  0.28430000  0.21231000  1.0
  H  H7  1  0.65568000  0.71481000  0.21507000  1.0
  H  H8  1  0.34550000  0.71787000  0.78599000  1.0
  H  H9  1  0.65557000  0.28254000  0.78727000  1.0
  H  H10  1  0.65673000  0.71565000  0.78771000  1.0
  H  H11  1  0.34433000  0.28513000  0.78495000  1.0
  H  H12  1  0.65451000  0.28208000  0.21403000  1.0
  H  H13  1  0.34444000  0.71743000  0.21274000  1.0
  H  H14  1  0.34347000  0.17994000  0.31885000  1.0
  H  H15  1  0.65519000  0.81897000  0.32175000  1.0
  H  H16  1  0.34629000  0.82230000  0.67953000  1.0
  H  H17  1  0.65503000  0.17852000  0.68040000  1.0
  H  H18  1  0.65653000  0.82002000  0.68118000  1.0
  H  H19  1  0.34482000  0.18098000  0.67828000  1.0
  H  H20  1  0.65370000  0.17765000  0.32049000  1.0
  H  H21  1  0.34498000  0.82144000  0.31961000  1.0
  H  H22  1  0.49903000  0.41808000  0.30010000  1.0
  H  H23  1  0.49963000  0.58100000  0.30037000  1.0
  H  H24  1  0.50099000  0.58188000  0.69993000  1.0
  H  H25  1  0.50040000  0.41896000  0.69965000  1.0
  H  H26  1  0.49900000  0.19167000  0.07901000  1.0
  H  H27  1  0.50056000  0.80800000  0.07992000  1.0
  H  H28  1  0.50101000  0.80828000  0.92100000  1.0
  H  H29  1  0.49944000  0.19196000  0.92010000  1.0
  H  H30  1  0.49978000  0.43434000  0.99993000  1.0
  H  H31  1  0.50023000  0.56562000  0.00009000  1.0
  H  H32  1  0.08027000  0.26495000  0.44625000  1.0
  H  H33  1  0.17971000  0.22317000  0.49849000  1.0
  H  H34  1  0.08080000  0.26578000  0.54973000  1.0
  H  H35  1  0.91463000  0.26551000  0.54993000  1.0
  H  H36  1  0.81602000  0.22287000  0.49825000  1.0
  H  H37  1  0.91410000  0.26495000  0.44642000  1.0
  H  H38  1  0.08619000  0.73516000  0.55368000  1.0
  H  H39  1  0.18399000  0.77711000  0.50140000  1.0
  H  H40  1  0.08509000  0.73437000  0.45018000  1.0
  H  H41  1  0.91893000  0.73434000  0.45010000  1.0
  H  H42  1  0.82030000  0.77683000  0.50180000  1.0
  H  H43  1  0.92002000  0.73492000  0.55359000  1.0
  C  C44  1  0.49991000  0.11217000  0.60875000  1.0
  C  C45  1  0.49849000  0.11116000  0.39019000  1.0
  C  C46  1  0.50009000  0.88778000  0.39127000  1.0
  C  C47  1  0.50149000  0.88879000  0.60983000  1.0
  C  C48  1  0.79571000  0.07006000  0.49962000  1.0
  C  C49  1  0.89704000  0.07465000  0.49951000  1.0
  C  C50  1  0.94848000  0.15002000  0.49888000  1.0
  C  C51  1  0.79704000  0.92961000  0.50059000  1.0
  C  C52  1  0.89845000  0.92516000  0.50055000  1.0
  C  C53  1  0.95136000  0.84988000  0.50112000  1.0
  C  C54  1  0.20429000  0.92993000  0.50039000  1.0
  C  C55  1  0.10296000  0.92534000  0.50047000  1.0
  C  C56  1  0.05153000  0.84997000  0.50109000  1.0
  C  C57  1  0.20297000  0.07039000  0.49938000  1.0
  C  C58  1  0.10155000  0.07483000  0.49944000  1.0
  C  C59  1  0.04865000  0.15011000  0.49887000  1.0
  C  C60  1  0.94894000  0.99995000  0.50000000  1.0
  C  C61  1  0.05106000  0.00004000  0.49998000  1.0
  C  C62  1  0.41130000  0.26080000  0.23613000  1.0
  C  C63  1  0.58756000  0.73838000  0.23801000  1.0
  C  C64  1  0.41365000  0.74040000  0.76291000  1.0
  C  C65  1  0.58747000  0.26015000  0.76325000  1.0
  C  C66  1  0.58870000  0.73916000  0.76389000  1.0
  C  C67  1  0.41245000  0.26157000  0.76201000  1.0
  C  C68  1  0.58634000  0.25955000  0.23711000  1.0
  C  C69  1  0.41254000  0.73981000  0.23676000  1.0
  C  C70  1  0.41111000  0.20295000  0.29541000  1.0
  C  C71  1  0.58761000  0.79605000  0.29745000  1.0
  C  C72  1  0.41378000  0.79824000  0.70364000  1.0
  C  C73  1  0.58747000  0.20253000  0.70376000  1.0
  C  C74  1  0.58889000  0.79701000  0.70460000  1.0
  C  C75  1  0.41240000  0.20389000  0.70257000  1.0
  C  C76  1  0.58621000  0.20171000  0.29637000  1.0
  C  C77  1  0.41254000  0.79744000  0.29625000  1.0
  C  C78  1  0.49942000  0.43417000  0.16778000  1.0
  C  C79  1  0.49983000  0.56532000  0.16799000  1.0
  C  C80  1  0.50058000  0.56578000  0.83225000  1.0
  C  C81  1  0.50020000  0.43464000  0.83204000  1.0
  C  C82  1  0.49927000  0.45866000  0.25010000  1.0
  C  C83  1  0.49957000  0.54057000  0.25024000  1.0
  C  C84  1  0.50075000  0.54130000  0.74992000  1.0
  C  C85  1  0.50049000  0.45939000  0.74979000  1.0
  C  C86  1  0.49940000  0.32552000  0.06612000  1.0
  C  C87  1  0.50021000  0.67423000  0.06661000  1.0
  C  C88  1  0.50060000  0.67443000  0.93390000  1.0
  C  C89  1  0.49977000  0.32573000  0.93341000  1.0
  C  C90  1  0.49927000  0.24333000  0.04003000  1.0
  C  C91  1  0.50047000  0.75649000  0.04074000  1.0
  C  C92  1  0.50072000  0.75662000  0.95999000  1.0
  C  C93  1  0.49951000  0.24347000  0.95927000  1.0
  C  C94  1  0.49921000  0.35294000  0.14398000  1.0
  C  C95  1  0.50003000  0.64664000  0.14441000  1.0
  C  C96  1  0.50079000  0.64703000  0.85604000  1.0
  C  C97  1  0.49998000  0.35332000  0.85561000  1.0
  C  C98  1  0.49892000  0.28991000  0.20658000  1.0
  C  C99  1  0.50004000  0.70947000  0.20721000  1.0
  C  C100  1  0.50108000  0.71005000  0.79344000  1.0
  C  C101  1  0.49997000  0.29049000  0.79281000  1.0
  C  C102  1  0.49858000  0.17314000  0.32614000  1.0
  C  C103  1  0.50008000  0.82585000  0.32719000  1.0
  C  C104  1  0.50141000  0.82681000  0.67388000  1.0
  C  C105  1  0.49994000  0.17410000  0.67283000  1.0
  C  C106  1  0.10090000  0.22931000  0.49830000  1.0
  C  C107  1  0.89471000  0.22914000  0.49833000  1.0
  C  C108  1  0.10529000  0.77085000  0.50163000  1.0
  C  C109  1  0.89911000  0.77068000  0.50170000  1.0
  N  N110  1  0.74873000  0.99979000  0.50015000  1.0
  N  N111  1  0.25127000  0.00019000  0.49985000  1.0
  N  N112  1  0.49975000  0.49982000  0.11894000  1.0
  N  N113  1  0.50025000  0.50014000  0.88109000  1.0
  N  N114  1  0.49969000  0.37288000  0.99983000  1.0
  N  N115  1  0.50029000  0.62707000  0.00018000  1.0
  O  O116  1  0.58204000  0.08770000  0.58440000  1.0
  O  O117  1  0.41777000  0.08855000  0.58372000  1.0
  O  O118  1  0.41639000  0.08765000  0.41458000  1.0
  O  O119  1  0.58065000  0.08665000  0.41526000  1.0
  O  O120  1  0.41795000  0.91232000  0.41555000  1.0
  O  O121  1  0.58223000  0.91133000  0.41638000  1.0
  O  O122  1  0.58359000  0.91239000  0.58551000  1.0
  O  O123  1  0.41933000  0.91323000  0.58470000  1.0
