# generated using pymatgen
data_HgH10C10(N2Cl)2
_symmetry_space_group_name_H-M   'P 1'
_cell_length_a   8.69952000
_cell_length_b   10.90610000
_cell_length_c   15.86940000
_cell_angle_alpha   101.09800000
_cell_angle_beta   90.00000000
_cell_angle_gamma   90.00000000
_symmetry_Int_Tables_number   1
_chemical_formula_structural   HgH10C10(N2Cl)2
_chemical_formula_sum   'Hg4 H40 C40 N16 Cl8'
_cell_volume   1477.49765222
_cell_formula_units_Z   4
loop_
 _symmetry_equiv_pos_site_id
 _symmetry_equiv_pos_as_xyz
  1  'x, y, z'
loop_
 _atom_site_type_symbol
 _atom_site_label
 _atom_site_symmetry_multiplicity
 _atom_site_fract_x
 _atom_site_fract_y
 _atom_site_fract_z
 _atom_site_occupancy
  Hg  Hg0  1  0.32774000  0.34613000  0.05936000  1.0
  Hg  Hg1  1  0.82774000  0.65387000  0.44064000  1.0
  Hg  Hg2  1  0.67226000  0.65387000  0.94064000  1.0
  Hg  Hg3  1  0.17226000  0.34613000  0.55936000  1.0
  H  H4  1  0.71245000  0.49262000  0.09252000  1.0
  H  H5  1  0.21245000  0.50738000  0.40748000  1.0
  H  H6  1  0.28755000  0.50739000  0.90748000  1.0
  H  H7  1  0.78755000  0.49262000  0.59252000  1.0
  H  H8  1  0.78499000  0.47291000  0.24526000  1.0
  H  H9  1  0.28499000  0.52709000  0.25474000  1.0
  H  H10  1  0.21501000  0.52709000  0.75474000  1.0
  H  H11  1  0.71501000  0.47291000  0.74526000  1.0
  H  H12  1  0.94145000  0.83871000  0.29256000  1.0
  H  H13  1  0.44145000  0.16130000  0.20744000  1.0
  H  H14  1  0.05855000  0.16130000  0.70744000  1.0
  H  H15  1  0.55855000  0.83871000  0.79256000  1.0
  H  H16  1  0.02653000  0.98853000  0.21610000  1.0
  H  H17  1  0.52653000  0.01147000  0.28390000  1.0
  H  H18  1  0.97347000  0.01148000  0.78390000  1.0
  H  H19  1  0.47347000  0.98853000  0.71610000  1.0
  H  H20  1  0.83090000  0.02166000  0.24198000  1.0
  H  H21  1  0.33090000  0.97834000  0.25802000  1.0
  H  H22  1  0.16910000  0.97834000  0.75802000  1.0
  H  H23  1  0.66910000  0.02166000  0.74198000  1.0
  H  H24  1  0.16073000  0.13832000  0.15724000  1.0
  H  H25  1  0.66073000  0.86168000  0.34277000  1.0
  H  H26  1  0.83927000  0.86168000  0.84276000  1.0
  H  H27  1  0.33927000  0.13832000  0.65724000  1.0
  H  H28  1  0.95139000  0.37025000  0.01331000  1.0
  H  H29  1  0.45139000  0.62974000  0.48669000  1.0
  H  H30  1  0.04861000  0.62975000  0.98669000  1.0
  H  H31  1  0.54860000  0.37025000  0.51331000  1.0
  H  H32  1  0.69703000  0.26550000  0.02039000  1.0
  H  H33  1  0.19703000  0.73450000  0.47961000  1.0
  H  H34  1  0.30297000  0.73450000  0.97961000  1.0
  H  H35  1  0.80296000  0.26550000  0.52039000  1.0
  H  H36  1  0.67497000  0.09441000  0.10292000  1.0
  H  H37  1  0.17497000  0.90559000  0.39707000  1.0
  H  H38  1  0.32503000  0.90559000  0.89708000  1.0
  H  H39  1  0.82504000  0.09441000  0.60292000  1.0
  H  H40  1  0.81079000  0.88545000  0.07668000  1.0
  H  H41  1  0.31078000  0.11456000  0.42332000  1.0
  H  H42  1  0.18922000  0.11456000  0.92332000  1.0
  H  H43  1  0.68922000  0.88544000  0.57668000  1.0
  C  C44  1  0.76533000  0.56951000  0.13728000  1.0
  C  C45  1  0.26532000  0.43049000  0.36272000  1.0
  C  C46  1  0.23468000  0.43050000  0.86272000  1.0
  C  C47  1  0.73467000  0.56951000  0.63728000  1.0
  C  C48  1  0.80486000  0.55809000  0.22049000  1.0
  C  C49  1  0.30485000  0.44191000  0.27951000  1.0
  C  C50  1  0.19515000  0.44192000  0.77951000  1.0
  C  C51  1  0.69515000  0.55809000  0.72049000  1.0
  C  C52  1  0.89197000  0.76139000  0.24652000  1.0
  C  C53  1  0.39196000  0.23861000  0.25349000  1.0
  C  C54  1  0.10804000  0.23861000  0.75348000  1.0
  C  C55  1  0.60803000  0.76139000  0.74652000  1.0
  C  C56  1  0.85054000  0.77325000  0.16182000  1.0
  C  C57  1  0.35054000  0.22675000  0.33818000  1.0
  C  C58  1  0.14946000  0.22675000  0.83818000  1.0
  C  C59  1  0.64946000  0.77325000  0.66182000  1.0
  C  C60  1  0.91259000  0.99803000  0.18760000  1.0
  C  C61  1  0.41259000  0.00197000  0.31240000  1.0
  C  C62  1  0.08741000  0.00198000  0.81240000  1.0
  C  C63  1  0.58741000  0.99802000  0.68760000  1.0
  C  C64  1  0.91702000  0.10309000  0.13842000  1.0
  C  C65  1  0.41703000  0.89692000  0.36158000  1.0
  C  C66  1  0.08297000  0.89692000  0.86158000  1.0
  C  C67  1  0.58297000  0.10308000  0.63842000  1.0
  C  C68  1  0.05420000  0.16569000  0.12952000  1.0
  C  C69  1  0.55421000  0.83431000  0.37048000  1.0
  C  C70  1  0.94579000  0.83431000  0.87048000  1.0
  C  C71  1  0.44579000  0.16569000  0.62952000  1.0
  C  C72  1  0.93829000  0.29455000  0.04882000  1.0
  C  C73  1  0.43829000  0.70544000  0.45119000  1.0
  C  C74  1  0.06171000  0.70544000  0.95118000  1.0
  C  C75  1  0.56171000  0.29455000  0.54882000  1.0
  C  C76  1  0.79662000  0.23640000  0.05317000  1.0
  C  C77  1  0.29662000  0.76360000  0.44682000  1.0
  C  C78  1  0.20338000  0.76361000  0.94682000  1.0
  C  C79  1  0.70338000  0.23640000  0.55317000  1.0
  C  C80  1  0.78543000  0.14047000  0.09931000  1.0
  C  C81  1  0.28544000  0.85953000  0.40069000  1.0
  C  C82  1  0.21456000  0.85953000  0.90069000  1.0
  C  C83  1  0.71457000  0.14047000  0.59931000  1.0
  N  N84  1  0.78825000  0.67463000  0.10775000  1.0
  N  N85  1  0.28825000  0.32537000  0.39225000  1.0
  N  N86  1  0.21175000  0.32538000  0.89225000  1.0
  N  N87  1  0.71175000  0.67462000  0.60775000  1.0
  N  N88  1  0.86819000  0.65520000  0.27412000  1.0
  N  N89  1  0.36818000  0.34480000  0.22588000  1.0
  N  N90  1  0.13182000  0.34480000  0.72588000  1.0
  N  N91  1  0.63182000  0.65520000  0.77412000  1.0
  N  N92  1  0.86981000  0.88088000  0.13179000  1.0
  N  N93  1  0.36981000  0.11912000  0.36821000  1.0
  N  N94  1  0.13019000  0.11912000  0.86821000  1.0
  N  N95  1  0.63019000  0.88088000  0.63179000  1.0
  N  N96  1  0.06465000  0.26016000  0.08678000  1.0
  N  N97  1  0.56465000  0.73984000  0.41322000  1.0
  N  N98  1  0.93535000  0.73984000  0.91322000  1.0
  N  N99  1  0.43535000  0.26016000  0.58678000  1.0
  Cl  Cl100  1  0.41179000  0.13282000  0.01800000  1.0
  Cl  Cl101  1  0.91180000  0.86718000  0.48200000  1.0
  Cl  Cl102  1  0.58821000  0.86718000  0.98200000  1.0
  Cl  Cl103  1  0.08820000  0.13282000  0.51800000  1.0
  Cl  Cl104  1  0.32345000  0.56866000  0.08648000  1.0
  Cl  Cl105  1  0.82344000  0.43134000  0.41352000  1.0
  Cl  Cl106  1  0.67656000  0.43134000  0.91352000  1.0
  Cl  Cl107  1  0.17655000  0.56866000  0.58648000  1.0
