# generated using pymatgen
data_Zn2H14C38I5Br5N8
_symmetry_space_group_name_H-M   'P 1'
_cell_length_a   19.58970000
_cell_length_b   19.91870000
_cell_length_c   20.85974131
_cell_angle_alpha   106.81012742
_cell_angle_beta   107.84150272
_cell_angle_gamma   111.73600000
_symmetry_Int_Tables_number   1
_chemical_formula_structural   Zn2H14C38I5Br5N8
_chemical_formula_sum   'Zn4 H28 C76 I10 Br10 N16'
_cell_volume   6407.59460021
_cell_formula_units_Z   2
loop_
 _symmetry_equiv_pos_site_id
 _symmetry_equiv_pos_as_xyz
  1  'x, y, z'
loop_
 _atom_site_type_symbol
 _atom_site_label
 _atom_site_symmetry_multiplicity
 _atom_site_fract_x
 _atom_site_fract_y
 _atom_site_fract_z
 _atom_site_occupancy
  Zn  Zn0  1  0.89478000  0.89496000  0.51394000  1.0
  Zn  Zn1  1  0.10155000  0.08716000  0.48925000  1.0
  Zn  Zn2  1  0.09902000  0.00347000  0.60348000  1.0
  Zn  Zn3  1  0.89456000  0.98898000  0.40658000  1.0
  H  H4  1  0.85676000  0.01301000  0.62177000  1.0
  H  H5  1  0.45484000  0.95806000  0.39572000  1.0
  H  H6  1  0.03270000  0.48105000  0.50606000  1.0
  H  H7  1  0.13531000  0.62105000  0.64964000  1.0
  H  H8  1  0.09082000  0.52077000  0.72038000  1.0
  H  H9  1  0.76730000  0.61076000  0.26306000  1.0
  H  H10  1  0.28686000  0.14308000  0.75132000  1.0
  H  H11  1  0.62818000  0.55654000  0.97428000  1.0
  H  H12  1  0.61095000  0.35918000  0.85934000  1.0
  H  H13  1  0.89998000  0.75929000  0.17961000  1.0
  H  H14  1  0.68078000  0.43324000  0.99424000  1.0
  H  H15  1  0.12343000  0.96337000  0.36657000  1.0
  H  H16  1  0.48072000  0.48852000  0.89515000  1.0
  H  H17  1  0.69411000  0.94869000  0.34248000  1.0
  H  H18  1  0.97730000  0.21442000  0.26452000  1.0
  H  H19  1  0.86219000  0.04304000  0.73158000  1.0
  H  H20  1  0.92181000  0.12582000  0.98140000  1.0
  H  H21  1  0.10418000  0.27200000  0.96842000  1.0
  H  H22  1  0.29422000  0.24774000  0.59688000  1.0
  H  H23  1  0.86087000  0.12377000  0.49587000  1.0
  H  H24  1  0.12586000  0.15323000  0.73369000  1.0
  H  H25  1  0.13507000  0.88515000  0.67770000  1.0
  H  H26  1  0.86117000  0.02885000  0.25223000  1.0
  H  H27  1  0.86662000  0.75640000  0.57581000  1.0
  H  H28  1  0.88157000  0.86433000  0.26641000  1.0
  H  H29  1  0.12292000  0.85461000  0.51931000  1.0
  H  H30  1  0.39814000  0.92150000  0.49826000  1.0
  H  H31  1  0.26173000  0.68558000  0.34753000  1.0
  C  C32  1  0.92285000  0.04007000  0.63923000  1.0
  C  C33  1  0.93201000  0.79922000  0.59850000  1.0
  C  C34  1  0.88736000  0.84298000  0.30909000  1.0
  C  C35  1  0.05918000  0.22011000  0.54479000  1.0
  C  C36  1  0.11854000  0.88940000  0.48824000  1.0
  C  C37  1  0.87422000  0.76642000  0.30201000  1.0
  C  C38  1  0.13635000  0.88814000  0.42746000  1.0
  C  C39  1  0.00141000  0.79343000  0.63546000  1.0
  C  C40  1  0.99527000  0.09154000  0.27857000  1.0
  C  C41  1  0.38110000  0.87784000  0.44223000  1.0
  C  C42  1  0.39482000  0.80375000  0.42471000  1.0
  C  C43  1  0.98914000  0.22789000  0.54015000  1.0
  C  C44  1  0.57499000  0.84931000  0.38293000  1.0
  C  C45  1  0.17691000  0.85066000  0.40029000  1.0
  C  C46  1  0.41158000  0.89799000  0.38588000  1.0
  C  C47  1  0.27525000  0.15699000  0.70378000  1.0
  C  C48  1  0.42900000  0.82487000  0.36902000  1.0
  C  C49  1  0.32143000  0.84139000  0.31969000  1.0
  C  C50  1  0.28841000  0.82062000  0.37625000  1.0
  C  C51  1  0.33625000  0.76712000  0.30301000  1.0
  C  C52  1  0.30443000  0.74656000  0.35878000  1.0
  C  C53  1  0.50445000  0.83288000  0.37128000  1.0
  C  C54  1  0.32512000  0.22492000  0.69867000  1.0
  C  C55  1  0.22136000  0.82702000  0.38383000  1.0
  C  C56  1  0.97369000  0.53181000  0.66391000  1.0
  C  C57  1  0.91633000  0.45509000  0.58456000  1.0
  C  C58  1  0.98614000  0.29991000  0.55838000  1.0
  C  C59  1  0.70937000  0.92085000  0.37827000  1.0
  C  C60  1  0.00163000  0.72543000  0.64237000  1.0
  C  C61  1  0.04867000  0.51860000  0.67038000  1.0
  C  C62  1  0.99189000  0.44040000  0.59075000  1.0
  C  C63  1  0.07289000  0.57269000  0.63089000  1.0
  C  C64  1  0.99825000  0.58838000  0.62525000  1.0
  C  C65  1  0.65748000  0.87138000  0.39956000  1.0
  C  C66  1  0.01644000  0.49654000  0.55171000  1.0
  C  C67  1  0.94135000  0.50961000  0.54526000  1.0
  C  C68  1  0.98849000  0.36486000  0.57328000  1.0
  C  C69  1  0.00113000  0.66324000  0.63967000  1.0
  C  C70  1  0.83837000  0.69453000  0.23064000  1.0
  C  C71  1  0.27913000  0.21054000  0.62502000  1.0
  C  C72  1  0.78056000  0.61806000  0.21776000  1.0
  C  C73  1  0.73620000  0.55276000  0.14594000  1.0
  C  C74  1  0.74429000  0.55945000  0.08279000  1.0
  C  C75  1  0.80630000  0.63556000  0.09830000  1.0
  C  C76  1  0.89003000  0.77464000  0.37550000  1.0
  C  C77  1  0.85292000  0.70155000  0.17033000  1.0
  C  C78  1  0.55398000  0.36183000  0.84408000  1.0
  C  C79  1  0.48036000  0.29648000  0.78204000  1.0
  C  C80  1  0.40856000  0.36834000  0.80199000  1.0
  C  C81  1  0.48144000  0.43498000  0.86321000  1.0
  C  C82  1  0.55480000  0.43149000  0.88664000  1.0
  C  C83  1  0.71076000  0.85341000  0.44566000  1.0
  C  C84  1  0.68406000  0.49189000  0.00644000  1.0
  C  C85  1  0.62657000  0.49839000  0.95736000  1.0
  C  C86  1  0.40450000  0.29624000  0.75961000  1.0
  C  C87  1  0.11825000  0.94480000  0.40974000  1.0
  C  C88  1  0.98867000  0.13867000  0.77960000  1.0
  C  C89  1  0.05432000  0.20666000  0.84844000  1.0
  C  C90  1  0.05048000  0.22153000  0.91638000  1.0
  C  C91  1  0.98063000  0.17178000  0.92090000  1.0
  C  C92  1  0.91079000  0.11085000  0.85043000  1.0
  C  C93  1  0.91558000  0.09463000  0.78322000  1.0
  C  C94  1  0.03308000  0.11201000  0.11580000  1.0
  C  C95  1  0.92587000  0.14714000  0.50980000  1.0
  C  C96  1  0.02010000  0.08063000  0.16586000  1.0
  C  C97  1  0.99192000  0.18514000  0.22208000  1.0
  C  C98  1  0.06929000  0.86470000  0.64974000  1.0
  C  C99  1  0.00299000  0.21499000  0.17105000  1.0
  C  C100  1  0.02480000  0.18008000  0.11755000  1.0
  C  C101  1  0.98057000  0.17294000  0.99069000  1.0
  C  C102  1  0.03902000  0.21087000  0.06342000  1.0
  C  C103  1  0.00125000  0.11842000  0.22088000  1.0
  C  C104  1  0.06006000  0.11199000  0.69621000  1.0
  C  C105  1  0.99133000  0.10443000  0.70866000  1.0
  C  C106  1  0.92599000  0.05024000  0.28743000  1.0
  C  C107  1  0.06096000  0.10164000  0.33959000  1.0
  I  I108  1  0.26373000  0.87115000  0.23820000  1.0
  I  I109  1  0.89766000  0.69265000  0.41667000  1.0
  I  I110  1  0.85820000  0.50408000  0.44854000  1.0
  I  I111  1  0.48420000  0.19456000  0.71985000  1.0
  I  I112  1  0.83349000  0.65381000  0.01213000  1.0
  I  I113  1  0.64648000  0.44176000  0.13121000  1.0
  I  I114  1  0.16451000  0.29208000  0.85632000  1.0
  I  I115  1  0.79527000  0.03616000  0.84199000  1.0
  I  I116  1  0.98643000  0.31439000  0.17586000  1.0
  I  I117  1  0.68756000  0.78610000  0.50347000  1.0
  Br  Br118  1  0.17504000  0.15384000  0.36922000  1.0
  Br  Br119  1  0.06344000  0.06373000  0.04511000  1.0
  Br  Br120  1  0.44760000  0.77699000  0.49900000  1.0
  Br  Br121  1  0.16411000  0.30353000  0.57354000  1.0
  Br  Br122  1  0.30469000  0.68863000  0.20553000  1.0
  Br  Br123  1  0.80730000  0.37296000  0.55277000  1.0
  Br  Br124  1  0.94333000  0.55651000  0.74244000  1.0
  Br  Br125  1  0.31025000  0.37577000  0.77798000  1.0
  Br  Br126  1  0.02568000  0.98599000  0.15957000  1.0
  Br  Br127  1  0.15018000  0.29769000  0.10592000  1.0
  N  N128  1  0.94951000  0.01140000  0.59141000  1.0
  N  N129  1  0.20493000  0.10610000  0.63805000  1.0
  N  N130  1  0.78580000  0.93100000  0.40907000  1.0
  N  N131  1  0.20715000  0.13950000  0.58899000  1.0
  N  N132  1  0.78664000  0.88892000  0.45096000  1.0
  N  N133  1  0.95659000  0.09694000  0.49784000  1.0
  N  N134  1  0.03391000  0.05556000  0.62646000  1.0
  N  N135  1  0.90869000  0.84956000  0.42135000  1.0
  N  N136  1  0.09352000  0.97762000  0.45751000  1.0
  N  N137  1  0.04214000  0.90821000  0.62243000  1.0
  N  N138  1  0.94921000  0.03690000  0.34839000  1.0
  N  N139  1  0.03375000  0.06929000  0.38089000  1.0
  N  N140  1  0.95662000  0.86721000  0.59022000  1.0
  N  N141  1  0.90714000  0.89133000  0.37984000  1.0
  N  N142  1  0.09372000  0.94363000  0.50549000  1.0
  N  N143  1  0.03943000  0.14221000  0.52055000  1.0
