# generated using pymatgen
data_ZnH22C24(NO)4
_symmetry_space_group_name_H-M   'P 1'
_cell_length_a   12.04280000
_cell_length_b   21.56170000
_cell_length_c   21.56710000
_cell_angle_alpha   116.61000000
_cell_angle_beta   100.73200000
_cell_angle_gamma   100.71500000
_symmetry_Int_Tables_number   1
_chemical_formula_structural   ZnH22C24(NO)4
_chemical_formula_sum   'Zn6 H132 C144 N24 O24'
_cell_volume   4682.47930894
_cell_formula_units_Z   6
loop_
 _symmetry_equiv_pos_site_id
 _symmetry_equiv_pos_as_xyz
  1  'x, y, z'
loop_
 _atom_site_type_symbol
 _atom_site_label
 _atom_site_symmetry_multiplicity
 _atom_site_fract_x
 _atom_site_fract_y
 _atom_site_fract_z
 _atom_site_occupancy
  Zn  Zn0  1  0.42118000  0.21808000  0.37779000  1.0
  Zn  Zn1  1  0.20340000  0.15984000  0.78180000  1.0
  Zn  Zn2  1  0.04361000  0.62207000  0.84017000  1.0
  Zn  Zn3  1  0.57882000  0.78192000  0.62221000  1.0
  Zn  Zn4  1  0.79661000  0.84016000  0.21820000  1.0
  Zn  Zn5  1  0.95639000  0.37793000  0.15982000  1.0
  H  H6  1  0.66423000  0.26151000  0.37141000  1.0
  H  H7  1  0.24606000  0.11365000  0.39226000  1.0
  H  H8  1  0.01019000  0.15693000  0.61046000  1.0
  H  H9  1  0.88943000  0.16448000  0.50787000  1.0
  H  H10  1  0.77199000  0.32910000  0.66049000  1.0
  H  H11  1  0.89866000  0.32381000  0.76274000  1.0
  H  H12  1  0.58627000  0.19423000  0.56874000  1.0
  H  H13  1  0.51124000  0.25650000  0.56582000  1.0
  H  H14  1  0.46132000  0.16555000  0.49241000  1.0
  H  H15  1  0.97105000  0.29888000  0.50615000  1.0
  H  H16  1  0.91422000  0.23921000  0.41035000  1.0
  H  H17  1  0.91470000  0.33114000  0.44763000  1.0
  H  H18  1  0.04295000  0.76687000  0.04349000  1.0
  H  H19  1  0.07041000  0.88333000  0.15461000  1.0
  H  H20  1  0.44998000  0.93576000  0.19486000  1.0
  H  H21  1  0.41970000  0.81872000  0.08265000  1.0
  H  H22  1  0.15166000  0.89981000  0.28525000  1.0
  H  H23  1  0.18349000  0.97174000  0.37603000  1.0
  H  H24  1  0.05918000  0.95631000  0.30635000  1.0
  H  H25  1  0.36059000  0.10070000  0.18508000  1.0
  H  H26  1  0.42241000  0.02857000  0.17095000  1.0
  H  H27  1  0.49715000  0.11778000  0.24658000  1.0
  H  H28  1  0.40302000  0.10989000  0.73840000  1.0
  H  H29  1  0.13244000  0.27861000  0.88633000  1.0
  H  H30  1  0.85369000  0.45371000  0.84309000  1.0
  H  H31  1  0.72547000  0.34357000  0.83567000  1.0
  H  H32  1  0.44359000  0.33123000  0.67073000  1.0
  H  H33  1  0.57526000  0.43888000  0.67605000  1.0
  H  H34  1  0.39248000  0.37460000  0.80566000  1.0
  H  H35  1  0.25529000  0.30934000  0.74338000  1.0
  H  H36  1  0.29629000  0.32684000  0.83430000  1.0
  H  H37  1  0.67268000  0.20702000  0.70100000  1.0
  H  H38  1  0.67543000  0.17087000  0.76069000  1.0
  H  H39  1  0.58386000  0.11632000  0.66881000  1.0
  H  H40  1  0.27602000  0.27661000  0.23301000  1.0
  H  H41  1  0.18707000  0.27111000  0.11645000  1.0
  H  H42  1  0.51429000  0.25892000  0.06412000  1.0
  H  H43  1  0.60110000  0.26403000  0.18133000  1.0
  H  H44  1  0.25173000  0.38524000  0.10013000  1.0
  H  H45  1  0.21166000  0.40419000  0.02826000  1.0
  H  H46  1  0.10278000  0.34989000  0.04365000  1.0
  H  H47  1  0.25975000  0.08423000  0.89923000  1.0
  H  H48  1  0.39363000  0.14223000  0.97136000  1.0
  H  H49  1  0.37931000  0.12859000  0.88215000  1.0
  H  H50  1  0.29312000  0.62857000  0.89009000  1.0
  H  H51  1  0.85382000  0.60775000  0.72142000  1.0
  H  H52  1  0.39994000  0.38934000  0.54635000  1.0
  H  H53  1  0.38211000  0.49200000  0.65657000  1.0
  H  H54  1  0.11217000  0.33950000  0.66877000  1.0
  H  H55  1  0.13606000  0.23720000  0.56107000  1.0
  H  H56  1  0.01790000  0.43117000  0.62548000  1.0
  H  H57  1  0.94597000  0.43413000  0.69074000  1.0
  H  H58  1  0.96955000  0.50760000  0.67328000  1.0
  H  H59  1  0.46563000  0.49396000  0.79300000  1.0
  H  H60  1  0.50453000  0.58979000  0.82914000  1.0
  H  H61  1  0.46754000  0.55246000  0.88370000  1.0
  H  H62  1  0.99955000  0.95658000  0.72336000  1.0
  H  H63  1  0.91594000  0.84552000  0.72882000  1.0
  H  H64  1  0.25515000  0.80508000  0.74092000  1.0
  H  H65  1  0.33701000  0.91718000  0.73582000  1.0
  H  H66  1  0.86621000  0.71478000  0.61463000  1.0
  H  H67  1  0.80734000  0.62401000  0.59587000  1.0
  H  H68  1  0.75268000  0.69372000  0.65006000  1.0
  H  H69  1  0.17553000  0.81492000  0.91562000  1.0
  H  H70  1  0.25145000  0.82908000  0.85763000  1.0
  H  H71  1  0.25059000  0.75341000  0.87119000  1.0
  H  H72  1  0.33577000  0.73848000  0.62859000  1.0
  H  H73  1  0.75394000  0.88635000  0.60774000  1.0
  H  H74  1  0.98982000  0.84307000  0.38954000  1.0
  H  H75  1  0.11058000  0.83552000  0.49212000  1.0
  H  H76  1  0.22801000  0.67090000  0.33951000  1.0
  H  H77  1  0.10134000  0.67618000  0.23726000  1.0
  H  H78  1  0.41373000  0.80577000  0.43126000  1.0
  H  H79  1  0.48876000  0.74350000  0.43418000  1.0
  H  H80  1  0.53869000  0.83445000  0.50760000  1.0
  H  H81  1  0.02895000  0.70112000  0.49385000  1.0
  H  H82  1  0.08578000  0.76079000  0.58966000  1.0
  H  H83  1  0.08530000  0.66886000  0.55237000  1.0
  H  H84  1  0.95704000  0.23314000  0.95650000  1.0
  H  H85  1  0.92959000  0.11667000  0.84539000  1.0
  H  H86  1  0.55001000  0.06423000  0.80514000  1.0
  H  H87  1  0.58029000  0.18128000  0.91735000  1.0
  H  H88  1  0.84834000  0.10018000  0.71475000  1.0
  H  H89  1  0.81651000  0.02825000  0.62397000  1.0
  H  H90  1  0.94081000  0.04369000  0.69366000  1.0
  H  H91  1  0.63941000  0.89929000  0.81492000  1.0
  H  H92  1  0.57759000  0.97142000  0.82905000  1.0
  H  H93  1  0.50285000  0.88222000  0.75343000  1.0
  H  H94  1  0.59698000  0.89012000  0.26160000  1.0
  H  H95  1  0.86756000  0.72139000  0.11367000  1.0
  H  H96  1  0.14631000  0.54630000  0.15690000  1.0
  H  H97  1  0.27453000  0.65643000  0.16433000  1.0
  H  H98  1  0.55641000  0.66876000  0.32927000  1.0
  H  H99  1  0.42474000  0.56112000  0.32394000  1.0
  H  H100  1  0.60752000  0.62540000  0.19434000  1.0
  H  H101  1  0.74471000  0.69066000  0.25662000  1.0
  H  H102  1  0.70371000  0.67316000  0.16570000  1.0
  H  H103  1  0.32732000  0.79298000  0.29900000  1.0
  H  H104  1  0.32457000  0.82913000  0.23931000  1.0
  H  H105  1  0.41615000  0.88369000  0.33119000  1.0
  H  H106  1  0.72398000  0.72339000  0.76699000  1.0
  H  H107  1  0.81293000  0.72889000  0.88355000  1.0
  H  H108  1  0.48571000  0.74108000  0.93588000  1.0
  H  H109  1  0.39890000  0.73597000  0.81867000  1.0
  H  H110  1  0.74827000  0.61476000  0.89987000  1.0
  H  H111  1  0.78833000  0.59582000  0.97174000  1.0
  H  H112  1  0.89721000  0.65011000  0.95635000  1.0
  H  H113  1  0.74025000  0.91577000  0.10077000  1.0
  H  H114  1  0.60637000  0.85778000  0.02864000  1.0
  H  H115  1  0.62069000  0.87141000  0.11785000  1.0
  H  H116  1  0.70688000  0.37143000  0.10991000  1.0
  H  H117  1  0.14618000  0.39225000  0.27858000  1.0
  H  H118  1  0.60006000  0.61066000  0.45365000  1.0
  H  H119  1  0.61789000  0.50800000  0.34343000  1.0
  H  H120  1  0.88783000  0.66050000  0.33123000  1.0
  H  H121  1  0.86394000  0.76280000  0.43893000  1.0
  H  H122  1  0.98210000  0.56883000  0.37452000  1.0
  H  H123  1  0.05403000  0.56587000  0.30926000  1.0
  H  H124  1  0.03046000  0.49240000  0.32672000  1.0
  H  H125  1  0.53437000  0.50604000  0.20700000  1.0
  H  H126  1  0.49547000  0.41021000  0.17087000  1.0
  H  H127  1  0.53246000  0.44754000  0.11630000  1.0
  H  H128  1  0.00044000  0.04342000  0.27665000  1.0
  H  H129  1  0.08406000  0.15449000  0.27118000  1.0
  H  H130  1  0.74484000  0.19492000  0.25908000  1.0
  H  H131  1  0.66299000  0.08283000  0.26418000  1.0
  H  H132  1  0.13379000  0.28522000  0.38537000  1.0
  H  H133  1  0.19266000  0.37599000  0.40413000  1.0
  H  H134  1  0.24733000  0.30628000  0.34994000  1.0
  H  H135  1  0.82447000  0.18508000  0.08438000  1.0
  H  H136  1  0.74856000  0.17092000  0.14237000  1.0
  H  H137  1  0.74941000  0.24659000  0.12881000  1.0
  C  C138  1  0.82335000  0.24764000  0.57733000  1.0
  C  C139  1  0.03550000  0.23507000  0.75331000  1.0
  C  C140  1  0.96134000  0.23985000  0.69258000  1.0
  C  C141  1  0.95867000  0.19499000  0.62065000  1.0
  C  C142  1  0.89159000  0.19949000  0.56380000  1.0
  C  C143  1  0.82509000  0.29177000  0.64943000  1.0
  C  C144  1  0.89492000  0.28870000  0.70662000  1.0
  C  C145  1  0.74806000  0.24912000  0.51648000  1.0
  C  C146  1  0.62315000  0.23213000  0.49672000  1.0
  C  C147  1  0.78220000  0.26356000  0.46427000  1.0
  C  C148  1  0.54089000  0.21080000  0.53245000  1.0
  C  C149  1  0.90185000  0.28442000  0.45674000  1.0
  C  C150  1  0.21188000  0.71979000  0.98439000  1.0
  C  C151  1  0.22965000  0.78607000  0.05559000  1.0
  C  C152  1  0.13181000  0.80396000  0.07724000  1.0
  C  C153  1  0.14763000  0.86923000  0.13961000  1.0
  C  C154  1  0.26195000  0.91877000  0.18183000  1.0
  C  C155  1  0.36027000  0.89933000  0.16133000  1.0
  C  C156  1  0.34411000  0.83375000  0.09911000  1.0
  C  C157  1  0.27795000  0.99012000  0.24423000  1.0
  C  C158  1  0.22822000  0.00544000  0.30163000  1.0
  C  C159  1  0.34375000  0.05876000  0.25728000  1.0
  C  C160  1  0.15184000  0.95599000  0.31831000  1.0
  C  C161  1  0.40969000  0.07720000  0.21266000  1.0
  C  C162  1  0.57641000  0.32968000  0.75230000  1.0
  C  C163  1  0.80067000  0.51831000  0.76484000  1.0
  C  C164  1  0.72196000  0.45273000  0.76003000  1.0
  C  C165  1  0.76416000  0.42572000  0.80497000  1.0
  C  C166  1  0.69269000  0.36439000  0.80053000  1.0
  C  C167  1  0.53400000  0.35755000  0.70806000  1.0
  C  C168  1  0.60674000  0.41785000  0.71113000  1.0
  C  C169  1  0.49963000  0.26736000  0.75086000  1.0
  C  C170  1  0.39165000  0.26464000  0.76778000  1.0
  C  C171  1  0.51922000  0.20067000  0.73644000  1.0
  C  C172  1  0.33064000  0.32170000  0.78907000  1.0
  C  C173  1  0.61789000  0.17214000  0.71552000  1.0
  C  C174  1  0.49209000  0.26467000  0.28017000  1.0
  C  C175  1  0.44356000  0.26951000  0.21385000  1.0
  C  C176  1  0.32777000  0.27318000  0.19589000  1.0
  C  C177  1  0.27837000  0.27020000  0.13058000  1.0
  C  C178  1  0.34318000  0.26283000  0.08105000  1.0
  C  C179  1  0.46098000  0.26182000  0.10054000  1.0
  C  C180  1  0.51040000  0.26532000  0.16619000  1.0
  C  C181  1  0.28777000  0.25392000  0.00973000  1.0
  C  C182  1  0.22274000  0.29607000  0.99449000  1.0
  C  C183  1  0.28493000  0.19839000  0.94109000  1.0
  C  C184  1  0.19577000  0.36218000  0.04397000  1.0
  C  C185  1  0.33237000  0.13529000  0.92270000  1.0
  C  C186  1  0.24678000  0.42260000  0.67043000  1.0
  C  C187  1  0.28214000  0.24654000  0.48167000  1.0
  C  C188  1  0.26901000  0.30729000  0.54725000  1.0
  C  C189  1  0.33840000  0.37920000  0.57433000  1.0
  C  C190  1  0.32842000  0.43608000  0.63574000  1.0
  C  C191  1  0.17632000  0.35051000  0.64248000  1.0
  C  C192  1  0.18863000  0.29329000  0.58213000  1.0
  C  C193  1  0.23230000  0.48350000  0.73270000  1.0
  C  C194  1  0.12704000  0.50317000  0.73541000  1.0
  C  C195  1  0.31854000  0.53578000  0.79937000  1.0
  C  C196  1  0.00899000  0.46746000  0.67838000  1.0
  C  C197  1  0.44573000  0.54336000  0.82789000  1.0
  C  C198  1  0.22749000  0.01553000  0.73521000  1.0
  C  C199  1  0.17408000  0.94434000  0.73033000  1.0
  C  C200  1  0.05464000  0.92280000  0.72669000  1.0
  C  C201  1  0.00810000  0.86046000  0.72966000  1.0
  C  C202  1  0.08019000  0.81821000  0.73699000  1.0
  C  C203  1  0.19895000  0.83861000  0.73795000  1.0
  C  C204  1  0.24498000  0.90077000  0.73448000  1.0
  C  C205  1  0.03367000  0.75584000  0.74597000  1.0
  C  C206  1  0.92650000  0.69846000  0.70391000  1.0
  C  C207  1  0.08646000  0.74274000  0.80151000  1.0
  C  C208  1  0.83340000  0.68176000  0.63779000  1.0
  C  C209  1  0.19704000  0.78735000  0.86454000  1.0
  C  C210  1  0.17665000  0.75236000  0.42267000  1.0
  C  C211  1  0.96449000  0.76493000  0.24669000  1.0
  C  C212  1  0.03865000  0.76014000  0.30742000  1.0
  C  C213  1  0.04133000  0.80501000  0.37935000  1.0
  C  C214  1  0.10842000  0.80051000  0.43620000  1.0
  C  C215  1  0.17491000  0.70823000  0.35057000  1.0
  C  C216  1  0.10508000  0.71130000  0.29338000  1.0
  C  C217  1  0.25194000  0.75088000  0.48352000  1.0
  C  C218  1  0.37685000  0.76787000  0.50328000  1.0
  C  C219  1  0.21780000  0.73644000  0.53573000  1.0
  C  C220  1  0.45911000  0.78920000  0.46755000  1.0
  C  C221  1  0.09815000  0.71558000  0.54326000  1.0
  C  C222  1  0.78810000  0.28021000  0.01561000  1.0
  C  C223  1  0.77035000  0.21393000  0.94441000  1.0
  C  C224  1  0.86819000  0.19604000  0.92276000  1.0
  C  C225  1  0.85237000  0.13077000  0.86039000  1.0
  C  C226  1  0.73804000  0.08123000  0.81817000  1.0
  C  C227  1  0.63973000  0.10067000  0.83867000  1.0
  C  C228  1  0.65588000  0.16624000  0.90089000  1.0
  C  C229  1  0.72205000  0.00988000  0.75577000  1.0
  C  C230  1  0.77178000  0.99456000  0.69837000  1.0
  C  C231  1  0.65625000  0.94124000  0.74272000  1.0
  C  C232  1  0.84816000  0.04401000  0.68169000  1.0
  C  C233  1  0.59031000  0.92280000  0.78734000  1.0
  C  C234  1  0.42359000  0.67032000  0.24770000  1.0
  C  C235  1  0.19933000  0.48169000  0.23515000  1.0
  C  C236  1  0.27804000  0.54727000  0.23996000  1.0
  C  C237  1  0.23584000  0.57428000  0.19503000  1.0
  C  C238  1  0.30731000  0.63561000  0.19947000  1.0
  C  C239  1  0.46600000  0.64244000  0.29194000  1.0
  C  C240  1  0.39326000  0.58215000  0.28886000  1.0
  C  C241  1  0.50038000  0.73264000  0.24914000  1.0
  C  C242  1  0.60835000  0.73536000  0.23222000  1.0
  C  C243  1  0.48079000  0.79933000  0.26357000  1.0
  C  C244  1  0.66936000  0.67830000  0.21093000  1.0
  C  C245  1  0.38211000  0.82786000  0.28448000  1.0
  C  C246  1  0.50791000  0.73533000  0.71983000  1.0
  C  C247  1  0.55644000  0.73049000  0.78615000  1.0
  C  C248  1  0.67222000  0.72682000  0.80411000  1.0
  C  C249  1  0.72163000  0.72980000  0.86943000  1.0
  C  C250  1  0.65682000  0.73718000  0.91895000  1.0
  C  C251  1  0.53902000  0.73818000  0.89947000  1.0
  C  C252  1  0.48960000  0.73468000  0.83381000  1.0
  C  C253  1  0.71223000  0.74609000  0.99027000  1.0
  C  C254  1  0.77725000  0.70393000  0.00551000  1.0
  C  C255  1  0.71507000  0.80162000  0.05892000  1.0
  C  C256  1  0.80423000  0.63783000  0.95603000  1.0
  C  C257  1  0.66763000  0.86471000  0.07730000  1.0
  C  C258  1  0.75322000  0.57740000  0.32957000  1.0
  C  C259  1  0.71786000  0.75346000  0.51834000  1.0
  C  C260  1  0.73100000  0.69271000  0.45275000  1.0
  C  C261  1  0.66160000  0.62080000  0.42567000  1.0
  C  C262  1  0.67158000  0.56392000  0.36426000  1.0
  C  C263  1  0.82368000  0.64948000  0.35752000  1.0
  C  C264  1  0.81137000  0.70671000  0.41787000  1.0
  C  C265  1  0.76770000  0.51650000  0.26730000  1.0
  C  C266  1  0.87296000  0.49683000  0.26458000  1.0
  C  C267  1  0.68146000  0.46422000  0.20062000  1.0
  C  C268  1  0.99101000  0.53254000  0.32162000  1.0
  C  C269  1  0.55427000  0.45664000  0.17211000  1.0
  C  C270  1  0.77251000  0.98448000  0.26480000  1.0
  C  C271  1  0.82592000  0.05566000  0.26967000  1.0
  C  C272  1  0.94536000  0.07721000  0.27331000  1.0
  C  C273  1  0.99190000  0.13955000  0.27034000  1.0
  C  C274  1  0.91981000  0.18180000  0.26301000  1.0
  C  C275  1  0.80105000  0.16139000  0.26204000  1.0
  C  C276  1  0.75502000  0.09924000  0.26552000  1.0
  C  C277  1  0.96633000  0.24417000  0.25403000  1.0
  C  C278  1  0.07351000  0.30154000  0.29609000  1.0
  C  C279  1  0.91354000  0.25726000  0.19849000  1.0
  C  C280  1  0.16661000  0.31824000  0.36221000  1.0
  C  C281  1  0.80297000  0.21265000  0.13546000  1.0
  N  N282  1  0.58469000  0.23617000  0.43634000  1.0
  N  N283  1  0.68140000  0.25562000  0.41780000  1.0
  N  N284  1  0.26469000  0.07856000  0.34468000  1.0
  N  N285  1  0.33392000  0.11156000  0.31838000  1.0
  N  N286  1  0.34903000  0.20024000  0.76375000  1.0
  N  N287  1  0.42627000  0.16219000  0.74435000  1.0
  N  N288  1  0.18617000  0.26609000  0.92137000  1.0
  N  N289  1  0.22240000  0.20679000  0.88833000  1.0
  N  N290  1  0.14879000  0.56355000  0.79979000  1.0
  N  N291  1  0.26405000  0.58217000  0.83783000  1.0
  N  N292  1  0.91999000  0.65537000  0.73395000  1.0
  N  N293  1  0.01557000  0.68161000  0.79319000  1.0
  N  N294  1  0.41531000  0.76383000  0.56366000  1.0
  N  N295  1  0.31859000  0.74438000  0.58220000  1.0
  N  N296  1  0.73531000  0.92144000  0.65533000  1.0
  N  N297  1  0.66608000  0.88844000  0.68162000  1.0
  N  N298  1  0.65097000  0.79976000  0.23625000  1.0
  N  N299  1  0.57373000  0.83781000  0.25565000  1.0
  N  N300  1  0.81383000  0.73391000  0.07863000  1.0
  N  N301  1  0.77760000  0.79322000  0.11168000  1.0
  N  N302  1  0.85121000  0.43645000  0.20021000  1.0
  N  N303  1  0.73595000  0.41783000  0.16217000  1.0
  N  N304  1  0.08002000  0.34463000  0.26605000  1.0
  N  N305  1  0.98444000  0.31839000  0.20681000  1.0
  O  O306  1  0.07791000  0.18089000  0.73139000  1.0
  O  O307  1  0.05180000  0.28179000  0.81858000  1.0
  O  O308  1  0.10200000  0.68360000  0.94575000  1.0
  O  O309  1  0.30076000  0.70485000  0.96532000  1.0
  O  O310  1  0.89697000  0.55075000  0.81919000  1.0
  O  O311  1  0.77033000  0.53675000  0.71802000  1.0
  O  O312  1  0.41832000  0.26218000  0.31632000  1.0
  O  O313  1  0.59594000  0.26063000  0.29518000  1.0
  O  O314  1  0.34616000  0.26845000  0.44928000  1.0
  O  O315  1  0.23328000  0.18128000  0.46319000  1.0
  O  O316  1  0.15631000  0.05425000  0.73779000  1.0
  O  O317  1  0.33537000  0.03452000  0.73919000  1.0
  O  O318  1  0.92209000  0.81911000  0.26861000  1.0
  O  O319  1  0.94820000  0.71821000  0.18142000  1.0
  O  O320  1  0.89799000  0.31640000  0.05425000  1.0
  O  O321  1  0.69924000  0.29516000  0.03468000  1.0
  O  O322  1  0.10302000  0.44925000  0.18080000  1.0
  O  O323  1  0.22967000  0.46325000  0.28198000  1.0
  O  O324  1  0.58168000  0.73781000  0.68368000  1.0
  O  O325  1  0.40406000  0.73937000  0.70482000  1.0
  O  O326  1  0.65385000  0.73155000  0.55072000  1.0
  O  O327  1  0.76672000  0.81872000  0.53682000  1.0
  O  O328  1  0.84369000  0.94575000  0.26221000  1.0
  O  O329  1  0.66463000  0.96549000  0.26081000  1.0
