# generated using pymatgen
data_ZnH3C13(NO2)2
_symmetry_space_group_name_H-M   'P 1'
_cell_length_a   17.05180000
_cell_length_b   17.07660000
_cell_length_c   17.10340000
_cell_angle_alpha   65.97080000
_cell_angle_beta   66.09250000
_cell_angle_gamma   66.19950000
_symmetry_Int_Tables_number   1
_chemical_formula_structural   ZnH3C13(NO2)2
_chemical_formula_sum   'Zn6 H18 C78 N12 O24'
_cell_volume   3985.11656469
_cell_formula_units_Z   6
loop_
 _symmetry_equiv_pos_site_id
 _symmetry_equiv_pos_as_xyz
  1  'x, y, z'
loop_
 _atom_site_type_symbol
 _atom_site_label
 _atom_site_symmetry_multiplicity
 _atom_site_fract_x
 _atom_site_fract_y
 _atom_site_fract_z
 _atom_site_occupancy
  Zn  Zn0  1  0.57721000  0.00003000  0.99986000  1.0
  Zn  Zn1  1  0.42277000  0.99998000  0.00014000  1.0
  Zn  Zn2  1  0.00021000  0.00005000  0.57677000  1.0
  Zn  Zn3  1  0.99978000  0.99995000  0.42323000  1.0
  Zn  Zn4  1  0.00031000  0.57705000  0.99970000  1.0
  Zn  Zn5  1  0.99968000  0.42295000  0.00030000  1.0
  H  H6  1  0.63566000  0.53863000  0.88450000  1.0
  H  H7  1  0.14234000  0.44124000  0.54029000  1.0
  H  H8  1  0.36622000  0.11663000  0.45905000  1.0
  H  H9  1  0.63378000  0.88337000  0.54095000  1.0
  H  H10  1  0.72860000  0.72879000  0.02549000  1.0
  H  H11  1  0.27139000  0.27121000  0.97451000  1.0
  H  H12  1  0.72842000  0.02541000  0.72856000  1.0
  H  H13  1  0.27157000  0.97460000  0.27145000  1.0
  H  H14  1  0.02567000  0.72816000  0.72820000  1.0
  H  H15  1  0.97434000  0.27183000  0.27179000  1.0
  H  H16  1  0.36433000  0.46138000  0.11549000  1.0
  H  H17  1  0.44291000  0.14337000  0.53741000  1.0
  H  H18  1  0.55710000  0.85663000  0.46259000  1.0
  H  H19  1  0.88475000  0.63566000  0.53743000  1.0
  H  H20  1  0.11525000  0.36435000  0.46257000  1.0
  H  H21  1  0.55850000  0.46081000  0.85755000  1.0
  H  H22  1  0.44150000  0.53919000  0.14245000  1.0
  H  H23  1  0.85765000  0.55876000  0.45972000  1.0
  C  C24  1  0.59178000  0.59267000  0.02663000  1.0
  C  C25  1  0.02261000  0.82891000  0.56311000  1.0
  C  C26  1  0.17080000  0.43600000  0.97792000  1.0
  C  C27  1  0.82919000  0.56401000  0.02208000  1.0
  C  C28  1  0.02263000  0.56310000  0.82913000  1.0
  C  C29  1  0.97736000  0.43691000  0.17087000  1.0
  C  C30  1  0.82914000  0.02184000  0.56385000  1.0
  C  C31  1  0.17085000  0.97817000  0.43617000  1.0
  C  C32  1  0.56366000  0.82927000  0.02272000  1.0
  C  C33  1  0.43633000  0.17074000  0.97729000  1.0
  C  C34  1  0.54395000  0.54410000  0.01512000  1.0
  C  C35  1  0.40821000  0.40734000  0.97337000  1.0
  C  C36  1  0.45605000  0.45590000  0.98487000  1.0
  C  C37  1  0.54370000  0.01498000  0.54440000  1.0
  C  C38  1  0.45630000  0.98501000  0.45560000  1.0
  C  C39  1  0.01521000  0.54387000  0.54406000  1.0
  C  C40  1  0.98479000  0.45613000  0.45594000  1.0
  C  C41  1  0.46732000  0.52221000  0.07997000  1.0
  C  C42  1  0.53268000  0.47779000  0.92002000  1.0
  C  C43  1  0.57509000  0.93463000  0.52272000  1.0
  C  C44  1  0.42492000  0.06536000  0.47728000  1.0
  C  C45  1  0.07989000  0.46720000  0.52282000  1.0
  C  C46  1  0.59150000  0.02654000  0.59291000  1.0
  C  C47  1  0.92011000  0.53280000  0.47718000  1.0
  C  C48  1  0.42389000  0.47851000  0.06475000  1.0
  C  C49  1  0.57611000  0.52149000  0.93525000  1.0
  C  C50  1  0.06458000  0.42390000  0.47919000  1.0
  C  C51  1  0.93542000  0.57610000  0.52082000  1.0
  C  C52  1  0.53193000  0.91955000  0.47871000  1.0
  C  C53  1  0.46807000  0.08045000  0.52129000  1.0
  C  C54  1  0.68180000  0.55140000  0.02877000  1.0
  C  C55  1  0.31819000  0.44861000  0.97122000  1.0
  C  C56  1  0.55006000  0.02957000  0.68244000  1.0
  C  C57  1  0.40849000  0.97346000  0.40710000  1.0
  C  C58  1  0.44993000  0.97043000  0.31757000  1.0
  C  C59  1  0.02931000  0.68152000  0.55107000  1.0
  C  C60  1  0.97069000  0.31847000  0.44893000  1.0
  C  C61  1  0.44950000  0.31758000  0.97082000  1.0
  C  C62  1  0.55049000  0.68242000  0.02918000  1.0
  C  C63  1  0.97103000  0.44969000  0.31753000  1.0
  C  C64  1  0.02896000  0.55031000  0.68248000  1.0
  C  C65  1  0.31826000  0.97174000  0.44834000  1.0
  C  C66  1  0.68174000  0.02826000  0.55166000  1.0
  C  C67  1  0.73151000  0.60123000  0.02782000  1.0
  C  C68  1  0.02676000  0.59158000  0.59257000  1.0
  C  C69  1  0.26848000  0.39877000  0.97217000  1.0
  C  C70  1  0.60028000  0.02872000  0.73160000  1.0
  C  C71  1  0.39971000  0.97129000  0.26841000  1.0
  C  C72  1  0.02829000  0.73119000  0.60070000  1.0
  C  C73  1  0.97173000  0.26880000  0.39929000  1.0
  C  C74  1  0.39938000  0.26835000  0.97140000  1.0
  C  C75  1  0.60061000  0.73165000  0.02860000  1.0
  C  C76  1  0.97150000  0.39973000  0.26849000  1.0
  C  C77  1  0.02850000  0.60027000  0.73151000  1.0
  C  C78  1  0.26859000  0.97245000  0.39877000  1.0
  C  C79  1  0.97324000  0.40842000  0.40743000  1.0
  C  C80  1  0.73140000  0.02756000  0.60124000  1.0
  C  C81  1  0.68998000  0.69023000  0.02750000  1.0
  C  C82  1  0.31001000  0.30977000  0.97249000  1.0
  C  C83  1  0.68977000  0.02744000  0.69014000  1.0
  C  C84  1  0.31022000  0.97257000  0.30987000  1.0
  C  C85  1  0.02767000  0.68961000  0.68982000  1.0
  C  C86  1  0.97234000  0.31039000  0.31017000  1.0
  C  C87  1  0.71778000  0.45827000  0.03473000  1.0
  C  C88  1  0.28221000  0.54174000  0.96525000  1.0
  C  C89  1  0.45749000  0.03253000  0.71995000  1.0
  C  C90  1  0.43675000  0.97724000  0.17082000  1.0
  C  C91  1  0.54250000  0.96747000  0.28005000  1.0
  C  C92  1  0.03594000  0.71744000  0.45779000  1.0
  C  C93  1  0.96405000  0.28255000  0.54221000  1.0
  C  C94  1  0.54174000  0.27984000  0.96887000  1.0
  C  C95  1  0.45825000  0.72017000  0.03113000  1.0
  C  C96  1  0.96929000  0.54190000  0.27948000  1.0
  C  C97  1  0.03067000  0.45811000  0.72053000  1.0
  C  C98  1  0.28201000  0.96657000  0.54123000  1.0
  C  C99  1  0.71798000  0.03343000  0.45877000  1.0
  C  C100  1  0.56324000  0.02277000  0.82919000  1.0
  C  C101  1  0.97740000  0.17109000  0.43688000  1.0
  N  N102  1  0.74040000  0.38161000  0.04341000  1.0
  N  N103  1  0.03497000  0.38228000  0.74472000  1.0
  N  N104  1  0.25928000  0.95871000  0.61765000  1.0
  N  N105  1  0.74072000  0.04129000  0.38235000  1.0
  N  N106  1  0.25960000  0.61840000  0.95657000  1.0
  N  N107  1  0.38129000  0.03825000  0.74354000  1.0
  N  N108  1  0.61870000  0.96174000  0.25646000  1.0
  N  N109  1  0.04551000  0.73962000  0.38102000  1.0
  N  N110  1  0.95447000  0.26036000  0.61898000  1.0
  N  N111  1  0.61763000  0.25562000  0.96439000  1.0
  N  N112  1  0.38236000  0.74438000  0.03561000  1.0
  N  N113  1  0.96496000  0.61774000  0.25529000  1.0
  O  O114  1  0.51734000  0.98023000  0.13259000  1.0
  O  O115  1  0.13285000  0.98141000  0.51645000  1.0
  O  O116  1  0.48305000  0.86739000  0.01999000  1.0
  O  O117  1  0.51693000  0.13262000  0.98001000  1.0
  O  O118  1  0.61714000  0.86664000  0.01887000  1.0
  O  O119  1  0.38284000  0.13337000  0.98113000  1.0
  O  O120  1  0.86670000  0.01859000  0.61670000  1.0
  O  O121  1  0.13328000  0.98143000  0.38331000  1.0
  O  O122  1  0.01910000  0.61637000  0.86627000  1.0
  O  O123  1  0.98085000  0.38365000  0.13375000  1.0
  O  O124  1  0.13322000  0.38285000  0.98150000  1.0
  O  O125  1  0.48264000  0.01978000  0.86741000  1.0
  O  O126  1  0.86675000  0.61713000  0.01856000  1.0
  O  O127  1  0.98068000  0.13362000  0.38405000  1.0
  O  O128  1  0.01931000  0.86639000  0.61593000  1.0
  O  O129  1  0.38330000  0.98094000  0.13363000  1.0
  O  O130  1  0.61668000  0.01907000  0.86637000  1.0
  O  O131  1  0.98070000  0.13305000  0.51722000  1.0
  O  O132  1  0.01931000  0.86695000  0.48277000  1.0
  O  O133  1  0.13283000  0.51642000  0.98087000  1.0
  O  O134  1  0.86718000  0.48359000  0.01908000  1.0
  O  O135  1  0.01966000  0.48254000  0.86740000  1.0
  O  O136  1  0.98038000  0.51745000  0.13260000  1.0
  O  O137  1  0.86715000  0.01860000  0.48356000  1.0
