# generated using pymatgen
data_YH15C11O6
_symmetry_space_group_name_H-M   'P 1'
_cell_length_a   8.15456000
_cell_length_b   10.69200000
_cell_length_c   14.76660000
_cell_angle_alpha   89.99990000
_cell_angle_beta   90.00020000
_cell_angle_gamma   90.00000000
_symmetry_Int_Tables_number   1
_chemical_formula_structural   YH15C11O6
_chemical_formula_sum   'Y4 H60 C44 O24'
_cell_volume   1287.47852393
_cell_formula_units_Z   4
loop_
 _symmetry_equiv_pos_site_id
 _symmetry_equiv_pos_as_xyz
  1  'x, y, z'
loop_
 _atom_site_type_symbol
 _atom_site_label
 _atom_site_symmetry_multiplicity
 _atom_site_fract_x
 _atom_site_fract_y
 _atom_site_fract_z
 _atom_site_occupancy
  Y  Y0  1  0.92129000  0.69945000  0.49801000  1.0
  Y  Y1  1  0.57870000  0.30055000  0.99801000  1.0
  Y  Y2  1  0.07870000  0.19945000  0.00198000  1.0
  Y  Y3  1  0.42130000  0.80055000  0.50199000  1.0
  H  H4  1  0.72726000  0.67107000  0.19657000  1.0
  H  H5  1  0.77273000  0.32893000  0.69657000  1.0
  H  H6  1  0.27274000  0.17107000  0.30343000  1.0
  H  H7  1  0.22726000  0.82893000  0.80343000  1.0
  H  H8  1  0.40682000  0.79278000  0.22992000  1.0
  H  H9  1  0.09317000  0.20722000  0.72993000  1.0
  H  H10  1  0.59318000  0.29278000  0.27007000  1.0
  H  H11  1  0.90682000  0.70723000  0.77008000  1.0
  H  H12  1  0.46780000  0.69463000  0.13991000  1.0
  H  H13  1  0.03219000  0.30537000  0.63992000  1.0
  H  H14  1  0.53220000  0.19463000  0.36008000  1.0
  H  H15  1  0.96781000  0.80537000  0.86009000  1.0
  H  H16  1  0.64664000  0.01654000  0.26027000  1.0
  H  H17  1  0.85336000  0.98346000  0.76027000  1.0
  H  H18  1  0.35336000  0.51654000  0.23973000  1.0
  H  H19  1  0.14664000  0.48346000  0.73973000  1.0
  H  H20  1  0.85027000  0.05913000  0.22837000  1.0
  H  H21  1  0.64973000  0.94088000  0.72838000  1.0
  H  H22  1  0.14972000  0.55913000  0.27163000  1.0
  H  H23  1  0.35027000  0.44087000  0.77163000  1.0
  H  H24  1  0.81621000  0.95837000  0.32172000  1.0
  H  H25  1  0.68379000  0.04164000  0.82172000  1.0
  H  H26  1  0.18378000  0.45837000  0.17828000  1.0
  H  H27  1  0.31621000  0.54163000  0.67828000  1.0
  H  H28  1  0.55774000  0.51196000  0.60684000  1.0
  H  H29  1  0.94226000  0.48805000  0.10683000  1.0
  H  H30  1  0.44226000  0.01196000  0.89315000  1.0
  H  H31  1  0.05774000  0.98804000  0.39316000  1.0
  H  H32  1  0.00887000  0.80179000  0.25331000  1.0
  H  H33  1  0.49113000  0.19821000  0.75331000  1.0
  H  H34  1  0.99112000  0.30180000  0.24670000  1.0
  H  H35  1  0.50887000  0.69820000  0.74669000  1.0
  H  H36  1  0.04343000  0.90229000  0.15873000  1.0
  H  H37  1  0.45658000  0.09771000  0.65873000  1.0
  H  H38  1  0.95658000  0.40229000  0.34127000  1.0
  H  H39  1  0.54342000  0.59771000  0.84127000  1.0
  H  H40  1  0.98037000  0.74460000  0.14203000  1.0
  H  H41  1  0.51963000  0.25540000  0.64202000  1.0
  H  H42  1  0.01963000  0.24460000  0.35797000  1.0
  H  H43  1  0.48037000  0.75540000  0.85797000  1.0
  H  H44  1  0.44598000  0.88458000  0.05439000  1.0
  H  H45  1  0.05402000  0.11542000  0.55440000  1.0
  H  H46  1  0.55402000  0.38458000  0.44561000  1.0
  H  H47  1  0.94598000  0.61542000  0.94561000  1.0
  H  H48  1  0.47815000  0.97830000  0.15030000  1.0
  H  H49  1  0.02186000  0.02170000  0.65031000  1.0
  H  H50  1  0.52186000  0.47830000  0.34970000  1.0
  H  H51  1  0.97814000  0.52170000  0.84970000  1.0
  H  H52  1  0.88297000  0.80966000  0.00711000  1.0
  H  H53  1  0.61703000  0.19034000  0.50711000  1.0
  H  H54  1  0.11703000  0.30966000  0.49288000  1.0
  H  H55  1  0.38298000  0.69034000  0.99289000  1.0
  H  H56  1  0.68553000  0.82666000  0.95861000  1.0
  H  H57  1  0.81447000  0.17334000  0.45861000  1.0
  H  H58  1  0.31448000  0.32666000  0.54138000  1.0
  H  H59  1  0.18553000  0.67334000  0.04139000  1.0
  H  H60  1  0.71927000  0.70956000  0.04164000  1.0
  H  H61  1  0.78073000  0.29044000  0.54164000  1.0
  H  H62  1  0.28074000  0.20956000  0.45836000  1.0
  H  H63  1  0.21927000  0.79044000  0.95836000  1.0
  C  C64  1  0.67149000  0.74719000  0.32415000  1.0
  C  C65  1  0.82850000  0.25281000  0.82415000  1.0
  C  C66  1  0.32851000  0.24719000  0.17585000  1.0
  C  C67  1  0.17148000  0.75280000  0.67585000  1.0
  C  C68  1  0.67175000  0.75782000  0.22222000  1.0
  C  C69  1  0.82824000  0.24218000  0.72222000  1.0
  C  C70  1  0.32825000  0.25783000  0.27778000  1.0
  C  C71  1  0.17175000  0.74217000  0.77778000  1.0
  C  C72  1  0.50192000  0.77846000  0.17849000  1.0
  C  C73  1  0.99808000  0.22154000  0.67849000  1.0
  C  C74  1  0.49809000  0.27846000  0.32151000  1.0
  C  C75  1  0.00192000  0.72155000  0.82152000  1.0
  C  C76  1  0.77293000  0.98240000  0.25338000  1.0
  C  C77  1  0.72707000  0.01760000  0.75338000  1.0
  C  C78  1  0.22707000  0.48241000  0.24662000  1.0
  C  C79  1  0.27292000  0.51759000  0.74662000  1.0
  C  C80  1  0.66188000  0.56496000  0.57833000  1.0
  C  C81  1  0.83813000  0.43505000  0.07833000  1.0
  C  C82  1  0.33813000  0.06496000  0.92166000  1.0
  C  C83  1  0.16188000  0.93503000  0.42166000  1.0
  C  C84  1  0.78587000  0.86879000  0.18980000  1.0
  C  C85  1  0.71412000  0.13121000  0.68980000  1.0
  C  C86  1  0.21413000  0.36879000  0.31020000  1.0
  C  C87  1  0.28587000  0.63121000  0.81020000  1.0
  C  C88  1  0.96530000  0.82723000  0.18535000  1.0
  C  C89  1  0.53470000  0.17277000  0.68535000  1.0
  C  C90  1  0.03470000  0.32723000  0.31465000  1.0
  C  C91  1  0.46530000  0.67277000  0.81465000  1.0
  C  C92  1  0.51965000  0.89271000  0.11616000  1.0
  C  C93  1  0.98035000  0.10729000  0.61617000  1.0
  C  C94  1  0.48036000  0.39271000  0.38383000  1.0
  C  C95  1  0.01964000  0.60729000  0.88384000  1.0
  C  C96  1  0.70446000  0.90078000  0.09568000  1.0
  C  C97  1  0.79554000  0.09922000  0.59568000  1.0
  C  C98  1  0.29555000  0.40078000  0.40432000  1.0
  C  C99  1  0.20446000  0.59922000  0.90432000  1.0
  C  C100  1  0.75136000  0.80539000  0.02172000  1.0
  C  C101  1  0.74863000  0.19461000  0.52172000  1.0
  C  C102  1  0.24864000  0.30539000  0.47828000  1.0
  C  C103  1  0.25137000  0.69461000  0.97828000  1.0
  C  C104  1  0.75662000  0.02679000  0.05727000  1.0
  C  C105  1  0.74338000  0.97321000  0.55727000  1.0
  C  C106  1  0.24339000  0.52679000  0.44274000  1.0
  C  C107  1  0.25661000  0.47321000  0.94274000  1.0
  O  O108  1  0.79683000  0.69801000  0.36215000  1.0
  O  O109  1  0.70317000  0.30199000  0.86215000  1.0
  O  O110  1  0.20318000  0.19801000  0.13785000  1.0
  O  O111  1  0.29682000  0.80198000  0.63785000  1.0
  O  O112  1  0.64187000  0.68258000  0.56172000  1.0
  O  O113  1  0.85813000  0.31743000  0.06172000  1.0
  O  O114  1  0.35813000  0.18258000  0.93828000  1.0
  O  O115  1  0.14187000  0.81742000  0.43828000  1.0
  O  O116  1  0.79664000  0.51212000  0.56303000  1.0
  O  O117  1  0.70336000  0.48789000  0.06302000  1.0
  O  O118  1  0.20335000  0.01212000  0.93697000  1.0
  O  O119  1  0.29664000  0.98787000  0.43697000  1.0
  O  O120  1  0.55060000  0.78983000  0.36900000  1.0
  O  O121  1  0.94940000  0.21016000  0.86900000  1.0
  O  O122  1  0.44939000  0.28985000  0.13100000  1.0
  O  O123  1  0.05059000  0.71015000  0.63100000  1.0
  O  O124  1  0.64652000  0.09867000  0.02499000  1.0
  O  O125  1  0.85348000  0.90133000  0.52499000  1.0
  O  O126  1  0.35348000  0.59868000  0.47501000  1.0
  O  O127  1  0.14652000  0.40133000  0.97501000  1.0
  O  O128  1  0.90914000  0.05132000  0.05404000  1.0
  O  O129  1  0.59086000  0.94869000  0.55404000  1.0
  O  O130  1  0.09086000  0.55131000  0.44597000  1.0
  O  O131  1  0.40914000  0.44869000  0.94597000  1.0
