# generated using pymatgen
data_CdH26C26SN8O5
_symmetry_space_group_name_H-M   'P 1'
_cell_length_a   11.88570000
_cell_length_b   11.88970000
_cell_length_c   23.12719399
_cell_angle_alpha   95.75752053
_cell_angle_beta   101.65169073
_cell_angle_gamma   114.30400000
_symmetry_Int_Tables_number   1
_chemical_formula_structural   CdH26C26SN8O5
_chemical_formula_sum   'Cd4 H104 C104 S4 N32 O20'
_cell_volume   2854.97192566
_cell_formula_units_Z   4
loop_
 _symmetry_equiv_pos_site_id
 _symmetry_equiv_pos_as_xyz
  1  'x, y, z'
loop_
 _atom_site_type_symbol
 _atom_site_label
 _atom_site_symmetry_multiplicity
 _atom_site_fract_x
 _atom_site_fract_y
 _atom_site_fract_z
 _atom_site_occupancy
  Cd  Cd0  1  0.07256000  0.80320000  0.17581000  1.0
  Cd  Cd1  1  0.62729000  0.39647000  0.32428000  1.0
  Cd  Cd2  1  0.92744000  0.19679000  0.82420000  1.0
  Cd  Cd3  1  0.37271000  0.60351000  0.67572000  1.0
  H  H4  1  0.89226000  0.63379000  0.24472000  1.0
  H  H5  1  0.38930000  0.14748000  0.25543000  1.0
  H  H6  1  0.10773000  0.36623000  0.75529000  1.0
  H  H7  1  0.61070000  0.85252000  0.74456000  1.0
  H  H8  1  0.88086000  0.53601000  0.18959000  1.0
  H  H9  1  0.34686000  0.19140000  0.31063000  1.0
  H  H10  1  0.11915000  0.46398000  0.81044000  1.0
  H  H11  1  0.65312000  0.80859000  0.68935000  1.0
  H  H12  1  0.57144000  0.03916000  0.28342000  1.0
  H  H13  1  0.75603000  0.78832000  0.21672000  1.0
  H  H14  1  0.42856000  0.96083000  0.71657000  1.0
  H  H15  1  0.24398000  0.21164000  0.78327000  1.0
  H  H16  1  0.80573000  0.13689000  0.31773000  1.0
  H  H17  1  0.81933000  0.98790000  0.18210000  1.0
  H  H18  1  0.19428000  0.86311000  0.68225000  1.0
  H  H19  1  0.18068000  0.01206000  0.81788000  1.0
  H  H20  1  0.79069000  0.80354000  0.38159000  1.0
  H  H21  1  0.42194000  0.90891000  0.11832000  1.0
  H  H22  1  0.20932000  0.19647000  0.61840000  1.0
  H  H23  1  0.57808000  0.09107000  0.88168000  1.0
  H  H24  1  0.55515000  0.70395000  0.34618000  1.0
  H  H25  1  0.35783000  0.70926000  0.15402000  1.0
  H  H26  1  0.44485000  0.29603000  0.65380000  1.0
  H  H27  1  0.64218000  0.29073000  0.84598000  1.0
  H  H28  1  0.37596000  0.93640000  0.23867000  1.0
  H  H29  1  0.69834000  0.63774000  0.26149000  1.0
  H  H30  1  0.62405000  0.06361000  0.76134000  1.0
  H  H31  1  0.30168000  0.36223000  0.73852000  1.0
  H  H32  1  0.11427000  0.62683000  0.29192000  1.0
  H  H33  1  0.33547000  0.32289000  0.20839000  1.0
  H  H34  1  0.88576000  0.37317000  0.70809000  1.0
  H  H35  1  0.66454000  0.67711000  0.79160000  1.0
  H  H36  1  0.35760000  0.65068000  0.33919000  1.0
  H  H37  1  0.31178000  0.51904000  0.16136000  1.0
  H  H38  1  0.64243000  0.34931000  0.66081000  1.0
  H  H39  1  0.68825000  0.48096000  0.83863000  1.0
  H  H40  1  0.00036000  0.13322000  0.39781000  1.0
  H  H41  1  0.73541000  0.10266000  0.10210000  1.0
  H  H42  1  0.99964000  0.86680000  0.60218000  1.0
  H  H43  1  0.26459000  0.89733000  0.89789000  1.0
  H  H44  1  0.99012000  0.97969000  0.40170000  1.0
  H  H45  1  0.57814000  0.08868000  0.09844000  1.0
  H  H46  1  0.00989000  0.02034000  0.59830000  1.0
  H  H47  1  0.42187000  0.91131000  0.90156000  1.0
  H  H48  1  0.99819000  0.84804000  0.30860000  1.0
  H  H49  1  0.53977000  0.18954000  0.19153000  1.0
  H  H50  1  0.00189000  0.15201000  0.69142000  1.0
  H  H51  1  0.46021000  0.81041000  0.80848000  1.0
  H  H52  1  0.11597000  0.12422000  0.20337000  1.0
  H  H53  1  0.92126000  0.41221000  0.29683000  1.0
  H  H54  1  0.88406000  0.87581000  0.79664000  1.0
  H  H55  1  0.07872000  0.58773000  0.70317000  1.0
  H  H56  1  0.04908000  0.21981000  0.30129000  1.0
  H  H57  1  0.91890000  0.24796000  0.19869000  1.0
  H  H58  1  0.95094000  0.78022000  0.69871000  1.0
  H  H59  1  0.08109000  0.75201000  0.80132000  1.0
  H  H60  1  0.54652000  0.80342000  0.97649000  1.0
  H  H61  1  0.82878000  0.07079000  0.52342000  1.0
  H  H62  1  0.45349000  0.19658000  0.02350000  1.0
  H  H63  1  0.17122000  0.92923000  0.47658000  1.0
  H  H64  1  0.30958000  0.69435000  0.95305000  1.0
  H  H65  1  0.74380000  0.85753000  0.54706000  1.0
  H  H66  1  0.69043000  0.30566000  0.04693000  1.0
  H  H67  1  0.25620000  0.14247000  0.45293000  1.0
  H  H68  1  0.33331000  0.43109000  0.06434000  1.0
  H  H69  1  0.36832000  0.76947000  0.43658000  1.0
  H  H70  1  0.66667000  0.56892000  0.93567000  1.0
  H  H71  1  0.63167000  0.23051000  0.56343000  1.0
  H  H72  1  0.56678000  0.53931000  0.08932000  1.0
  H  H73  1  0.45080000  0.97786000  0.41149000  1.0
  H  H74  1  0.43321000  0.46072000  0.91069000  1.0
  H  H75  1  0.54917000  0.02213000  0.58852000  1.0
  H  H76  1  0.75522000  0.65101000  0.12343000  1.0
  H  H77  1  0.52808000  0.13143000  0.37679000  1.0
  H  H78  1  0.24477000  0.34897000  0.87656000  1.0
  H  H79  1  0.47190000  0.86855000  0.62321000  1.0
  H  H80  1  0.99977000  0.94716000  0.05761000  1.0
  H  H81  1  0.88923000  0.44295000  0.44281000  1.0
  H  H82  1  0.00024000  0.05285000  0.94240000  1.0
  H  H83  1  0.11071000  0.55706000  0.55720000  1.0
  H  H84  1  0.74731000  0.87635000  0.99165000  1.0
  H  H85  1  0.88532000  0.25672000  0.50878000  1.0
  H  H86  1  0.25270000  0.12366000  0.00836000  1.0
  H  H87  1  0.11464000  0.74330000  0.49124000  1.0
  H  H88  1  0.11786000  0.52791000  0.96029000  1.0
  H  H89  1  0.56979000  0.65802000  0.53999000  1.0
  H  H90  1  0.88214000  0.47214000  0.03971000  1.0
  H  H91  1  0.43021000  0.34198000  0.46001000  1.0
  H  H92  1  0.12306000  0.39074000  0.98185000  1.0
  H  H93  1  0.41129000  0.64237000  0.51900000  1.0
  H  H94  1  0.87691000  0.60929000  0.01813000  1.0
  H  H95  1  0.58871000  0.35763000  0.48100000  1.0
  H  H96  1  0.16456000  0.71509000  0.05757000  1.0
  H  H97  1  0.65810000  0.60640000  0.44261000  1.0
  H  H98  1  0.83547000  0.28494000  0.94245000  1.0
  H  H99  1  0.34190000  0.39361000  0.55739000  1.0
  H  H100  1  0.02214000  0.46617000  0.17094000  1.0
  H  H101  1  0.29487000  0.35241000  0.32941000  1.0
  H  H102  1  0.97782000  0.53379000  0.82904000  1.0
  H  H103  1  0.70513000  0.64755000  0.67059000  1.0
  H  H104  1  0.06307000  0.33637000  0.07617000  1.0
  H  H105  1  0.26124000  0.48880000  0.42449000  1.0
  H  H106  1  0.93690000  0.66365000  0.92381000  1.0
  H  H107  1  0.73876000  0.51116000  0.57551000  1.0
  C  C108  1  0.54688000  0.86519000  0.31302000  1.0
  C  C109  1  0.55232000  0.73427000  0.18728000  1.0
  C  C110  1  0.45313000  0.13481000  0.68698000  1.0
  C  C111  1  0.44769000  0.26572000  0.81273000  1.0
  C  C112  1  0.61859000  0.98671000  0.30465000  1.0
  C  C113  1  0.68223000  0.81425000  0.19552000  1.0
  C  C114  1  0.38141000  0.01329000  0.69534000  1.0
  C  C115  1  0.31778000  0.18575000  0.80448000  1.0
  C  C116  1  0.75167000  0.04183000  0.32435000  1.0
  C  C117  1  0.71762000  0.92751000  0.17570000  1.0
  C  C118  1  0.24834000  0.95818000  0.67564000  1.0
  C  C119  1  0.28238000  0.07246000  0.82428000  1.0
  C  C120  1  0.81521000  0.97743000  0.35253000  1.0
  C  C121  1  0.62503000  0.96290000  0.14752000  1.0
  C  C122  1  0.18480000  0.02258000  0.64747000  1.0
  C  C123  1  0.37498000  0.03710000  0.85248000  1.0
  C  C124  1  0.74260000  0.85561000  0.36033000  1.0
  C  C125  1  0.49542000  0.88245000  0.13976000  1.0
  C  C126  1  0.25741000  0.14439000  0.63967000  1.0
  C  C127  1  0.50459000  0.11754000  0.86023000  1.0
  C  C128  1  0.60939000  0.79943000  0.34046000  1.0
  C  C129  1  0.45906000  0.76921000  0.15975000  1.0
  C  C130  1  0.39062000  0.20058000  0.65954000  1.0
  C  C131  1  0.54094000  0.23077000  0.84025000  1.0
  C  C132  1  0.33881000  0.85693000  0.26046000  1.0
  C  C133  1  0.59702000  0.57884000  0.23979000  1.0
  C  C134  1  0.66119000  0.14307000  0.73954000  1.0
  C  C135  1  0.40298000  0.42113000  0.76021000  1.0
  C  C136  1  0.20534000  0.69305000  0.28662000  1.0
  C  C137  1  0.40695000  0.41925000  0.21370000  1.0
  C  C138  1  0.79468000  0.30695000  0.71339000  1.0
  C  C139  1  0.59303000  0.58071000  0.78628000  1.0
  C  C140  1  0.32585000  0.70527000  0.31129000  1.0
  C  C141  1  0.39435000  0.51512000  0.18917000  1.0
  C  C142  1  0.67417000  0.29472000  0.68871000  1.0
  C  C143  1  0.60565000  0.48485000  0.81082000  1.0
  C  C144  1  0.95999000  0.03558000  0.37272000  1.0
  C  C145  1  0.66301000  0.08740000  0.12730000  1.0
  C  C146  1  0.04003000  0.96445000  0.62728000  1.0
  C  C147  1  0.33698000  0.91257000  0.87269000  1.0
  C  C148  1  0.02529000  0.93689000  0.29309000  1.0
  C  C149  1  0.64419000  0.23217000  0.20704000  1.0
  C  C150  1  0.97475000  0.06314000  0.70692000  1.0
  C  C151  1  0.35582000  0.76781000  0.79297000  1.0
  C  C152  1  0.08227000  0.08293000  0.24017000  1.0
  C  C153  1  0.84317000  0.34193000  0.25998000  1.0
  C  C154  1  0.91775000  0.91710000  0.75983000  1.0
  C  C155  1  0.15684000  0.65805000  0.74003000  1.0
  C  C156  1  0.05147000  0.13085000  0.28825000  1.0
  C  C157  1  0.84301000  0.26331000  0.21180000  1.0
  C  C158  1  0.94853000  0.86917000  0.71175000  1.0
  C  C159  1  0.15701000  0.73669000  0.78821000  1.0
  C  C160  1  0.57254000  0.68204000  0.03667000  1.0
  C  C161  1  0.64658000  0.03624000  0.46363000  1.0
  C  C162  1  0.42745000  0.31798000  0.96332000  1.0
  C  C163  1  0.35339000  0.96376000  0.53637000  1.0
  C  C164  1  0.50016000  0.72400000  0.99710000  1.0
  C  C165  1  0.72866000  0.00365000  0.50298000  1.0
  C  C166  1  0.49982000  0.27600000  0.00288000  1.0
  C  C167  1  0.27132000  0.99635000  0.49701000  1.0
  C  C168  1  0.36673000  0.66123000  0.98342000  1.0
  C  C169  1  0.67990000  0.88401000  0.51679000  1.0
  C  C170  1  0.63329000  0.33879000  0.01657000  1.0
  C  C171  1  0.32009000  0.11599000  0.48321000  1.0
  C  C172  1  0.30538000  0.55735000  0.00815000  1.0
  C  C173  1  0.55120000  0.79787000  0.49236000  1.0
  C  C174  1  0.69463000  0.44271000  0.99184000  1.0
  C  C175  1  0.44879000  0.20211000  0.50764000  1.0
  C  C176  1  0.37938000  0.51471000  0.04629000  1.0
  C  C177  1  0.47004000  0.83357000  0.45434000  1.0
  C  C178  1  0.62060000  0.48530000  0.95370000  1.0
  C  C179  1  0.52993000  0.16642000  0.54566000  1.0
  C  C180  1  0.51182000  0.57662000  0.06080000  1.0
  C  C181  1  0.51697000  0.95139000  0.43976000  1.0
  C  C182  1  0.48818000  0.42340000  0.93921000  1.0
  C  C183  1  0.48301000  0.04860000  0.56024000  1.0
  C  C184  1  0.78645000  0.72061000  0.09609000  1.0
  C  C185  1  0.62487000  0.19041000  0.40419000  1.0
  C  C186  1  0.21355000  0.27938000  0.90391000  1.0
  C  C187  1  0.37509000  0.80958000  0.59580000  1.0
  C  C188  1  0.90980000  0.87399000  0.06037000  1.0
  C  C189  1  0.81349000  0.35006000  0.44006000  1.0
  C  C190  1  0.09021000  0.12601000  0.93964000  1.0
  C  C191  1  0.18644000  0.64994000  0.55995000  1.0
  C  C192  1  0.78608000  0.84176000  0.02879000  1.0
  C  C193  1  0.81334000  0.25807000  0.47165000  1.0
  C  C194  1  0.21393000  0.15824000  0.97122000  1.0
  C  C195  1  0.18663000  0.74195000  0.52837000  1.0
  C  C196  1  0.16217000  0.49335000  0.99609000  1.0
  C  C197  1  0.49922000  0.66674000  0.50442000  1.0
  C  C198  1  0.83782000  0.50668000  0.00390000  1.0
  C  C199  1  0.50077000  0.33325000  0.49558000  1.0
  C  C200  1  0.12969000  0.62954000  0.07534000  1.0
  C  C201  1  0.55472000  0.55443000  0.42494000  1.0
  C  C202  1  0.87032000  0.37048000  0.92467000  1.0
  C  C203  1  0.44528000  0.44559000  0.57506000  1.0
  C  C204  1  0.05657000  0.49893000  0.13289000  1.0
  C  C205  1  0.36605000  0.42473000  0.36748000  1.0
  C  C206  1  0.94340000  0.50105000  0.86710000  1.0
  C  C207  1  0.63395000  0.57526000  0.63252000  1.0
  C  C208  1  0.07625000  0.43279000  0.08652000  1.0
  C  C209  1  0.34702000  0.49110000  0.41402000  1.0
  C  C210  1  0.92372000  0.56720000  0.91346000  1.0
  C  C211  1  0.65299000  0.50890000  0.58599000  1.0
  S  S212  1  0.27908000  0.04370000  0.12803000  1.0
  S  S213  1  0.91558000  0.65104000  0.37211000  1.0
  S  S214  1  0.72092000  0.95630000  0.87197000  1.0
  S  S215  1  0.08440000  0.34898000  0.62788000  1.0
  N  N216  1  0.41080000  0.81049000  0.29488000  1.0
  N  N217  1  0.51596000  0.61646000  0.20552000  1.0
  N  N218  1  0.58922000  0.18951000  0.70512000  1.0
  N  N219  1  0.48403000  0.38351000  0.79447000  1.0
  N  N220  1  0.21525000  0.78784000  0.25489000  1.0
  N  N221  1  0.53359000  0.46081000  0.24528000  1.0
  N  N222  1  0.78476000  0.21216000  0.74512000  1.0
  N  N223  1  0.46639000  0.53916000  0.75471000  1.0
  N  N224  1  0.01578000  0.03720000  0.32131000  1.0
  N  N225  1  0.71630000  0.19463000  0.17871000  1.0
  N  N226  1  0.98424000  0.96282000  0.67869000  1.0
  N  N227  1  0.28373000  0.80536000  0.82129000  1.0
  N  N228  1  0.06496000  0.96163000  0.24386000  1.0
  N  N229  1  0.71812000  0.32085000  0.25633000  1.0
  N  N230  1  0.93508000  0.03841000  0.75616000  1.0
  N  N231  1  0.28189000  0.67912000  0.74367000  1.0
  N  N232  1  0.70814000  0.74391000  0.05212000  1.0
  N  N233  1  0.69244000  0.15641000  0.44820000  1.0
  N  N234  1  0.29187000  0.25608000  0.94788000  1.0
  N  N235  1  0.30753000  0.84359000  0.55181000  1.0
  N  N236  1  0.90798000  0.79738000  0.10194000  1.0
  N  N237  1  0.69534000  0.30627000  0.39840000  1.0
  N  N238  1  0.09203000  0.20262000  0.89807000  1.0
  N  N239  1  0.30462000  0.69372000  0.60160000  1.0
  N  N240  1  0.12242000  0.51730000  0.05036000  1.0
  N  N241  1  0.46798000  0.57276000  0.45008000  1.0
  N  N242  1  0.87756000  0.48271000  0.94963000  1.0
  N  N243  1  0.53202000  0.42724000  0.54992000  1.0
  N  N244  1  0.08973000  0.62102000  0.12518000  1.0
  N  N245  1  0.49578000  0.46485000  0.37504000  1.0
  N  N246  1  0.91025000  0.37897000  0.87482000  1.0
  N  N247  1  0.50423000  0.53515000  0.62496000  1.0
  O  O248  1  0.89255000  0.62195000  0.20054000  1.0
  O  O249  1  0.42176000  0.19209000  0.29960000  1.0
  O  O250  1  0.10745000  0.37804000  0.79947000  1.0
  O  O251  1  0.57822000  0.80791000  0.70039000  1.0
  O  O252  1  0.19661000  0.90226000  0.11412000  1.0
  O  O253  1  0.78783000  0.58244000  0.38581000  1.0
  O  O254  1  0.80337000  0.09774000  0.88588000  1.0
  O  O255  1  0.21215000  0.41757000  0.61418000  1.0
  O  O256  1  0.36581000  0.07590000  0.19114000  1.0
  O  O257  1  0.88505000  0.67482000  0.30901000  1.0
  O  O258  1  0.63418000  0.92411000  0.80886000  1.0
  O  O259  1  0.11495000  0.32523000  0.69099000  1.0
  O  O260  1  0.19869000  0.11125000  0.12560000  1.0
  O  O261  1  0.98562000  0.57314000  0.37466000  1.0
  O  O262  1  0.80133000  0.88876000  0.87439000  1.0
  O  O263  1  0.01438000  0.42690000  0.62533000  1.0
  O  O264  1  0.35880000  0.07384000  0.08488000  1.0
  O  O265  1  0.98858000  0.77377000  0.41535000  1.0
  O  O266  1  0.64119000  0.92611000  0.91511000  1.0
  O  O267  1  0.01139000  0.22625000  0.58466000  1.0
