# generated using pymatgen
data_AgH12C14N3O7
_symmetry_space_group_name_H-M   'P 1'
_cell_length_a   7.88977000
_cell_length_b   12.81920000
_cell_length_c   14.90100000
_cell_angle_alpha   98.66460000
_cell_angle_beta   90.00000000
_cell_angle_gamma   90.00000000
_symmetry_Int_Tables_number   1
_chemical_formula_structural   AgH12C14N3O7
_chemical_formula_sum   'Ag4 H48 C56 N12 O28'
_cell_volume   1489.89493530
_cell_formula_units_Z   4
loop_
 _symmetry_equiv_pos_site_id
 _symmetry_equiv_pos_as_xyz
  1  'x, y, z'
loop_
 _atom_site_type_symbol
 _atom_site_label
 _atom_site_symmetry_multiplicity
 _atom_site_fract_x
 _atom_site_fract_y
 _atom_site_fract_z
 _atom_site_occupancy
  Ag  Ag0  1  0.33338000  0.33352000  0.75033000  1.0
  Ag  Ag1  1  0.83338000  0.16648000  0.74967000  1.0
  Ag  Ag2  1  0.66666667  0.66648000  0.24967000  1.0
  Ag  Ag3  1  0.16662000  0.83352000  0.25033000  1.0
  H  H4  1  0.79882000  0.21789000  0.25385000  1.0
  H  H5  1  0.29882000  0.28211000  0.24615000  1.0
  H  H6  1  0.20118000  0.78211000  0.74615000  1.0
  H  H7  1  0.70118000  0.71789000  0.75385000  1.0
  H  H8  1  0.92409000  0.30752000  0.33041000  1.0
  H  H9  1  0.42409000  0.19248000  0.16959000  1.0
  H  H10  1  0.07591000  0.69248000  0.66959000  1.0
  H  H11  1  0.57591000  0.80752000  0.83041000  1.0
  H  H12  1  0.84212000  0.45660000  0.24914000  1.0
  H  H13  1  0.34212000  0.04340000  0.25086000  1.0
  H  H14  1  0.15788000  0.54340000  0.75086000  1.0
  H  H15  1  0.65788000  0.95660000  0.74914000  1.0
  H  H16  1  0.93130000  0.35097000  0.17192000  1.0
  H  H17  1  0.43130000  0.14903000  0.32809000  1.0
  H  H18  1  0.06870000  0.64903000  0.82809000  1.0
  H  H19  1  0.56870000  0.85097000  0.67191000  1.0
  H  H20  1  0.60177000  0.33176000  0.60625000  1.0
  H  H21  1  0.10177000  0.16824000  0.89375000  1.0
  H  H22  1  0.39823000  0.66824000  0.39375000  1.0
  H  H23  1  0.89823000  0.83176000  0.10625000  1.0
  H  H24  1  0.08801000  0.40059000  0.60545000  1.0
  H  H25  1  0.58801000  0.09941000  0.89455000  1.0
  H  H26  1  0.91199000  0.59941000  0.39455000  1.0
  H  H27  1  0.41199000  0.90059000  0.10545000  1.0
  H  H28  1  0.09932000  0.43091000  0.44336000  1.0
  H  H29  1  0.59932000  0.06909000  0.05664000  1.0
  H  H30  1  0.90068000  0.56909000  0.55664000  1.0
  H  H31  1  0.40068000  0.93091000  0.94336000  1.0
  H  H32  1  0.37504000  0.40822000  0.36028000  1.0
  H  H33  1  0.87504000  0.09177000  0.13972000  1.0
  H  H34  1  0.62496000  0.59178000  0.63972000  1.0
  H  H35  1  0.12496000  0.90823000  0.86028000  1.0
  H  H36  1  0.60304000  0.32946000  0.89769000  1.0
  H  H37  1  0.10304000  0.17054000  0.60231000  1.0
  H  H38  1  0.39696000  0.67054000  0.10231000  1.0
  H  H39  1  0.89696000  0.82946000  0.39769000  1.0
  H  H40  1  0.08629000  0.39108000  0.91115000  1.0
  H  H41  1  0.58629000  0.10892000  0.58885000  1.0
  H  H42  1  0.91371000  0.60892000  0.08885000  1.0
  H  H43  1  0.41371000  0.89108000  0.41115000  1.0
  H  H44  1  0.09630000  0.43983000  0.07941000  1.0
  H  H45  1  0.59630000  0.06017000  0.42059000  1.0
  H  H46  1  0.90370000  0.56017000  0.92059000  1.0
  H  H47  1  0.40369000  0.93983000  0.57941000  1.0
  H  H48  1  0.37526000  0.43206000  0.15980000  1.0
  H  H49  1  0.87526000  0.06794000  0.34020000  1.0
  H  H50  1  0.62474000  0.56794000  0.84020000  1.0
  H  H51  1  0.12474000  0.93206000  0.65980000  1.0
  C  C52  1  0.67683000  0.34429000  0.43244000  1.0
  C  C53  1  0.17683000  0.15571000  0.06756000  1.0
  C  C54  1  0.32317000  0.65571000  0.56756000  1.0
  C  C55  1  0.82317000  0.84429000  0.93244000  1.0
  C  C56  1  0.81174000  0.30011000  0.28656000  1.0
  C  C57  1  0.31174000  0.19989000  0.21344000  1.0
  C  C58  1  0.18827000  0.69989000  0.71344000  1.0
  C  C59  1  0.68826000  0.80011000  0.78656000  1.0
  C  C60  1  0.82442000  0.37425000  0.21757000  1.0
  C  C61  1  0.32442000  0.12575000  0.28243000  1.0
  C  C62  1  0.17558000  0.62575000  0.78243000  1.0
  C  C63  1  0.67558000  0.87425000  0.71757000  1.0
  C  C64  1  0.67911000  0.36777000  0.07535000  1.0
  C  C65  1  0.17911000  0.13223000  0.42465000  1.0
  C  C66  1  0.32089000  0.63223000  0.92465000  1.0
  C  C67  1  0.82089000  0.86777000  0.57535000  1.0
  C  C68  1  0.50829000  0.36341000  0.47621000  1.0
  C  C69  1  0.00830000  0.13659000  0.02379000  1.0
  C  C70  1  0.49171000  0.63659000  0.52379000  1.0
  C  C71  1  0.99171000  0.86341000  0.97621000  1.0
  C  C72  1  0.49256000  0.35167000  0.56746000  1.0
  C  C73  1  0.99256000  0.14833000  0.93254000  1.0
  C  C74  1  0.50744000  0.64833000  0.43254000  1.0
  C  C75  1  0.00744000  0.85167000  0.06746000  1.0
  C  C76  1  0.20581000  0.39124000  0.56674000  1.0
  C  C77  1  0.70581000  0.10876000  0.93326000  1.0
  C  C78  1  0.79419000  0.60876000  0.43326000  1.0
  C  C79  1  0.29419000  0.89124000  0.06674000  1.0
  C  C80  1  0.21270000  0.40716000  0.47643000  1.0
  C  C81  1  0.71270000  0.09284000  0.02357000  1.0
  C  C82  1  0.78730000  0.59284000  0.52357000  1.0
  C  C83  1  0.28730000  0.90716000  0.97643000  1.0
  C  C84  1  0.36601000  0.39318000  0.43010000  1.0
  C  C85  1  0.86601000  0.10682000  0.06990000  1.0
  C  C86  1  0.63399000  0.60682000  0.56990000  1.0
  C  C87  1  0.13399000  0.89318000  0.93010000  1.0
  C  C88  1  0.50880000  0.37548000  0.03453000  1.0
  C  C89  1  0.00880000  0.12452000  0.46546000  1.0
  C  C90  1  0.49120000  0.62452000  0.96547000  1.0
  C  C91  1  0.99120000  0.87548000  0.53453000  1.0
  C  C92  1  0.49292000  0.35224000  0.94033000  1.0
  C  C93  1  0.99292000  0.14776000  0.55967000  1.0
  C  C94  1  0.50708000  0.64776000  0.05967000  1.0
  C  C95  1  0.00708000  0.85224000  0.44033000  1.0
  C  C96  1  0.20481000  0.38811000  0.94836000  1.0
  C  C97  1  0.70481000  0.11189000  0.55164000  1.0
  C  C98  1  0.79519000  0.61188000  0.05164000  1.0
  C  C99  1  0.29519000  0.88811000  0.44836000  1.0
  C  C100  1  0.21161000  0.41478000  0.04237000  1.0
  C  C101  1  0.71161000  0.08522000  0.45763000  1.0
  C  C102  1  0.78839000  0.58522000  0.95763000  1.0
  C  C103  1  0.28839000  0.91478000  0.54237000  1.0
  C  C104  1  0.36575000  0.40919000  0.08656000  1.0
  C  C105  1  0.86574000  0.09081000  0.41344000  1.0
  C  C106  1  0.63425000  0.59081000  0.91344000  1.0
  C  C107  1  0.13425000  0.90919000  0.58656000  1.0
  N  N108  1  0.34406000  0.36486000  0.61196000  1.0
  N  N109  1  0.84406000  0.13514000  0.88804000  1.0
  N  N110  1  0.65594000  0.63514000  0.38804000  1.0
  N  N111  1  0.15594000  0.86486000  0.11196000  1.0
  N  N112  1  0.34370000  0.35883000  0.89780000  1.0
  N  N113  1  0.84370000  0.14117000  0.60220000  1.0
  N  N114  1  0.65630000  0.64117000  0.10220000  1.0
  N  N115  1  0.15630000  0.85883000  0.39780000  1.0
  N  N116  1  0.33801000  0.08850000  0.75603000  1.0
  N  N117  1  0.83801000  0.41150000  0.74397000  1.0
  N  N118  1  0.66199000  0.91150000  0.24397000  1.0
  N  N119  1  0.16199000  0.58850000  0.25603000  1.0
  O  O120  1  0.81157000  0.34573000  0.47327000  1.0
  O  O121  1  0.31157000  0.15427000  0.02673000  1.0
  O  O122  1  0.18843000  0.65427000  0.52673000  1.0
  O  O123  1  0.68843000  0.84573000  0.97327000  1.0
  O  O124  1  0.66013000  0.32354000  0.34089000  1.0
  O  O125  1  0.16013000  0.17646000  0.15911000  1.0
  O  O126  1  0.33987000  0.67646000  0.65911000  1.0
  O  O127  1  0.83987000  0.82354000  0.84089000  1.0
  O  O128  1  0.66768000  0.36914000  0.16617000  1.0
  O  O129  1  0.16768000  0.13086000  0.33383000  1.0
  O  O130  1  0.33232000  0.63086000  0.83383000  1.0
  O  O131  1  0.83232000  0.86914000  0.66617000  1.0
  O  O132  1  0.81226000  0.36169000  0.03258000  1.0
  O  O133  1  0.31226000  0.13831000  0.46742000  1.0
  O  O134  1  0.18774000  0.63831000  0.96743000  1.0
  O  O135  1  0.68774000  0.86169000  0.53258000  1.0
  O  O136  1  0.20157000  0.13814000  0.74484000  1.0
  O  O137  1  0.70157000  0.36186000  0.75516000  1.0
  O  O138  1  0.79843000  0.86186000  0.25516000  1.0
  O  O139  1  0.29843000  0.63814000  0.24484000  1.0
  O  O140  1  0.33292000  0.99699000  0.77768000  1.0
  O  O141  1  0.83292000  0.50301000  0.72232000  1.0
  O  O142  1  0.66707000  0.00301000  0.22232000  1.0
  O  O143  1  0.16708000  0.49699000  0.27768000  1.0
  O  O144  1  0.47969000  0.13291000  0.74542000  1.0
  O  O145  1  0.97969000  0.36709000  0.75458000  1.0
  O  O146  1  0.52031000  0.86709000  0.25458000  1.0
  O  O147  1  0.02031000  0.63291000  0.24542000  1.0
