# generated using pymatgen
data_FeH2C6N3ClO
_symmetry_space_group_name_H-M   'P 1'
_cell_length_a   8.10804000
_cell_length_b   22.86210000
_cell_length_c   22.86210000
_cell_angle_alpha   118.63200000
_cell_angle_beta   96.78010000
_cell_angle_gamma   96.78010000
_symmetry_Int_Tables_number   1
_chemical_formula_structural   FeH2C6N3ClO
_chemical_formula_sum   'Fe6 H12 C36 N18 Cl6 O6'
_cell_volume   3618.73553928
_cell_formula_units_Z   6
loop_
 _symmetry_equiv_pos_site_id
 _symmetry_equiv_pos_as_xyz
  1  'x, y, z'
loop_
 _atom_site_type_symbol
 _atom_site_label
 _atom_site_symmetry_multiplicity
 _atom_site_fract_x
 _atom_site_fract_y
 _atom_site_fract_z
 _atom_site_occupancy
  Fe  Fe0  1  0.19346000  0.38683000  0.69342000  1.0
  Fe  Fe1  1  0.80654000  0.30658000  0.61317000  1.0
  Fe  Fe2  1  0.50000000  0.30659000  0.69341000  1.0
  Fe  Fe3  1  0.80654000  0.61317000  0.30658000  1.0
  Fe  Fe4  1  0.19346000  0.69342000  0.38683000  1.0
  Fe  Fe5  1  0.50000000  0.69341000  0.30659000  1.0
  H  H6  1  0.24724000  0.48718000  0.60570000  1.0
  H  H7  1  0.75277000  0.39430000  0.51282000  1.0
  H  H8  1  0.64157000  0.39434000  0.88151000  1.0
  H  H9  1  0.76009000  0.11854000  0.51292000  1.0
  H  H10  1  0.23990000  0.48708000  0.88145000  1.0
  H  H11  1  0.35842000  0.11848000  0.60566000  1.0
  H  H12  1  0.75276000  0.51282000  0.39430000  1.0
  H  H13  1  0.24723000  0.60570000  0.48718000  1.0
  H  H14  1  0.35844000  0.60567000  0.11849000  1.0
  H  H15  1  0.23991000  0.88145000  0.48708000  1.0
  H  H16  1  0.76012000  0.51292000  0.11855000  1.0
  H  H17  1  0.64157000  0.88151000  0.39434000  1.0
  C  C18  1  0.42944000  0.42291000  0.60371000  1.0
  C  C19  1  0.57056000  0.39629000  0.57709000  1.0
  C  C20  1  0.82572000  0.39630000  0.81923000  1.0
  C  C21  1  0.00659000  0.18080000  0.57710000  1.0
  C  C22  1  0.99341000  0.42290000  0.81920000  1.0
  C  C23  1  0.17428000  0.18077000  0.60370000  1.0
  C  C24  1  0.57055000  0.57708000  0.39629000  1.0
  C  C25  1  0.42944000  0.60371000  0.42291000  1.0
  C  C26  1  0.17429000  0.60370000  0.18078000  1.0
  C  C27  1  0.99340000  0.81920000  0.42290000  1.0
  C  C28  1  0.00660000  0.57710000  0.18080000  1.0
  C  C29  1  0.82572000  0.81922000  0.39630000  1.0
  C  C30  1  0.35679000  0.46702000  0.58690000  1.0
  C  C31  1  0.64322000  0.41310000  0.53298000  1.0
  C  C32  1  0.76993000  0.41312000  0.88017000  1.0
  C  C33  1  0.88981000  0.11989000  0.53304000  1.0
  C  C34  1  0.11020000  0.46696000  0.88011000  1.0
  C  C35  1  0.23008000  0.11983000  0.58687000  1.0
  C  C36  1  0.64322000  0.53298000  0.41310000  1.0
  C  C37  1  0.35678000  0.58690000  0.46702000  1.0
  C  C38  1  0.23008000  0.58688000  0.11983000  1.0
  C  C39  1  0.11019000  0.88011000  0.46695000  1.0
  C  C40  1  0.88981000  0.53305000  0.11990000  1.0
  C  C41  1  0.76992000  0.88016000  0.41313000  1.0
  C  C42  1  0.42914000  0.48312000  0.54336000  1.0
  C  C43  1  0.57086000  0.45664000  0.51688000  1.0
  C  C44  1  0.88580000  0.45667000  0.93980000  1.0
  C  C45  1  0.94602000  0.06024000  0.51691000  1.0
  C  C46  1  0.05399000  0.48309000  0.93976000  1.0
  C  C47  1  0.11420000  0.06019000  0.54333000  1.0
  C  C48  1  0.57085000  0.51688000  0.45664000  1.0
  C  C49  1  0.42914000  0.54336000  0.48313000  1.0
  C  C50  1  0.11420000  0.54333000  0.06020000  1.0
  C  C51  1  0.05398000  0.93976000  0.48309000  1.0
  C  C52  1  0.94602000  0.51691000  0.06024000  1.0
  C  C53  1  0.88580000  0.93981000  0.45666000  1.0
  N  N54  1  0.38954000  0.39726000  0.64454000  1.0
  N  N55  1  0.61046000  0.35546000  0.60274000  1.0
  N  N56  1  0.74502000  0.35547000  0.75273000  1.0
  N  N57  1  0.99233000  0.24729000  0.60274000  1.0
  N  N58  1  0.00767000  0.39726000  0.75271000  1.0
  N  N59  1  0.25498000  0.24727000  0.64453000  1.0
  N  N60  1  0.61045000  0.60274000  0.35546000  1.0
  N  N61  1  0.38955000  0.64454000  0.39726000  1.0
  N  N62  1  0.25498000  0.64453000  0.24727000  1.0
  N  N63  1  0.00767000  0.75271000  0.39726000  1.0
  N  N64  1  0.99233000  0.60274000  0.24729000  1.0
  N  N65  1  0.74502000  0.75273000  0.35547000  1.0
  N  N66  1  0.50000000  0.35754000  0.64246000  1.0
  N  N67  1  0.85753000  0.35754000  0.71508000  1.0
  N  N68  1  0.14247000  0.28491000  0.64245000  1.0
  N  N69  1  0.50000000  0.64246000  0.35754000  1.0
  N  N70  1  0.14247000  0.64246000  0.28492000  1.0
  N  N71  1  0.85753000  0.71508000  0.35754000  1.0
  Cl  Cl72  1  0.39221000  0.39218000  0.78432000  1.0
  Cl  Cl73  1  0.60779000  0.21568000  0.60782000  1.0
  Cl  Cl74  1  0.00000000  0.39215000  0.60784000  1.0
  Cl  Cl75  1  0.60779000  0.60782000  0.21569000  1.0
  Cl  Cl76  1  0.39221000  0.78432000  0.39218000  1.0
  Cl  Cl77  1  0.99999000  0.60784000  0.39216000  1.0
  O  O78  1  0.35833000  0.52611000  0.52612000  1.0
  O  O79  1  0.64167000  0.47389000  0.47389000  1.0
  O  O80  1  0.83215000  0.47395000  0.00003000  1.0
  O  O81  1  0.83215000  0.00004000  0.47394000  1.0
  O  O82  1  0.16785000  0.52606000  0.99996000  1.0
  O  O83  1  0.16785000  0.99996000  0.52605000  1.0
