# generated using pymatgen
data_Al4H15C37NO22
_symmetry_space_group_name_H-M   'P 1'
_cell_length_a   6.67485000
_cell_length_b   16.82590000
_cell_length_c   18.33050000
_cell_angle_alpha   106.65200000
_cell_angle_beta   90.44660000
_cell_angle_gamma   90.52040000
_symmetry_Int_Tables_number   1
_chemical_formula_structural   Al4H15C37NO22
_chemical_formula_sum   'Al4 H15 C37 N1 O22'
_cell_volume   1972.17139447
_cell_formula_units_Z   1
loop_
 _symmetry_equiv_pos_site_id
 _symmetry_equiv_pos_as_xyz
  1  'x, y, z'
loop_
 _atom_site_type_symbol
 _atom_site_label
 _atom_site_symmetry_multiplicity
 _atom_site_fract_x
 _atom_site_fract_y
 _atom_site_fract_z
 _atom_site_occupancy
  Al  Al0  1  0.14218000  0.50016000  0.49817000  1.0
  Al  Al1  1  0.64266000  0.50081000  0.49813000  1.0
  Al  Al2  1  0.63152000  0.00055000  0.00049000  1.0
  Al  Al3  1  0.13026000  0.00033000  0.99968000  1.0
  H  H4  1  0.75581000  0.79143000  0.64000000  1.0
  H  H5  1  0.53692000  0.79775000  0.77404000  1.0
  H  H6  1  0.01739000  0.71069000  0.85874000  1.0
  H  H7  1  0.23436000  0.70510000  0.72423000  1.0
  H  H8  1  0.08972000  0.86696000  0.73328000  1.0
  H  H9  1  0.48381000  0.12397000  0.28157000  1.0
  H  H10  1  0.72002000  0.27223000  0.30856000  1.0
  H  H11  1  0.05322000  0.22809000  0.18879000  1.0
  H  H12  1  0.14328000  0.22437000  0.34048000  1.0
  H  H13  1  0.15048000  0.37641000  0.17992000  1.0
  H  H14  1  0.60517000  0.62936000  0.81269000  1.0
  H  H15  1  0.39546000  0.60337000  0.54800000  1.0
  H  H16  1  0.88987000  0.40738000  0.51959000  1.0
  H  H17  1  0.37814000  0.89328000  0.96186000  1.0
  H  H18  1  0.88291000  0.10915000  0.01452000  1.0
  C  C19  1  0.38719000  0.38645000  0.38383000  1.0
  C  C20  1  0.39335000  0.41417000  0.58563000  1.0
  C  C21  1  0.89745000  0.61640000  0.61403000  1.0
  C  C22  1  0.89260000  0.58232000  0.40991000  1.0
  C  C23  1  0.89315000  0.63250000  0.35805000  1.0
  C  C24  1  0.89120000  0.67735000  0.31582000  1.0
  C  C25  1  0.88864000  0.72670000  0.26994000  1.0
  C  C26  1  0.88587000  0.77244000  0.22801000  1.0
  C  C27  1  0.88351000  0.82166000  0.18201000  1.0
  C  C28  1  0.88180000  0.86637000  0.13961000  1.0
  C  C29  1  0.69123000  0.77667000  0.76268000  1.0
  C  C30  1  0.81342000  0.77471000  0.68958000  1.0
  C  C31  1  0.89659000  0.68579000  0.68530000  1.0
  C  C32  1  0.77285000  0.68787000  0.75872000  1.0
  C  C33  1  0.96009000  0.72792000  0.80928000  1.0
  C  C34  1  0.08040000  0.72636000  0.73585000  1.0
  C  C35  1  0.00009000  0.81464000  0.73959000  1.0
  C  C36  1  0.87608000  0.81653000  0.81286000  1.0
  C  C37  1  0.57092000  0.26112000  0.28234000  1.0
  C  C38  1  0.43950000  0.18072000  0.26837000  1.0
  C  C39  1  0.38563000  0.18490000  0.18541000  1.0
  C  C40  1  0.52413000  0.26497000  0.19911000  1.0
  C  C41  1  0.32734000  0.31914000  0.23048000  1.0
  C  C42  1  0.19975000  0.23821000  0.21704000  1.0
  C  C43  1  0.25110000  0.23475000  0.29944000  1.0
  C  C44  1  0.38601000  0.31508000  0.31400000  1.0
  C  C45  1  0.39316000  0.36427000  0.63773000  1.0
  C  C46  1  0.39140000  0.32009000  0.68060000  1.0
  C  C47  1  0.38932000  0.27174000  0.72740000  1.0
  C  C48  1  0.38719000  0.22716000  0.77038000  1.0
  C  C49  1  0.38493000  0.17908000  0.81741000  1.0
  C  C50  1  0.38276000  0.13534000  0.86066000  1.0
  C  C51  1  0.38155000  0.08600000  0.91328000  1.0
  C  C52  1  0.38557000  0.11412000  0.11497000  1.0
  C  C53  1  0.88073000  0.91626000  0.08751000  1.0
  C  C54  1  0.87601000  0.88571000  0.88421000  1.0
  C  C55  1  0.67487000  0.28000000  0.15034000  1.0
  N  N56  1  0.80724000  0.29414000  0.11418000  1.0
  O  O57  1  0.56439000  0.43332000  0.56490000  1.0
  O  O58  1  0.21774000  0.41323000  0.41089000  1.0
  O  O59  1  0.06270000  0.56386000  0.43165000  1.0
  O  O60  1  0.22183000  0.43288000  0.56478000  1.0
  O  O61  1  0.06724000  0.58917000  0.58699000  1.0
  O  O62  1  0.55795000  0.41417000  0.41140000  1.0
  O  O63  1  0.39342000  0.55032000  0.50901000  1.0
  O  O64  1  0.72607000  0.59108000  0.58464000  1.0
  O  O65  1  0.72162000  0.56264000  0.42985000  1.0
  O  O66  1  0.89100000  0.45080000  0.49431000  1.0
  O  O67  1  0.21499000  0.08664000  0.08724000  1.0
  O  O68  1  0.55242000  0.06687000  0.93413000  1.0
  O  O69  1  0.70718000  0.91152000  0.91315000  1.0
  O  O70  1  0.55545000  0.08771000  0.08811000  1.0
  O  O71  1  0.70948000  0.93566000  0.06732000  1.0
  O  O72  1  0.21004000  0.06749000  0.93405000  1.0
  O  O73  1  0.37970000  0.95113000  0.99138000  1.0
  O  O74  1  0.05115000  0.93476000  0.06594000  1.0
  O  O75  1  0.04781000  0.91269000  0.91206000  1.0
  O  O76  1  0.88210000  0.04973000  0.00717000  1.0
  O  O77  1  0.26970000  0.38921000  0.21272000  1.0
  O  O78  1  0.66384000  0.61858000  0.76230000  1.0
