# generated using pymatgen
data_Zn2H32C41(N2O7)2
_symmetry_space_group_name_H-M   'P 1'
_cell_length_a   9.41003000
_cell_length_b   10.28540000
_cell_length_c   11.77100000
_cell_angle_alpha   95.72070000
_cell_angle_beta   89.98590000
_cell_angle_gamma   89.94590000
_symmetry_Int_Tables_number   1
_chemical_formula_structural   Zn2H32C41(N2O7)2
_chemical_formula_sum   'Zn2 H32 C41 N4 O14'
_cell_volume   1133.59254265
_cell_formula_units_Z   1
loop_
 _symmetry_equiv_pos_site_id
 _symmetry_equiv_pos_as_xyz
  1  'x, y, z'
loop_
 _atom_site_type_symbol
 _atom_site_label
 _atom_site_symmetry_multiplicity
 _atom_site_fract_x
 _atom_site_fract_y
 _atom_site_fract_z
 _atom_site_occupancy
  Zn  Zn0  1  0.61874000  0.50197000  0.99910000  1.0
  Zn  Zn1  1  0.97114000  0.00010000  0.50218000  1.0
  H  H2  1  0.77985000  0.18480000  0.38867000  1.0
  H  H3  1  0.57354000  0.16970000  0.25645000  1.0
  H  H4  1  0.63385000  0.75011000  0.21531000  1.0
  H  H5  1  0.84009000  0.78307000  0.35127000  1.0
  H  H6  1  0.49773000  0.12116000  0.08167000  1.0
  H  H7  1  0.35394000  0.09482000  0.17567000  1.0
  H  H8  1  0.30120000  0.79883000  0.03560000  1.0
  H  H9  1  0.18693000  0.91173000  0.11820000  1.0
  H  H10  1  0.91781000  0.83830000  0.81159000  1.0
  H  H11  1  0.70050000  0.70268000  0.84322000  1.0
  H  H12  1  0.86522000  0.59130000  0.14490000  1.0
  H  H13  1  0.08167000  0.72417000  0.13089000  1.0
  H  H14  1  0.34152000  0.29754000  0.74841000  1.0
  H  H15  1  0.96071000  0.41129000  0.57852000  1.0
  H  H16  1  0.22883000  0.70434000  0.75393000  1.0
  H  H17  1  0.77437000  0.81657000  0.61376000  1.0
  H  H18  1  0.56860000  0.83354000  0.74655000  1.0
  H  H19  1  0.62876000  0.25317000  0.78373000  1.0
  H  H20  1  0.83415000  0.21825000  0.64712000  1.0
  H  H21  1  0.49839000  0.88414000  0.92349000  1.0
  H  H22  1  0.35286000  0.90799000  0.83066000  1.0
  H  H23  1  0.30042000  0.20533000  0.96920000  1.0
  H  H24  1  0.18687000  0.09154000  0.88720000  1.0
  H  H25  1  0.91944000  0.17505000  0.19543000  1.0
  H  H26  1  0.70080000  0.30737000  0.16010000  1.0
  H  H27  1  0.86105000  0.40328000  0.85172000  1.0
  H  H28  1  0.07775000  0.27136000  0.86874000  1.0
  H  H29  1  0.34264000  0.70718000  0.25574000  1.0
  H  H30  1  0.96853000  0.58688000  0.43047000  1.0
  H  H31  1  0.23435000  0.29911000  0.24480000  1.0
  H  H32  1  0.02766000  0.72225000  0.58679000  1.0
  H  H33  1  0.03471000  0.27831000  0.41916000  1.0
  C  C34  1  0.74504000  0.08996000  0.34847000  1.0
  C  C35  1  0.63047000  0.08162000  0.27390000  1.0
  C  C36  1  0.59290000  0.95770000  0.22154000  1.0
  C  C37  1  0.66623000  0.84721000  0.25178000  1.0
  C  C38  1  0.77891000  0.86592000  0.32669000  1.0
  C  C39  1  0.41976000  0.04929000  0.10540000  1.0
  C  C40  1  0.23651000  0.88780000  0.03414000  1.0
  C  C41  1  0.01590000  0.79265000  0.96852000  1.0
  C  C42  1  0.90677000  0.78637000  0.88705000  1.0
  C  C43  1  0.78864000  0.71119000  0.90338000  1.0
  C  C44  1  0.87894000  0.64927000  0.07287000  1.0
  C  C45  1  0.00106000  0.72293000  0.06456000  1.0
  C  C46  1  0.42723000  0.54397000  0.82877000  1.0
  C  C47  1  0.29898000  0.50480000  0.75696000  1.0
  C  C48  1  0.26998000  0.37305000  0.72369000  1.0
  C  C49  1  0.14933000  0.33892000  0.65782000  1.0
  C  C50  1  0.05490000  0.43617000  0.62989000  1.0
  C  C51  1  0.20566000  0.60215000  0.72671000  1.0
  C  C52  1  0.11958000  0.19846000  0.61933000  1.0
  C  C53  1  0.08234000  0.56791000  0.66425000  1.0
  C  C54  1  0.73984000  0.91185000  0.65332000  1.0
  C  C55  1  0.62562000  0.92121000  0.72831000  1.0
  C  C56  1  0.58875000  0.04555000  0.78036000  1.0
  C  C57  1  0.66115000  0.15558000  0.74822000  1.0
  C  C58  1  0.77338000  0.13583000  0.67288000  1.0
  C  C59  1  0.41912000  0.95500000  0.89981000  1.0
  C  C60  1  0.23604000  0.11640000  0.97119000  1.0
  C  C61  1  0.01475000  0.21144000  0.03489000  1.0
  C  C62  1  0.90686000  0.22214000  0.11746000  1.0
  C  C63  1  0.78812000  0.29600000  0.09920000  1.0
  C  C64  1  0.87583000  0.34903000  0.92601000  1.0
  C  C65  1  0.99823000  0.27603000  0.93606000  1.0
  C  C66  1  0.42792000  0.46209000  0.16898000  1.0
  C  C67  1  0.30222000  0.49939000  0.24437000  1.0
  C  C68  1  0.27295000  0.63043000  0.28059000  1.0
  C  C69  1  0.15386000  0.66245000  0.34916000  1.0
  C  C70  1  0.06181000  0.56364000  0.37748000  1.0
  C  C71  1  0.21111000  0.40055000  0.27481000  1.0
  C  C72  1  0.12284000  0.80247000  0.38888000  1.0
  C  C73  1  0.08973000  0.43256000  0.34043000  1.0
  C  C74  1  0.32789000  0.00226000  0.00280000  1.0
  N  N75  1  0.82067000  0.98530000  0.37356000  1.0
  N  N76  1  0.77368000  0.64262000  0.99480000  1.0
  N  N77  1  0.81553000  0.01597000  0.62724000  1.0
  N  N78  1  0.77145000  0.35953000  0.00492000  1.0
  O  O79  1  0.45729000  0.66225000  0.85172000  1.0
  O  O80  1  0.49937000  0.44826000  0.86542000  1.0
  O  O81  1  0.05326000  0.17670000  0.52017000  1.0
  O  O82  1  0.15113000  0.10953000  0.67885000  1.0
  O  O83  1  0.12857000  0.86639000  0.94716000  1.0
  O  O84  1  0.49104000  0.93633000  0.14220000  1.0
  O  O85  1  0.98472000  0.65892000  0.63669000  1.0
  O  O86  1  0.45765000  0.34409000  0.14327000  1.0
  O  O87  1  0.49850000  0.55854000  0.13223000  1.0
  O  O88  1  0.05296000  0.82312000  0.48667000  1.0
  O  O89  1  0.15637000  0.89242000  0.33114000  1.0
  O  O90  1  0.12788000  0.13883000  0.05790000  1.0
  O  O91  1  0.48855000  0.06777000  0.86108000  1.0
  O  O92  1  0.99337000  0.34000000  0.36702000  1.0
