# generated using pymatgen
data_ZnH14C13N4Cl2O
_symmetry_space_group_name_H-M   'P 1'
_cell_length_a   4.60921000
_cell_length_b   12.08520000
_cell_length_c   13.64810000
_cell_angle_alpha   107.08200000
_cell_angle_beta   90.00000000
_cell_angle_gamma   89.99990000
_symmetry_Int_Tables_number   1
_chemical_formula_structural   ZnH14C13N4Cl2O
_chemical_formula_sum   'Zn2 H28 C26 N8 Cl4 O2'
_cell_volume   726.70531385
_cell_formula_units_Z   2
loop_
 _symmetry_equiv_pos_site_id
 _symmetry_equiv_pos_as_xyz
  1  'x, y, z'
loop_
 _atom_site_type_symbol
 _atom_site_label
 _atom_site_symmetry_multiplicity
 _atom_site_fract_x
 _atom_site_fract_y
 _atom_site_fract_z
 _atom_site_occupancy
  Zn  Zn0  1  0.45156000  0.75000000  0.75000000  1.0
  Zn  Zn1  1  0.54844000  0.25000000  0.25000000  1.0
  H  H2  1  0.18850000  0.96954000  0.74280000  1.0
  H  H3  1  0.18850000  0.53047000  0.75720000  1.0
  H  H4  1  0.81150000  0.03046000  0.25720000  1.0
  H  H5  1  0.81150000  0.46953000  0.24280000  1.0
  H  H6  1  0.83966000  0.03872000  0.63231000  1.0
  H  H7  1  0.83966000  0.46128000  0.86769000  1.0
  H  H8  1  0.16034000  0.96128000  0.36769000  1.0
  H  H9  1  0.16034000  0.53872000  0.13231000  1.0
  H  H10  1  0.67552000  0.89669000  0.46603000  1.0
  H  H11  1  0.67551000  0.60331000  0.03397000  1.0
  H  H12  1  0.32449000  0.10331000  0.53397000  1.0
  H  H13  1  0.32448000  0.39669000  0.96603000  1.0
  H  H14  1  0.20827000  0.63952000  0.54067000  1.0
  H  H15  1  0.20827000  0.86048000  0.95933000  1.0
  H  H16  1  0.79173000  0.36048000  0.45933000  1.0
  H  H17  1  0.79173000  0.13952000  0.04067000  1.0
  H  H18  1  0.02610000  0.61192000  0.36005000  1.0
  H  H19  1  0.02610000  0.88808000  0.13995000  1.0
  H  H20  1  0.97390000  0.38808000  0.63995000  1.0
  H  H21  1  0.97390000  0.11192000  0.86005000  1.0
  H  H22  1  0.68271000  0.60649000  0.41403000  1.0
  H  H23  1  0.68271000  0.89351000  0.08597000  1.0
  H  H24  1  0.31729000  0.39351000  0.58597000  1.0
  H  H25  1  0.31729000  0.10649000  0.91403000  1.0
  H  H26  1  0.47855000  0.71057000  0.31119000  1.0
  H  H27  1  0.47855000  0.78943000  0.18881000  1.0
  H  H28  1  0.52146000  0.28943000  0.68881000  1.0
  H  H29  1  0.52146000  0.21057000  0.81119000  1.0
  C  C30  1  0.10794000  0.91252000  0.67083000  1.0
  C  C31  1  0.10793000  0.58748000  0.82917000  1.0
  C  C32  1  0.89206000  0.08748000  0.32917000  1.0
  C  C33  1  0.89206000  0.41252000  0.17083000  1.0
  C  C34  1  0.91680000  0.94954000  0.60835000  1.0
  C  C35  1  0.91679000  0.55046000  0.89165000  1.0
  C  C36  1  0.08321000  0.05046000  0.39165000  1.0
  C  C37  1  0.08320000  0.44954000  0.10835000  1.0
  C  C38  1  0.82614000  0.87066000  0.51683000  1.0
  C  C39  1  0.82614000  0.62934000  0.98317000  1.0
  C  C40  1  0.17386000  0.12934000  0.48317000  1.0
  C  C41  1  0.17386000  0.37066000  0.01683000  1.0
  C  C42  1  0.93048000  0.75729000  0.48940000  1.0
  C  C43  1  0.93048000  0.74271000  0.01060000  1.0
  C  C44  1  0.06952000  0.24271000  0.51060000  1.0
  C  C45  1  0.06952000  0.25729000  0.98940000  1.0
  C  C46  1  0.12057000  0.72702000  0.55701000  1.0
  C  C47  1  0.12057000  0.77298000  0.94299000  1.0
  C  C48  1  0.87943000  0.27298000  0.44299000  1.0
  C  C49  1  0.87943000  0.22702000  0.05701000  1.0
  C  C50  1  0.83698000  0.66549000  0.39313000  1.0
  C  C51  1  0.83698000  0.83451000  0.10687000  1.0
  C  C52  1  0.16302000  0.33451000  0.60687000  1.0
  C  C53  1  0.16303000  0.16549000  0.89313000  1.0
  C  C54  1  0.85727000  0.75000000  0.25000000  1.0
  C  C55  1  0.14273000  0.25000000  0.75000000  1.0
  N  N56  1  0.20568000  0.80278000  0.64571000  1.0
  N  N57  1  0.20568000  0.69721000  0.85429000  1.0
  N  N58  1  0.79432000  0.19721000  0.35429000  1.0
  N  N59  1  0.79432000  0.30278000  0.14571000  1.0
  N  N60  1  0.70007000  0.70877000  0.31636000  1.0
  N  N61  1  0.70007000  0.79123000  0.18364000  1.0
  N  N62  1  0.29993000  0.29123000  0.68364000  1.0
  N  N63  1  0.29993000  0.20877000  0.81636000  1.0
  Cl  Cl64  1  0.65072000  0.91461000  0.85086000  1.0
  Cl  Cl65  1  0.65072000  0.58539000  0.64914000  1.0
  Cl  Cl66  1  0.34928000  0.08539000  0.14914000  1.0
  Cl  Cl67  1  0.34928000  0.41461000  0.35086000  1.0
  O  O68  1  0.13125000  0.74999000  0.25000000  1.0
  O  O69  1  0.86875000  0.24999000  0.75000000  1.0
