# generated using pymatgen
data_Cu2H3C2SN4Cl
_symmetry_space_group_name_H-M   'P 1'
_cell_length_a   6.70604000
_cell_length_b   6.70604000
_cell_length_c   17.28920000
_cell_angle_alpha   78.95570000
_cell_angle_beta   78.95560000
_cell_angle_gamma   62.83970000
_symmetry_Int_Tables_number   1
_chemical_formula_structural   Cu2H3C2SN4Cl
_chemical_formula_sum   'Cu8 H12 C8 S4 N16 Cl4'
_cell_volume   674.12224704
_cell_formula_units_Z   4
loop_
 _symmetry_equiv_pos_site_id
 _symmetry_equiv_pos_as_xyz
  1  'x, y, z'
loop_
 _atom_site_type_symbol
 _atom_site_label
 _atom_site_symmetry_multiplicity
 _atom_site_fract_x
 _atom_site_fract_y
 _atom_site_fract_z
 _atom_site_occupancy
  Cu  Cu0  1  0.13371000  0.58979000  0.31077000  1.0
  Cu  Cu1  1  0.41021000  0.86629000  0.18923000  1.0
  Cu  Cu2  1  0.86629000  0.41021000  0.68923000  1.0
  Cu  Cu3  1  0.58979000  0.13371000  0.81077000  1.0
  Cu  Cu4  1  0.97735000  0.74687000  0.50218000  1.0
  Cu  Cu5  1  0.25313000  0.02264000  0.99782000  1.0
  Cu  Cu6  1  0.02265000  0.25313000  0.49782000  1.0
  Cu  Cu7  1  0.74687000  0.97735000  0.00218000  1.0
  H  H8  1  0.44566000  0.29252000  0.44929000  1.0
  H  H9  1  0.70748000  0.55434000  0.05071000  1.0
  H  H10  1  0.55434000  0.70748000  0.55071000  1.0
  H  H11  1  0.29252000  0.44566000  0.94929000  1.0
  H  H12  1  0.65812000  0.33898000  0.37865000  1.0
  H  H13  1  0.66102000  0.34188000  0.12135000  1.0
  H  H14  1  0.34188000  0.66102000  0.62135000  1.0
  H  H15  1  0.33898000  0.65812000  0.87865000  1.0
  H  H16  1  0.69191000  0.05505000  0.41178000  1.0
  H  H17  1  0.94495000  0.30808000  0.08822000  1.0
  H  H18  1  0.30809000  0.94495000  0.58822000  1.0
  H  H19  1  0.05505000  0.69191000  0.91178000  1.0
  C  C20  1  0.31854000  0.06230000  0.34848000  1.0
  C  C21  1  0.93769000  0.68147000  0.15152000  1.0
  C  C22  1  0.68146000  0.93770000  0.65152000  1.0
  C  C23  1  0.06231000  0.31853000  0.84848000  1.0
  C  C24  1  0.57042000  0.23086000  0.39790000  1.0
  C  C25  1  0.76914000  0.42957000  0.10210000  1.0
  C  C26  1  0.42957000  0.76914000  0.60210000  1.0
  C  C27  1  0.23086000  0.57043000  0.89790000  1.0
  S  S28  1  0.43657000  0.25070000  0.31350000  1.0
  S  S29  1  0.74930000  0.56343000  0.18650000  1.0
  S  S30  1  0.56342000  0.74930000  0.68650000  1.0
  S  S31  1  0.25071000  0.43657000  0.81350000  1.0
  N  N32  1  0.31293000  0.92781000  0.30111000  1.0
  N  N33  1  0.07219000  0.68707000  0.19889000  1.0
  N  N34  1  0.68707000  0.07219000  0.69889000  1.0
  N  N35  1  0.92781000  0.31293000  0.80111000  1.0
  N  N36  1  0.20905000  0.80876000  0.34721000  1.0
  N  N37  1  0.19124000  0.79096000  0.15279000  1.0
  N  N38  1  0.79095000  0.19124000  0.65279000  1.0
  N  N39  1  0.80876000  0.20905000  0.84721000  1.0
  N  N40  1  0.15505000  0.86684000  0.41981000  1.0
  N  N41  1  0.13316000  0.84495000  0.08019000  1.0
  N  N42  1  0.84495000  0.13316000  0.58019000  1.0
  N  N43  1  0.86684000  0.15505000  0.91981000  1.0
  N  N44  1  0.21685000  0.03188000  0.42219000  1.0
  N  N45  1  0.96812000  0.78315000  0.07781000  1.0
  N  N46  1  0.78315000  0.96812000  0.57781000  1.0
  N  N47  1  0.03188000  0.21685000  0.92219000  1.0
  Cl  Cl48  1  0.84664000  0.59168000  0.41462000  1.0
  Cl  Cl49  1  0.40832000  0.15336000  0.08538000  1.0
  Cl  Cl50  1  0.15337000  0.40832000  0.58538000  1.0
  Cl  Cl51  1  0.59168000  0.84663000  0.91462000  1.0
