# generated using pymatgen
data_CoH2CO3
_symmetry_space_group_name_H-M   'P 1'
_cell_length_a   7.55477000
_cell_length_b   7.60693000
_cell_length_c   7.70400000
_cell_angle_alpha   97.00160000
_cell_angle_beta   97.44850000
_cell_angle_gamma   97.81710000
_symmetry_Int_Tables_number   1
_chemical_formula_structural   CoH2CO3
_chemical_formula_sum   'Co6 H12 C6 O18'
_cell_volume   430.51322729
_cell_formula_units_Z   6
loop_
 _symmetry_equiv_pos_site_id
 _symmetry_equiv_pos_as_xyz
  1  'x, y, z'
loop_
 _atom_site_type_symbol
 _atom_site_label
 _atom_site_symmetry_multiplicity
 _atom_site_fract_x
 _atom_site_fract_y
 _atom_site_fract_z
 _atom_site_occupancy
  Co  Co0  1  0.07432000  0.98214000  0.71436000  1.0
  Co  Co1  1  0.98354000  0.70804000  0.06784000  1.0
  Co  Co2  1  0.70878000  0.07481000  0.97412000  1.0
  Co  Co3  1  0.93550000  0.03041000  0.30507000  1.0
  Co  Co4  1  0.01309000  0.28678000  0.92570000  1.0
  Co  Co5  1  0.28669000  0.91974000  0.01734000  1.0
  H  H6  1  0.85293000  0.58571000  0.54338000  1.0
  H  H7  1  0.58156000  0.55027000  0.85685000  1.0
  H  H8  1  0.54978000  0.85040000  0.58928000  1.0
  H  H9  1  0.14855000  0.42087000  0.45924000  1.0
  H  H10  1  0.41469000  0.44921000  0.14814000  1.0
  H  H11  1  0.44732000  0.14091000  0.40635000  1.0
  H  H12  1  0.78345000  0.10791000  0.65752000  1.0
  H  H13  1  0.10657000  0.65854000  0.78324000  1.0
  H  H14  1  0.67616000  0.79356000  0.10158000  1.0
  H  H15  1  0.21432000  0.89167000  0.33345000  1.0
  H  H16  1  0.89333000  0.33609000  0.21031000  1.0
  H  H17  1  0.33396000  0.21234000  0.90066000  1.0
  C  C18  1  0.87683000  0.66385000  0.43405000  1.0
  C  C19  1  0.65613000  0.43733000  0.87867000  1.0
  C  C20  1  0.43669000  0.87489000  0.66268000  1.0
  C  C21  1  0.12742000  0.34399000  0.56999000  1.0
  C  C22  1  0.33879000  0.56052000  0.12287000  1.0
  C  C23  1  0.56187000  0.11916000  0.33426000  1.0
  O  O24  1  0.90513000  0.83451000  0.47467000  1.0
  O  O25  1  0.82836000  0.47378000  0.90835000  1.0
  O  O26  1  0.47374000  0.90359000  0.83130000  1.0
  O  O27  1  0.10223000  0.17319000  0.53315000  1.0
  O  O28  1  0.16667000  0.52153000  0.09227000  1.0
  O  O29  1  0.52666000  0.08833000  0.16597000  1.0
  O  O30  1  0.87470000  0.57903000  0.28229000  1.0
  O  O31  1  0.56725000  0.28320000  0.87353000  1.0
  O  O32  1  0.28292000  0.87342000  0.57547000  1.0
  O  O33  1  0.12918000  0.42918000  0.72148000  1.0
  O  O34  1  0.42652000  0.71470000  0.12566000  1.0
  O  O35  1  0.71595000  0.12646000  0.42431000  1.0
  O  O36  1  0.84686000  0.07925000  0.76862000  1.0
  O  O37  1  0.07727000  0.76945000  0.84713000  1.0
  O  O38  1  0.78776000  0.86049000  0.07408000  1.0
  O  O39  1  0.14553000  0.92228000  0.22626000  1.0
  O  O40  1  0.91949000  0.22230000  0.15012000  1.0
  O  O41  1  0.22152000  0.14620000  0.92841000  1.0
