# generated using pymatgen
data_Na2H8C8N16O
_symmetry_space_group_name_H-M   'P 1'
_cell_length_a   6.07145000
_cell_length_b   7.06477506
_cell_length_c   18.69810000
_cell_angle_alpha   93.46792842
_cell_angle_beta   90.00210000
_cell_angle_gamma   115.42853402
_symmetry_Int_Tables_number   1
_chemical_formula_structural   Na2H8C8N16O
_chemical_formula_sum   'Na4 H16 C16 N32 O2'
_cell_volume   722.69924354
_cell_formula_units_Z   2
loop_
 _symmetry_equiv_pos_site_id
 _symmetry_equiv_pos_as_xyz
  1  'x, y, z'
loop_
 _atom_site_type_symbol
 _atom_site_label
 _atom_site_symmetry_multiplicity
 _atom_site_fract_x
 _atom_site_fract_y
 _atom_site_fract_z
 _atom_site_occupancy
  Na  Na0  1  0.34871000  0.27550000  0.22447000  1.0
  Na  Na1  1  0.07315000  0.72472000  0.27551000  1.0
  Na  Na2  1  0.65129000  0.72450000  0.77553000  1.0
  Na  Na3  1  0.92686000  0.27528000  0.72449000  1.0
  H  H4  1  0.08495000  0.69443000  0.43372000  1.0
  H  H5  1  0.39102000  0.30566000  0.06624000  1.0
  H  H6  1  0.91505000  0.30557000  0.56627000  1.0
  H  H7  1  0.60897000  0.69433000  0.93376000  1.0
  H  H8  1  0.45709000  0.78610000  0.56002000  1.0
  H  H9  1  0.67169000  0.21399000  0.93998000  1.0
  H  H10  1  0.54291000  0.21390000  0.43998000  1.0
  H  H11  1  0.32830000  0.78601000  0.06001000  1.0
  H  H12  1  0.80990000  0.76020000  0.50246000  1.0
  H  H13  1  0.05037000  0.23975000  0.99756000  1.0
  H  H14  1  0.19010000  0.23980000  0.49754000  1.0
  H  H15  1  0.94962000  0.76025000  0.00244000  1.0
  H  H16  1  0.58779000  0.05278000  0.28869000  1.0
  H  H17  1  0.53504000  0.94723000  0.21131000  1.0
  H  H18  1  0.41221000  0.94722000  0.71131000  1.0
  H  H19  1  0.46495000  0.05277000  0.78869000  1.0
  C  C20  1  0.41770000  0.67410000  0.41250000  1.0
  C  C21  1  0.74406000  0.32599000  0.08752000  1.0
  C  C22  1  0.58230000  0.32589000  0.58750000  1.0
  C  C23  1  0.25594000  0.67401000  0.91248000  1.0
  C  C24  1  0.12128000  0.80822000  0.57532000  1.0
  C  C25  1  0.31371000  0.19181000  0.92467000  1.0
  C  C26  1  0.87873000  0.19179000  0.42468000  1.0
  C  C27  1  0.68628000  0.80818000  0.07533000  1.0
  C  C28  1  0.29216000  0.76733000  0.53134000  1.0
  C  C29  1  0.52552000  0.23278000  0.96866000  1.0
  C  C30  1  0.70784000  0.23266000  0.46866000  1.0
  C  C31  1  0.47448000  0.76722000  0.03134000  1.0
  C  C32  1  0.25430000  0.71420000  0.46037000  1.0
  C  C33  1  0.54067000  0.28591000  0.03961000  1.0
  C  C34  1  0.74570000  0.28580000  0.53963000  1.0
  C  C35  1  0.45932000  0.71409000  0.96039000  1.0
  N  N36  1  0.90655000  0.80459000  0.55381000  1.0
  N  N37  1  0.10263000  0.19537000  0.94621000  1.0
  N  N38  1  0.09345000  0.19541000  0.44619000  1.0
  N  N39  1  0.89736000  0.80463000  0.05379000  1.0
  N  N40  1  0.64285000  0.68754000  0.42677000  1.0
  N  N41  1  0.95576000  0.31246000  0.07326000  1.0
  N  N42  1  0.35716000  0.31246000  0.57323000  1.0
  N  N43  1  0.04425000  0.68755000  0.92674000  1.0
  N  N44  1  0.35327000  0.61072000  0.34291000  1.0
  N  N45  1  0.74296000  0.38937000  0.15710000  1.0
  N  N46  1  0.64673000  0.38927000  0.65709000  1.0
  N  N47  1  0.25704000  0.61063000  0.84290000  1.0
  N  N48  1  0.95172000  0.88983000  0.66588000  1.0
  N  N49  1  0.06249000  0.11025000  0.83414000  1.0
  N  N50  1  0.04828000  0.11017000  0.33412000  1.0
  N  N51  1  0.93750000  0.88975000  0.16586000  1.0
  N  N52  1  0.15037000  0.86231000  0.64600000  1.0
  N  N53  1  0.28867000  0.13776000  0.85399000  1.0
  N  N54  1  0.84963000  0.13769000  0.35399000  1.0
  N  N55  1  0.71133000  0.86224000  0.14601000  1.0
  N  N56  1  0.80390000  0.85587000  0.61070000  1.0
  N  N57  1  0.94867000  0.14414000  0.88934000  1.0
  N  N58  1  0.19609000  0.14413000  0.38930000  1.0
  N  N59  1  0.05132000  0.85586000  0.11067000  1.0
  N  N60  1  0.54052000  0.58261000  0.31477000  1.0
  N  N61  1  0.95826000  0.41746000  0.18526000  1.0
  N  N62  1  0.45949000  0.41739000  0.68523000  1.0
  N  N63  1  0.04174000  0.58254000  0.81474000  1.0
  N  N64  1  0.71505000  0.62943000  0.36476000  1.0
  N  N65  1  0.08600000  0.37058000  0.13528000  1.0
  N  N66  1  0.28496000  0.37057000  0.63524000  1.0
  N  N67  1  0.91400000  0.62942000  0.86472000  1.0
  O  O68  1  0.45917000  0.00007000  0.24999000  1.0
  O  O69  1  0.54083000  0.99993000  0.75001000  1.0
