# generated using pymatgen
data_RbH7C14(NO3)4
_symmetry_space_group_name_H-M   'P 1'
_cell_length_a   9.40911000
_cell_length_b   9.80388000
_cell_length_c   11.51750000
_cell_angle_alpha   68.00570000
_cell_angle_beta   83.61870000
_cell_angle_gamma   68.18460000
_symmetry_Int_Tables_number   1
_chemical_formula_structural   RbH7C14(NO3)4
_chemical_formula_sum   'Rb2 H14 C28 N8 O24'
_cell_volume   914.08431209
_cell_formula_units_Z   2
loop_
 _symmetry_equiv_pos_site_id
 _symmetry_equiv_pos_as_xyz
  1  'x, y, z'
loop_
 _atom_site_type_symbol
 _atom_site_label
 _atom_site_symmetry_multiplicity
 _atom_site_fract_x
 _atom_site_fract_y
 _atom_site_fract_z
 _atom_site_occupancy
  Rb  Rb0  1  0.60296000  0.23241000  0.63099000  1.0
  Rb  Rb1  1  0.39704000  0.76759000  0.36901000  1.0
  H  H2  1  0.71359000  0.46909000  0.65550000  1.0
  H  H3  1  0.28641000  0.53091000  0.34450000  1.0
  H  H4  1  0.18665000  0.79180000  0.67236000  1.0
  H  H5  1  0.81334000  0.20820000  0.32763000  1.0
  H  H6  1  0.18103000  0.98770000  0.95345000  1.0
  H  H7  1  0.81897000  0.01230000  0.04655000  1.0
  H  H8  1  0.58223000  0.60873000  0.91555000  1.0
  H  H9  1  0.41777000  0.39127000  0.08445000  1.0
  H  H10  1  0.80955000  0.70185000  0.23177000  1.0
  H  H11  1  0.19045000  0.29815000  0.76823000  1.0
  H  H12  1  0.20693000  0.34958000  0.15487000  1.0
  H  H13  1  0.79307000  0.65042000  0.84513000  1.0
  H  H14  1  0.01700000  0.24871000  0.52196000  1.0
  H  H15  1  0.98301000  0.75129000  0.47804000  1.0
  C  C16  1  0.39462000  0.69001000  0.78526000  1.0
  C  C17  1  0.60538000  0.30999000  0.21474000  1.0
  C  C18  1  0.24429000  0.79303000  0.74849000  1.0
  C  C19  1  0.75571000  0.20697000  0.25151000  1.0
  C  C20  1  0.17041000  0.89831000  0.80960000  1.0
  C  C21  1  0.82959000  0.10169000  0.19040000  1.0
  C  C22  1  0.23999000  0.90469000  0.90696000  1.0
  C  C23  1  0.76001000  0.09532000  0.09303000  1.0
  C  C24  1  0.38844000  0.79794000  0.94307000  1.0
  C  C25  1  0.61156000  0.20206000  0.05693000  1.0
  C  C26  1  0.46634000  0.69077000  0.88476000  1.0
  C  C27  1  0.53366000  0.30923000  0.11524000  1.0
  C  C28  1  0.48218000  0.58331000  0.71441000  1.0
  C  C29  1  0.51782000  0.41669000  0.28559000  1.0
  C  C30  1  0.90072000  0.48070000  0.38642000  1.0
  C  C31  1  0.09928000  0.51930000  0.61358000  1.0
  C  C32  1  0.89710000  0.58461000  0.26308000  1.0
  C  C33  1  0.10290000  0.41539000  0.73692000  1.0
  C  C34  1  0.00699000  0.53487000  0.18186000  1.0
  C  C35  1  0.99301000  0.46513000  0.81814000  1.0
  C  C36  1  0.12191000  0.38670000  0.21920000  1.0
  C  C37  1  0.87809000  0.61330000  0.78080000  1.0
  C  C38  1  0.12280000  0.28707000  0.34233000  1.0
  C  C39  1  0.87721000  0.71293000  0.65767000  1.0
  C  C40  1  0.01302000  0.32997000  0.42633000  1.0
  C  C41  1  0.98698000  0.67003000  0.57367000  1.0
  C  C42  1  0.78768000  0.53678000  0.47637000  1.0
  C  C43  1  0.21232000  0.46322000  0.52363000  1.0
  N  N44  1  0.01201000  0.00635000  0.77177000  1.0
  N  N45  1  0.98799000  0.99365000  0.22823000  1.0
  N  N46  1  0.46627000  0.79914000  0.04617000  1.0
  N  N47  1  0.53373000  0.20086000  0.95383000  1.0
  N  N48  1  0.00545000  0.64137000  0.05185000  1.0
  N  N49  1  0.99455000  0.35863000  0.94815000  1.0
  N  N50  1  0.24652000  0.13310000  0.38485000  1.0
  N  N51  1  0.75348000  0.86691000  0.61515000  1.0
  O  O52  1  0.62567000  0.50788000  0.74649000  1.0
  O  O53  1  0.37433000  0.49212000  0.25351000  1.0
  O  O54  1  0.41430000  0.57691000  0.63003000  1.0
  O  O55  1  0.58570000  0.42309000  0.36997000  1.0
  O  O56  1  0.94825000  0.99611000  0.68784000  1.0
  O  O57  1  0.05175000  0.00390000  0.31216000  1.0
  O  O58  1  0.94996000  0.10218000  0.82455000  1.0
  O  O59  1  0.05004000  0.89782000  0.17545000  1.0
  O  O60  1  0.39917000  0.90326000  0.09089000  1.0
  O  O61  1  0.60082000  0.09673000  0.90911000  1.0
  O  O62  1  0.59396000  0.69623000  0.08336000  1.0
  O  O63  1  0.40604000  0.30378000  0.91664000  1.0
  O  O64  1  0.79509000  0.42671000  0.58705000  1.0
  O  O65  1  0.20491000  0.57329000  0.41295000  1.0
  O  O66  1  0.70112000  0.67643000  0.44567000  1.0
  O  O67  1  0.29888000  0.32357000  0.55433000  1.0
  O  O68  1  0.90068000  0.77181000  0.01581000  1.0
  O  O69  1  0.09932000  0.22819000  0.98419000  1.0
  O  O70  1  0.10985000  0.59365000  0.98455000  1.0
  O  O71  1  0.89015000  0.40635000  0.01545000  1.0
  O  O72  1  0.34940000  0.10411000  0.31026000  1.0
  O  O73  1  0.65060000  0.89589000  0.68974000  1.0
  O  O74  1  0.24220000  0.03931000  0.49194000  1.0
  O  O75  1  0.75780000  0.96069000  0.50806000  1.0
