# generated using pymatgen
data_AgH17C20(NO2)2
_symmetry_space_group_name_H-M   'P 1'
_cell_length_a   8.35510000
_cell_length_b   9.77945000
_cell_length_c   11.76580000
_cell_angle_alpha   89.40800000
_cell_angle_beta   73.90150000
_cell_angle_gamma   77.62860000
_symmetry_Int_Tables_number   1
_chemical_formula_structural   AgH17C20(NO2)2
_chemical_formula_sum   'Ag2 H34 C40 N4 O8'
_cell_volume   900.98224324
_cell_formula_units_Z   2
loop_
 _symmetry_equiv_pos_site_id
 _symmetry_equiv_pos_as_xyz
  1  'x, y, z'
loop_
 _atom_site_type_symbol
 _atom_site_label
 _atom_site_symmetry_multiplicity
 _atom_site_fract_x
 _atom_site_fract_y
 _atom_site_fract_z
 _atom_site_occupancy
  Ag  Ag0  1  0.63823000  0.44682000  0.55437000  1.0
  Ag  Ag1  1  0.36177000  0.55318000  0.44563000  1.0
  H  H2  1  0.53628000  0.30296000  0.78412000  1.0
  H  H3  1  0.46372000  0.69704000  0.21588000  1.0
  H  H4  1  0.31687000  0.34245000  0.98363000  1.0
  H  H5  1  0.68313000  0.65755000  0.01637000  1.0
  H  H6  1  0.09533000  0.56797000  0.02695000  1.0
  H  H7  1  0.90466000  0.43203000  0.97305000  1.0
  H  H8  1  0.34136000  0.69386000  0.68140000  1.0
  H  H9  1  0.65863000  0.30614000  0.31860000  1.0
  H  H10  1  0.12888000  0.87355000  0.86039000  1.0
  H  H11  1  0.87112000  0.12645000  0.13961000  1.0
  H  H12  1  0.99256000  0.78606000  0.81024000  1.0
  H  H13  1  0.00744000  0.21394000  0.18976000  1.0
  H  H14  1  0.75323000  0.82367000  0.19962000  1.0
  H  H15  1  0.24677000  0.17634000  0.80038000  1.0
  H  H16  1  0.50424000  0.01643000  0.28045000  1.0
  H  H17  1  0.49576000  0.98357000  0.71954000  1.0
  H  H18  1  0.60993000  0.21157000  0.94544000  1.0
  H  H19  1  0.39007000  0.78844000  0.05456000  1.0
  H  H20  1  0.85950000  0.01763000  0.86400000  1.0
  H  H21  1  0.14050000  0.98237000  0.13600000  1.0
  H  H22  1  0.37756000  0.24311000  0.33605000  1.0
  H  H23  1  0.62244000  0.75689000  0.66395000  1.0
  H  H24  1  0.24907000  0.14311000  0.29027000  1.0
  H  H25  1  0.75093000  0.85689000  0.70973000  1.0
  H  H26  1  0.98319000  0.26392000  0.43041000  1.0
  H  H27  1  0.01681000  0.73607000  0.56959000  1.0
  H  H28  1  0.28148000  0.49982000  0.17665000  1.0
  H  H29  1  0.71852000  0.50018000  0.82335000  1.0
  H  H30  1  0.03271000  0.70662000  0.23633000  1.0
  H  H31  1  0.96729000  0.29338000  0.76368000  1.0
  H  H32  1  0.76881000  0.67857000  0.39597000  1.0
  H  H33  1  0.23119000  0.32143000  0.60403000  1.0
  H  H34  1  0.68561000  0.92704000  0.49259000  1.0
  H  H35  1  0.31440000  0.07296000  0.50740000  1.0
  C  C36  1  0.43986000  0.40058000  0.80935000  1.0
  C  C37  1  0.56014000  0.59942000  0.19065000  1.0
  C  C38  1  0.31729000  0.42257000  0.91865000  1.0
  C  C39  1  0.68271000  0.57743000  0.08135000  1.0
  C  C40  1  0.19425000  0.54797000  0.94286000  1.0
  C  C41  1  0.80575000  0.45203000  0.05714000  1.0
  C  C42  1  0.19772000  0.64808000  0.85739000  1.0
  C  C43  1  0.80228000  0.35192000  0.14261000  1.0
  C  C44  1  0.32837000  0.61910000  0.75117000  1.0
  C  C45  1  0.67163000  0.38090000  0.24883000  1.0
  C  C46  1  0.06655000  0.78362000  0.87509000  1.0
  C  C47  1  0.93345000  0.21638000  0.12491000  1.0
  C  C48  1  0.82191000  0.90592000  0.02693000  1.0
  C  C49  1  0.17809000  0.09408000  0.97306000  1.0
  C  C50  1  0.72054000  0.90871000  0.14393000  1.0
  C  C51  1  0.27946000  0.09130000  0.85607000  1.0
  C  C52  1  0.57935000  0.01785000  0.18906000  1.0
  C  C53  1  0.42064000  0.98215000  0.81094000  1.0
  C  C54  1  0.53822000  0.12688000  0.11697000  1.0
  C  C55  1  0.46178000  0.87312000  0.88303000  1.0
  C  C56  1  0.64079000  0.12535000  0.00048000  1.0
  C  C57  1  0.35921000  0.87465000  0.99951000  1.0
  C  C58  1  0.78170000  0.01545000  0.95483000  1.0
  C  C59  1  0.21830000  0.98455000  0.04517000  1.0
  C  C60  1  0.29886000  0.23965000  0.27472000  1.0
  C  C61  1  0.70114000  0.76035000  0.72528000  1.0
  C  C62  1  0.15400000  0.36606000  0.30013000  1.0
  C  C63  1  0.84600000  0.63394000  0.69987000  1.0
  C  C64  1  0.00216000  0.36050000  0.38612000  1.0
  C  C65  1  0.99784000  0.63950000  0.61388000  1.0
  C  C66  1  0.16570000  0.49241000  0.24499000  1.0
  C  C67  1  0.83430000  0.50759000  0.75501000  1.0
  C  C68  1  0.02741000  0.60696000  0.27803000  1.0
  C  C69  1  0.97259000  0.39304000  0.72197000  1.0
  C  C70  1  0.88171000  0.59333000  0.36590000  1.0
  C  C71  1  0.11829000  0.40667000  0.63410000  1.0
  C  C72  1  0.60318000  0.15830000  0.51224000  1.0
  C  C73  1  0.39682000  0.84170000  0.48776000  1.0
  C  C74  1  0.57577000  0.01358000  0.49930000  1.0
  C  C75  1  0.42424000  0.98642000  0.50070000  1.0
  N  N76  1  0.44625000  0.49804000  0.72729000  1.0
  N  N77  1  0.55375000  0.50196000  0.27271000  1.0
  N  N78  1  0.86964000  0.47148000  0.41881000  1.0
  N  N79  1  0.13036000  0.52852000  0.58119000  1.0
  O  O80  1  0.73416000  0.16947000  0.54298000  1.0
  O  O81  1  0.26584000  0.83054000  0.45703000  1.0
  O  O82  1  0.49141000  0.26109000  0.49297000  1.0
  O  O83  1  0.50860000  0.73891000  0.50703000  1.0
  O  O84  1  0.95621000  0.79198000  0.99251000  1.0
  O  O85  1  0.04379000  0.20802000  0.00749000  1.0
  O  O86  1  0.40046000  0.23827000  0.15418000  1.0
  O  O87  1  0.59953000  0.76173000  0.84582000  1.0
