# generated using pymatgen
data_NaH5C7O3
_symmetry_space_group_name_H-M   'P 1'
_cell_length_a   3.55807000
_cell_length_b   5.30983000
_cell_length_c   16.08010000
_cell_angle_alpha   89.99950000
_cell_angle_beta   89.66630000
_cell_angle_gamma   89.99970000
_symmetry_Int_Tables_number   1
_chemical_formula_structural   NaH5C7O3
_chemical_formula_sum   'Na2 H10 C14 O6'
_cell_volume   303.79210573
_cell_formula_units_Z   2
loop_
 _symmetry_equiv_pos_site_id
 _symmetry_equiv_pos_as_xyz
  1  'x, y, z'
loop_
 _atom_site_type_symbol
 _atom_site_label
 _atom_site_symmetry_multiplicity
 _atom_site_fract_x
 _atom_site_fract_y
 _atom_site_fract_z
 _atom_site_occupancy
  Na  Na0  1  0.25993000  0.14438000  0.94502000  1.0
  Na  Na1  1  0.74011000  0.64436000  0.05498000  1.0
  H  H2  1  0.56365000  0.41865000  0.59722000  1.0
  H  H3  1  0.43633000  0.91861000  0.40278000  1.0
  H  H4  1  0.09228000  0.13383000  0.64210000  1.0
  H  H5  1  0.90773000  0.63379000  0.35791000  1.0
  H  H6  1  0.52213000  0.34562000  0.75049000  1.0
  H  H7  1  0.47791000  0.84560000  0.24952000  1.0
  H  H8  1  0.01888000  0.06939000  0.79382000  1.0
  H  H9  1  0.98114000  0.56938000  0.20619000  1.0
  H  H10  1  0.97227000  0.97301000  0.51269000  1.0
  H  H11  1  0.02770000  0.47299000  0.48731000  1.0
  C  C12  1  0.83633000  0.77771000  0.61092000  1.0
  C  C13  1  0.16362000  0.27769000  0.38908000  1.0
  C  C14  1  0.67094000  0.55709000  0.64114000  1.0
  C  C15  1  0.32902000  0.05706000  0.35886000  1.0
  C  C16  1  0.96436000  0.96180000  0.66588000  1.0
  C  C17  1  0.03563000  0.46177000  0.33412000  1.0
  C  C18  1  0.64688000  0.51807000  0.72645000  1.0
  C  C19  1  0.35309000  0.01806000  0.27354000  1.0
  C  C20  1  0.92834000  0.92287000  0.75102000  1.0
  C  C21  1  0.07164000  0.42285000  0.24898000  1.0
  C  C22  1  0.77666000  0.69900000  0.78273000  1.0
  C  C23  1  0.22331000  0.19899000  0.21727000  1.0
  C  C24  1  0.75756000  0.65327000  0.87474000  1.0
  C  C25  1  0.24246000  0.15326000  0.12526000  1.0
  O  O26  1  0.87138000  0.80406000  0.52585000  1.0
  O  O27  1  0.12858000  0.30403000  0.47415000  1.0
  O  O28  1  0.72398000  0.42776000  0.90072000  1.0
  O  O29  1  0.27604000  0.92775000  0.09928000  1.0
  O  O30  1  0.77884000  0.84455000  0.92304000  1.0
  O  O31  1  0.22123000  0.34453000  0.07696000  1.0
