# generated using pymatgen
data_LiBH14C18(NO3)2
_symmetry_space_group_name_H-M   'P 1'
_cell_length_a   8.75940000
_cell_length_b   9.87419000
_cell_length_c   11.77670000
_cell_angle_alpha   105.19100000
_cell_angle_beta   92.04820000
_cell_angle_gamma   112.40200000
_symmetry_Int_Tables_number   1
_chemical_formula_structural   LiBH14C18(NO3)2
_chemical_formula_sum   'Li2 B2 H28 C36 N4 O12'
_cell_volume   898.25639586
_cell_formula_units_Z   2
loop_
 _symmetry_equiv_pos_site_id
 _symmetry_equiv_pos_as_xyz
  1  'x, y, z'
loop_
 _atom_site_type_symbol
 _atom_site_label
 _atom_site_symmetry_multiplicity
 _atom_site_fract_x
 _atom_site_fract_y
 _atom_site_fract_z
 _atom_site_occupancy
  Li  Li0  1  0.00302000  0.67655000  0.30722000  1.0
  Li  Li1  1  0.99698000  0.32345000  0.69278000  1.0
  B  B2  1  0.61451000  0.94254000  0.20419000  1.0
  B  B3  1  0.38549000  0.05746000  0.79581000  1.0
  H  H4  1  0.47643000  0.80820000  0.85216000  1.0
  H  H5  1  0.52357000  0.19179000  0.14784000  1.0
  H  H6  1  0.48983000  0.57564000  0.71555000  1.0
  H  H7  1  0.51018000  0.42436000  0.28445000  1.0
  H  H8  1  0.63773000  0.43439000  0.78964000  1.0
  H  H9  1  0.36226000  0.56561000  0.21036000  1.0
  H  H10  1  0.76593000  0.52897000  0.00367000  1.0
  H  H11  1  0.23407000  0.47102000  0.99634000  1.0
  H  H12  1  0.79577000  0.38725000  0.40437000  1.0
  H  H13  1  0.20423000  0.61275000  0.59562000  1.0
  H  H14  1  0.66235000  0.49069000  0.56800000  1.0
  H  H15  1  0.33765000  0.50931000  0.43200000  1.0
  H  H16  1  0.39184000  0.31939000  0.61421000  1.0
  H  H17  1  0.60816000  0.68062000  0.38579000  1.0
  H  H18  1  0.25770000  0.04468000  0.49367000  1.0
  H  H19  1  0.74230000  0.95532000  0.50633000  1.0
  H  H20  1  0.94749000  0.20661000  0.97227000  1.0
  H  H21  1  0.05251000  0.79339000  0.02773000  1.0
  H  H22  1  0.74877000  0.12703000  0.02177000  1.0
  H  H23  1  0.25123000  0.87297000  0.97824000  1.0
  H  H24  1  0.78236000  0.25953000  0.93752000  1.0
  H  H25  1  0.21764000  0.74047000  0.06248000  1.0
  H  H26  1  0.78862000  0.76955000  0.71008000  1.0
  H  H27  1  0.21138000  0.23045000  0.28992000  1.0
  H  H28  1  0.00621000  0.82259000  0.75669000  1.0
  H  H29  1  0.99379000  0.17741000  0.24331000  1.0
  H  H30  1  0.94029000  0.95223000  0.70879000  1.0
  H  H31  1  0.05971000  0.04777000  0.29122000  1.0
  C  C32  1  0.61165000  0.79812000  0.00354000  1.0
  C  C33  1  0.38835000  0.20188000  0.99646000  1.0
  C  C34  1  0.54048000  0.74654000  0.88352000  1.0
  C  C35  1  0.45952000  0.25345000  0.11648000  1.0
  C  C36  1  0.54947000  0.61604000  0.80803000  1.0
  C  C37  1  0.45053000  0.38396000  0.19197000  1.0
  C  C38  1  0.63161000  0.53664000  0.84910000  1.0
  C  C39  1  0.36839000  0.46336000  0.15090000  1.0
  C  C40  1  0.70318000  0.58862000  0.96785000  1.0
  C  C41  1  0.29681000  0.41138000  0.03215000  1.0
  C  C42  1  0.69343000  0.71844000  0.04616000  1.0
  C  C43  1  0.30657000  0.28156000  0.95384000  1.0
  C  C44  1  0.76914000  0.77430000  0.17200000  1.0
  C  C45  1  0.23085000  0.22570000  0.82800000  1.0
  C  C46  1  0.60219000  0.15815000  0.35722000  1.0
  C  C47  1  0.39781000  0.84185000  0.64278000  1.0
  C  C48  1  0.67814000  0.31343000  0.42471000  1.0
  C  C49  1  0.32186000  0.68657000  0.57529000  1.0
  C  C50  1  0.60209000  0.37004000  0.51600000  1.0
  C  C51  1  0.39791000  0.62996000  0.48399000  1.0
  C  C52  1  0.45050000  0.27495000  0.54218000  1.0
  C  C53  1  0.54950000  0.72505000  0.45782000  1.0
  C  C54  1  0.37479000  0.12186000  0.47511000  1.0
  C  C55  1  0.62521000  0.87814000  0.52489000  1.0
  C  C56  1  0.44864000  0.06218000  0.38192000  1.0
  C  C57  1  0.55136000  0.93783000  0.61808000  1.0
  C  C58  1  0.36513000  0.90150000  0.30876000  1.0
  C  C59  1  0.63487000  0.09850000  0.69124000  1.0
  C  C60  1  0.90076000  0.35496000  0.11482000  1.0
  C  C61  1  0.09925000  0.64505000  0.88518000  1.0
  C  C62  1  0.84164000  0.22980000  0.00557000  1.0
  C  C63  1  0.15836000  0.77020000  0.99444000  1.0
  C  C64  1  0.93671000  0.76494000  0.57451000  1.0
  C  C65  1  0.06329000  0.23506000  0.42549000  1.0
  C  C66  1  0.91614000  0.83098000  0.69463000  1.0
  C  C67  1  0.08386000  0.16902000  0.30537000  1.0
  N  N68  1  0.94842000  0.45600000  0.20282000  1.0
  N  N69  1  0.05158000  0.54400000  0.79718000  1.0
  N  N70  1  0.95284000  0.71103000  0.47781000  1.0
  N  N71  1  0.04716000  0.28897000  0.52219000  1.0
  O  O72  1  0.60331000  0.92523000  0.07644000  1.0
  O  O73  1  0.39669000  0.07477000  0.92356000  1.0
  O  O74  1  0.73347000  0.88300000  0.24412000  1.0
  O  O75  1  0.26653000  0.11700000  0.75588000  1.0
  O  O76  1  0.86582000  0.72675000  0.21092000  1.0
  O  O77  1  0.13418000  0.27325000  0.78908000  1.0
  O  O78  1  0.67667000  0.10546000  0.26785000  1.0
  O  O79  1  0.32333000  0.89454000  0.73215000  1.0
  O  O80  1  0.44610000  0.84958000  0.22645000  1.0
  O  O81  1  0.55390000  0.15042000  0.77355000  1.0
  O  O82  1  0.22377000  0.81533000  0.31871000  1.0
  O  O83  1  0.77623000  0.18466000  0.68129000  1.0
