# generated using pymatgen
data_CdP2H34C25(NO2)4
_symmetry_space_group_name_H-M   'P 1'
_cell_length_a   8.92077000
_cell_length_b   12.93040000
_cell_length_c   13.09500000
_cell_angle_alpha   82.77810000
_cell_angle_beta   70.94470000
_cell_angle_gamma   87.45890000
_symmetry_Int_Tables_number   1
_chemical_formula_structural   CdP2H34C25(NO2)4
_chemical_formula_sum   'Cd2 P4 H68 C50 N8 O16'
_cell_volume   1416.39216965
_cell_formula_units_Z   2
loop_
 _symmetry_equiv_pos_site_id
 _symmetry_equiv_pos_as_xyz
  1  'x, y, z'
loop_
 _atom_site_type_symbol
 _atom_site_label
 _atom_site_symmetry_multiplicity
 _atom_site_fract_x
 _atom_site_fract_y
 _atom_site_fract_z
 _atom_site_occupancy
  Cd  Cd0  1  0.00000000  0.00000000  0.50000000  1.0
  Cd  Cd1  1  0.00000000  0.50000000  0.50000000  1.0
  P  P2  1  0.93210000  0.09344000  0.73850000  1.0
  P  P3  1  0.06790000  0.90657000  0.26149000  1.0
  P  P4  1  0.01842000  0.58540000  0.73566000  1.0
  P  P5  1  0.98158000  0.41460000  0.26434000  1.0
  H  H6  1  0.07912000  0.18592000  0.82276000  1.0
  H  H7  1  0.92088000  0.81408000  0.17724000  1.0
  H  H8  1  0.92153000  0.11261000  0.91969000  1.0
  H  H9  1  0.07847000  0.88739000  0.08031000  1.0
  H  H10  1  0.99989000  0.89569000  0.84747000  1.0
  H  H11  1  0.00011000  0.10431000  0.15253000  1.0
  H  H12  1  0.19593000  0.76199000  0.86796000  1.0
  H  H13  1  0.80407000  0.23801000  0.13204000  1.0
  H  H14  1  0.50401000  0.00226000  0.88591000  1.0
  H  H15  1  0.49599000  0.99774000  0.11408000  1.0
  H  H16  1  0.30395000  0.13408000  0.87051000  1.0
  H  H17  1  0.69605000  0.86592000  0.12949000  1.0
  H  H18  1  0.40793000  0.67266000  0.81755000  1.0
  H  H19  1  0.59207000  0.32734000  0.18245000  1.0
  H  H20  1  0.63099000  0.55415000  0.81388000  1.0
  H  H21  1  0.36901000  0.44585000  0.18612000  1.0
  H  H22  1  0.82743000  0.77171000  0.95839000  1.0
  H  H23  1  0.17257000  0.22829000  0.04162000  1.0
  H  H24  1  0.60857000  0.89223000  0.95966000  1.0
  H  H25  1  0.39143000  0.10777000  0.04034000  1.0
  H  H26  1  0.85726000  0.50488000  0.90869000  1.0
  H  H27  1  0.14274000  0.49512000  0.09131000  1.0
  H  H28  1  0.96058000  0.61401000  0.92308000  1.0
  H  H29  1  0.03942000  0.38599000  0.07692000  1.0
  H  H30  1  0.59500000  0.21966000  0.78360000  1.0
  H  H31  1  0.40500000  0.78034000  0.21640000  1.0
  H  H32  1  0.67776000  0.16289000  0.88395000  1.0
  H  H33  1  0.32224000  0.83711000  0.11605000  1.0
  H  H34  1  0.59333000  0.34993000  0.90997000  1.0
  H  H35  1  0.40667000  0.65007000  0.09003000  1.0
  H  H36  1  0.73058000  0.39093000  0.77777000  1.0
  H  H37  1  0.26942000  0.60907000  0.22223000  1.0
  H  H38  1  0.80087000  0.33260000  0.88349000  1.0
  H  H39  1  0.19913000  0.66740000  0.11651000  1.0
  H  H40  1  0.09286000  0.40210000  0.86879000  1.0
  H  H41  1  0.90714000  0.59790000  0.13121000  1.0
  H  H42  1  0.12461000  0.37785000  0.73196000  1.0
  H  H43  1  0.87539000  0.62215000  0.26804000  1.0
  H  H44  1  0.33707000  0.29615000  0.80530000  1.0
  H  H45  1  0.66293000  0.70385000  0.19470000  1.0
  H  H46  1  0.38747000  0.42103000  0.82682000  1.0
  H  H47  1  0.61253000  0.57897000  0.17318000  1.0
  H  H48  1  0.41861000  0.39108000  0.69204000  1.0
  H  H49  1  0.58139000  0.60892000  0.30796000  1.0
  H  H50  1  0.22701000  0.87310000  0.64001000  1.0
  H  H51  1  0.77299000  0.12690000  0.35999000  1.0
  H  H52  1  0.63664000  0.89075000  0.36037000  1.0
  H  H53  1  0.36336000  0.10925000  0.63963000  1.0
  H  H54  1  0.37047000  0.96177000  0.30120000  1.0
  H  H55  1  0.62953000  0.03823000  0.69880000  1.0
  H  H56  1  0.65697000  0.87496000  0.56999000  1.0
  H  H57  1  0.34303000  0.12504000  0.43001000  1.0
  H  H58  1  0.47962000  0.82554000  0.67072000  1.0
  H  H59  1  0.52038000  0.17446000  0.32928000  1.0
  H  H60  1  0.85703000  0.75506000  0.48527000  1.0
  H  H61  1  0.14297000  0.24494000  0.51473000  1.0
  H  H62  1  0.60733000  0.47097000  0.55821000  1.0
  H  H63  1  0.39268000  0.52903000  0.44179000  1.0
  H  H64  1  0.39193000  0.63196000  0.62694000  1.0
  H  H65  1  0.60808000  0.36804000  0.37306000  1.0
  H  H66  1  0.05319000  0.19846000  0.33999000  1.0
  H  H67  1  0.94681000  0.80154000  0.66001000  1.0
  H  H68  1  0.14752000  0.09541000  0.29527000  1.0
  H  H69  1  0.85248000  0.90459000  0.70473000  1.0
  H  H70  1  0.13403000  0.68659000  0.53353000  1.0
  H  H71  1  0.86596000  0.31341000  0.46647000  1.0
  H  H72  1  0.15132000  0.71425000  0.40689000  1.0
  H  H73  1  0.84868000  0.28575000  0.59311000  1.0
  C  C74  1  0.02053000  0.10951000  0.84307000  1.0
  C  C75  1  0.97947000  0.89050000  0.15693000  1.0
  C  C76  1  0.13663000  0.02521000  0.85741000  1.0
  C  C77  1  0.86337000  0.97479000  0.14259000  1.0
  C  C78  1  0.10981000  0.91901000  0.85739000  1.0
  C  C79  1  0.89019000  0.08099000  0.14261000  1.0
  C  C80  1  0.22166000  0.84356000  0.86894000  1.0
  C  C81  1  0.77834000  0.15644000  0.13106000  1.0
  C  C82  1  0.36584000  0.87081000  0.88072000  1.0
  C  C83  1  0.63416000  0.12919000  0.11928000  1.0
  C  C84  1  0.39137000  0.97730000  0.88142000  1.0
  C  C85  1  0.60863000  0.02270000  0.11858000  1.0
  C  C86  1  0.27909000  0.05219000  0.87052000  1.0
  C  C87  1  0.72091000  0.94781000  0.12948000  1.0
  C  C88  1  0.49027000  0.79351000  0.88760000  1.0
  C  C89  1  0.50973000  0.20649000  0.11240000  1.0
  C  C90  1  0.49838000  0.69552000  0.84979000  1.0
  C  C91  1  0.50162000  0.30448000  0.15021000  1.0
  C  C92  1  0.62408000  0.62732000  0.84843000  1.0
  C  C93  1  0.37592000  0.37268000  0.15157000  1.0
  C  C94  1  0.74585000  0.65395000  0.88625000  1.0
  C  C95  1  0.25415000  0.34605000  0.11375000  1.0
  C  C96  1  0.73453000  0.74948000  0.92804000  1.0
  C  C97  1  0.26547000  0.25052000  0.07196000  1.0
  C  C98  1  0.60982000  0.81787000  0.92873000  1.0
  C  C99  1  0.39018000  0.18213000  0.07127000  1.0
  C  C100  1  0.88979000  0.58662000  0.87705000  1.0
  C  C101  1  0.11021000  0.41338000  0.12295000  1.0
  C  C102  1  0.69406000  0.22455000  0.81536000  1.0
  C  C103  1  0.30594000  0.77545000  0.18464000  1.0
  C  C104  1  0.70487000  0.33104000  0.84831000  1.0
  C  C105  1  0.29513000  0.66896000  0.15169000  1.0
  C  C106  1  0.17322000  0.41698000  0.78410000  1.0
  C  C107  1  0.82678000  0.58302000  0.21590000  1.0
  C  C108  1  0.33905000  0.37970000  0.77636000  1.0
  C  C109  1  0.66095000  0.62030000  0.22364000  1.0
  C  C110  1  0.29920000  0.88809000  0.55520000  1.0
  C  C111  1  0.70080000  0.11191000  0.44480000  1.0
  C  C112  1  0.51205000  0.89657000  0.40710000  1.0
  C  C113  1  0.48795000  0.10343000  0.59290000  1.0
  C  C114  1  0.38137000  0.93197000  0.37960000  1.0
  C  C115  1  0.61863000  0.06803000  0.62040000  1.0
  C  C116  1  0.55277000  0.82641000  0.58522000  1.0
  C  C117  1  0.44722000  0.17359000  0.41477000  1.0
  C  C118  1  0.76342000  0.69717000  0.51429000  1.0
  C  C119  1  0.23658000  0.30283000  0.48571000  1.0
  C  C120  1  0.62605000  0.55387000  0.55341000  1.0
  C  C121  1  0.37395000  0.44613000  0.44659000  1.0
  C  C122  1  0.51945000  0.63222000  0.58775000  1.0
  C  C123  1  0.48055000  0.36778000  0.41225000  1.0
  N  N124  1  0.24968000  0.92657000  0.47276000  1.0
  N  N125  1  0.75032000  0.07343000  0.52725000  1.0
  N  N126  1  0.77691000  0.59538000  0.50787000  1.0
  N  N127  1  0.22309000  0.40462000  0.49213000  1.0
  N  N128  1  0.45767000  0.86905000  0.51867000  1.0
  N  N129  1  0.54232000  0.13095000  0.48133000  1.0
  N  N130  1  0.60895000  0.72241000  0.56249000  1.0
  N  N131  1  0.39105000  0.27760000  0.43751000  1.0
  O  O132  1  0.06003000  0.09168000  0.62865000  1.0
  O  O133  1  0.93998000  0.90833000  0.37135000  1.0
  O  O134  1  0.81460000  0.00468000  0.77996000  1.0
  O  O135  1  0.18541000  0.99532000  0.22004000  1.0
  O  O136  1  0.83877000  0.20393000  0.72800000  1.0
  O  O137  1  0.16123000  0.79607000  0.27200000  1.0
  O  O138  1  0.07080000  0.69439000  0.68067000  1.0
  O  O139  1  0.92920000  0.30561000  0.31933000  1.0
  O  O140  1  0.93886000  0.51801000  0.68217000  1.0
  O  O141  1  0.06114000  0.48199000  0.31783000  1.0
  O  O142  1  0.17824000  0.52821000  0.74990000  1.0
  O  O143  1  0.82176000  0.47179000  0.25010000  1.0
  O  O144  1  0.11588000  0.13761000  0.35823000  1.0
  O  O145  1  0.88412000  0.86239000  0.64177000  1.0
  O  O146  1  0.16119000  0.65825000  0.46263000  1.0
  O  O147  1  0.83881000  0.34175000  0.53737000  1.0
