# generated using pymatgen
data_Cu4H24C29N8
_symmetry_space_group_name_H-M   'P 1'
_cell_length_a   24.65450000
_cell_length_b   26.18320000
_cell_length_c   27.72370000
_cell_angle_alpha   87.62480000
_cell_angle_beta   89.51010000
_cell_angle_gamma   86.18690000
_symmetry_Int_Tables_number   1
_chemical_formula_structural   Cu4H24C29N8
_chemical_formula_sum   'Cu12 H72 C87 N24'
_cell_volume   17841.32196292
_cell_formula_units_Z   3
loop_
 _symmetry_equiv_pos_site_id
 _symmetry_equiv_pos_as_xyz
  1  'x, y, z'
loop_
 _atom_site_type_symbol
 _atom_site_label
 _atom_site_symmetry_multiplicity
 _atom_site_fract_x
 _atom_site_fract_y
 _atom_site_fract_z
 _atom_site_occupancy
  Cu  Cu0  1  0.20981000  0.22104000  0.85388000  1.0
  Cu  Cu1  1  0.14170000  0.20929000  0.76032000  1.0
  Cu  Cu2  1  0.24045000  0.12628000  0.79062000  1.0
  Cu  Cu3  1  0.17654000  0.76403000  0.13039000  1.0
  Cu  Cu4  1  0.09028000  0.77662000  0.21463000  1.0
  Cu  Cu5  1  0.19212000  0.84420000  0.21268000  1.0
  Cu  Cu6  1  0.76486000  0.20237000  0.14184000  1.0
  Cu  Cu7  1  0.86153000  0.22948000  0.20948000  1.0
  Cu  Cu8  1  0.79181000  0.13532000  0.23833000  1.0
  Cu  Cu9  1  0.80639000  0.80055000  0.85927000  1.0
  Cu  Cu10  1  0.89128000  0.80877000  0.76971000  1.0
  Cu  Cu11  1  0.81382000  0.90342000  0.79840000  1.0
  H  H12  1  0.14792000  0.31601000  0.89882000  1.0
  H  H13  1  0.04914000  0.30180000  0.77213000  1.0
  H  H14  1  0.33372000  0.06754000  0.85613000  1.0
  H  H15  1  0.29817000  0.20478000  0.93591000  1.0
  H  H16  1  0.10908000  0.16701000  0.66121000  1.0
  H  H17  1  0.24119000  0.05606000  0.70025000  1.0
  H  H18  1  0.12807000  0.67442000  0.07368000  1.0
  H  H19  1  0.00952000  0.69269000  0.18902000  1.0
  H  H20  1  0.30157000  0.89025000  0.17712000  1.0
  H  H21  1  0.28343000  0.77853000  0.06839000  1.0
  H  H22  1  0.03423000  0.80907000  0.31258000  1.0
  H  H23  1  0.17258000  0.90293000  0.31079000  1.0
  H  H24  1  0.77253000  0.28980000  0.05872000  1.0
  H  H25  1  0.90610000  0.32348000  0.15028000  1.0
  H  H26  1  0.69997000  0.05592000  0.23529000  1.0
  H  H27  1  0.66619000  0.14533000  0.10268000  1.0
  H  H28  1  0.94411000  0.22461000  0.29769000  1.0
  H  H29  1  0.85166000  0.09306000  0.33384000  1.0
  H  H30  1  0.83860000  0.68879000  0.89889000  1.0
  H  H31  1  0.95293000  0.69897000  0.77993000  1.0
  H  H32  1  0.71843000  0.97200000  0.84395000  1.0
  H  H33  1  0.70362000  0.82994000  0.92747000  1.0
  H  H34  1  0.94419000  0.85412000  0.67222000  1.0
  H  H35  1  0.83833000  0.98351000  0.71466000  1.0
  H  H36  1  0.08972000  0.38678000  0.91909000  1.0
  H  H37  1  0.97694000  0.44349000  0.89782000  1.0
  H  H38  1  0.00912000  0.37833000  0.83585000  1.0
  H  H39  1  0.06267000  0.44518000  0.97793000  1.0
  H  H40  1  0.07054000  0.60908000  0.04285000  1.0
  H  H41  1  0.97710000  0.54071000  0.07554000  1.0
  H  H42  1  0.99355000  0.61095000  0.13096000  1.0
  H  H43  1  0.04853000  0.54852000  0.98396000  1.0
  H  H44  1  0.92971000  0.38655000  0.08864000  1.0
  H  H45  1  0.88814000  0.44325000  0.99367000  1.0
  H  H46  1  0.82928000  0.37423000  0.02580000  1.0
  H  H47  1  0.99114000  0.44565000  0.05567000  1.0
  H  H48  1  0.88258000  0.60277000  0.91883000  1.0
  H  H49  1  0.98831000  0.53704000  0.89423000  1.0
  H  H50  1  0.96777000  0.60964000  0.83722000  1.0
  H  H51  1  0.90790000  0.53671000  0.97998000  1.0
  H  H52  1  0.38962000  0.03555000  0.92809000  1.0
  H  H53  1  0.45176000  0.07924000  0.01308000  1.0
  H  H54  1  0.38472000  0.14167000  0.97258000  1.0
  H  H55  1  0.44664000  0.97190000  0.97204000  1.0
  H  H56  1  0.62705000  0.88391000  0.97712000  1.0
  H  H57  1  0.55162000  0.98111000  0.95065000  1.0
  H  H58  1  0.62695000  0.97142000  0.89936000  1.0
  H  H59  1  0.55490000  0.91018000  0.04238000  1.0
  H  H60  1  0.37650000  0.92240000  0.12453000  1.0
  H  H61  1  0.45439000  0.88470000  0.04233000  1.0
  H  H62  1  0.37909000  0.82929000  0.05994000  1.0
  H  H63  1  0.44064000  0.98499000  0.09714000  1.0
  H  H64  1  0.60304000  0.08218000  0.08392000  1.0
  H  H65  1  0.53890000  0.99304000  0.12882000  1.0
  H  H66  1  0.61045000  0.02584000  0.18367000  1.0
  H  H67  1  0.54698000  0.04653000  0.02804000  1.0
  H  H68  1  0.08920000  0.11111000  0.59678000  1.0
  H  H69  1  0.13662000  0.01852000  0.53913000  1.0
  H  H70  1  0.19322000  0.04039000  0.61087000  1.0
  H  H71  1  0.02764000  0.08345000  0.54070000  1.0
  H  H72  1  0.91839000  0.07079000  0.39696000  1.0
  H  H73  1  0.01509000  0.11269000  0.45144000  1.0
  H  H74  1  0.97751000  0.17041000  0.38263000  1.0
  H  H75  1  0.95956000  0.01038000  0.45400000  1.0
  H  H76  1  0.98073000  0.91660000  0.60846000  1.0
  H  H77  1  0.93747000  0.01492000  0.54988000  1.0
  H  H78  1  0.88555000  0.99653000  0.62418000  1.0
  H  H79  1  0.04360000  0.94587000  0.54560000  1.0
  H  H80  1  0.12494000  0.94718000  0.38412000  1.0
  H  H81  1  0.03443000  0.92107000  0.45856000  1.0
  H  H82  1  0.04210000  0.86426000  0.39369000  1.0
  H  H83  1  0.10136000  0.01608000  0.44422000  1.0
  C  C84  1  0.12964000  0.30616000  0.86528000  1.0
  C  C85  1  0.08265000  0.32798000  0.84183000  1.0
  C  C86  1  0.07919000  0.29862000  0.80068000  1.0
  C  C87  1  0.31815000  0.10369000  0.87032000  1.0
  C  C88  1  0.33420000  0.12867000  0.91144000  1.0
  C  C89  1  0.30028000  0.17403000  0.91072000  1.0
  C  C90  1  0.14262000  0.14389000  0.67774000  1.0
  C  C91  1  0.17186000  0.09993000  0.66109000  1.0
  C  C92  1  0.21030000  0.08757000  0.69765000  1.0
  C  C93  1  0.10344000  0.68558000  0.10459000  1.0
  C  C94  1  0.05604000  0.66493000  0.12366000  1.0
  C  C95  1  0.04316000  0.69486000  0.16366000  1.0
  C  C96  1  0.28899000  0.86086000  0.15394000  1.0
  C  C97  1  0.31480000  0.84043000  0.11278000  1.0
  C  C98  1  0.27984000  0.80345000  0.09876000  1.0
  C  C99  1  0.07099000  0.82862000  0.30482000  1.0
  C  C100  1  0.09576000  0.86473000  0.33204000  1.0
  C  C101  1  0.14129000  0.87697000  0.30385000  1.0
  C  C102  1  0.80309000  0.29141000  0.08649000  1.0
  C  C103  1  0.84475000  0.32531000  0.08989000  1.0
  C  C104  1  0.87143000  0.30859000  0.13303000  1.0
  C  C105  1  0.69863000  0.08299000  0.20451000  1.0
  C  C106  1  0.66338000  0.08662000  0.16471000  1.0
  C  C107  1  0.68151000  0.12835000  0.13666000  1.0
  C  C108  1  0.91594000  0.19442000  0.29987000  1.0
  C  C109  1  0.91263000  0.15396000  0.33457000  1.0
  C  C110  1  0.86904000  0.12709000  0.31834000  1.0
  C  C111  1  0.86264000  0.69913000  0.86746000  1.0
  C  C112  1  0.90564000  0.67106000  0.84470000  1.0
  C  C113  1  0.92099000  0.70456000  0.80677000  1.0
  C  C114  1  0.72251000  0.93360000  0.86044000  1.0
  C  C115  1  0.68990000  0.91089000  0.89613000  1.0
  C  C116  1  0.71509000  0.86129000  0.90351000  1.0
  C  C117  1  0.91617000  0.88139000  0.68963000  1.0
  C  C118  1  0.89782000  0.93154000  0.67432000  1.0
  C  C119  1  0.86165000  0.94719000  0.71116000  1.0
  C  C120  1  0.03336000  0.01507000  0.49712000  1.0
  C  C121  1  0.98623000  0.49179000  0.98726000  1.0
  C  C122  1  0.49780000  0.97974000  0.03554000  1.0
  C  C123  1  0.04568000  0.36930000  0.85750000  1.0
  C  C124  1  0.05281000  0.39576000  0.89780000  1.0
  C  C125  1  0.01503000  0.43392000  0.91716000  1.0
  C  C126  1  0.02451000  0.45624000  0.95911000  1.0
  C  C127  1  0.02703000  0.62266000  0.10772000  1.0
  C  C128  1  0.03788000  0.59698000  0.06688000  1.0
  C  C129  1  0.00884000  0.55475000  0.05152000  1.0
  C  C130  1  0.01822000  0.53303000  0.00860000  1.0
  C  C131  1  0.85718000  0.36654000  0.05614000  1.0
  C  C132  1  0.90118000  0.39479000  0.05880000  1.0
  C  C133  1  0.91587000  0.43374000  0.02390000  1.0
  C  C134  1  0.96334000  0.45656000  0.02582000  1.0
  C  C135  1  0.93180000  0.62167000  0.85837000  1.0
  C  C136  1  0.91822000  0.59137000  0.89696000  1.0
  C  C137  1  0.95170000  0.54786000  0.91504000  1.0
  C  C138  1  0.94371000  0.52439000  0.95873000  1.0
  C  C139  1  0.37485000  0.11277000  0.94717000  1.0
  C  C140  1  0.40019000  0.06531000  0.95236000  1.0
  C  C141  1  0.43957000  0.04990000  0.98904000  1.0
  C  C142  1  0.46039000  0.00107000  0.99543000  1.0
  C  C143  1  0.64163000  0.93509000  0.91728000  1.0
  C  C144  1  0.61324000  0.91890000  0.95655000  1.0
  C  C145  1  0.56620000  0.94820000  0.97390000  1.0
  C  C146  1  0.54073000  0.94098000  0.01675000  1.0
  C  C147  1  0.36425000  0.85416000  0.08869000  1.0
  C  C148  1  0.39178000  0.89607000  0.09708000  1.0
  C  C149  1  0.43789000  0.91126000  0.06917000  1.0
  C  C150  1  0.45847000  0.95767000  0.07166000  1.0
  C  C151  1  0.62001000  0.05397000  0.15505000  1.0
  C  C152  1  0.59231000  0.05488000  0.11293000  1.0
  C  C153  1  0.55168000  0.02060000  0.10085000  1.0
  C  C154  1  0.53196000  0.01968000  0.05556000  1.0
  C  C155  1  0.16340000  0.07202000  0.61816000  1.0
  C  C156  1  0.11995000  0.08051000  0.58850000  1.0
  C  C157  1  0.10690000  0.04926000  0.54928000  1.0
  C  C158  1  0.05731000  0.05370000  0.52844000  1.0
  C  C159  1  0.94758000  0.14255000  0.37575000  1.0
  C  C160  1  0.94745000  0.09932000  0.40448000  1.0
  C  C161  1  0.98552000  0.08512000  0.44252000  1.0
  C  C162  1  0.98829000  0.03798000  0.46456000  1.0
  C  C163  1  0.91126000  0.96138000  0.63147000  1.0
  C  C164  1  0.95316000  0.95045000  0.60078000  1.0
  C  C165  1  0.96633000  0.98254000  0.55957000  1.0
  C  C166  1  0.01353000  0.97673000  0.53467000  1.0
  C  C167  1  0.07589000  0.88404000  0.37732000  1.0
  C  C168  1  0.09254000  0.92516000  0.40002000  1.0
  C  C169  1  0.06572000  0.94445000  0.44245000  1.0
  C  C170  1  0.07228000  0.99071000  0.46074000  1.0
  N  N171  1  0.12071000  0.26230000  0.79989000  1.0
  N  N172  1  0.15192000  0.26720000  0.84010000  1.0
  N  N173  1  0.26668000  0.17570000  0.87254000  1.0
  N  N174  1  0.27791000  0.13208000  0.84733000  1.0
  N  N175  1  0.20420000  0.12123000  0.73319000  1.0
  N  N176  1  0.16217000  0.15634000  0.72062000  1.0
  N  N177  1  0.07991000  0.73024000  0.16803000  1.0
  N  N178  1  0.11741000  0.72436000  0.13136000  1.0
  N  N179  1  0.23670000  0.80224000  0.12893000  1.0
  N  N180  1  0.24258000  0.83781000  0.16334000  1.0
  N  N181  1  0.14316000  0.85017000  0.26331000  1.0
  N  N182  1  0.09933000  0.82028000  0.26384000  1.0
  N  N183  1  0.84744000  0.26820000  0.15334000  1.0
  N  N184  1  0.80500000  0.25734000  0.12441000  1.0
  N  N185  1  0.72392000  0.14771000  0.15822000  1.0
  N  N186  1  0.73474000  0.11947000  0.20036000  1.0
  N  N187  1  0.84851000  0.14983000  0.27739000  1.0
  N  N188  1  0.87769000  0.19163000  0.26575000  1.0
  N  N189  1  0.88983000  0.74889000  0.80707000  1.0
  N  N190  1  0.85355000  0.74542000  0.84489000  1.0
  N  N191  1  0.75879000  0.85524000  0.87421000  1.0
  N  N192  1  0.76353000  0.90029000  0.84766000  1.0
  N  N193  1  0.85881000  0.90952000  0.74550000  1.0
  N  N194  1  0.89246000  0.86852000  0.73200000  1.0
