# generated using pymatgen
data_ZnSiH12C16(N2F3)2
_symmetry_space_group_name_H-M   'P 1'
_cell_length_a   7.82905000
_cell_length_b   9.26617000
_cell_length_c   9.26615000
_cell_angle_alpha   88.69310000
_cell_angle_beta   81.03760000
_cell_angle_gamma   81.03800000
_symmetry_Int_Tables_number   1
_chemical_formula_structural   ZnSiH12C16(N2F3)2
_chemical_formula_sum   'Zn1 Si1 H12 C16 N4 F6'
_cell_volume   655.90144957
_cell_formula_units_Z   1
loop_
 _symmetry_equiv_pos_site_id
 _symmetry_equiv_pos_as_xyz
  1  'x, y, z'
loop_
 _atom_site_type_symbol
 _atom_site_label
 _atom_site_symmetry_multiplicity
 _atom_site_fract_x
 _atom_site_fract_y
 _atom_site_fract_z
 _atom_site_occupancy
  Zn  Zn0  1  0.50000000  0.50000000  0.50000000  1.0
  Si  Si1  1  0.00000000  0.50000000  0.50000000  1.0
  H  H2  1  0.27454000  0.50120000  0.26313000  1.0
  H  H3  1  0.80941000  0.49915000  0.24513000  1.0
  H  H4  1  0.85904000  0.49865000  0.96992000  1.0
  H  H5  1  0.72546000  0.49880000  0.73686000  1.0
  H  H6  1  0.19059000  0.50084000  0.75487000  1.0
  H  H7  1  0.14097000  0.50134000  0.03007000  1.0
  H  H8  1  0.27455000  0.26314000  0.50118000  1.0
  H  H9  1  0.80941000  0.24513000  0.49913000  1.0
  H  H10  1  0.85903000  0.96992000  0.49866000  1.0
  H  H11  1  0.72545000  0.73686000  0.49883000  1.0
  H  H12  1  0.19059000  0.75487000  0.50085000  1.0
  H  H13  1  0.14096000  0.03007000  0.50134000  1.0
  C  C14  1  0.40184000  0.50071000  0.19597000  1.0
  C  C15  1  0.70237000  0.49943000  0.18275000  1.0
  C  C16  1  0.72890000  0.49918000  0.03238000  1.0
  C  C17  1  0.58420000  0.49957000  0.95812000  1.0
  C  C18  1  0.59816000  0.49928000  0.80402000  1.0
  C  C19  1  0.29763000  0.50056000  0.81724000  1.0
  C  C20  1  0.27110000  0.50081000  0.96762000  1.0
  C  C21  1  0.41580000  0.50043000  0.04188000  1.0
  C  C22  1  0.40185000  0.19597000  0.50070000  1.0
  C  C23  1  0.70237000  0.18275000  0.49942000  1.0
  C  C24  1  0.72890000  0.03238000  0.49918000  1.0
  C  C25  1  0.58419000  0.95812000  0.49958000  1.0
  C  C26  1  0.59815000  0.80403000  0.49930000  1.0
  C  C27  1  0.29763000  0.81725000  0.50057000  1.0
  C  C28  1  0.27110000  0.96762000  0.50082000  1.0
  C  C29  1  0.41580000  0.04188000  0.50042000  1.0
  N  N30  1  0.53962000  0.50009000  0.26339000  1.0
  N  N31  1  0.46039000  0.49990000  0.73661000  1.0
  N  N32  1  0.53962000  0.26339000  0.50008000  1.0
  N  N33  1  0.46038000  0.73661000  0.49992000  1.0
  F  F34  1  0.22320000  0.50582000  0.50582000  1.0
  F  F35  1  0.77680000  0.49417000  0.49417000  1.0
  F  F36  1  0.00001000  0.63127000  0.36873000  1.0
  F  F37  1  0.00000000  0.36873000  0.63127000  1.0
  F  F38  1  0.05678000  0.36865000  0.36865000  1.0
  F  F39  1  0.94322000  0.63135000  0.63135000  1.0
