# generated using pymatgen
data_CdH14C20(NO)4
_symmetry_space_group_name_H-M   'P 1'
_cell_length_a   9.09955000
_cell_length_b   9.13401000
_cell_length_c   14.82470000
_cell_angle_alpha   96.61270000
_cell_angle_beta   103.57000000
_cell_angle_gamma   107.38300000
_symmetry_Int_Tables_number   1
_chemical_formula_structural   CdH14C20(NO)4
_chemical_formula_sum   'Cd2 H28 C40 N8 O8'
_cell_volume   1120.03683869
_cell_formula_units_Z   2
loop_
 _symmetry_equiv_pos_site_id
 _symmetry_equiv_pos_as_xyz
  1  'x, y, z'
loop_
 _atom_site_type_symbol
 _atom_site_label
 _atom_site_symmetry_multiplicity
 _atom_site_fract_x
 _atom_site_fract_y
 _atom_site_fract_z
 _atom_site_occupancy
  Cd  Cd0  1  0.40052000  0.92176000  0.80618000  1.0
  Cd  Cd1  1  0.66083000  0.75533000  0.40721000  1.0
  H  H2  1  0.07551000  0.84772000  0.50695000  1.0
  H  H3  1  0.27482000  0.83231000  0.39138000  1.0
  H  H4  1  0.81468000  0.80024000  0.22393000  1.0
  H  H5  1  0.87780000  0.70965000  0.10268000  1.0
  H  H6  1  0.97666000  0.72222000  0.96025000  1.0
  H  H7  1  0.46361000  0.91149000  0.13671000  1.0
  H  H8  1  0.36996000  0.90873000  0.28016000  1.0
  H  H9  1  0.82486000  0.85696000  0.63135000  1.0
  H  H10  1  0.01313000  0.72037000  0.74445000  1.0
  H  H11  1  0.78115000  0.42583000  0.47242000  1.0
  H  H12  1  0.95443000  0.30298000  0.50604000  1.0
  H  H13  1  0.09529000  0.12278000  0.56223000  1.0
  H  H14  1  0.20580000  0.35985000  0.84982000  1.0
  H  H15  1  0.05881000  0.53651000  0.79645000  1.0
  H  H16  1  0.72901000  0.84289000  0.76153000  1.0
  H  H17  1  0.03298000  0.98099000  0.88690000  1.0
  H  H18  1  0.72539000  0.22695000  0.94630000  1.0
  H  H19  1  0.23561000  0.20906000  0.96072000  1.0
  H  H20  1  0.45280000  0.38963000  0.09853000  1.0
  H  H21  1  0.10405000  0.47124000  0.22984000  1.0
  H  H22  1  0.88322000  0.28998000  0.09372000  1.0
  H  H23  1  0.30570000  0.83938000  0.58075000  1.0
  H  H24  1  0.34154000  0.59811000  0.46486000  1.0
  H  H25  1  0.45732000  0.54595000  0.75165000  1.0
  H  H26  1  0.34888000  0.38355000  0.42139000  1.0
  H  H27  1  0.43631000  0.16411000  0.37069000  1.0
  H  H28  1  0.64619000  0.15651000  0.66085000  1.0
  H  H29  1  0.56678000  0.38083000  0.71403000  1.0
  C  C30  1  0.05183000  0.83649000  0.43081000  1.0
  C  C31  1  0.15199000  0.83065000  0.37533000  1.0
  C  C32  1  0.91257000  0.81358000  0.28565000  1.0
  C  C33  1  0.11719000  0.81192000  0.20061000  1.0
  C  C34  1  0.00616000  0.75625000  0.11062000  1.0
  C  C35  1  0.06126000  0.76152000  0.03078000  1.0
  C  C36  1  0.22609000  0.81906000  0.03956000  1.0
  C  C37  1  0.33549000  0.86823000  0.13004000  1.0
  C  C38  1  0.28213000  0.86630000  0.21058000  1.0
  C  C39  1  0.28374000  0.83685000  0.95379000  1.0
  C  C40  1  0.84270000  0.74575000  0.61644000  1.0
  C  C41  1  0.93466000  0.67864000  0.67271000  1.0
  C  C42  1  0.81892000  0.52576000  0.52982000  1.0
  C  C43  1  0.99615000  0.43111000  0.64756000  1.0
  C  C44  1  0.00637000  0.31440000  0.58166000  1.0
  C  C45  1  0.08622000  0.21342000  0.61301000  1.0
  C  C46  1  0.15993000  0.22972000  0.70963000  1.0
  C  C47  1  0.14761000  0.34623000  0.77476000  1.0
  C  C48  1  0.06488000  0.44539000  0.74460000  1.0
  C  C49  1  0.25246000  0.12630000  0.74320000  1.0
  C  C50  1  0.77405000  0.94438000  0.81860000  1.0
  C  C51  1  0.92541000  0.01240000  0.87990000  1.0
  C  C52  1  0.76590000  0.14084000  0.91256000  1.0
  C  C53  1  0.04540000  0.23983000  0.01827000  1.0
  C  C54  1  0.20557000  0.26540000  0.01958000  1.0
  C  C55  1  0.32744000  0.36686000  0.09658000  1.0
  C  C56  1  0.29193000  0.44180000  0.17251000  1.0
  C  C57  1  0.13102000  0.41364000  0.17035000  1.0
  C  C58  1  0.00789000  0.31340000  0.09379000  1.0
  C  C59  1  0.42395000  0.54993000  0.25504000  1.0
  C  C60  1  0.34029000  0.74026000  0.59775000  1.0
  C  C61  1  0.35697000  0.62152000  0.54043000  1.0
  C  C62  1  0.42309000  0.59516000  0.69030000  1.0
  C  C63  1  0.45242000  0.39735000  0.57124000  1.0
  C  C64  1  0.41307000  0.33434000  0.47451000  1.0
  C  C65  1  0.46254000  0.21127000  0.44585000  1.0
  C  C66  1  0.54829000  0.14761000  0.51247000  1.0
  C  C67  1  0.58174000  0.20783000  0.60912000  1.0
  C  C68  1  0.53598000  0.33325000  0.63864000  1.0
  C  C69  1  0.60170000  0.01590000  0.48088000  1.0
  N  N70  1  0.90346000  0.82590000  0.37394000  1.0
  N  N71  1  0.06220000  0.81597000  0.28277000  1.0
  N  N72  1  0.77024000  0.64900000  0.52786000  1.0
  N  N73  1  0.91934000  0.53851000  0.61719000  1.0
  N  N74  1  0.67611000  0.02574000  0.83936000  1.0
  N  N75  1  0.91892000  0.13736000  0.94009000  1.0
  N  N76  1  0.38080000  0.72224000  0.69065000  1.0
  N  N77  1  0.41088000  0.52972000  0.59991000  1.0
  O  O78  1  0.17904000  0.80983000  0.87355000  1.0
  O  O79  1  0.43432000  0.88431000  0.96310000  1.0
  O  O80  1  0.24241000  0.00734000  0.68457000  1.0
  O  O81  1  0.33804000  0.16013000  0.82959000  1.0
  O  O82  1  0.38899000  0.59109000  0.33099000  1.0
  O  O83  1  0.56629000  0.59757000  0.24788000  1.0
  O  O84  1  0.58073000  0.97380000  0.39160000  1.0
  O  O85  1  0.66194000  0.94783000  0.54190000  1.0
