# generated using pymatgen
data_HgH6(C3N2)2
_symmetry_space_group_name_H-M   'P 1'
_cell_length_a   9.74351000
_cell_length_b   10.93680000
_cell_length_c   14.58990000
_cell_angle_alpha   90.00000000
_cell_angle_beta   90.00000000
_cell_angle_gamma   90.00000000
_symmetry_Int_Tables_number   1
_chemical_formula_structural   HgH6(C3N2)2
_chemical_formula_sum   'Hg8 H48 C48 N32'
_cell_volume   1554.74088997
_cell_formula_units_Z   8
loop_
 _symmetry_equiv_pos_site_id
 _symmetry_equiv_pos_as_xyz
  1  'x, y, z'
loop_
 _atom_site_type_symbol
 _atom_site_label
 _atom_site_symmetry_multiplicity
 _atom_site_fract_x
 _atom_site_fract_y
 _atom_site_fract_z
 _atom_site_occupancy
  Hg  Hg0  1  0.67662000  0.47094000  0.89831000  1.0
  Hg  Hg1  1  0.17662000  0.52906000  0.60169000  1.0
  Hg  Hg2  1  0.32338000  0.02906000  0.39831000  1.0
  Hg  Hg3  1  0.82338000  0.97094000  0.10169000  1.0
  Hg  Hg4  1  0.32338000  0.52906000  0.10169000  1.0
  Hg  Hg5  1  0.82338000  0.47094000  0.39831000  1.0
  Hg  Hg6  1  0.67662000  0.97094000  0.60169000  1.0
  Hg  Hg7  1  0.17662000  0.02906000  0.89831000  1.0
  H  H8  1  0.66566000  0.76282000  0.96924000  1.0
  H  H9  1  0.16566000  0.23718000  0.53076000  1.0
  H  H10  1  0.33434000  0.73718000  0.46925000  1.0
  H  H11  1  0.83434000  0.26282000  0.03076000  1.0
  H  H12  1  0.33434000  0.23718000  0.03076000  1.0
  H  H13  1  0.83434000  0.76282000  0.46925000  1.0
  H  H14  1  0.66566000  0.26282000  0.53075000  1.0
  H  H15  1  0.16566000  0.73718000  0.96924000  1.0
  H  H16  1  0.94423000  0.60254000  0.76228000  1.0
  H  H17  1  0.44423000  0.39746000  0.73772000  1.0
  H  H18  1  0.05577000  0.89746000  0.26228000  1.0
  H  H19  1  0.55577000  0.10254000  0.23772000  1.0
  H  H20  1  0.05577000  0.39746000  0.23771000  1.0
  H  H21  1  0.55577000  0.60253000  0.26228000  1.0
  H  H22  1  0.94423000  0.10254000  0.73771000  1.0
  H  H23  1  0.44423000  0.89746000  0.76229000  1.0
  H  H24  1  0.98526000  0.69569000  0.15754000  1.0
  H  H25  1  0.48526000  0.30431000  0.34246000  1.0
  H  H26  1  0.01474000  0.80431000  0.65754000  1.0
  H  H27  1  0.51474000  0.19569000  0.84246000  1.0
  H  H28  1  0.01474000  0.30431000  0.84246000  1.0
  H  H29  1  0.51474000  0.69569000  0.65754000  1.0
  H  H30  1  0.98526000  0.19569000  0.34246000  1.0
  H  H31  1  0.48526000  0.80431000  0.15754000  1.0
  H  H32  1  0.95347000  0.28237000  0.60172000  1.0
  H  H33  1  0.45347000  0.71763000  0.89828000  1.0
  H  H34  1  0.04653000  0.21763000  0.10172000  1.0
  H  H35  1  0.54653000  0.78237000  0.39828000  1.0
  H  H36  1  0.04653000  0.71763000  0.39828000  1.0
  H  H37  1  0.54653000  0.28237000  0.10172000  1.0
  H  H38  1  0.95347000  0.78237000  0.89828000  1.0
  H  H39  1  0.45347000  0.21763000  0.60172000  1.0
  H  H40  1  0.91331000  0.47831000  0.07253000  1.0
  H  H41  1  0.41331000  0.52169000  0.42747000  1.0
  H  H42  1  0.08669000  0.02169000  0.57253000  1.0
  H  H43  1  0.58669000  0.97831000  0.92747000  1.0
  H  H44  1  0.08669000  0.52169000  0.92747000  1.0
  H  H45  1  0.58669000  0.47831000  0.57253000  1.0
  H  H46  1  0.91331000  0.97831000  0.42747000  1.0
  H  H47  1  0.41331000  0.02169000  0.07253000  1.0
  H  H48  1  0.74677000  0.26203000  0.73252000  1.0
  H  H49  1  0.24678000  0.73797000  0.76748000  1.0
  H  H50  1  0.25322000  0.23797000  0.23252000  1.0
  H  H51  1  0.75323000  0.76203000  0.26748000  1.0
  H  H52  1  0.25322000  0.73797000  0.26748000  1.0
  H  H53  1  0.75322000  0.26202000  0.23252000  1.0
  H  H54  1  0.74677000  0.76203000  0.76748000  1.0
  H  H55  1  0.24678000  0.23797000  0.73252000  1.0
  C  C56  1  0.74232000  0.71463000  0.00911000  1.0
  C  C57  1  0.24233000  0.28537000  0.49089000  1.0
  C  C58  1  0.25768000  0.78537000  0.50911000  1.0
  C  C59  1  0.75768000  0.21463000  0.99089000  1.0
  C  C60  1  0.25768000  0.28537000  0.99089000  1.0
  C  C61  1  0.75768000  0.71463000  0.50911000  1.0
  C  C62  1  0.74232000  0.21463000  0.49089000  1.0
  C  C63  1  0.24233000  0.78537000  0.00911000  1.0
  C  C64  1  0.91840000  0.51220000  0.73673000  1.0
  C  C65  1  0.41840000  0.48780000  0.76327000  1.0
  C  C66  1  0.08160000  0.98780000  0.23673000  1.0
  C  C67  1  0.58160000  0.01220000  0.26327000  1.0
  C  C68  1  0.08160000  0.48780000  0.26327000  1.0
  C  C69  1  0.58160000  0.51220000  0.23673000  1.0
  C  C70  1  0.91840000  0.01220000  0.76327000  1.0
  C  C71  1  0.41840000  0.98780000  0.73673000  1.0
  C  C72  1  0.90814000  0.67776000  0.10566000  1.0
  C  C73  1  0.40814000  0.32224000  0.39434000  1.0
  C  C74  1  0.09186000  0.82224000  0.60566000  1.0
  C  C75  1  0.59186000  0.17776000  0.89434000  1.0
  C  C76  1  0.09186000  0.32224000  0.89434000  1.0
  C  C77  1  0.59186000  0.67776000  0.60566000  1.0
  C  C78  1  0.90814000  0.17776000  0.39434000  1.0
  C  C79  1  0.40814000  0.82224000  0.10566000  1.0
  C  C80  1  0.92238000  0.34525000  0.65525000  1.0
  C  C81  1  0.42238000  0.65475000  0.84475000  1.0
  C  C82  1  0.07762000  0.15475000  0.15525000  1.0
  C  C83  1  0.57762000  0.84525000  0.34476000  1.0
  C  C84  1  0.07762000  0.65475000  0.34476000  1.0
  C  C85  1  0.57762000  0.34525000  0.15524000  1.0
  C  C86  1  0.92238000  0.84525000  0.84476000  1.0
  C  C87  1  0.42238000  0.15475000  0.65524000  1.0
  C  C88  1  0.87251000  0.56956000  0.06348000  1.0
  C  C89  1  0.37251000  0.43044000  0.43652000  1.0
  C  C90  1  0.12749000  0.93044000  0.56348000  1.0
  C  C91  1  0.62749000  0.06956000  0.93652000  1.0
  C  C92  1  0.12749000  0.43044000  0.93652000  1.0
  C  C93  1  0.62749000  0.56956000  0.56348000  1.0
  C  C94  1  0.87251000  0.06956000  0.43652000  1.0
  C  C95  1  0.37251000  0.93044000  0.06348000  1.0
  C  C96  1  0.81823000  0.33608000  0.71916000  1.0
  C  C97  1  0.31823000  0.66391000  0.78084000  1.0
  C  C98  1  0.18177000  0.16392000  0.21916000  1.0
  C  C99  1  0.68177000  0.83609000  0.28084000  1.0
  C  C100  1  0.18177000  0.66392000  0.28084000  1.0
  C  C101  1  0.68177000  0.33608000  0.21916000  1.0
  C  C102  1  0.81823000  0.83609000  0.78084000  1.0
  C  C103  1  0.31823000  0.16392000  0.71916000  1.0
  N  N104  1  0.76788000  0.59391000  0.00224000  1.0
  N  N105  1  0.26788000  0.40609000  0.49776000  1.0
  N  N106  1  0.23212000  0.90609000  0.50224000  1.0
  N  N107  1  0.73212000  0.09391000  0.99776000  1.0
  N  N108  1  0.23212000  0.40609000  0.99776000  1.0
  N  N109  1  0.73212000  0.59391000  0.50224000  1.0
  N  N110  1  0.76788000  0.09391000  0.49776000  1.0
  N  N111  1  0.26788000  0.90609000  0.00224000  1.0
  N  N112  1  0.81680000  0.44222000  0.77022000  1.0
  N  N113  1  0.31680000  0.55778000  0.72978000  1.0
  N  N114  1  0.18320000  0.05778000  0.27022000  1.0
  N  N115  1  0.68320000  0.94222000  0.22978000  1.0
  N  N116  1  0.18320000  0.55778000  0.22978000  1.0
  N  N117  1  0.68320000  0.44221000  0.27022000  1.0
  N  N118  1  0.81680000  0.94222000  0.72978000  1.0
  N  N119  1  0.31680000  0.05778000  0.77022000  1.0
  N  N120  1  0.82517000  0.76883000  0.07045000  1.0
  N  N121  1  0.32517000  0.23117000  0.42955000  1.0
  N  N122  1  0.17484000  0.73117000  0.57045000  1.0
  N  N123  1  0.67484000  0.26883000  0.92955000  1.0
  N  N124  1  0.17484000  0.23117000  0.92955000  1.0
  N  N125  1  0.67483000  0.76883000  0.57045000  1.0
  N  N126  1  0.82517000  0.26883000  0.42955000  1.0
  N  N127  1  0.32517000  0.73117000  0.07045000  1.0
  N  N128  1  0.98501000  0.45723000  0.66693000  1.0
  N  N129  1  0.48501000  0.54277000  0.83307000  1.0
  N  N130  1  0.01499000  0.04277000  0.16693000  1.0
  N  N131  1  0.51499000  0.95723000  0.33307000  1.0
  N  N132  1  0.01499000  0.54277000  0.33307000  1.0
  N  N133  1  0.51499000  0.45722000  0.16693000  1.0
  N  N134  1  0.98501000  0.95723000  0.83307000  1.0
  N  N135  1  0.48501000  0.04277000  0.66693000  1.0
