# generated using pymatgen
data_AgH10C9BrN2
_symmetry_space_group_name_H-M   'P 1'
_cell_length_a   6.56283000
_cell_length_b   8.86808000
_cell_length_c   17.00230000
_cell_angle_alpha   90.00630000
_cell_angle_beta   90.00100000
_cell_angle_gamma   80.27370000
_symmetry_Int_Tables_number   1
_chemical_formula_structural   AgH10C9BrN2
_chemical_formula_sum   'Ag4 H40 C36 Br4 N8'
_cell_volume   975.30531632
_cell_formula_units_Z   4
loop_
 _symmetry_equiv_pos_site_id
 _symmetry_equiv_pos_as_xyz
  1  'x, y, z'
loop_
 _atom_site_type_symbol
 _atom_site_label
 _atom_site_symmetry_multiplicity
 _atom_site_fract_x
 _atom_site_fract_y
 _atom_site_fract_z
 _atom_site_occupancy
  Ag  Ag0  1  0.99808000  0.50414000  0.00066000  1.0
  Ag  Ag1  1  0.50191000  0.49619000  0.50040000  1.0
  Ag  Ag2  1  0.51682000  0.50315000  0.99967000  1.0
  Ag  Ag3  1  0.98490000  0.49719000  0.49980000  1.0
  H  H4  1  0.95386000  0.57038000  0.65058000  1.0
  H  H5  1  0.54632000  0.42916000  0.15030000  1.0
  H  H6  1  0.04833000  0.43030000  0.35064000  1.0
  H  H7  1  0.45165000  0.56926000  0.85037000  1.0
  H  H8  1  0.74930000  0.06006000  0.65538000  1.0
  H  H9  1  0.75084000  0.93954000  0.15543000  1.0
  H  H10  1  0.25138000  0.94058000  0.34235000  1.0
  H  H11  1  0.24869000  0.05904000  0.84247000  1.0
  H  H12  1  0.74463000  0.06116000  0.80248000  1.0
  H  H13  1  0.75544000  0.93886000  0.30254000  1.0
  H  H14  1  0.25373000  0.94343000  0.19528000  1.0
  H  H15  1  0.24624000  0.05656000  0.69541000  1.0
  H  H16  1  0.18077000  0.36630000  0.83445000  1.0
  H  H17  1  0.31895000  0.63372000  0.33412000  1.0
  H  H18  1  0.82073000  0.64037000  0.16622000  1.0
  H  H19  1  0.67917000  0.35955000  0.66580000  1.0
  H  H20  1  0.04690000  0.38479000  0.74217000  1.0
  H  H21  1  0.45266000  0.61497000  0.24183000  1.0
  H  H22  1  0.94553000  0.61721000  0.26020000  1.0
  H  H23  1  0.55458000  0.38256000  0.75983000  1.0
  H  H24  1  0.91872000  0.33388000  0.82867000  1.0
  H  H25  1  0.58087000  0.66624000  0.32824000  1.0
  H  H26  1  0.08271000  0.67079000  0.17657000  1.0
  H  H27  1  0.41713000  0.32923000  0.67619000  1.0
  H  H28  1  0.88644000  0.82772000  0.00536000  1.0
  H  H29  1  0.61364000  0.17286000  0.50526000  1.0
  H  H30  1  0.11041000  0.18180000  0.99413000  1.0
  H  H31  1  0.38930000  0.81880000  0.49406000  1.0
  H  H32  1  0.65802000  0.92207000  0.95725000  1.0
  H  H33  1  0.84187000  0.07820000  0.45710000  1.0
  H  H34  1  0.33875000  0.08613000  0.04185000  1.0
  H  H35  1  0.16130000  0.91453000  0.54198000  1.0
  H  H36  1  0.89790000  0.98479000  0.93964000  1.0
  H  H37  1  0.60178000  0.01563000  0.43965000  1.0
  H  H38  1  0.09848000  0.02329000  0.05881000  1.0
  H  H39  1  0.40183000  0.97698000  0.55890000  1.0
  H  H40  1  0.84809000  0.81794000  0.58118000  1.0
  H  H41  1  0.65207000  0.18144000  0.08106000  1.0
  H  H42  1  0.15454000  0.18091000  0.41832000  1.0
  H  H43  1  0.34553000  0.81851000  0.91825000  1.0
  C  C44  1  0.93552000  0.62366000  0.89583000  1.0
  C  C45  1  0.56434000  0.37655000  0.39561000  1.0
  C  C46  1  0.06151000  0.38325000  0.10504000  1.0
  C  C47  1  0.43850000  0.61699000  0.60481000  1.0
  C  C48  1  0.90785000  0.67623000  0.68355000  1.0
  C  C49  1  0.59213000  0.32342000  0.18335000  1.0
  C  C50  1  0.09262000  0.32518000  0.31695000  1.0
  C  C51  1  0.40738000  0.67450000  0.81678000  1.0
  C  C52  1  0.79160000  0.95305000  0.68758000  1.0
  C  C53  1  0.70844000  0.04663000  0.18756000  1.0
  C  C54  1  0.20811000  0.04846000  0.31095000  1.0
  C  C55  1  0.29189000  0.95128000  0.81097000  1.0
  C  C56  1  0.90705000  0.67813000  0.76554000  1.0
  C  C57  1  0.59289000  0.32180000  0.26534000  1.0
  C  C58  1  0.09162000  0.32538000  0.23495000  1.0
  C  C59  1  0.40838000  0.67452000  0.73478000  1.0
  C  C60  1  0.79014000  0.95542000  0.76954000  1.0
  C  C61  1  0.70988000  0.04451000  0.26952000  1.0
  C  C62  1  0.20839000  0.04826000  0.22898000  1.0
  C  C63  1  0.29160000  0.95164000  0.72899000  1.0
  C  C64  1  0.84892000  0.81564000  0.80765000  1.0
  C  C65  1  0.65086000  0.18440000  0.30752000  1.0
  C  C66  1  0.14866000  0.18895000  0.19190000  1.0
  C  C67  1  0.35135000  0.81103000  0.69183000  1.0
  C  C68  1  0.03035000  0.40243000  0.80579000  1.0
  C  C69  1  0.46932000  0.59753000  0.30546000  1.0
  C  C70  1  0.96812000  0.60214000  0.19665000  1.0
  C  C71  1  0.53184000  0.39780000  0.69628000  1.0
  C  C72  1  0.82518000  0.88447000  0.95105000  1.0
  C  C73  1  0.67470000  0.11590000  0.45097000  1.0
  C  C74  1  0.17160000  0.12371000  0.04812000  1.0
  C  C75  1  0.32843000  0.87671000  0.54814000  1.0
  C  C76  1  0.84916000  0.81600000  0.64539000  1.0
  C  C77  1  0.65096000  0.18356000  0.14527000  1.0
  C  C78  1  0.15192000  0.18444000  0.35413000  1.0
  C  C79  1  0.34808000  0.81517000  0.85406000  1.0
  Br  Br80  1  0.56661000  0.27101000  0.91627000  1.0
  Br  Br81  1  0.93340000  0.72924000  0.41638000  1.0
  Br  Br82  1  0.43858000  0.73300000  0.08406000  1.0
  Br  Br83  1  0.06156000  0.26722000  0.58414000  1.0
  N  N84  1  0.86929000  0.77654000  0.88679000  1.0
  N  N85  1  0.63059000  0.22368000  0.38663000  1.0
  N  N86  1  0.12780000  0.23013000  0.11305000  1.0
  N  N87  1  0.37222000  0.77009000  0.61296000  1.0
  N  N88  1  0.95698000  0.56390000  0.82183000  1.0
  N  N89  1  0.54280000  0.43615000  0.32158000  1.0
  N  N90  1  0.04066000  0.44105000  0.17944000  1.0
  N  N91  1  0.45938000  0.55897000  0.67918000  1.0
