# generated using pymatgen
data_CdPH14C20NO6
_symmetry_space_group_name_H-M   'P 1'
_cell_length_a   9.87536000
_cell_length_b   10.09590000
_cell_length_c   10.31640000
_cell_angle_alpha   101.14900000
_cell_angle_beta   107.05800000
_cell_angle_gamma   97.27490000
_symmetry_Int_Tables_number   1
_chemical_formula_structural   CdPH14C20NO6
_chemical_formula_sum   'Cd2 P2 H28 C40 N2 O12'
_cell_volume   946.13520356
_cell_formula_units_Z   2
loop_
 _symmetry_equiv_pos_site_id
 _symmetry_equiv_pos_as_xyz
  1  'x, y, z'
loop_
 _atom_site_type_symbol
 _atom_site_label
 _atom_site_symmetry_multiplicity
 _atom_site_fract_x
 _atom_site_fract_y
 _atom_site_fract_z
 _atom_site_occupancy
  Cd  Cd0  1  0.73219000  0.06851000  0.02982000  1.0
  Cd  Cd1  1  0.26781000  0.93149000  0.97018000  1.0
  P  P2  1  0.09599000  0.11048000  0.22444000  1.0
  P  P3  1  0.90401000  0.88952000  0.77556000  1.0
  H  H4  1  0.15731000  0.87602000  0.18959000  1.0
  H  H5  1  0.84269000  0.12398000  0.81041000  1.0
  H  H6  1  0.39566000  0.11075000  0.36458000  1.0
  H  H7  1  0.60434000  0.88925000  0.63542000  1.0
  H  H8  1  0.53327000  0.11622000  0.61161000  1.0
  H  H9  1  0.46673000  0.88378000  0.38839000  1.0
  H  H10  1  0.15418000  0.15406000  0.72794000  1.0
  H  H11  1  0.84582000  0.84594000  0.27205000  1.0
  H  H12  1  0.01528000  0.15029000  0.48177000  1.0
  H  H13  1  0.98472000  0.84971000  0.51823000  1.0
  H  H14  1  0.22964000  0.23431000  0.03605000  1.0
  H  H15  1  0.77036000  0.76569000  0.96395000  1.0
  H  H16  1  0.24681000  0.46967000  0.99500000  1.0
  H  H17  1  0.75319000  0.53033000  0.00500000  1.0
  H  H18  1  0.04371000  0.59347000  0.30279000  1.0
  H  H19  1  0.95629000  0.40653000  0.69722000  1.0
  H  H20  1  0.02026000  0.35755000  0.34158000  1.0
  H  H21  1  0.97974000  0.64245000  0.65842000  1.0
  H  H22  1  0.58788000  0.33448000  0.06637000  1.0
  H  H23  1  0.41213000  0.66552000  0.93363000  1.0
  H  H24  1  0.51323000  0.48759000  0.24136000  1.0
  H  H25  1  0.48677000  0.51241000  0.75864000  1.0
  H  H26  1  0.71190000  0.26501000  0.54218000  1.0
  H  H27  1  0.28810000  0.73499000  0.45782000  1.0
  H  H28  1  0.78224000  0.12505000  0.35395000  1.0
  H  H29  1  0.21776000  0.87496000  0.64605000  1.0
  H  H30  1  0.60388000  0.45464000  0.61974000  1.0
  H  H31  1  0.39612000  0.54536000  0.38026000  1.0
  C  C32  1  0.19653000  0.13078000  0.40740000  1.0
  C  C33  1  0.80347000  0.86922000  0.59260000  1.0
  C  C34  1  0.34369000  0.12403000  0.44484000  1.0
  C  C35  1  0.65631000  0.87597000  0.55516000  1.0
  C  C36  1  0.42067000  0.12697000  0.58225000  1.0
  C  C37  1  0.57933000  0.87303000  0.41775000  1.0
  C  C38  1  0.35227000  0.13606000  0.68429000  1.0
  C  C39  1  0.64773000  0.86394000  0.31571000  1.0
  C  C40  1  0.20721000  0.14965000  0.64869000  1.0
  C  C41  1  0.79279000  0.85035000  0.35131000  1.0
  C  C42  1  0.12987000  0.14663000  0.51085000  1.0
  C  C43  1  0.87013000  0.85337000  0.48915000  1.0
  C  C44  1  0.42989000  0.11379000  0.82553000  1.0
  C  C45  1  0.57011000  0.88621000  0.17447000  1.0
  C  C46  1  0.12471000  0.28067000  0.19293000  1.0
  C  C47  1  0.87529000  0.71933000  0.80707000  1.0
  C  C48  1  0.18892000  0.31198000  0.09530000  1.0
  C  C49  1  0.81108000  0.68802000  0.90470000  1.0
  C  C50  1  0.19991000  0.44402000  0.07258000  1.0
  C  C51  1  0.80009000  0.55598000  0.92742000  1.0
  C  C52  1  0.14995000  0.54620000  0.14864000  1.0
  C  C53  1  0.85005000  0.45380000  0.85136000  1.0
  C  C54  1  0.08548000  0.51477000  0.24626000  1.0
  C  C55  1  0.91452000  0.48523000  0.75374000  1.0
  C  C56  1  0.07273000  0.38274000  0.26756000  1.0
  C  C57  1  0.92727000  0.61726000  0.73244000  1.0
  C  C58  1  0.16432000  0.68567000  0.12156000  1.0
  C  C59  1  0.83568000  0.31433000  0.87844000  1.0
  C  C60  1  0.61263000  0.32302000  0.17312000  1.0
  C  C61  1  0.38737000  0.67698000  0.82688000  1.0
  C  C62  1  0.57057000  0.40713000  0.27114000  1.0
  C  C63  1  0.42943000  0.59287000  0.72886000  1.0
  C  C64  1  0.60191000  0.38660000  0.40711000  1.0
  C  C65  1  0.39810000  0.61340000  0.59289000  1.0
  C  C66  1  0.68240000  0.28471000  0.43825000  1.0
  C  C67  1  0.31760000  0.71529000  0.56175000  1.0
  C  C68  1  0.72115000  0.20578000  0.33404000  1.0
  C  C69  1  0.27885000  0.79422000  0.66596000  1.0
  C  C70  1  0.55233000  0.46272000  0.51309000  1.0
  C  C71  1  0.44767000  0.53728000  0.48690000  1.0
  N  N72  1  0.68516000  0.22264000  0.20298000  1.0
  N  N73  1  0.31484000  0.77736000  0.79702000  1.0
  O  O74  1  0.36745000  0.12555000  0.91814000  1.0
  O  O75  1  0.63255000  0.87445000  0.08186000  1.0
  O  O76  1  0.55188000  0.07922000  0.83889000  1.0
  O  O77  1  0.44812000  0.92078000  0.16111000  1.0
  O  O78  1  0.14864000  0.78371000  0.21915000  1.0
  O  O79  1  0.85136000  0.21629000  0.78085000  1.0
  O  O80  1  0.19003000  0.70616000  0.01561000  1.0
  O  O81  1  0.80996000  0.29384000  0.98439000  1.0
  O  O82  1  0.93686000  0.06628000  0.20376000  1.0
  O  O83  1  0.06314000  0.93372000  0.79624000  1.0
  O  O84  1  0.16410000  0.01243000  0.14066000  1.0
  O  O85  1  0.83590000  0.98757000  0.85934000  1.0
