# generated using pymatgen
data_ZnH12C27IN3O8
_symmetry_space_group_name_H-M   'P 1'
_cell_length_a   9.51104000
_cell_length_b   10.84900000
_cell_length_c   27.97670000
_cell_angle_alpha   87.12630000
_cell_angle_beta   87.75400000
_cell_angle_gamma   85.40300000
_symmetry_Int_Tables_number   1
_chemical_formula_structural   ZnH12C27IN3O8
_chemical_formula_sum   'Zn2 H24 C54 I2 N6 O16'
_cell_volume   2872.08419240
_cell_formula_units_Z   2
loop_
 _symmetry_equiv_pos_site_id
 _symmetry_equiv_pos_as_xyz
  1  'x, y, z'
loop_
 _atom_site_type_symbol
 _atom_site_label
 _atom_site_symmetry_multiplicity
 _atom_site_fract_x
 _atom_site_fract_y
 _atom_site_fract_z
 _atom_site_occupancy
  Zn  Zn0  1  0.34598000  0.51062000  0.49832000  1.0
  Zn  Zn1  1  0.64215000  0.48755000  0.50230000  1.0
  H  H2  1  0.30024000  0.49472000  0.34551000  1.0
  H  H3  1  0.24339000  0.49664000  0.65233000  1.0
  H  H4  1  0.32104000  0.49756000  0.25570000  1.0
  H  H5  1  0.23346000  0.49340000  0.74220000  1.0
  H  H6  1  0.63678000  0.18830000  0.12305000  1.0
  H  H7  1  0.37561000  0.81425000  0.87776000  1.0
  H  H8  1  0.68423000  0.55540000  0.65100000  1.0
  H  H9  1  0.75141000  0.45545000  0.35239000  1.0
  H  H10  1  0.67487000  0.55425000  0.74086000  1.0
  H  H11  1  0.77340000  0.45985000  0.26258000  1.0
  H  H12  1  0.48071000  0.20049000  0.88113000  1.0
  H  H13  1  0.53061000  0.80201000  0.11937000  1.0
  H  H14  1  0.50165000  0.19281000  0.96868000  1.0
  H  H15  1  0.51005000  0.80936000  0.03178000  1.0
  H  H16  1  0.50177000  0.04672000  0.58396000  1.0
  H  H17  1  0.49833000  0.95125000  0.41437000  1.0
  H  H18  1  0.28330000  0.92955000  0.53978000  1.0
  H  H19  1  0.71592000  0.06859000  0.45859000  1.0
  H  H20  1  0.10470000  0.41431000  0.57241000  1.0
  H  H21  1  0.88362000  0.58310000  0.42778000  1.0
  H  H22  1  0.92771000  0.28770000  0.51115000  1.0
  H  H23  1  0.06029000  0.70941000  0.48906000  1.0
  H  H24  1  0.10871000  0.38346000  0.43531000  1.0
  H  H25  1  0.87958000  0.61373000  0.56482000  1.0
  C  C26  1  0.50664000  0.25845000  0.50760000  1.0
  C  C27  1  0.49079000  0.73923000  0.49195000  1.0
  C  C28  1  0.51163000  0.47926000  0.40755000  1.0
  C  C29  1  0.47156000  0.52004000  0.59304000  1.0
  C  C30  1  0.57953000  0.37176000  0.18012000  1.0
  C  C31  1  0.43254000  0.63103000  0.82057000  1.0
  C  C32  1  0.54091000  0.60250000  0.17917000  1.0
  C  C33  1  0.46869000  0.40012000  0.82142000  1.0
  C  C34  1  0.67020000  0.46752000  0.28100000  1.0
  C  C35  1  0.58102000  0.54123000  0.72113000  1.0
  C  C36  1  0.65796000  0.46527000  0.33079000  1.0
  C  C37  1  0.58627000  0.54184000  0.67134000  1.0
  C  C38  1  0.40311000  0.48724000  0.32694000  1.0
  C  C39  1  0.33724000  0.50881000  0.67214000  1.0
  C  C40  1  0.41471000  0.48876000  0.27722000  1.0
  C  C41  1  0.33163000  0.50733000  0.72196000  1.0
  C  C42  1  0.54819000  0.48003000  0.25460000  1.0
  C  C43  1  0.45406000  0.52269000  0.74607000  1.0
  C  C44  1  0.54228000  0.49346000  0.10152000  1.0
  C  C45  1  0.47002000  0.50894000  0.89907000  1.0
  C  C46  1  0.57268000  0.37957000  0.12718000  1.0
  C  C47  1  0.44006000  0.62305000  0.87348000  1.0
  C  C48  1  0.60357000  0.27296000  0.10254000  1.0
  C  C49  1  0.40885000  0.72951000  0.89819000  1.0
  C  C50  1  0.53495000  0.60443000  0.12634000  1.0
  C  C51  1  0.47659000  0.39806000  0.87421000  1.0
  C  C52  1  0.52465000  0.47630000  0.35404000  1.0
  C  C53  1  0.46468000  0.52463000  0.64656000  1.0
  C  C54  1  0.51441000  0.38880000  0.97475000  1.0
  C  C55  1  0.49786000  0.61324000  0.02585000  1.0
  C  C56  1  0.46789000  0.62011000  0.97485000  1.0
  C  C57  1  0.54426000  0.38190000  0.02578000  1.0
  C  C58  1  0.48742000  0.50686000  0.94974000  1.0
  C  C59  1  0.52500000  0.49526000  0.05086000  1.0
  C  C60  1  0.50082000  0.28224000  0.94946000  1.0
  C  C61  1  0.51120000  0.71996000  0.05105000  1.0
  C  C62  1  0.48553000  0.28547000  0.90001000  1.0
  C  C63  1  0.52620000  0.71697000  0.10051000  1.0
  C  C64  1  0.59654000  0.27480000  0.05252000  1.0
  C  C65  1  0.41512000  0.72722000  0.94823000  1.0
  C  C66  1  0.49906000  0.02466000  0.54637000  1.0
  C  C67  1  0.50027000  0.97319000  0.45201000  1.0
  C  C68  1  0.61424000  0.94158000  0.51921000  1.0
  C  C69  1  0.38496000  0.05641000  0.47904000  1.0
  C  C70  1  0.49373000  0.87577000  0.49577000  1.0
  C  C71  1  0.50478000  0.12229000  0.50274000  1.0
  C  C72  1  0.37924000  0.96138000  0.52229000  1.0
  C  C73  1  0.61989000  0.03689000  0.47611000  1.0
  C  C74  1  0.96369000  0.38065000  0.50632000  1.0
  C  C75  1  0.02458000  0.61634000  0.49383000  1.0
  C  C76  1  0.04850000  0.45079000  0.54081000  1.0
  C  C77  1  0.93970000  0.54619000  0.45936000  1.0
  C  C78  1  0.05133000  0.43436000  0.46365000  1.0
  C  C79  1  0.93696000  0.56269000  0.53650000  1.0
  I  I80  1  0.69472000  0.10795000  0.02538000  1.0
  I  I81  1  0.31428000  0.89263000  0.97567000  1.0
  N  N82  1  0.55740000  0.48468000  0.20290000  1.0
  N  N83  1  0.45131000  0.51801000  0.79779000  1.0
  N  N84  1  0.13515000  0.50473000  0.49816000  1.0
  N  N85  1  0.85310000  0.49229000  0.50202000  1.0
  N  N86  1  0.73430000  0.87072000  0.54111000  1.0
  N  N87  1  0.26459000  0.12643000  0.45688000  1.0
  O  O88  1  0.38822000  0.32035000  0.50428000  1.0
  O  O89  1  0.60941000  0.67843000  0.48650000  1.0
  O  O90  1  0.62537000  0.29847000  0.51475000  1.0
  O  O91  1  0.36939000  0.69800000  0.49473000  1.0
  O  O92  1  0.38854000  0.50302000  0.42601000  1.0
  O  O93  1  0.59353000  0.52030000  0.57239000  1.0
  O  O94  1  0.62483000  0.45915000  0.43066000  1.0
  O  O95  1  0.35585000  0.51493000  0.57208000  1.0
  O  O96  1  0.60068000  0.27316000  0.20326000  1.0
  O  O97  1  0.41247000  0.72979000  0.79744000  1.0
  O  O98  1  0.47861000  0.30559000  0.79869000  1.0
  O  O99  1  0.52992000  0.69711000  0.20185000  1.0
  O  O100  1  0.71121000  0.81717000  0.58056000  1.0
  O  O101  1  0.84950000  0.86680000  0.51856000  1.0
  O  O102  1  0.15033000  0.13310000  0.48000000  1.0
  O  O103  1  0.28636000  0.17627000  0.41668000  1.0
