# generated using pymatgen
data_Co2H15C15NO10
_symmetry_space_group_name_H-M   'P 1'
_cell_length_a   9.13458000
_cell_length_b   9.31786000
_cell_length_c   12.60780000
_cell_angle_alpha   94.25880000
_cell_angle_beta   105.60600000
_cell_angle_gamma   114.39500000
_symmetry_Int_Tables_number   1
_chemical_formula_structural   Co2H15C15NO10
_chemical_formula_sum   'Co4 H30 C30 N2 O20'
_cell_volume   920.01278378
_cell_formula_units_Z   2
loop_
 _symmetry_equiv_pos_site_id
 _symmetry_equiv_pos_as_xyz
  1  'x, y, z'
loop_
 _atom_site_type_symbol
 _atom_site_label
 _atom_site_symmetry_multiplicity
 _atom_site_fract_x
 _atom_site_fract_y
 _atom_site_fract_z
 _atom_site_occupancy
  Co  Co0  1  0.13059000  0.48765000  0.29949000  1.0
  Co  Co1  1  0.86941000  0.51235000  0.70052000  1.0
  Co  Co2  1  0.50000000  0.50000000  0.50000000  1.0
  Co  Co3  1  0.00000000  0.00000000  0.50000000  1.0
  H  H4  1  0.14866000  0.33333333  0.54957000  1.0
  H  H5  1  0.85134000  0.66666667  0.45043000  1.0
  H  H6  1  0.64809000  0.10902000  0.40431000  1.0
  H  H7  1  0.35190000  0.89098000  0.59569000  1.0
  H  H8  1  0.25678000  0.09340000  0.17250000  1.0
  H  H9  1  0.74322000  0.90660000  0.82750000  1.0
  H  H10  1  0.47881000  0.28389000  0.11921000  1.0
  H  H11  1  0.52118000  0.71611000  0.88079000  1.0
  H  H12  1  0.55943000  0.42607000  0.24737000  1.0
  H  H13  1  0.44057000  0.57392000  0.75262000  1.0
  H  H14  1  0.60056000  0.12001000  0.21287000  1.0
  H  H15  1  0.39943000  0.87999000  0.78712000  1.0
  H  H16  1  0.35873000  0.00035000  0.31640000  1.0
  H  H17  1  0.64127000  0.99964000  0.68359000  1.0
  H  H18  1  0.59466000  0.86988000  0.17673000  1.0
  H  H19  1  0.40535000  0.13012000  0.82325000  1.0
  H  H20  1  0.97574000  0.60062000  0.10024000  1.0
  H  H21  1  0.02427000  0.39939000  0.89977000  1.0
  H  H22  1  0.05879000  0.01821000  0.70482000  1.0
  H  H23  1  0.94122000  0.98180000  0.29519000  1.0
  H  H24  1  0.08613000  0.78521000  0.97637000  1.0
  H  H25  1  0.91388000  0.21479000  0.02363000  1.0
  H  H26  1  0.46364000  0.68343000  0.28767000  1.0
  H  H27  1  0.53638000  0.31658000  0.71233000  1.0
  H  H28  1  0.32004000  0.97462000  0.93178000  1.0
  H  H29  1  0.67997000  0.02537000  0.06821000  1.0
  H  H30  1  0.10466000  0.87852000  0.67089000  1.0
  H  H31  1  0.89533000  0.12147000  0.32911000  1.0
  H  H32  1  0.96898000  0.25951000  0.56896000  1.0
  H  H33  1  0.03102000  0.74048000  0.43104000  1.0
  C  C34  1  0.33673000  0.14603000  0.44049000  1.0
  C  C35  1  0.66326000  0.85397000  0.55951000  1.0
  C  C36  1  0.25531000  0.29643000  0.25383000  1.0
  C  C37  1  0.74469000  0.70357000  0.74617000  1.0
  C  C38  1  0.70875000  0.35013000  0.47129000  1.0
  C  C39  1  0.29125000  0.64987000  0.52871000  1.0
  C  C40  1  0.60781000  0.20025000  0.37787000  1.0
  C  C41  1  0.39218000  0.79975000  0.62212000  1.0
  C  C42  1  0.34700000  0.19706000  0.24162000  1.0
  C  C43  1  0.65300000  0.80294000  0.75837000  1.0
  C  C44  1  0.50663000  0.29758000  0.21063000  1.0
  C  C45  1  0.49337000  0.70241000  0.78936000  1.0
  C  C46  1  0.63443000  0.23675000  0.26425000  1.0
  C  C47  1  0.36557000  0.76325000  0.73575000  1.0
  C  C48  1  0.81533000  0.34526000  0.27279000  1.0
  C  C49  1  0.18467000  0.65474000  0.72721000  1.0
  C  C50  1  0.41683000  0.95815000  0.99531000  1.0
  C  C51  1  0.58317000  0.04183000  0.00469000  1.0
  C  C52  1  0.41117000  0.13079000  0.34700000  1.0
  C  C53  1  0.58883000  0.86921000  0.65300000  1.0
  C  C54  1  0.35155000  0.84613000  0.06439000  1.0
  C  C55  1  0.64845000  0.15387000  0.93561000  1.0
  C  C56  1  0.45629000  0.81328000  0.15363000  1.0
  C  C57  1  0.54371000  0.18672000  0.84636000  1.0
  C  C58  1  0.11146000  0.66263000  0.11225000  1.0
  C  C59  1  0.88855000  0.33737000  0.88775000  1.0
  C  C60  1  0.17480000  0.76689000  0.04481000  1.0
  C  C61  1  0.82521000  0.23310000  0.95519000  1.0
  C  C62  1  0.38392000  0.70744000  0.21705000  1.0
  C  C63  1  0.61609000  0.29256000  0.78295000  1.0
  N  N64  1  0.21345000  0.63192000  0.19720000  1.0
  N  N65  1  0.78656000  0.36809000  0.80281000  1.0
  O  O66  1  0.11746000  0.26910000  0.18074000  1.0
  O  O67  1  0.88254000  0.73089000  0.81926000  1.0
  O  O68  1  0.06239000  0.23596000  0.56300000  1.0
  O  O69  1  0.93762000  0.76405000  0.43700000  1.0
  O  O70  1  0.41503000  0.26774000  0.52274000  1.0
  O  O71  1  0.58497000  0.73227000  0.47726000  1.0
  O  O72  1  0.32291000  0.41864000  0.33874000  1.0
  O  O73  1  0.67709000  0.58136000  0.66126000  1.0
  O  O74  1  0.80632000  0.34326000  0.56271000  1.0
  O  O75  1  0.19368000  0.65673000  0.43729000  1.0
  O  O76  1  0.69300000  0.47756000  0.45397000  1.0
  O  O77  1  0.30701000  0.52245000  0.54603000  1.0
  O  O78  1  0.19198000  0.03085000  0.42732000  1.0
  O  O79  1  0.80803000  0.96916000  0.57269000  1.0
  O  O80  1  0.93136000  0.30276000  0.32191000  1.0
  O  O81  1  0.06863000  0.69724000  0.67809000  1.0
  O  O82  1  0.85750000  0.47097000  0.23393000  1.0
  O  O83  1  0.14249000  0.52902000  0.76606000  1.0
  O  O84  1  0.12876000  0.99388000  0.66712000  1.0
  O  O85  1  0.87124000  0.00612000  0.33289000  1.0
