# generated using pymatgen
data_CuHgH6C10N4(ClO2)2
_symmetry_space_group_name_H-M   'P 1'
_cell_length_a   7.22937000
_cell_length_b   9.62353000
_cell_length_c   11.09880000
_cell_angle_alpha   79.54360000
_cell_angle_beta   71.01140000
_cell_angle_gamma   67.97370000
_symmetry_Int_Tables_number   1
_chemical_formula_structural   CuHgH6C10N4(ClO2)2
_chemical_formula_sum   'Cu2 Hg2 H12 C20 N8 Cl4 O8'
_cell_volume   675.29652847
_cell_formula_units_Z   2
loop_
 _symmetry_equiv_pos_site_id
 _symmetry_equiv_pos_as_xyz
  1  'x, y, z'
loop_
 _atom_site_type_symbol
 _atom_site_label
 _atom_site_symmetry_multiplicity
 _atom_site_fract_x
 _atom_site_fract_y
 _atom_site_fract_z
 _atom_site_occupancy
  Cu  Cu0  1  0.50000000  0.00000000  0.50000000  1.0
  Cu  Cu1  1  0.00000000  0.50000000  0.00000000  1.0
  Hg  Hg2  1  0.00000000  0.00000000  0.00000000  1.0
  Hg  Hg3  1  0.00000000  0.50000000  0.50000000  1.0
  H  H4  1  0.63442000  0.89637000  0.92074000  1.0
  H  H5  1  0.45154000  0.60377000  0.57920000  1.0
  H  H6  1  0.36558000  0.10363000  0.07926000  1.0
  H  H7  1  0.54846000  0.39623000  0.42081000  1.0
  H  H8  1  0.98216000  0.14534000  0.67100000  1.0
  H  H9  1  0.79804000  0.35485000  0.82910000  1.0
  H  H10  1  0.01786000  0.85466000  0.32899000  1.0
  H  H11  1  0.20196000  0.64514000  0.17090000  1.0
  H  H12  1  0.82031000  0.14854000  0.49887000  1.0
  H  H13  1  0.46733000  0.35134000  0.00107000  1.0
  H  H14  1  0.17969000  0.85146000  0.50113000  1.0
  H  H15  1  0.53266000  0.64866000  0.99893000  1.0
  C  C16  1  0.59210000  0.94921000  0.73147000  1.0
  C  C17  1  0.27270000  0.55100000  0.76844000  1.0
  C  C18  1  0.40790000  0.05079000  0.26854000  1.0
  C  C19  1  0.72730000  0.44900000  0.23156000  1.0
  C  C20  1  0.67741000  0.95227000  0.82661000  1.0
  C  C21  1  0.45617000  0.54790000  0.67333000  1.0
  C  C22  1  0.32259000  0.04773000  0.17339000  1.0
  C  C23  1  0.54383000  0.45210000  0.32667000  1.0
  C  C24  1  0.86827000  0.08961000  0.68872000  1.0
  C  C25  1  0.64622000  0.41051000  0.81128000  1.0
  C  C26  1  0.13174000  0.91039000  0.31128000  1.0
  C  C27  1  0.35378000  0.58949000  0.18872000  1.0
  C  C28  1  0.78214000  0.09013000  0.59263000  1.0
  C  C29  1  0.46457000  0.40986000  0.90731000  1.0
  C  C30  1  0.21786000  0.90987000  0.40737000  1.0
  C  C31  1  0.53543000  0.59013000  0.09269000  1.0
  C  C32  1  0.43257000  0.87642000  0.74985000  1.0
  C  C33  1  0.05889000  0.62405000  0.75011000  1.0
  C  C34  1  0.56742000  0.12359000  0.25016000  1.0
  C  C35  1  0.94111000  0.37595000  0.24989000  1.0
  N  N36  1  0.64589000  0.01836000  0.61563000  1.0
  N  N37  1  0.27967000  0.48177000  0.88428000  1.0
  N  N38  1  0.35411000  0.98164000  0.38437000  1.0
  N  N39  1  0.72033000  0.51824000  0.11572000  1.0
  N  N40  1  0.81541000  0.02176000  0.80502000  1.0
  N  N41  1  0.64194000  0.47839000  0.69497000  1.0
  N  N42  1  0.18459000  0.97823000  0.19498000  1.0
  N  N43  1  0.35805000  0.52161000  0.30503000  1.0
  Cl  Cl44  1  0.23232000  0.29909000  0.59090000  1.0
  Cl  Cl45  1  0.12219000  0.20107000  0.90896000  1.0
  Cl  Cl46  1  0.76768000  0.70091000  0.40911000  1.0
  Cl  Cl47  1  0.87781000  0.79893000  0.09104000  1.0
  O  O48  1  0.36415000  0.89324000  0.65200000  1.0
  O  O49  1  0.90951000  0.60716000  0.84793000  1.0
  O  O50  1  0.63585000  0.10676000  0.34800000  1.0
  O  O51  1  0.09049000  0.39284000  0.15207000  1.0
  O  O52  1  0.37390000  0.80843000  0.85401000  1.0
  O  O53  1  0.03641000  0.69211000  0.64596000  1.0
  O  O54  1  0.62610000  0.19158000  0.14599000  1.0
  O  O55  1  0.96359000  0.30790000  0.35404000  1.0
