# generated using pymatgen
data_Mg2H9C18N4O6F
_symmetry_space_group_name_H-M   'P 1'
_cell_length_a   6.74869000
_cell_length_b   31.39400000
_cell_length_c   31.39680000
_cell_angle_alpha   119.49500000
_cell_angle_beta   94.09860000
_cell_angle_gamma   94.10930000
_symmetry_Int_Tables_number   1
_chemical_formula_structural   Mg2H9C18N4O6F
_chemical_formula_sum   'Mg6 H27 C54 N12 O18 F3'
_cell_volume   5731.17027394
_cell_formula_units_Z   3
loop_
 _symmetry_equiv_pos_site_id
 _symmetry_equiv_pos_as_xyz
  1  'x, y, z'
loop_
 _atom_site_type_symbol
 _atom_site_label
 _atom_site_symmetry_multiplicity
 _atom_site_fract_x
 _atom_site_fract_y
 _atom_site_fract_z
 _atom_site_occupancy
  Mg  Mg0  1  0.45106000  0.32145000  0.69309000  1.0
  Mg  Mg1  1  0.85535000  0.66750000  0.36745000  1.0
  Mg  Mg2  1  0.75802000  0.30697000  0.62841000  1.0
  Mg  Mg3  1  0.48789000  0.63250000  0.30003000  1.0
  Mg  Mg4  1  0.12969000  0.37163000  0.67858000  1.0
  Mg  Mg5  1  0.18780000  0.69993000  0.33243000  1.0
  H  H6  1  0.72946000  0.93143000  0.43743000  1.0
  H  H7  1  0.58564000  0.83620000  0.38382000  1.0
  H  H8  1  0.25625000  0.81205000  0.43812000  1.0
  H  H9  1  0.18930000  0.89510000  0.45506000  1.0
  H  H10  1  0.93899000  0.08325000  0.51120000  1.0
  H  H11  1  0.96044000  0.16932000  0.54421000  1.0
  H  H12  1  0.68592000  0.17893000  0.59018000  1.0
  H  H13  1  0.49127000  0.09753000  0.53057000  1.0
  H  H14  1  0.47532000  0.97714000  0.40906000  1.0
  H  H15  1  0.29114000  0.56256000  0.49390000  1.0
  H  H16  1  0.20152000  0.61615000  0.45233000  1.0
  H  H17  1  0.81811000  0.56185000  0.37394000  1.0
  H  H18  1  0.73412000  0.54497000  0.44009000  1.0
  H  H19  1  0.42696000  0.48875000  0.57210000  1.0
  H  H20  1  0.41609000  0.45582000  0.62524000  1.0
  H  H21  1  0.09580000  0.41002000  0.58890000  1.0
  H  H22  1  0.96029000  0.46953000  0.56704000  1.0
  H  H23  1  0.06528000  0.59084000  0.56799000  1.0
  H  H24  1  0.79769000  0.50603000  0.06864000  1.0
  H  H25  1  0.74961000  0.54765000  0.16376000  1.0
  H  H26  1  0.44453000  0.62602000  0.18792000  1.0
  H  H27  1  0.29457000  0.55989000  0.10485000  1.0
  H  H28  1  0.85544000  0.42790000  0.91669000  1.0
  H  H29  1  0.79121000  0.37492000  0.83068000  1.0
  H  H30  1  0.50719000  0.41117000  0.82108000  1.0
  H  H31  1  0.39376000  0.43299000  0.90247000  1.0
  H  H32  1  0.49799000  0.43204000  0.02284000  1.0
  C  C33  1  0.18600000  0.94437000  0.40954000  1.0
  C  C34  1  0.00664000  0.95347000  0.43166000  1.0
  C  C35  1  0.88697000  0.87085000  0.41740000  1.0
  C  C36  1  0.73427000  0.83164000  0.39593000  1.0
  C  C37  1  0.76696000  0.78448000  0.38801000  1.0
  C  C38  1  0.96336000  0.77638000  0.40061000  1.0
  C  C39  1  0.10997000  0.81778000  0.42619000  1.0
  C  C40  1  0.07280000  0.86388000  0.43484000  1.0
  C  C41  1  0.59578000  0.74512000  0.36533000  1.0
  C  C42  1  0.12898000  0.03611000  0.47389000  1.0
  C  C43  1  0.21007000  0.12727000  0.53408000  1.0
  C  C44  1  0.11978000  0.17042000  0.55415000  1.0
  C  C45  1  0.22664000  0.21656000  0.58803000  1.0
  C  C46  1  0.43576000  0.22017000  0.60233000  1.0
  C  C47  1  0.52585000  0.17624000  0.57982000  1.0
  C  C48  1  0.41772000  0.13080000  0.54672000  1.0
  C  C49  1  0.11283000  0.25930000  0.60733000  1.0
  C  C50  1  0.33338000  0.98351000  0.42472000  1.0
  C  C51  1  0.77536000  0.59042000  0.53485000  1.0
  C  C52  1  0.57388000  0.56832000  0.52182000  1.0
  C  C53  1  0.46921000  0.58258000  0.45343000  1.0
  C  C54  1  0.33805000  0.60403000  0.43566000  1.0
  C  C55  1  0.37885000  0.61196000  0.39644000  1.0
  C  C56  1  0.56276000  0.59938000  0.37578000  1.0
  C  C57  1  0.68376000  0.57379000  0.39161000  1.0
  C  C58  1  0.63779000  0.56515000  0.42905000  1.0
  C  C59  1  0.23038000  0.63463000  0.37975000  1.0
  C  C60  1  0.65402000  0.52607000  0.56220000  1.0
  C  C61  1  0.67551000  0.46594000  0.59322000  1.0
  C  C62  1  0.56546000  0.44588000  0.61636000  1.0
  C  C63  1  0.63865000  0.41203000  0.62863000  1.0
  C  C64  1  0.83352000  0.39777000  0.61795000  1.0
  C  C65  1  0.94597000  0.42032000  0.59654000  1.0
  C  C66  1  0.87066000  0.45336000  0.58415000  1.0
  C  C67  1  0.50561000  0.39273000  0.65208000  1.0
  C  C68  1  0.90766000  0.57520000  0.55876000  1.0
  C  C69  1  0.24119000  0.46519000  0.05558000  1.0
  C  C70  1  0.05260000  0.47815000  0.04648000  1.0
  C  C71  1  0.01621000  0.54656000  0.12910000  1.0
  C  C72  1  0.90277000  0.56434000  0.16831000  1.0
  C  C73  1  0.98255000  0.60357000  0.21546000  1.0
  C  C74  1  0.18711000  0.62424000  0.22355000  1.0
  C  C75  1  0.29244000  0.60837000  0.18216000  1.0
  C  C76  1  0.20920000  0.57093000  0.13607000  1.0
  C  C77  1  0.85069000  0.62023000  0.25483000  1.0
  C  C78  1  0.09238000  0.43777000  0.96387000  1.0
  C  C79  1  0.08278000  0.40682000  0.87273000  1.0
  C  C80  1  0.94946000  0.38374000  0.82957000  1.0
  C  C81  1  0.01023000  0.37146000  0.78344000  1.0
  C  C82  1  0.21576000  0.38213000  0.77983000  1.0
  C  C83  1  0.34976000  0.40353000  0.82377000  1.0
  C  C84  1  0.28698000  0.41589000  0.86920000  1.0
  C  C85  1  0.85367000  0.34802000  0.74070000  1.0
  C  C86  1  0.34960000  0.44128000  0.01645000  1.0
  N  N87  1  0.85532000  0.91734000  0.42295000  1.0
  N  N88  1  0.97849000  0.00010000  0.46275000  1.0
  N  N89  1  0.08465000  0.08265000  0.50509000  1.0
  N  N90  1  0.31035000  0.03007000  0.45790000  1.0
  N  N91  1  0.43158000  0.57702000  0.49435000  1.0
  N  N92  1  0.51462000  0.53723000  0.53736000  1.0
  N  N93  1  0.57873000  0.49487000  0.57757000  1.0
  N  N94  1  0.85141000  0.54202000  0.57211000  1.0
  N  N95  1  0.93773000  0.50562000  0.08266000  1.0
  N  N96  1  0.97775000  0.46257000  0.99987000  1.0
  N  N97  1  0.00174000  0.42243000  0.91732000  1.0
  N  N98  1  0.27994000  0.42789000  0.96991000  1.0
  O  O99  1  0.93275000  0.25526000  0.58943000  1.0
  O  O100  1  0.19903000  0.30097000  0.64365000  1.0
  O  O101  1  0.54777000  0.26261000  0.63564000  1.0
  O  O102  1  0.42172000  0.75410000  0.35632000  1.0
  O  O103  1  0.62472000  0.70075000  0.35505000  1.0
  O  O104  1  0.01973000  0.73206000  0.38905000  1.0
  O  O105  1  0.34344000  0.41065000  0.66596000  1.0
  O  O106  1  0.55540000  0.35637000  0.65738000  1.0
  O  O107  1  0.91233000  0.36444000  0.62703000  1.0
  O  O108  1  0.06524000  0.64361000  0.39772000  1.0
  O  O109  1  0.26957000  0.64489000  0.34565000  1.0
  O  O110  1  0.63071000  0.61091000  0.34302000  1.0
  O  O111  1  0.67759000  0.33420000  0.74476000  1.0
  O  O112  1  0.89821000  0.34268000  0.69903000  1.0
  O  O113  1  0.28536000  0.37305000  0.73741000  1.0
  O  O114  1  0.66760000  0.60225000  0.24585000  1.0
  O  O115  1  0.92395000  0.65430000  0.29919000  1.0
  O  O116  1  0.28772000  0.65698000  0.26788000  1.0
  F  F117  1  0.21528000  0.89814000  0.37386000  1.0
  F  F118  1  0.84043000  0.62612000  0.52434000  1.0
  F  F119  1  0.31673000  0.47576000  0.10182000  1.0
