# generated using pymatgen
data_ZnH16C18(NO)4
_symmetry_space_group_name_H-M   'P 1'
_cell_length_a   14.65620000
_cell_length_b   15.56500000
_cell_length_c   16.83960000
_cell_angle_alpha   90.00000000
_cell_angle_beta   89.99990000
_cell_angle_gamma   89.99990000
_symmetry_Int_Tables_number   1
_chemical_formula_structural   ZnH16C18(NO)4
_chemical_formula_sum   'Zn8 H128 C144 N32 O32'
_cell_volume   3841.51275101
_cell_formula_units_Z   8
loop_
 _symmetry_equiv_pos_site_id
 _symmetry_equiv_pos_as_xyz
  1  'x, y, z'
loop_
 _atom_site_type_symbol
 _atom_site_label
 _atom_site_symmetry_multiplicity
 _atom_site_fract_x
 _atom_site_fract_y
 _atom_site_fract_z
 _atom_site_occupancy
  Zn  Zn0  1  0.84607000  0.97537000  0.79139000  1.0
  Zn  Zn1  1  0.65393000  0.02463000  0.29138000  1.0
  Zn  Zn2  1  0.15393000  0.47537000  0.70861000  1.0
  Zn  Zn3  1  0.34607000  0.52463000  0.20862000  1.0
  Zn  Zn4  1  0.58768000  0.47074000  0.73696000  1.0
  Zn  Zn5  1  0.91232000  0.52926000  0.23696000  1.0
  Zn  Zn6  1  0.41232000  0.97074000  0.76304000  1.0
  Zn  Zn7  1  0.08768000  0.02926000  0.26304000  1.0
  H  H8  1  0.43635000  0.67586000  0.92604000  1.0
  H  H9  1  0.06365000  0.32413000  0.42604000  1.0
  H  H10  1  0.56365000  0.17587000  0.57396000  1.0
  H  H11  1  0.93635000  0.82414000  0.07396000  1.0
  H  H12  1  0.45937000  0.48482000  0.96843000  1.0
  H  H13  1  0.04063000  0.51518000  0.46843000  1.0
  H  H14  1  0.54063000  0.98482000  0.53157000  1.0
  H  H15  1  0.95937000  0.01518000  0.03157000  1.0
  H  H16  1  0.69738000  0.20667000  0.77317000  1.0
  H  H17  1  0.80262000  0.79333000  0.27318000  1.0
  H  H18  1  0.30262000  0.70667000  0.72682000  1.0
  H  H19  1  0.19738000  0.29333000  0.22683000  1.0
  H  H20  1  0.76446000  0.20979000  0.60003000  1.0
  H  H21  1  0.73554000  0.79021000  0.10003000  1.0
  H  H22  1  0.23554000  0.70979000  0.89997000  1.0
  H  H23  1  0.26446000  0.29021000  0.39997000  1.0
  H  H24  1  0.52791000  0.38290000  0.57022000  1.0
  H  H25  1  0.97209000  0.61710000  0.07022000  1.0
  H  H26  1  0.47209000  0.88290000  0.92978000  1.0
  H  H27  1  0.02791000  0.11710000  0.42978000  1.0
  H  H28  1  0.38197000  0.45335000  0.48325000  1.0
  H  H29  1  0.11804000  0.54665000  0.98325000  1.0
  H  H30  1  0.61803000  0.95335000  0.01675000  1.0
  H  H31  1  0.88196000  0.04665000  0.51675000  1.0
  H  H32  1  0.42709000  0.59905000  0.69272000  1.0
  H  H33  1  0.07291000  0.40095000  0.19272000  1.0
  H  H34  1  0.57291000  0.09905000  0.80728000  1.0
  H  H35  1  0.92709000  0.90095000  0.30728000  1.0
  H  H36  1  0.27784000  0.62433000  0.61393000  1.0
  H  H37  1  0.22216000  0.37567000  0.11393000  1.0
  H  H38  1  0.72216000  0.12433000  0.88607000  1.0
  H  H39  1  0.77784000  0.87567000  0.38607000  1.0
  H  H40  1  0.25927000  0.56508000  0.52657000  1.0
  H  H41  1  0.24073000  0.43492000  0.02657000  1.0
  H  H42  1  0.74073000  0.06508000  0.97343000  1.0
  H  H43  1  0.75927000  0.93492000  0.47343000  1.0
  H  H44  1  0.35578000  0.60274000  0.40209000  1.0
  H  H45  1  0.14421000  0.39726000  0.90209000  1.0
  H  H46  1  0.64422000  0.10274000  0.09791000  1.0
  H  H47  1  0.85578000  0.89726000  0.59791000  1.0
  H  H48  1  0.40114000  0.72589000  0.31893000  1.0
  H  H49  1  0.09886000  0.27411000  0.81893000  1.0
  H  H50  1  0.59886000  0.22589000  0.18107000  1.0
  H  H51  1  0.90114000  0.77411000  0.68107000  1.0
  H  H52  1  0.38271000  0.89314000  0.52288000  1.0
  H  H53  1  0.11729000  0.10686000  0.02288000  1.0
  H  H54  1  0.61729000  0.39314000  0.97712000  1.0
  H  H55  1  0.88271000  0.60686000  0.47712000  1.0
  H  H56  1  0.34007000  0.76957000  0.60626000  1.0
  H  H57  1  0.15993000  0.23043000  0.10626000  1.0
  H  H58  1  0.65993000  0.26957000  0.89374000  1.0
  H  H59  1  0.84007000  0.73043000  0.39374000  1.0
  H  H60  1  0.43208000  0.95185000  0.39840000  1.0
  H  H61  1  0.06792000  0.04815000  0.89840000  1.0
  H  H62  1  0.56792000  0.45185000  0.10160000  1.0
  H  H63  1  0.93208000  0.54815000  0.60160000  1.0
  H  H64  1  0.47754000  0.88194000  0.32598000  1.0
  H  H65  1  0.02246000  0.11806000  0.82598000  1.0
  H  H66  1  0.52246000  0.38194000  0.17402000  1.0
  H  H67  1  0.97753000  0.61806000  0.67402000  1.0
  H  H68  1  0.36942000  0.83146000  0.20974000  1.0
  H  H69  1  0.13058000  0.16854000  0.70974000  1.0
  H  H70  1  0.63058000  0.33146000  0.29026000  1.0
  H  H71  1  0.86942000  0.66854000  0.79026000  1.0
  H  H72  1  0.26656000  0.00905000  0.37868000  1.0
  H  H73  1  0.23344000  0.99095000  0.87868000  1.0
  H  H74  1  0.73344000  0.50905000  0.12132000  1.0
  H  H75  1  0.76656000  0.49095000  0.62132000  1.0
  H  H76  1  0.20206000  0.89511000  0.15863000  1.0
  H  H77  1  0.29794000  0.10489000  0.65863000  1.0
  H  H78  1  0.79794000  0.39511000  0.34137000  1.0
  H  H79  1  0.70206000  0.60489000  0.84137000  1.0
  H  H80  1  0.74041000  0.81593000  0.86502000  1.0
  H  H81  1  0.75959000  0.18407000  0.36502000  1.0
  H  H82  1  0.25959000  0.31593000  0.63498000  1.0
  H  H83  1  0.24041000  0.68407000  0.13498000  1.0
  H  H84  1  0.59198000  0.74174000  0.78307000  1.0
  H  H85  1  0.90802000  0.25826000  0.28307000  1.0
  H  H86  1  0.40802000  0.24174000  0.71693000  1.0
  H  H87  1  0.09198000  0.75826000  0.21693000  1.0
  H  H88  1  0.70103000  0.94823000  0.64917000  1.0
  H  H89  1  0.79897000  0.05177000  0.14917000  1.0
  H  H90  1  0.29897000  0.44823000  0.85083000  1.0
  H  H91  1  0.20103000  0.55177000  0.35083000  1.0
  H  H92  1  0.53991000  0.88491000  0.61194000  1.0
  H  H93  1  0.96009000  0.11509000  0.11194000  1.0
  H  H94  1  0.46009000  0.38491000  0.88806000  1.0
  H  H95  1  0.03991000  0.61509000  0.38806000  1.0
  H  H96  1  0.50045000  0.79641000  0.66646000  1.0
  H  H97  1  0.99955000  0.20359000  0.16646000  1.0
  H  H98  1  0.49955000  0.29641000  0.83354000  1.0
  H  H99  1  0.00045000  0.70359000  0.33354000  1.0
  H  H100  1  0.59785000  0.65149000  0.64855000  1.0
  H  H101  1  0.90215000  0.34851000  0.14855000  1.0
  H  H102  1  0.40215000  0.15149000  0.85145000  1.0
  H  H103  1  0.09785000  0.84851000  0.35145000  1.0
  H  H104  1  0.63506000  0.54995000  0.53981000  1.0
  H  H105  1  0.86494000  0.45005000  0.03981000  1.0
  H  H106  1  0.36494000  0.04995000  0.96019000  1.0
  H  H107  1  0.13506000  0.95005000  0.46019000  1.0
  H  H108  1  0.63474000  0.76021000  0.37279000  1.0
  H  H109  1  0.86526000  0.23979000  0.87279000  1.0
  H  H110  1  0.36526000  0.26021000  0.12721000  1.0
  H  H111  1  0.13474000  0.73979000  0.62721000  1.0
  H  H112  1  0.59638000  0.86027000  0.48003000  1.0
  H  H113  1  0.90362000  0.13973000  0.98003000  1.0
  H  H114  1  0.40362000  0.36027000  0.01997000  1.0
  H  H115  1  0.09638000  0.63973000  0.51998000  1.0
  H  H116  1  0.72720000  0.59815000  0.35709000  1.0
  H  H117  1  0.77280000  0.40185000  0.85708000  1.0
  H  H118  1  0.27280000  0.09815000  0.14291000  1.0
  H  H119  1  0.22720000  0.90185000  0.64291000  1.0
  H  H120  1  0.66150000  0.51899000  0.40643000  1.0
  H  H121  1  0.83850000  0.48101000  0.90643000  1.0
  H  H122  1  0.33850000  0.01899000  0.09357000  1.0
  H  H123  1  0.16150000  0.98101000  0.59357000  1.0
  H  H124  1  0.48917000  0.50004000  0.35983000  1.0
  H  H125  1  0.01083000  0.49996000  0.85983000  1.0
  H  H126  1  0.51083000  0.00004000  0.14017000  1.0
  H  H127  1  0.98917000  0.99996000  0.64017000  1.0
  H  H128  1  0.49656000  0.65618000  0.15515000  1.0
  H  H129  1  0.00345000  0.34382000  0.65515000  1.0
  H  H130  1  0.50344000  0.15618000  0.34485000  1.0
  H  H131  1  0.99656000  0.84382000  0.84485000  1.0
  H  H132  1  0.65710000  0.68134000  0.24125000  1.0
  H  H133  1  0.84291000  0.31866000  0.74125000  1.0
  H  H134  1  0.34290000  0.18134000  0.25875000  1.0
  H  H135  1  0.15710000  0.81866000  0.75875000  1.0
  C  C136  1  0.50449000  0.58384000  0.84514000  1.0
  C  C137  1  0.99551000  0.41616000  0.34514000  1.0
  C  C138  1  0.49551000  0.08384000  0.65486000  1.0
  C  C139  1  0.00449000  0.91616000  0.15486000  1.0
  C  C140  1  0.45716000  0.60889000  0.91992000  1.0
  C  C141  1  0.04284000  0.39111000  0.41992000  1.0
  C  C142  1  0.54285000  0.10889000  0.58008000  1.0
  C  C143  1  0.95715000  0.89111000  0.08009000  1.0
  C  C144  1  0.43819000  0.55134000  0.97668000  1.0
  C  C145  1  0.06180000  0.44866000  0.47668000  1.0
  C  C146  1  0.56181000  0.05134000  0.52332000  1.0
  C  C147  1  0.93819000  0.94866000  0.02332000  1.0
  C  C148  1  0.39152000  0.57171000  0.05281000  1.0
  C  C149  1  0.10848000  0.42828000  0.55281000  1.0
  C  C150  1  0.60848000  0.07172000  0.44719000  1.0
  C  C151  1  0.89152000  0.92828000  0.94719000  1.0
  C  C152  1  0.66324000  0.31681000  0.69719000  1.0
  C  C153  1  0.83676000  0.68319000  0.19719000  1.0
  C  C154  1  0.33676000  0.81681000  0.80281000  1.0
  C  C155  1  0.16324000  0.18319000  0.30281000  1.0
  C  C156  1  0.70559000  0.23174000  0.71318000  1.0
  C  C157  1  0.79441000  0.76826000  0.21318000  1.0
  C  C158  1  0.29441000  0.73174000  0.78682000  1.0
  C  C159  1  0.20559000  0.26826000  0.28682000  1.0
  C  C160  1  0.75661000  0.18766000  0.66115000  1.0
  C  C161  1  0.74340000  0.81234000  0.16115000  1.0
  C  C162  1  0.24340000  0.68766000  0.83885000  1.0
  C  C163  1  0.25660000  0.31234000  0.33885000  1.0
  C  C164  1  0.80138000  0.10548000  0.68451000  1.0
  C  C165  1  0.69862000  0.89452000  0.18451000  1.0
  C  C166  1  0.19862000  0.60548000  0.81549000  1.0
  C  C167  1  0.30138000  0.39453000  0.31549000  1.0
  C  C168  1  0.48475000  0.43800000  0.58205000  1.0
  C  C169  1  0.01525000  0.56200000  0.08205000  1.0
  C  C170  1  0.51525000  0.93800000  0.91795000  1.0
  C  C171  1  0.98475000  0.06200000  0.41795000  1.0
  C  C172  1  0.41414000  0.47237000  0.53876000  1.0
  C  C173  1  0.08586000  0.52763000  0.03876000  1.0
  C  C174  1  0.58585000  0.97237000  0.96124000  1.0
  C  C175  1  0.91414000  0.02763000  0.46124000  1.0
  C  C176  1  0.43433000  0.54918000  0.64819000  1.0
  C  C177  1  0.06567000  0.45082000  0.14819000  1.0
  C  C178  1  0.56567000  0.04918000  0.85181000  1.0
  C  C179  1  0.93433000  0.95082000  0.35181000  1.0
  C  C180  1  0.31065000  0.60239000  0.55896000  1.0
  C  C181  1  0.18935000  0.39761000  0.05896000  1.0
  C  C182  1  0.68935000  0.10239000  0.94104000  1.0
  C  C183  1  0.81065000  0.89761000  0.44104000  1.0
  C  C184  1  0.34364000  0.67748000  0.50976000  1.0
  C  C185  1  0.15636000  0.32252000  0.00976000  1.0
  C  C186  1  0.65636000  0.17748000  0.99024000  1.0
  C  C187  1  0.84364000  0.82252000  0.49024000  1.0
  C  C188  1  0.36215000  0.66637000  0.42876000  1.0
  C  C189  1  0.13785000  0.33364000  0.92876000  1.0
  C  C190  1  0.63785000  0.16636000  0.07124000  1.0
  C  C191  1  0.86215000  0.83363000  0.57124000  1.0
  C  C192  1  0.38737000  0.73609000  0.38192000  1.0
  C  C193  1  0.11262000  0.26391000  0.88192000  1.0
  C  C194  1  0.61262000  0.23609000  0.11808000  1.0
  C  C195  1  0.88738000  0.76391000  0.61808000  1.0
  C  C196  1  0.39377000  0.81862000  0.41475000  1.0
  C  C197  1  0.10623000  0.18138000  0.91476000  1.0
  C  C198  1  0.60623000  0.31862000  0.08525000  1.0
  C  C199  1  0.89377000  0.68138000  0.58525000  1.0
  C  C200  1  0.37688000  0.82951000  0.49583000  1.0
  C  C201  1  0.12312000  0.17049000  0.99583000  1.0
  C  C202  1  0.62312000  0.32951000  0.00417000  1.0
  C  C203  1  0.87688000  0.67049000  0.50417000  1.0
  C  C204  1  0.35258000  0.75936000  0.54303000  1.0
  C  C205  1  0.14742000  0.24064000  0.04303000  1.0
  C  C206  1  0.64741000  0.25936000  0.95697000  1.0
  C  C207  1  0.85259000  0.74064000  0.45697000  1.0
  C  C208  1  0.41707000  0.89464000  0.36268000  1.0
  C  C209  1  0.08293000  0.10536000  0.86268000  1.0
  C  C210  1  0.58293000  0.39465000  0.13732000  1.0
  C  C211  1  0.91706000  0.60535000  0.63732000  1.0
  C  C212  1  0.32343000  0.87762000  0.23643000  1.0
  C  C213  1  0.17657000  0.12238000  0.73643000  1.0
  C  C214  1  0.67657000  0.37762000  0.26357000  1.0
  C  C215  1  0.82343000  0.62238000  0.76357000  1.0
  C  C216  1  0.27080000  0.96902000  0.32613000  1.0
  C  C217  1  0.22920000  0.03098000  0.82613000  1.0
  C  C218  1  0.72920000  0.46902000  0.17387000  1.0
  C  C219  1  0.77080000  0.53098000  0.67387000  1.0
  C  C220  1  0.24067000  0.90915000  0.21193000  1.0
  C  C221  1  0.25933000  0.09086000  0.71193000  1.0
  C  C222  1  0.75933000  0.40915000  0.28807000  1.0
  C  C223  1  0.74067000  0.59085000  0.78807000  1.0
  C  C224  1  0.70936000  0.83130000  0.80829000  1.0
  C  C225  1  0.79064000  0.16870000  0.30829000  1.0
  C  C226  1  0.29064000  0.33130000  0.69171000  1.0
  C  C227  1  0.20936000  0.66870000  0.19171000  1.0
  C  C228  1  0.63754000  0.79457000  0.76861000  1.0
  C  C229  1  0.86246000  0.20543000  0.26861000  1.0
  C  C230  1  0.36246000  0.29457000  0.73139000  1.0
  C  C231  1  0.13753000  0.70543000  0.23139000  1.0
  C  C232  1  0.69235000  0.90234000  0.69702000  1.0
  C  C233  1  0.80765000  0.09766000  0.19702000  1.0
  C  C234  1  0.30765000  0.40234000  0.80298000  1.0
  C  C235  1  0.19235000  0.59766000  0.30298000  1.0
  C  C236  1  0.56072000  0.82271000  0.63638000  1.0
  C  C237  1  0.93928000  0.17729000  0.13637000  1.0
  C  C238  1  0.43928000  0.32271000  0.86362000  1.0
  C  C239  1  0.06072000  0.67729000  0.36363000  1.0
  C  C240  1  0.59337000  0.76265000  0.57197000  1.0
  C  C241  1  0.90663000  0.23735000  0.07196000  1.0
  C  C242  1  0.40663000  0.26265000  0.92804000  1.0
  C  C243  1  0.09337000  0.73735000  0.42804000  1.0
  C  C244  1  0.60651000  0.67533000  0.58809000  1.0
  C  C245  1  0.89349000  0.32467000  0.08809000  1.0
  C  C246  1  0.39349000  0.17533000  0.91191000  1.0
  C  C247  1  0.10651000  0.82467000  0.41191000  1.0
  C  C248  1  0.62796000  0.61837000  0.52696000  1.0
  C  C249  1  0.87204000  0.38163000  0.02696000  1.0
  C  C250  1  0.37204000  0.11837000  0.97304000  1.0
  C  C251  1  0.12796000  0.88163000  0.47304000  1.0
  C  C252  1  0.63745000  0.64769000  0.44889000  1.0
  C  C253  1  0.86255000  0.35231000  0.94889000  1.0
  C  C254  1  0.36255000  0.14769000  0.05111000  1.0
  C  C255  1  0.13745000  0.85231000  0.55111000  1.0
  C  C256  1  0.62680000  0.73536000  0.43307000  1.0
  C  C257  1  0.87320000  0.26463000  0.93307000  1.0
  C  C258  1  0.37320000  0.23537000  0.06693000  1.0
  C  C259  1  0.12680000  0.76464000  0.56693000  1.0
  C  C260  1  0.60493000  0.79223000  0.49408000  1.0
  C  C261  1  0.89507000  0.20777000  0.99408000  1.0
  C  C262  1  0.39507000  0.29223000  0.00592000  1.0
  C  C263  1  0.10493000  0.70777000  0.50592000  1.0
  C  C264  1  0.65995000  0.58491000  0.38341000  1.0
  C  C265  1  0.84005000  0.41509000  0.88340000  1.0
  C  C266  1  0.34005000  0.08491000  0.11659000  1.0
  C  C267  1  0.15995000  0.91509000  0.61659000  1.0
  C  C268  1  0.51310000  0.54491000  0.31513000  1.0
  C  C269  1  0.98690000  0.45509000  0.81513000  1.0
  C  C270  1  0.48690000  0.04491000  0.18488000  1.0
  C  C271  1  0.01310000  0.95509000  0.68488000  1.0
  C  C272  1  0.52005000  0.62741000  0.21018000  1.0
  C  C273  1  0.97995000  0.37259000  0.71017000  1.0
  C  C274  1  0.47995000  0.12741000  0.28982000  1.0
  C  C275  1  0.02005000  0.87259000  0.78983000  1.0
  C  C276  1  0.59894000  0.64020000  0.25234000  1.0
  C  C277  1  0.90107000  0.35981000  0.75234000  1.0
  C  C278  1  0.40106000  0.14020000  0.24766000  1.0
  C  C279  1  0.09894000  0.85980000  0.74766000  1.0
  N  N280  1  0.49670000  0.48658000  0.65022000  1.0
  N  N281  1  0.00330000  0.51342000  0.15022000  1.0
  N  N282  1  0.50330000  0.98658000  0.84978000  1.0
  N  N283  1  0.99670000  0.01342000  0.34978000  1.0
  N  N284  1  0.38337000  0.54244000  0.58176000  1.0
  N  N285  1  0.11664000  0.45756000  0.08176000  1.0
  N  N286  1  0.61663000  0.04244000  0.91824000  1.0
  N  N287  1  0.88337000  0.95756000  0.41824000  1.0
  N  N288  1  0.34156000  0.91624000  0.30875000  1.0
  N  N289  1  0.15844000  0.08376000  0.80875000  1.0
  N  N290  1  0.65844000  0.41624000  0.19125000  1.0
  N  N291  1  0.84156000  0.58376000  0.69125000  1.0
  N  N292  1  0.20857000  0.96606000  0.26839000  1.0
  N  N293  1  0.29143000  0.03394000  0.76839000  1.0
  N  N294  1  0.79143000  0.46606000  0.23161000  1.0
  N  N295  1  0.70857000  0.53394000  0.73161000  1.0
  N  N296  1  0.74286000  0.89852000  0.76304000  1.0
  N  N297  1  0.75714000  0.10148000  0.26304000  1.0
  N  N298  1  0.25714000  0.39852000  0.73696000  1.0
  N  N299  1  0.24286000  0.60148000  0.23696000  1.0
  N  N300  1  0.62813000  0.84002000  0.69862000  1.0
  N  N301  1  0.87187000  0.15998000  0.19862000  1.0
  N  N302  1  0.37187000  0.34002000  0.80138000  1.0
  N  N303  1  0.12813000  0.65998000  0.30138000  1.0
  N  N304  1  0.59370000  0.58753000  0.31819000  1.0
  N  N305  1  0.90630000  0.41247000  0.81819000  1.0
  N  N306  1  0.40630000  0.08753000  0.18181000  1.0
  N  N307  1  0.09370000  0.91247000  0.68181000  1.0
  N  N308  1  0.46717000  0.56755000  0.25004000  1.0
  N  N309  1  0.03283000  0.43245000  0.75004000  1.0
  N  N310  1  0.53283000  0.06755000  0.24996000  1.0
  N  N311  1  0.96717000  0.93245000  0.74996000  1.0
  O  O312  1  0.53587000  0.50588000  0.84160000  1.0
  O  O313  1  0.96413000  0.49412000  0.34160000  1.0
  O  O314  1  0.46413000  0.00588000  0.65840000  1.0
  O  O315  1  0.03587000  0.99412000  0.15840000  1.0
  O  O316  1  0.51109000  0.63790000  0.78995000  1.0
  O  O317  1  0.98891000  0.36210000  0.28995000  1.0
  O  O318  1  0.48891000  0.13790000  0.71005000  1.0
  O  O319  1  0.01109000  0.86210000  0.21005000  1.0
  O  O320  1  0.37579000  0.50337000  0.09577000  1.0
  O  O321  1  0.12421000  0.49663000  0.59576000  1.0
  O  O322  1  0.62421000  0.00337000  0.40423000  1.0
  O  O323  1  0.87579000  0.99663000  0.90424000  1.0
  O  O324  1  0.37343000  0.64717000  0.07270000  1.0
  O  O325  1  0.12657000  0.35283000  0.57270000  1.0
  O  O326  1  0.62657000  0.14717000  0.42730000  1.0
  O  O327  1  0.87343000  0.85283000  0.92730000  1.0
  O  O328  1  0.62321000  0.34981000  0.75944000  1.0
  O  O329  1  0.87679000  0.65019000  0.25944000  1.0
  O  O330  1  0.37679000  0.84981000  0.74055000  1.0
  O  O331  1  0.12321000  0.15019000  0.24056000  1.0
  O  O332  1  0.67054000  0.35368000  0.63143000  1.0
  O  O333  1  0.82946000  0.64632000  0.13143000  1.0
  O  O334  1  0.32946000  0.85368000  0.86856000  1.0
  O  O335  1  0.17054000  0.14632000  0.36857000  1.0
  O  O336  1  0.82605000  0.05289000  0.63199000  1.0
  O  O337  1  0.67395000  0.94711000  0.13198000  1.0
  O  O338  1  0.17395000  0.55289000  0.86801000  1.0
  O  O339  1  0.32604000  0.44711000  0.36801000  1.0
  O  O340  1  0.81121000  0.09336000  0.76030000  1.0
  O  O341  1  0.68879000  0.90664000  0.26030000  1.0
  O  O342  1  0.18879000  0.59337000  0.73970000  1.0
  O  O343  1  0.31121000  0.40664000  0.23970000  1.0
