# generated using pymatgen
data_CdH12(C7N5)2
_symmetry_space_group_name_H-M   'P 1'
_cell_length_a   7.52429000
_cell_length_b   7.57086000
_cell_length_c   14.86720000
_cell_angle_alpha   90.00000000
_cell_angle_beta   90.00060000
_cell_angle_gamma   103.69100000
_symmetry_Int_Tables_number   1
_chemical_formula_structural   CdH12(C7N5)2
_chemical_formula_sum   'Cd2 H24 C28 N20'
_cell_volume   822.85120941
_cell_formula_units_Z   2
loop_
 _symmetry_equiv_pos_site_id
 _symmetry_equiv_pos_as_xyz
  1  'x, y, z'
loop_
 _atom_site_type_symbol
 _atom_site_label
 _atom_site_symmetry_multiplicity
 _atom_site_fract_x
 _atom_site_fract_y
 _atom_site_fract_z
 _atom_site_occupancy
  Cd  Cd0  1  0.99999000  0.49999000  0.50000000  1.0
  Cd  Cd1  1  0.50000000  0.50000000  0.00000000  1.0
  H  H2  1  0.99350000  0.87703000  0.42220000  1.0
  H  H3  1  0.50650000  0.12297000  0.92220000  1.0
  H  H4  1  0.00651000  0.12297000  0.57780000  1.0
  H  H5  1  0.49349000  0.87704000  0.07780000  1.0
  H  H6  1  0.09711000  0.42366000  0.29526000  1.0
  H  H7  1  0.40289000  0.57634000  0.79525000  1.0
  H  H8  1  0.90290000  0.57634000  0.70474000  1.0
  H  H9  1  0.59710000  0.42366000  0.20474000  1.0
  H  H10  1  0.09330000  0.56873000  0.14291000  1.0
  H  H11  1  0.40671000  0.43127000  0.64291000  1.0
  H  H12  1  0.90670000  0.43128000  0.85709000  1.0
  H  H13  1  0.59330000  0.56872000  0.35709000  1.0
  H  H14  1  0.03087000  0.87607000  0.13215000  1.0
  H  H15  1  0.46913000  0.12393000  0.63215000  1.0
  H  H16  1  0.96913000  0.12394000  0.86785000  1.0
  H  H17  1  0.53087000  0.87606000  0.36785000  1.0
  H  H18  1  0.92810000  0.12259000  0.33158000  1.0
  H  H19  1  0.57190000  0.87741000  0.83158000  1.0
  H  H20  1  0.07190000  0.87741000  0.66843000  1.0
  H  H21  1  0.42811000  0.12259000  0.16842000  1.0
  H  H22  1  0.93902000  0.12059000  0.21669000  1.0
  H  H23  1  0.56098000  0.87941000  0.71669000  1.0
  H  H24  1  0.06097000  0.87941000  0.78332000  1.0
  H  H25  1  0.43902000  0.12060000  0.28331000  1.0
  C  C26  1  0.35532000  0.28321000  0.45340000  1.0
  C  C27  1  0.14469000  0.71677000  0.95340000  1.0
  C  C28  1  0.64469000  0.71678000  0.54660000  1.0
  C  C29  1  0.85531000  0.28324000  0.04660000  1.0
  C  C30  1  0.63816000  0.21732000  0.43395000  1.0
  C  C31  1  0.86185000  0.78267000  0.93395000  1.0
  C  C32  1  0.36185000  0.78269000  0.56606000  1.0
  C  C33  1  0.13814000  0.21733000  0.06605000  1.0
  C  C34  1  0.01047000  0.90582000  0.27664000  1.0
  C  C35  1  0.48952000  0.09417000  0.77664000  1.0
  C  C36  1  0.98953000  0.09418000  0.72336000  1.0
  C  C37  1  0.51048000  0.90583000  0.22336000  1.0
  C  C38  1  0.01566000  0.81371000  0.35854000  1.0
  C  C39  1  0.48434000  0.18630000  0.85854000  1.0
  C  C40  1  0.98435000  0.18629000  0.64146000  1.0
  C  C41  1  0.51565000  0.81371000  0.14146000  1.0
  C  C42  1  0.07160000  0.55859000  0.28748000  1.0
  C  C43  1  0.42839000  0.44141000  0.78748000  1.0
  C  C44  1  0.92840000  0.44141000  0.71252000  1.0
  C  C45  1  0.57160000  0.55859000  0.21252000  1.0
  C  C46  1  0.06930000  0.64004000  0.20358000  1.0
  C  C47  1  0.43071000  0.35996000  0.70358000  1.0
  C  C48  1  0.93071000  0.35996000  0.79641000  1.0
  C  C49  1  0.56929000  0.64004000  0.29641000  1.0
  C  C50  1  0.03692000  0.81271000  0.19752000  1.0
  C  C51  1  0.46309000  0.18729000  0.69752000  1.0
  C  C52  1  0.96308000  0.18729000  0.80248000  1.0
  C  C53  1  0.53691000  0.81271000  0.30248000  1.0
  N  N54  1  0.24614000  0.36480000  0.47339000  1.0
  N  N55  1  0.25387000  0.63518000  0.97339000  1.0
  N  N56  1  0.75384000  0.63520000  0.52661000  1.0
  N  N57  1  0.74613000  0.36482000  0.02661000  1.0
  N  N58  1  0.46203000  0.18107000  0.42857000  1.0
  N  N59  1  0.03797000  0.81892000  0.92857000  1.0
  N  N60  1  0.53799000  0.81893000  0.57145000  1.0
  N  N61  1  0.96202000  0.18110000  0.07144000  1.0
  N  N62  1  0.04302000  0.64555000  0.36304000  1.0
  N  N63  1  0.45698000  0.35445000  0.86304000  1.0
  N  N64  1  0.95699000  0.35444000  0.63696000  1.0
  N  N65  1  0.54301000  0.64555000  0.13696000  1.0
  N  N66  1  0.79851000  0.23292000  0.43364000  1.0
  N  N67  1  0.70149000  0.76707000  0.93364000  1.0
  N  N68  1  0.20150000  0.76705000  0.56636000  1.0
  N  N69  1  0.29850000  0.23294000  0.06636000  1.0
  N  N70  1  0.98470000  0.07945000  0.27568000  1.0
  N  N71  1  0.51531000  0.92055000  0.77568000  1.0
  N  N72  1  0.01530000  0.92055000  0.72433000  1.0
  N  N73  1  0.48469000  0.07945000  0.22432000  1.0
