# generated using pymatgen
data_ZnH20C11N4(ClO)2
_symmetry_space_group_name_H-M   'P 1'
_cell_length_a   6.16931000
_cell_length_b   11.13910000
_cell_length_c   11.17450000
_cell_angle_alpha   90.00000000
_cell_angle_beta   90.00000000
_cell_angle_gamma   95.51610000
_symmetry_Int_Tables_number   1
_chemical_formula_structural   ZnH20C11N4(ClO)2
_chemical_formula_sum   'Zn2 H40 C22 N8 Cl4 O4'
_cell_volume   764.36185531
_cell_formula_units_Z   2
loop_
 _symmetry_equiv_pos_site_id
 _symmetry_equiv_pos_as_xyz
  1  'x, y, z'
loop_
 _atom_site_type_symbol
 _atom_site_label
 _atom_site_symmetry_multiplicity
 _atom_site_fract_x
 _atom_site_fract_y
 _atom_site_fract_z
 _atom_site_occupancy
  Zn  Zn0  1  0.51705000  0.82429000  0.21741000  1.0
  Zn  Zn1  1  0.48296000  0.17571000  0.71741000  1.0
  H  H2  1  0.24372000  0.08515000  0.45900000  1.0
  H  H3  1  0.75629000  0.91485000  0.95900000  1.0
  H  H4  1  0.35160000  0.01474000  0.11138000  1.0
  H  H5  1  0.64840000  0.98525000  0.61138000  1.0
  H  H6  1  0.80153000  0.07739000  0.37911000  1.0
  H  H7  1  0.19847000  0.92262000  0.87912000  1.0
  H  H8  1  0.78525000  0.34941000  0.61492000  1.0
  H  H9  1  0.21475000  0.65059000  0.11492000  1.0
  H  H10  1  0.90896000  0.14556000  0.18926000  1.0
  H  H11  1  0.09105000  0.85444000  0.68926000  1.0
  H  H12  1  0.98833000  0.30238000  0.19458000  1.0
  H  H13  1  0.01167000  0.69762000  0.69458000  1.0
  H  H14  1  0.02157000  0.10430000  0.99962000  1.0
  H  H15  1  0.97843000  0.89570000  0.49962000  1.0
  H  H16  1  0.29237000  0.14835000  0.94877000  1.0
  H  H17  1  0.70764000  0.85165000  0.44877000  1.0
  H  H18  1  0.10671000  0.25843000  0.96955000  1.0
  H  H19  1  0.89329000  0.74157000  0.46955000  1.0
  H  H20  1  0.36790000  0.38108000  0.12264000  1.0
  H  H21  1  0.63210000  0.61892000  0.62264000  1.0
  H  H22  1  0.54848000  0.27617000  0.07303000  1.0
  H  H23  1  0.45152000  0.72383000  0.57303000  1.0
  H  H24  1  0.50459000  0.29598000  0.22867000  1.0
  H  H25  1  0.49541000  0.70402000  0.72868000  1.0
  H  H26  1  0.27545000  0.29251000  0.48686000  1.0
  H  H27  1  0.72455000  0.70749000  0.98687000  1.0
  H  H28  1  0.27852000  0.37424000  0.35107000  1.0
  H  H29  1  0.72148000  0.62576000  0.85107000  1.0
  H  H30  1  0.00883000  0.54151000  0.59765000  1.0
  H  H31  1  0.99117000  0.45848000  0.09765000  1.0
  H  H32  1  0.23850000  0.55172000  0.50078000  1.0
  H  H33  1  0.76150000  0.44828000  0.00078000  1.0
  H  H34  1  0.21865000  0.44408000  0.61997000  1.0
  H  H35  1  0.78135000  0.55592000  0.11997000  1.0
  H  H36  1  0.78602000  0.40154000  0.31362000  1.0
  H  H37  1  0.21398000  0.59846000  0.81362000  1.0
  H  H38  1  0.99361000  0.52464000  0.32001000  1.0
  H  H39  1  0.00638000  0.47537000  0.82001000  1.0
  H  H40  1  0.76549000  0.51943000  0.41747000  1.0
  H  H41  1  0.23451000  0.48057000  0.91747000  1.0
  C  C42  1  0.31352000  0.04074000  0.28855000  1.0
  C  C43  1  0.68648000  0.95926000  0.78856000  1.0
  C  C44  1  0.23782000  0.19137000  0.13493000  1.0
  C  C45  1  0.76218000  0.80863000  0.63493000  1.0
  C  C46  1  0.04222000  0.21361000  0.21405000  1.0
  C  C47  1  0.95778000  0.78638000  0.71405000  1.0
  C  C48  1  0.07823000  0.20298000  0.34962000  1.0
  C  C49  1  0.92177000  0.79702000  0.84962000  1.0
  C  C50  1  0.15918000  0.17425000  0.00560000  1.0
  C  C51  1  0.84083000  0.82575000  0.50560000  1.0
  C  C52  1  0.42547000  0.29245000  0.14063000  1.0
  C  C53  1  0.57453000  0.70754000  0.64063000  1.0
  C  C54  1  0.77934000  0.20724000  0.50294000  1.0
  C  C55  1  0.22066000  0.79276000  0.00294000  1.0
  C  C56  1  0.00637000  0.39795000  0.46725000  1.0
  C  C57  1  0.99363000  0.60205000  0.96725000  1.0
  C  C58  1  0.17286000  0.31953000  0.41316000  1.0
  C  C59  1  0.82713000  0.68047000  0.91316000  1.0
  C  C60  1  0.12625000  0.48903000  0.55212000  1.0
  C  C61  1  0.87375000  0.51097000  0.05212000  1.0
  C  C62  1  0.88077000  0.46437000  0.37367000  1.0
  C  C63  1  0.11922000  0.53562000  0.87367000  1.0
  N  N64  1  0.22544000  0.10972000  0.37171000  1.0
  N  N65  1  0.77456000  0.89028000  0.87170000  1.0
  N  N66  1  0.31870000  0.07756000  0.17418000  1.0
  N  N67  1  0.68130000  0.92244000  0.67418000  1.0
  N  N68  1  0.86608000  0.16146000  0.40346000  1.0
  N  N69  1  0.13391000  0.83854000  0.90346000  1.0
  N  N70  1  0.85234000  0.31817000  0.53830000  1.0
  N  N71  1  0.14766000  0.68183000  0.03830000  1.0
  Cl  Cl72  1  0.85738000  0.89919000  0.17906000  1.0
  Cl  Cl73  1  0.14262000  0.10080000  0.67906000  1.0
  Cl  Cl74  1  0.42699000  0.63520000  0.27733000  1.0
  Cl  Cl75  1  0.57301000  0.36480000  0.77733000  1.0
  O  O76  1  0.39445000  0.94513000  0.32394000  1.0
  O  O77  1  0.60555000  0.05487000  0.82394000  1.0
  O  O78  1  0.62475000  0.14345000  0.55690000  1.0
  O  O79  1  0.37525000  0.85655000  0.05690000  1.0
