# generated using pymatgen
data_Zn4H4C26Cl4O17
_symmetry_space_group_name_H-M   'P 1'
_cell_length_a   15.95480000
_cell_length_b   15.95430000
_cell_length_c   20.65407579
_cell_angle_alpha   112.63515316
_cell_angle_beta   112.63976117
_cell_angle_gamma   90.19820000
_symmetry_Int_Tables_number   1
_chemical_formula_structural   Zn4H4C26Cl4O17
_chemical_formula_sum   'Zn8 H8 C52 Cl8 O34'
_cell_volume   4407.07314026
_cell_formula_units_Z   2
loop_
 _symmetry_equiv_pos_site_id
 _symmetry_equiv_pos_as_xyz
  1  'x, y, z'
loop_
 _atom_site_type_symbol
 _atom_site_label
 _atom_site_symmetry_multiplicity
 _atom_site_fract_x
 _atom_site_fract_y
 _atom_site_fract_z
 _atom_site_occupancy
  Zn  Zn0  1  0.21617000  0.81702000  0.43357000  1.0
  Zn  Zn1  1  0.78383000  0.18298000  0.56643000  1.0
  Zn  Zn2  1  0.61659000  0.21735000  0.43359000  1.0
  Zn  Zn3  1  0.38341000  0.78265000  0.56641000  1.0
  Zn  Zn4  1  0.21735000  0.61659000  0.43359000  1.0
  Zn  Zn5  1  0.78265000  0.38341000  0.56641000  1.0
  Zn  Zn6  1  0.81701000  0.21617000  0.43357000  1.0
  Zn  Zn7  1  0.18299000  0.78383000  0.56643000  1.0
  H  H8  1  0.70935000  0.40056000  0.87176000  1.0
  H  H9  1  0.29065000  0.59944000  0.12824000  1.0
  H  H10  1  0.40027000  0.70939000  0.87178000  1.0
  H  H11  1  0.59973000  0.29061000  0.12822000  1.0
  H  H12  1  0.16236000  0.47121000  0.87174000  1.0
  H  H13  1  0.83764000  0.52879000  0.12826000  1.0
  H  H14  1  0.47150000  0.16231000  0.87172000  1.0
  H  H15  1  0.52850000  0.83769000  0.12828000  1.0
  C  C16  1  0.35406000  0.85405000  0.70817000  1.0
  C  C17  1  0.59120000  0.09117000  0.50000000  1.0
  C  C18  1  0.54622000  0.17336000  0.04009000  1.0
  C  C19  1  0.13327000  0.50594000  0.95989000  1.0
  C  C20  1  0.86673000  0.49406000  0.04011000  1.0
  C  C21  1  0.50614000  0.13324000  0.95988000  1.0
  C  C22  1  0.49387000  0.86677000  0.04013000  1.0
  C  C23  1  0.59083000  0.40916000  0.50000000  1.0
  C  C24  1  0.40916000  0.59083000  0.49999000  1.0
  C  C25  1  0.09119000  0.59122000  0.50003000  1.0
  C  C26  1  0.90881000  0.40878000  0.49997000  1.0
  C  C27  1  0.90918000  0.09082000  0.50000000  1.0
  C  C28  1  0.09081000  0.90918000  0.50000000  1.0
  C  C29  1  0.40880000  0.90884000  0.50000000  1.0
  C  C30  1  0.64594000  0.14595000  0.29183000  1.0
  C  C31  1  0.02684000  0.97317000  0.50000000  1.0
  C  C32  1  0.97317000  0.02683000  0.50000000  1.0
  C  C33  1  0.52696000  0.02693000  0.50002000  1.0
  C  C34  1  0.47304000  0.97307000  0.49998000  1.0
  C  C35  1  0.47317000  0.52684000  0.50000000  1.0
  C  C36  1  0.85406000  0.35406000  0.70817000  1.0
  C  C37  1  0.52684000  0.47316000  0.50000000  1.0
  C  C38  1  0.97306000  0.47304000  0.49997000  1.0
  C  C39  1  0.02694000  0.52696000  0.50003000  1.0
  C  C40  1  0.14594000  0.64594000  0.29183000  1.0
  C  C41  1  0.99046000  0.43803000  0.83550000  1.0
  C  C42  1  0.00953000  0.56197000  0.16450000  1.0
  C  C43  1  0.43814000  0.99044000  0.83550000  1.0
  C  C44  1  0.56186000  0.00956000  0.16450000  1.0
  C  C45  1  0.84499000  0.39746000  0.83548000  1.0
  C  C46  1  0.15501000  0.60254000  0.16452000  1.0
  C  C47  1  0.39739000  0.84502000  0.83549000  1.0
  C  C48  1  0.60262000  0.15498000  0.16451000  1.0
  C  C49  1  0.89762000  0.39765000  0.79528000  1.0
  C  C50  1  0.10237000  0.60235000  0.20472000  1.0
  C  C51  1  0.39766000  0.89762000  0.79528000  1.0
  C  C52  1  0.60234000  0.10238000  0.20472000  1.0
  C  C53  1  0.88141000  0.44205000  0.91707000  1.0
  C  C54  1  0.11859000  0.55795000  0.08293000  1.0
  C  C55  1  0.44196000  0.88142000  0.91708000  1.0
  C  C56  1  0.55804000  0.11858000  0.08292000  1.0
  C  C57  1  0.03565000  0.47499000  0.91708000  1.0
  C  C58  1  0.96434000  0.52502000  0.08292000  1.0
  C  C59  1  0.47509000  0.03562000  0.91707000  1.0
  C  C60  1  0.52491000  0.96438000  0.08293000  1.0
  C  C61  1  0.97937000  0.47936000  0.95876000  1.0
  C  C62  1  0.02062000  0.52064000  0.04124000  1.0
  C  C63  1  0.47936000  0.97937000  0.95876000  1.0
  C  C64  1  0.52064000  0.02063000  0.04124000  1.0
  C  C65  1  0.82660000  0.45397000  0.95989000  1.0
  C  C66  1  0.17340000  0.54603000  0.04011000  1.0
  C  C67  1  0.45378000  0.82663000  0.95991000  1.0
  Cl  Cl68  1  0.04528000  0.44029000  0.77694000  1.0
  Cl  Cl69  1  0.95471000  0.55971000  0.22306000  1.0
  Cl  Cl70  1  0.44051000  0.04521000  0.77693000  1.0
  Cl  Cl71  1  0.55949000  0.95479000  0.22307000  1.0
  Cl  Cl72  1  0.73164000  0.33662000  0.77695000  1.0
  Cl  Cl73  1  0.26836000  0.66338000  0.22305000  1.0
  Cl  Cl74  1  0.33645000  0.73170000  0.77696000  1.0
  Cl  Cl75  1  0.66356000  0.26830000  0.22304000  1.0
  O  O76  1  0.24998000  0.75002000  0.50000000  1.0
  O  O77  1  0.59204000  0.17589000  0.32420000  1.0
  O  O78  1  0.82415000  0.40796000  0.67580000  1.0
  O  O79  1  0.17585000  0.59205000  0.32420000  1.0
  O  O80  1  0.26779000  0.85166000  0.67585000  1.0
  O  O81  1  0.73222000  0.14835000  0.32416000  1.0
  O  O82  1  0.85163000  0.26776000  0.67584000  1.0
  O  O83  1  0.14837000  0.73224000  0.32416000  1.0
  O  O84  1  0.40796000  0.82411000  0.67580000  1.0
  O  O85  1  0.75002000  0.24998000  0.50000000  1.0
  O  O86  1  0.44010000  0.88228000  0.55429000  1.0
  O  O87  1  0.55990000  0.11772000  0.44571000  1.0
  O  O88  1  0.67610000  0.44494000  0.53906000  1.0
  O  O89  1  0.32390000  0.55506000  0.46094000  1.0
  O  O90  1  0.11420000  0.67207000  0.55432000  1.0
  O  O91  1  0.88580000  0.32793000  0.44568000  1.0
  O  O92  1  0.86288000  0.09398000  0.53897000  1.0
  O  O93  1  0.13713000  0.90602000  0.46103000  1.0
  O  O94  1  0.55505000  0.32389000  0.46094000  1.0
  O  O95  1  0.44495000  0.67612000  0.53906000  1.0
  O  O96  1  0.32792000  0.88581000  0.44569000  1.0
  O  O97  1  0.67207000  0.11418000  0.55430000  1.0
  O  O98  1  0.90601000  0.13713000  0.46104000  1.0
  O  O99  1  0.09398000  0.86286000  0.53895000  1.0
  O  O100  1  0.11775000  0.55991000  0.44574000  1.0
  O  O101  1  0.88225000  0.44009000  0.55426000  1.0
  O  O102  1  0.73320000  0.43184000  0.92816000  1.0
  O  O103  1  0.26679000  0.56816000  0.07184000  1.0
  O  O104  1  0.43153000  0.73324000  0.92818000  1.0
  O  O105  1  0.56847000  0.26676000  0.07182000  1.0
  O  O106  1  0.19491000  0.49641000  0.92815000  1.0
  O  O107  1  0.80509000  0.50359000  0.07185000  1.0
  O  O108  1  0.49672000  0.19486000  0.92812000  1.0
  O  O109  1  0.50328000  0.80514000  0.07188000  1.0
