# generated using pymatgen
data_LaH45C40S3N8O17
_symmetry_space_group_name_H-M   'P 1'
_cell_length_a   9.47322000
_cell_length_b   16.39730000
_cell_length_c   17.45500000
_cell_angle_alpha   103.28000000
_cell_angle_beta   104.10300000
_cell_angle_gamma   92.44110000
_symmetry_Int_Tables_number   1
_chemical_formula_structural   LaH45C40S3N8O17
_chemical_formula_sum   'La2 H90 C80 S6 N16 O34'
_cell_volume   2545.34308015
_cell_formula_units_Z   2
loop_
 _symmetry_equiv_pos_site_id
 _symmetry_equiv_pos_as_xyz
  1  'x, y, z'
loop_
 _atom_site_type_symbol
 _atom_site_label
 _atom_site_symmetry_multiplicity
 _atom_site_fract_x
 _atom_site_fract_y
 _atom_site_fract_z
 _atom_site_occupancy
  La  La0  1  0.25608000  0.50024000  0.99619000  1.0
  La  La1  1  0.74393000  0.49976000  0.00381000  1.0
  H  H2  1  0.17474000  0.68429000  0.99288000  1.0
  H  H3  1  0.82527000  0.31571000  0.00712000  1.0
  H  H4  1  0.07668000  0.65253000  0.04547000  1.0
  H  H5  1  0.92331000  0.34747000  0.95451000  1.0
  H  H6  1  0.12977000  0.29785000  0.96422000  1.0
  H  H7  1  0.87023000  0.70214000  0.03579000  1.0
  H  H8  1  0.10122000  0.32759000  0.88063000  1.0
  H  H9  1  0.89880000  0.67238000  0.11936000  1.0
  H  H10  1  0.28220000  0.63521000  0.46921000  1.0
  H  H11  1  0.71780000  0.36479000  0.53079000  1.0
  H  H12  1  0.15823000  0.42345000  0.78134000  1.0
  H  H13  1  0.84177000  0.57654000  0.21866000  1.0
  H  H14  1  0.19132000  0.11956000  0.41784000  1.0
  H  H15  1  0.80865000  0.88045000  0.58216000  1.0
  H  H16  1  0.30755000  0.42241000  0.16364000  1.0
  H  H17  1  0.69244000  0.57759000  0.83635000  1.0
  H  H18  1  0.58655000  0.92997000  0.25459000  1.0
  H  H19  1  0.41345000  0.07002000  0.74541000  1.0
  H  H20  1  0.69601000  0.35570000  0.22456000  1.0
  H  H21  1  0.30399000  0.64429000  0.77543000  1.0
  H  H22  1  0.31986000  0.83987000  0.51992000  1.0
  H  H23  1  0.68014000  0.16013000  0.48009000  1.0
  H  H24  1  0.29862000  0.75198000  0.43349000  1.0
  H  H25  1  0.70137000  0.24803000  0.56651000  1.0
  H  H26  1  0.14831000  0.81083000  0.44545000  1.0
  H  H27  1  0.85168000  0.18918000  0.55454000  1.0
  H  H28  1  0.31144000  0.50230000  0.47559000  1.0
  H  H29  1  0.68858000  0.49771000  0.52442000  1.0
  H  H30  1  0.25551000  0.37971000  0.52888000  1.0
  H  H31  1  0.74453000  0.62028000  0.47111000  1.0
  H  H32  1  0.04118000  0.53657000  0.68933000  1.0
  H  H33  1  0.95883000  0.46343000  0.31067000  1.0
  H  H34  1  0.09238000  0.65805000  0.63547000  1.0
  H  H35  1  0.90761000  0.34195000  0.36454000  1.0
  H  H36  1  0.39870000  0.33603000  0.72488000  1.0
  H  H37  1  0.60132000  0.66396000  0.27512000  1.0
  H  H38  1  0.39413000  0.44603000  0.73570000  1.0
  H  H39  1  0.60586000  0.55397000  0.26429000  1.0
  H  H40  1  0.27584000  0.92084000  0.38566000  1.0
  H  H41  1  0.72408000  0.07917000  0.61435000  1.0
  H  H42  1  0.17872000  0.99518000  0.43867000  1.0
  H  H43  1  0.82122000  0.00487000  0.56133000  1.0
  H  H44  1  0.36027000  0.97919000  0.48741000  1.0
  H  H45  1  0.63967000  0.02083000  0.51259000  1.0
  H  H46  1  0.12964000  0.24843000  0.40699000  1.0
  H  H47  1  0.87037000  0.75158000  0.59302000  1.0
  H  H48  1  0.17885000  0.37993000  0.36835000  1.0
  H  H49  1  0.82115000  0.62008000  0.63165000  1.0
  H  H50  1  0.54583000  0.28159000  0.28566000  1.0
  H  H51  1  0.45418000  0.71841000  0.71434000  1.0
  H  H52  1  0.49727000  0.14905000  0.32470000  1.0
  H  H53  1  0.50270000  0.85096000  0.67530000  1.0
  H  H54  1  0.14359000  0.51844000  0.27420000  1.0
  H  H55  1  0.85640000  0.48154000  0.72578000  1.0
  H  H56  1  0.07158000  0.41058000  0.23070000  1.0
  H  H57  1  0.92842000  0.58941000  0.76930000  1.0
  H  H58  1  0.42231000  0.73412000  0.13377000  1.0
  H  H59  1  0.57770000  0.26587000  0.86623000  1.0
  H  H60  1  0.48997000  0.79933000  0.23579000  1.0
  H  H61  1  0.51005000  0.20066000  0.76421000  1.0
  H  H62  1  0.61269000  0.74978000  0.18140000  1.0
  H  H63  1  0.38738000  0.25021000  0.81858000  1.0
  H  H64  1  0.70747000  0.06083000  0.31283000  1.0
  H  H65  1  0.29253000  0.93916000  0.68717000  1.0
  H  H66  1  0.80880000  0.19515000  0.29847000  1.0
  H  H67  1  0.19118000  0.80484000  0.70152000  1.0
  H  H68  1  0.66283000  0.10624000  0.03632000  1.0
  H  H69  1  0.33714000  0.89376000  0.96368000  1.0
  H  H70  1  0.56793000  0.96779000  0.05130000  1.0
  H  H71  1  0.43203000  0.03222000  0.94870000  1.0
  H  H72  1  0.45780000  0.28458000  0.14364000  1.0
  H  H73  1  0.54218000  0.71541000  0.85634000  1.0
  H  H74  1  0.53548000  0.24637000  0.06093000  1.0
  H  H75  1  0.46451000  0.75362000  0.93906000  1.0
  H  H76  1  0.97810000  0.96919000  0.27594000  1.0
  H  H77  1  0.02187000  0.03081000  0.72408000  1.0
  H  H78  1  0.00577000  0.08852000  0.21377000  1.0
  H  H79  1  0.99425000  0.91147000  0.78624000  1.0
  H  H80  1  0.27100000  0.94007000  0.07710000  1.0
  H  H81  1  0.72906000  0.05995000  0.92292000  1.0
  H  H82  1  0.22632000  0.82580000  0.14250000  1.0
  H  H83  1  0.77369000  0.17422000  0.85752000  1.0
  H  H84  1  0.14685000  0.30436000  0.11962000  1.0
  H  H85  1  0.85316000  0.69566000  0.88040000  1.0
  H  H86  1  0.14840000  0.19775000  0.19939000  1.0
  H  H87  1  0.85161000  0.80228000  0.80063000  1.0
  H  H88  1  0.16163000  0.01000000  0.98257000  1.0
  H  H89  1  0.83839000  0.99002000  0.01747000  1.0
  H  H90  1  0.16569000  0.12575000  0.91323000  1.0
  H  H91  1  0.83431000  0.87425000  0.08679000  1.0
  C  C92  1  0.24476000  0.78636000  0.47811000  1.0
  C  C93  1  0.75523000  0.21364000  0.52189000  1.0
  C  C94  1  0.19440000  0.73318000  0.52829000  1.0
  C  C95  1  0.80560000  0.26683000  0.47171000  1.0
  C  C96  1  0.20313000  0.58774000  0.55077000  1.0
  C  C97  1  0.79687000  0.41227000  0.44923000  1.0
  C  C98  1  0.25047000  0.50921000  0.52188000  1.0
  C  C99  1  0.74953000  0.49079000  0.47812000  1.0
  C  C100  1  0.21982000  0.44070000  0.55164000  1.0
  C  C101  1  0.78019000  0.55928000  0.44836000  1.0
  C  C102  1  0.14166000  0.45004000  0.61082000  1.0
  C  C103  1  0.85837000  0.54995000  0.38919000  1.0
  C  C104  1  0.09843000  0.52865000  0.64166000  1.0
  C  C105  1  0.90159000  0.47134000  0.35834000  1.0
  C  C106  1  0.12799000  0.59748000  0.61206000  1.0
  C  C107  1  0.87203000  0.40253000  0.38794000  1.0
  C  C108  1  0.35877000  0.39235000  0.75707000  1.0
  C  C109  1  0.64122000  0.60764000  0.24293000  1.0
  C  C110  1  0.43206000  0.41033000  0.84802000  1.0
  C  C111  1  0.56795000  0.58967000  0.15197000  1.0
  C  C112  1  0.28668000  0.98240000  0.42898000  1.0
  C  C113  1  0.71327000  0.01762000  0.57102000  1.0
  C  C114  1  0.35407000  0.04765000  0.39620000  1.0
  C  C115  1  0.64589000  0.95235000  0.60379000  1.0
  C  C116  1  0.31232000  0.19034000  0.36955000  1.0
  C  C117  1  0.68766000  0.80968000  0.63046000  1.0
  C  C118  1  0.22128000  0.25546000  0.38030000  1.0
  C  C119  1  0.77870000  0.74455000  0.61970000  1.0
  C  C120  1  0.24839000  0.32955000  0.35806000  1.0
  C  C121  1  0.75161000  0.67045000  0.64195000  1.0
  C  C122  1  0.36575000  0.33928000  0.32406000  1.0
  C  C123  1  0.63426000  0.66073000  0.67593000  1.0
  C  C124  1  0.45410000  0.27391000  0.31163000  1.0
  C  C125  1  0.54591000  0.72610000  0.68837000  1.0
  C  C126  1  0.42823000  0.19958000  0.33403000  1.0
  C  C127  1  0.57175000  0.80044000  0.66598000  1.0
  C  C128  1  0.13719000  0.46381000  0.22280000  1.0
  C  C129  1  0.86281000  0.53618000  0.77719000  1.0
  C  C130  1  0.04897000  0.48525000  0.14600000  1.0
  C  C131  1  0.95101000  0.51474000  0.85398000  1.0
  C  C132  1  0.51078000  0.78039000  0.17532000  1.0
  C  C133  1  0.48925000  0.21960000  0.82466000  1.0
  C  C134  1  0.53138000  0.85330000  0.13907000  1.0
  C  C135  1  0.46862000  0.14668000  0.86091000  1.0
  C  C136  1  0.63139000  0.00511000  0.18264000  1.0
  C  C137  1  0.36860000  0.99488000  0.81735000  1.0
  C  C138  1  0.69894000  0.07022000  0.25199000  1.0
  C  C139  1  0.30108000  0.92977000  0.74801000  1.0
  C  C140  1  0.75507000  0.14635000  0.24380000  1.0
  C  C141  1  0.24495000  0.85364000  0.75620000  1.0
  C  C142  1  0.74342000  0.15816000  0.16566000  1.0
  C  C143  1  0.25657000  0.84183000  0.83434000  1.0
  C  C144  1  0.67429000  0.09487000  0.09650000  1.0
  C  C145  1  0.32568000  0.90513000  0.90350000  1.0
  C  C146  1  0.61868000  0.01825000  0.10456000  1.0
  C  C147  1  0.38128000  0.98176000  0.89544000  1.0
  C  C148  1  0.53847000  0.30057000  0.11232000  1.0
  C  C149  1  0.46153000  0.69942000  0.88768000  1.0
  C  C150  1  0.49409000  0.37377000  0.07453000  1.0
  C  C151  1  0.50593000  0.62622000  0.92546000  1.0
  C  C152  1  0.04401000  0.96498000  0.23192000  1.0
  C  C153  1  0.95601000  0.03502000  0.76810000  1.0
  C  C154  1  0.06048000  0.03244000  0.19756000  1.0
  C  C155  1  0.93954000  0.96756000  0.80246000  1.0
  C  C156  1  0.14246000  0.02542000  0.13972000  1.0
  C  C157  1  0.85757000  0.97460000  0.86031000  1.0
  C  C158  1  0.20434000  0.94963000  0.12058000  1.0
  C  C159  1  0.79568000  0.05039000  0.87944000  1.0
  C  C160  1  0.18104000  0.88571000  0.15820000  1.0
  C  C161  1  0.81898000  0.11431000  0.84181000  1.0
  C  C162  1  0.15215000  0.23844000  0.09155000  1.0
  C  C163  1  0.84786000  0.76158000  0.90847000  1.0
  C  C164  1  0.15256000  0.17812000  0.13609000  1.0
  C  C165  1  0.84749000  0.82190000  0.86394000  1.0
  C  C166  1  0.15475000  0.09323000  0.09785000  1.0
  C  C167  1  0.84527000  0.90679000  0.90217000  1.0
  C  C168  1  0.16174000  0.07466000  0.01635000  1.0
  C  C169  1  0.83831000  0.92537000  0.98368000  1.0
  C  C170  1  0.16217000  0.13931000  0.97685000  1.0
  C  C171  1  0.83783000  0.86070000  0.02317000  1.0
  S  S172  1  0.09865000  0.36302000  0.64865000  1.0
  S  S173  1  0.90137000  0.63698000  0.35135000  1.0
  S  S174  1  0.40583000  0.43540000  0.29881000  1.0
  S  S175  1  0.59417000  0.56460000  0.70118000  1.0
  S  S176  1  0.80883000  0.25627000  0.15490000  1.0
  S  S177  1  0.19117000  0.74372000  0.84510000  1.0
  N  N178  1  0.23530000  0.65296000  0.51619000  1.0
  N  N179  1  0.76470000  0.34705000  0.48380000  1.0
  N  N180  1  0.19976000  0.37934000  0.74230000  1.0
  N  N181  1  0.80025000  0.62065000  0.25771000  1.0
  N  N182  1  0.28081000  0.11828000  0.39539000  1.0
  N  N183  1  0.71916000  0.88173000  0.60461000  1.0
  N  N184  1  0.28326000  0.44288000  0.21920000  1.0
  N  N185  1  0.71674000  0.55712000  0.78079000  1.0
  N  N186  1  0.58165000  0.92921000  0.19557000  1.0
  N  N187  1  0.41834000  0.07078000  0.80443000  1.0
  N  N188  1  0.68445000  0.31882000  0.16716000  1.0
  N  N189  1  0.31556000  0.68118000  0.83283000  1.0
  N  N190  1  0.10226000  0.89205000  0.21336000  1.0
  N  N191  1  0.89775000  0.10794000  0.78664000  1.0
  N  N192  1  0.15586000  0.22020000  0.01306000  1.0
  N  N193  1  0.84414000  0.77982000  0.98696000  1.0
  O  O194  1  0.17063000  0.64699000  0.02937000  1.0
  O  O195  1  0.82937000  0.35301000  0.97063000  1.0
  O  O196  1  0.09314000  0.34484000  0.93658000  1.0
  O  O197  1  0.90686000  0.65514000  0.06341000  1.0
  O  O198  1  0.34963000  0.40765000  0.89532000  1.0
  O  O199  1  0.65038000  0.59235000  0.10468000  1.0
  O  O200  1  0.56939000  0.42702000  0.87019000  1.0
  O  O201  1  0.43060000  0.57298000  0.12980000  1.0
  O  O202  1  0.94957000  0.36533000  0.65619000  1.0
  O  O203  1  0.05045000  0.63467000  0.34380000  1.0
  O  O204  1  0.14118000  0.28890000  0.59996000  1.0
  O  O205  1  0.85880000  0.71110000  0.40002000  1.0
  O  O206  1  0.12313000  0.76195000  0.57755000  1.0
  O  O207  1  0.87685000  0.23805000  0.42244000  1.0
  O  O208  1  0.10422000  0.48370000  0.08658000  1.0
  O  O209  1  0.89574000  0.51627000  0.91338000  1.0
  O  O210  1  0.91834000  0.50123000  0.14470000  1.0
  O  O211  1  0.08166000  0.49876000  0.85531000  1.0
  O  O212  1  0.54158000  0.42807000  0.27449000  1.0
  O  O213  1  0.45842000  0.57192000  0.72550000  1.0
  O  O214  1  0.39512000  0.50269000  0.36667000  1.0
  O  O215  1  0.60487000  0.49732000  0.63332000  1.0
  O  O216  1  0.46758000  0.03759000  0.37323000  1.0
  O  O217  1  0.53238000  0.96240000  0.62676000  1.0
  O  O218  1  0.36307000  0.39148000  0.06877000  1.0
  O  O219  1  0.63695000  0.60852000  0.93123000  1.0
  O  O220  1  0.58736000  0.41075000  0.04994000  1.0
  O  O221  1  0.41265000  0.58923000  0.95005000  1.0
  O  O222  1  0.93717000  0.29096000  0.22131000  1.0
  O  O223  1  0.06281000  0.70904000  0.77870000  1.0
  O  O224  1  0.81715000  0.24201000  0.07092000  1.0
  O  O225  1  0.18287000  0.75797000  0.92909000  1.0
  O  O226  1  0.51096000  0.84506000  0.06481000  1.0
  O  O227  1  0.48901000  0.15493000  0.93518000  1.0
