# generated using pymatgen
data_H8PbC10I2(NO)2
_symmetry_space_group_name_H-M   'P 1'
_cell_length_a   8.59880000
_cell_length_b   9.50747000
_cell_length_c   10.27445999
_cell_angle_alpha   112.41323547
_cell_angle_beta   114.72799128
_cell_angle_gamma   90.05370000
_symmetry_Int_Tables_number   1
_chemical_formula_structural   H8PbC10I2(NO)2
_chemical_formula_sum   'H16 Pb2 C20 I4 N4 O4'
_cell_volume   692.31701231
_cell_formula_units_Z   2
loop_
 _symmetry_equiv_pos_site_id
 _symmetry_equiv_pos_as_xyz
  1  'x, y, z'
loop_
 _atom_site_type_symbol
 _atom_site_label
 _atom_site_symmetry_multiplicity
 _atom_site_fract_x
 _atom_site_fract_y
 _atom_site_fract_z
 _atom_site_occupancy
  H  H0  1  0.98960000  0.63501000  0.59839000  1.0
  H  H1  1  0.39129000  0.86492000  0.40139000  1.0
  H  H2  1  0.01047000  0.36499000  0.40163000  1.0
  H  H3  1  0.60867000  0.13508000  0.59858000  1.0
  H  H4  1  0.70806000  0.44399000  0.46613000  1.0
  H  H5  1  0.24254000  0.05575000  0.53390000  1.0
  H  H6  1  0.29212000  0.55588000  0.53389000  1.0
  H  H7  1  0.75736000  0.94408000  0.46611000  1.0
  H  H8  1  0.57426000  0.41952000  0.63608000  1.0
  H  H9  1  0.93885000  0.08048000  0.36419000  1.0
  H  H10  1  0.42579000  0.58045000  0.36385000  1.0
  H  H11  1  0.06107000  0.91945000  0.63580000  1.0
  H  H12  1  0.72924000  0.58471000  0.92668000  1.0
  H  H13  1  0.80302000  0.91572000  0.07343000  1.0
  H  H14  1  0.27066000  0.41530000  0.07326000  1.0
  H  H15  1  0.19695000  0.08431000  0.92652000  1.0
  Pb  Pb16  1  0.43637000  0.75008000  0.99994000  1.0
  Pb  Pb17  1  0.56366000  0.24996000  0.00018000  1.0
  C  C18  1  0.92446000  0.61607000  0.66257000  1.0
  C  C19  1  0.26212000  0.88403000  0.33729000  1.0
  C  C20  1  0.07567000  0.38392000  0.33749000  1.0
  C  C21  1  0.73786000  0.11602000  0.66269000  1.0
  C  C22  1  0.76919000  0.51337000  0.59337000  1.0
  C  C23  1  0.17633000  0.98670000  0.40664000  1.0
  C  C24  1  0.23094000  0.48660000  0.40665000  1.0
  C  C25  1  0.82359000  0.01325000  0.59335000  1.0
  C  C26  1  0.69533000  0.50041000  0.68674000  1.0
  C  C27  1  0.00919000  0.99979000  0.31339000  1.0
  C  C28  1  0.30470000  0.49961000  0.31324000  1.0
  C  C29  1  0.99074000  0.00017000  0.68662000  1.0
  C  C30  1  0.77973000  0.59370000  0.84848000  1.0
  C  C31  1  0.93170000  0.90671000  0.15159000  1.0
  C  C32  1  0.22019000  0.40636000  0.15148000  1.0
  C  C33  1  0.06824000  0.09327000  0.84840000  1.0
  C  C34  1  0.93520000  0.69664000  0.91560000  1.0
  C  C35  1  0.01975000  0.80376000  0.08432000  1.0
  C  C36  1  0.06476000  0.30339000  0.08439000  1.0
  C  C37  1  0.98023000  0.19627000  0.91566000  1.0
  I  I38  1  0.72835000  0.60856000  0.24285000  1.0
  I  I39  1  0.48537000  0.89147000  0.75722000  1.0
  I  I40  1  0.27182000  0.39157000  0.75722000  1.0
  I  I41  1  0.51453000  0.10870000  0.24277000  1.0
  N  N42  1  0.00528000  0.70594000  0.82055000  1.0
  N  N43  1  0.18474000  0.79422000  0.17928000  1.0
  N  N44  1  0.99474000  0.29403000  0.17947000  1.0
  N  N45  1  0.81522000  0.20582000  0.82070000  1.0
  O  O46  1  0.14890000  0.80739000  0.88118000  1.0
  O  O47  1  0.26730000  0.69258000  0.11850000  1.0
  O  O48  1  0.85115000  0.19255000  0.11885000  1.0
  O  O49  1  0.73268000  0.30746000  0.88148000  1.0
