# generated using pymatgen
data_Zn3H24C34(NO7)2
_symmetry_space_group_name_H-M   'P 1'
_cell_length_a   11.59530000
_cell_length_b   12.12400000
_cell_length_c   33.23690000
_cell_angle_alpha   90.00000000
_cell_angle_beta   89.99990000
_cell_angle_gamma   117.04800000
_symmetry_Int_Tables_number   1
_chemical_formula_structural   Zn3H24C34(NO7)2
_chemical_formula_sum   'Zn12 H96 C136 N8 O56'
_cell_volume   4161.44095581
_cell_formula_units_Z   4
loop_
 _symmetry_equiv_pos_site_id
 _symmetry_equiv_pos_as_xyz
  1  'x, y, z'
loop_
 _atom_site_type_symbol
 _atom_site_label
 _atom_site_symmetry_multiplicity
 _atom_site_fract_x
 _atom_site_fract_y
 _atom_site_fract_z
 _atom_site_occupancy
  Zn  Zn0  1  0.25713000  0.27234000  0.85851000  1.0
  Zn  Zn1  1  0.52137000  0.23128000  0.86973000  1.0
  Zn  Zn2  1  0.24042000  0.97959000  0.85374000  1.0
  Zn  Zn3  1  0.74287000  0.22766000  0.35850000  1.0
  Zn  Zn4  1  0.47862000  0.26871000  0.36973000  1.0
  Zn  Zn5  1  0.75957000  0.52041000  0.35374000  1.0
  Zn  Zn6  1  0.74287000  0.72766000  0.14149000  1.0
  Zn  Zn7  1  0.47863000  0.76871000  0.13027000  1.0
  Zn  Zn8  1  0.75957000  0.02041000  0.14626000  1.0
  Zn  Zn9  1  0.25713000  0.77234000  0.64149000  1.0
  Zn  Zn10  1  0.52137000  0.73129000  0.63027000  1.0
  Zn  Zn11  1  0.24043000  0.47959000  0.64626000  1.0
  H  H12  1  0.99135000  0.21818000  0.89598000  1.0
  H  H13  1  0.85064000  0.32453000  0.90208000  1.0
  H  H14  1  0.18133000  0.66143000  0.86275000  1.0
  H  H15  1  0.30312000  0.53668000  0.85637000  1.0
  H  H16  1  0.80404000  0.47373000  0.93587000  1.0
  H  H17  1  0.68690000  0.60237000  0.93520000  1.0
  H  H18  1  0.90020000  0.80618000  0.83659000  1.0
  H  H19  1  0.03007000  0.69268000  0.83491000  1.0
  H  H20  1  0.36671000  0.16825000  0.81160000  1.0
  H  H21  1  0.53100000  0.61652000  0.89189000  1.0
  H  H22  1  0.41152000  0.74570000  0.89266000  1.0
  H  H23  1  0.76860000  0.07476000  0.87601000  1.0
  H  H24  1  0.89173000  0.95005000  0.87833000  1.0
  H  H25  1  0.82977000  0.33519000  0.80211000  1.0
  H  H26  1  0.99170000  0.38546000  0.74565000  1.0
  H  H27  1  0.91237000  0.68322000  0.70848000  1.0
  H  H28  1  0.74581000  0.62889000  0.76375000  1.0
  H  H29  1  0.60425000  0.36266000  0.98903000  1.0
  H  H30  1  0.35510000  0.51278000  0.94684000  1.0
  H  H31  1  0.00895000  0.82741000  0.96193000  1.0
  H  H32  1  0.11152000  0.21347000  0.97232000  1.0
  H  H33  1  0.22190000  0.75379000  0.76729000  1.0
  H  H34  1  0.45526000  0.44399000  0.81681000  1.0
  H  H35  1  0.33639000  0.41586000  0.78552000  1.0
  H  H36  1  0.00865000  0.28182000  0.39598000  1.0
  H  H37  1  0.14936000  0.17547000  0.40208000  1.0
  H  H38  1  0.81867000  0.83857000  0.36275000  1.0
  H  H39  1  0.69688000  0.96332000  0.35637000  1.0
  H  H40  1  0.19596000  0.02627000  0.43587000  1.0
  H  H41  1  0.31310000  0.89763000  0.43520000  1.0
  H  H42  1  0.09980000  0.69382000  0.33659000  1.0
  H  H43  1  0.96993000  0.80732000  0.33491000  1.0
  H  H44  1  0.63328000  0.33175000  0.31160000  1.0
  H  H45  1  0.46900000  0.88348000  0.39189000  1.0
  H  H46  1  0.58848000  0.75430000  0.39266000  1.0
  H  H47  1  0.23140000  0.42524000  0.37601000  1.0
  H  H48  1  0.10827000  0.54995000  0.37833000  1.0
  H  H49  1  0.17023000  0.16481000  0.30211000  1.0
  H  H50  1  0.00830000  0.11454000  0.24565000  1.0
  H  H51  1  0.08763000  0.81678000  0.20848000  1.0
  H  H52  1  0.25420000  0.87111000  0.26375000  1.0
  H  H53  1  0.39575000  0.13734000  0.48903000  1.0
  H  H54  1  0.64489000  0.98723000  0.44684000  1.0
  H  H55  1  0.99105000  0.67259000  0.46193000  1.0
  H  H56  1  0.88849000  0.28653000  0.47232000  1.0
  H  H57  1  0.77809000  0.74619000  0.26729000  1.0
  H  H58  1  0.54474000  0.05602000  0.31681000  1.0
  H  H59  1  0.66361000  0.08415000  0.28552000  1.0
  H  H60  1  0.00865000  0.78182000  0.10402000  1.0
  H  H61  1  0.14936000  0.67547000  0.09792000  1.0
  H  H62  1  0.81867000  0.33857000  0.13725000  1.0
  H  H63  1  0.69688000  0.46332000  0.14363000  1.0
  H  H64  1  0.19597000  0.52627000  0.06413000  1.0
  H  H65  1  0.31310000  0.39762000  0.06480000  1.0
  H  H66  1  0.09981000  0.19382000  0.16341000  1.0
  H  H67  1  0.96993000  0.30732000  0.16509000  1.0
  H  H68  1  0.63329000  0.83175000  0.18840000  1.0
  H  H69  1  0.46899000  0.38348000  0.10810000  1.0
  H  H70  1  0.58848000  0.25429000  0.10733000  1.0
  H  H71  1  0.23139000  0.92523000  0.12399000  1.0
  H  H72  1  0.10827000  0.04994000  0.12167000  1.0
  H  H73  1  0.17023000  0.66481000  0.19789000  1.0
  H  H74  1  0.00830000  0.61454000  0.25435000  1.0
  H  H75  1  0.08763000  0.31679000  0.29152000  1.0
  H  H76  1  0.25420000  0.37111000  0.23625000  1.0
  H  H77  1  0.39575000  0.63735000  0.01097000  1.0
  H  H78  1  0.64489000  0.48723000  0.05316000  1.0
  H  H79  1  0.99105000  0.17259000  0.03807000  1.0
  H  H80  1  0.88849000  0.78653000  0.02768000  1.0
  H  H81  1  0.77809000  0.24620000  0.23271000  1.0
  H  H82  1  0.54474000  0.55601000  0.18319000  1.0
  H  H83  1  0.66361000  0.58414000  0.21448000  1.0
  H  H84  1  0.99135000  0.71818000  0.60402000  1.0
  H  H85  1  0.85064000  0.82453000  0.59792000  1.0
  H  H86  1  0.18133000  0.16143000  0.63725000  1.0
  H  H87  1  0.30312000  0.03667000  0.64364000  1.0
  H  H88  1  0.80404000  0.97373000  0.56413000  1.0
  H  H89  1  0.68690000  0.10238000  0.56480000  1.0
  H  H90  1  0.90020000  0.30618000  0.66340000  1.0
  H  H91  1  0.03007000  0.19268000  0.66509000  1.0
  H  H92  1  0.36671000  0.66825000  0.68840000  1.0
  H  H93  1  0.53100000  0.11652000  0.60811000  1.0
  H  H94  1  0.41152000  0.24570000  0.60734000  1.0
  H  H95  1  0.76860000  0.57476000  0.62399000  1.0
  H  H96  1  0.89173000  0.45005000  0.62167000  1.0
  H  H97  1  0.82977000  0.83520000  0.69789000  1.0
  H  H98  1  0.99170000  0.88546000  0.75435000  1.0
  H  H99  1  0.91237000  0.18322000  0.79152000  1.0
  H  H100  1  0.74580000  0.12889000  0.73625000  1.0
  H  H101  1  0.60425000  0.86266000  0.51097000  1.0
  H  H102  1  0.35511000  0.01277000  0.55316000  1.0
  H  H103  1  0.00895000  0.32741000  0.53807000  1.0
  H  H104  1  0.11152000  0.71347000  0.52767000  1.0
  H  H105  1  0.22191000  0.25381000  0.73272000  1.0
  H  H106  1  0.45526000  0.94398000  0.68319000  1.0
  H  H107  1  0.33639000  0.91585000  0.71448000  1.0
  C  C108  1  0.02888000  0.31655000  0.88928000  1.0
  C  C109  1  0.95205000  0.37690000  0.89340000  1.0
  C  C110  1  0.00545000  0.50320000  0.88372000  1.0
  C  C111  1  0.13494000  0.56340000  0.87083000  1.0
  C  C112  1  0.20390000  0.49542000  0.86753000  1.0
  C  C113  1  0.92866000  0.57201000  0.88526000  1.0
  C  C114  1  0.82899000  0.54625000  0.91336000  1.0
  C  C115  1  0.76170000  0.61522000  0.91335000  1.0
  C  C116  1  0.88303000  0.73245000  0.85801000  1.0
  C  C117  1  0.95414000  0.66734000  0.85748000  1.0
  C  C118  1  0.71738000  0.77767000  0.88597000  1.0
  C  C119  1  0.58285000  0.71739000  0.89013000  1.0
  C  C120  1  0.51656000  0.78874000  0.88978000  1.0
  C  C121  1  0.58348000  0.91721000  0.88474000  1.0
  C  C122  1  0.71855000  0.97494000  0.88034000  1.0
  C  C123  1  0.78656000  0.90585000  0.88115000  1.0
  C  C124  1  0.51279000  0.99484000  0.88228000  1.0
  C  C125  1  0.67895000  0.44413000  0.81815000  1.0
  C  C126  1  0.77925000  0.47902000  0.78577000  1.0
  C  C127  1  0.84845000  0.41041000  0.78111000  1.0
  C  C128  1  0.93718000  0.43781000  0.74999000  1.0
  C  C129  1  0.95890000  0.53586000  0.72384000  1.0
  C  C130  1  0.89203000  0.60643000  0.72901000  1.0
  C  C131  1  0.80118000  0.57724000  0.75962000  1.0
  C  C132  1  0.05580000  0.56631000  0.69076000  1.0
  C  C133  1  0.46116000  0.36516000  0.92575000  1.0
  C  C134  1  0.47835000  0.43216000  0.96463000  1.0
  C  C135  1  0.55983000  0.42354000  0.99432000  1.0
  C  C136  1  0.41815000  0.50835000  0.97043000  1.0
  C  C137  1  0.13845000  0.04918000  0.92358000  1.0
  C  C138  1  0.06681000  0.02284000  0.96312000  1.0
  C  C139  1  0.00406000  0.90235000  0.97877000  1.0
  C  C140  1  0.06207000  0.12021000  0.98476000  1.0
  C  C141  1  0.24851000  0.84424000  0.78238000  1.0
  C  C142  1  0.97112000  0.18345000  0.38928000  1.0
  C  C143  1  0.04795000  0.12310000  0.39340000  1.0
  C  C144  1  0.99455000  0.99680000  0.38372000  1.0
  C  C145  1  0.86507000  0.93660000  0.37083000  1.0
  C  C146  1  0.79611000  0.00458000  0.36753000  1.0
  C  C147  1  0.07134000  0.92798000  0.38526000  1.0
  C  C148  1  0.17102000  0.95375000  0.41336000  1.0
  C  C149  1  0.23831000  0.88478000  0.41335000  1.0
  C  C150  1  0.11697000  0.76755000  0.35801000  1.0
  C  C151  1  0.04585000  0.83266000  0.35748000  1.0
  C  C152  1  0.28262000  0.72233000  0.38597000  1.0
  C  C153  1  0.41715000  0.78261000  0.39013000  1.0
  C  C154  1  0.48344000  0.71126000  0.38979000  1.0
  C  C155  1  0.41651000  0.58278000  0.38474000  1.0
  C  C156  1  0.28145000  0.52506000  0.38034000  1.0
  C  C157  1  0.21344000  0.59415000  0.38115000  1.0
  C  C158  1  0.48721000  0.50516000  0.38228000  1.0
  C  C159  1  0.32106000  0.05587000  0.31815000  1.0
  C  C160  1  0.22075000  0.02099000  0.28577000  1.0
  C  C161  1  0.15155000  0.08960000  0.28111000  1.0
  C  C162  1  0.06282000  0.06219000  0.24999000  1.0
  C  C163  1  0.04110000  0.96414000  0.22384000  1.0
  C  C164  1  0.10797000  0.89357000  0.22900000  1.0
  C  C165  1  0.19882000  0.92276000  0.25961000  1.0
  C  C166  1  0.94421000  0.93369000  0.19076000  1.0
  C  C167  1  0.53883000  0.13484000  0.42575000  1.0
  C  C168  1  0.52164000  0.06784000  0.46463000  1.0
  C  C169  1  0.44017000  0.07645000  0.49432000  1.0
  C  C170  1  0.58185000  0.99165000  0.47042000  1.0
  C  C171  1  0.86156000  0.45083000  0.42358000  1.0
  C  C172  1  0.93320000  0.47717000  0.46312000  1.0
  C  C173  1  0.99595000  0.59765000  0.47877000  1.0
  C  C174  1  0.93794000  0.37980000  0.48476000  1.0
  C  C175  1  0.75148000  0.65575000  0.28238000  1.0
  C  C176  1  0.97112000  0.68345000  0.11072000  1.0
  C  C177  1  0.04796000  0.62310000  0.10660000  1.0
  C  C178  1  0.99455000  0.49680000  0.11628000  1.0
  C  C179  1  0.86507000  0.43660000  0.12917000  1.0
  C  C180  1  0.79611000  0.50458000  0.13247000  1.0
  C  C181  1  0.07135000  0.42799000  0.11474000  1.0
  C  C182  1  0.17102000  0.45375000  0.08664000  1.0
  C  C183  1  0.23831000  0.38478000  0.08665000  1.0
  C  C184  1  0.11697000  0.26755000  0.14199000  1.0
  C  C185  1  0.04586000  0.33266000  0.14252000  1.0
  C  C186  1  0.28262000  0.22233000  0.11402000  1.0
  C  C187  1  0.41715000  0.28260000  0.10986000  1.0
  C  C188  1  0.48343000  0.21125000  0.11021000  1.0
  C  C189  1  0.41651000  0.08278000  0.11526000  1.0
  C  C190  1  0.28145000  0.02506000  0.11966000  1.0
  C  C191  1  0.21344000  0.09415000  0.11885000  1.0
  C  C192  1  0.48722000  0.00516000  0.11772000  1.0
  C  C193  1  0.32106000  0.55587000  0.18185000  1.0
  C  C194  1  0.22075000  0.52098000  0.21423000  1.0
  C  C195  1  0.15155000  0.58960000  0.21889000  1.0
  C  C196  1  0.06282000  0.56220000  0.25001000  1.0
  C  C197  1  0.04110000  0.46415000  0.27616000  1.0
  C  C198  1  0.10797000  0.39357000  0.27099000  1.0
  C  C199  1  0.19882000  0.42276000  0.24039000  1.0
  C  C200  1  0.94420000  0.43369000  0.30924000  1.0
  C  C201  1  0.53883000  0.63483000  0.07425000  1.0
  C  C202  1  0.52164000  0.56783000  0.03537000  1.0
  C  C203  1  0.44016000  0.57646000  0.00568000  1.0
  C  C204  1  0.58185000  0.49165000  0.02958000  1.0
  C  C205  1  0.86157000  0.95082000  0.07642000  1.0
  C  C206  1  0.93320000  0.97717000  0.03688000  1.0
  C  C207  1  0.99595000  0.09765000  0.02123000  1.0
  C  C208  1  0.93794000  0.87980000  0.01524000  1.0
  C  C209  1  0.75149000  0.15576000  0.21762000  1.0
  C  C210  1  0.02888000  0.81655000  0.61072000  1.0
  C  C211  1  0.95205000  0.87690000  0.60660000  1.0
  C  C212  1  0.00545000  0.00320000  0.61628000  1.0
  C  C213  1  0.13493000  0.06340000  0.62917000  1.0
  C  C214  1  0.20389000  0.99542000  0.63247000  1.0
  C  C215  1  0.92866000  0.07202000  0.61474000  1.0
  C  C216  1  0.82898000  0.04625000  0.58664000  1.0
  C  C217  1  0.76169000  0.11522000  0.58665000  1.0
  C  C218  1  0.88303000  0.23246000  0.64199000  1.0
  C  C219  1  0.95415000  0.16735000  0.64252000  1.0
  C  C220  1  0.71738000  0.27767000  0.61403000  1.0
  C  C221  1  0.58285000  0.21739000  0.60987000  1.0
  C  C222  1  0.51656000  0.28874000  0.61022000  1.0
  C  C223  1  0.58348000  0.41721000  0.61526000  1.0
  C  C224  1  0.71855000  0.47494000  0.61966000  1.0
  C  C225  1  0.78656000  0.40585000  0.61885000  1.0
  C  C226  1  0.51278000  0.49484000  0.61772000  1.0
  C  C227  1  0.67894000  0.94413000  0.68185000  1.0
  C  C228  1  0.77925000  0.97902000  0.71423000  1.0
  C  C229  1  0.84845000  0.91041000  0.71889000  1.0
  C  C230  1  0.93718000  0.93781000  0.75001000  1.0
  C  C231  1  0.95890000  0.03586000  0.77616000  1.0
  C  C232  1  0.89203000  0.10643000  0.77100000  1.0
  C  C233  1  0.80118000  0.07724000  0.74038000  1.0
  C  C234  1  0.05580000  0.06631000  0.80924000  1.0
  C  C235  1  0.46116000  0.86516000  0.57425000  1.0
  C  C236  1  0.47836000  0.93216000  0.53537000  1.0
  C  C237  1  0.55983000  0.92354000  0.50568000  1.0
  C  C238  1  0.41815000  0.00834000  0.52957000  1.0
  C  C239  1  0.13844000  0.54918000  0.57642000  1.0
  C  C240  1  0.06681000  0.52284000  0.53688000  1.0
  C  C241  1  0.00406000  0.40235000  0.52123000  1.0
  C  C242  1  0.06207000  0.62020000  0.51524000  1.0
  C  C243  1  0.24852000  0.34425000  0.71763000  1.0
  N  N244  1  0.15204000  0.37414000  0.87636000  1.0
  N  N245  1  0.78874000  0.70669000  0.88585000  1.0
  N  N246  1  0.84797000  0.12586000  0.37636000  1.0
  N  N247  1  0.21126000  0.79331000  0.38585000  1.0
  N  N248  1  0.84797000  0.62586000  0.12364000  1.0
  N  N249  1  0.21126000  0.29331000  0.11415000  1.0
  N  N250  1  0.15203000  0.87414000  0.62364000  1.0
  N  N251  1  0.78874000  0.20669000  0.61415000  1.0
  O  O252  1  0.39087000  0.94325000  0.88369000  1.0
  O  O253  1  0.58777000  0.11127000  0.87824000  1.0
  O  O254  1  0.66709000  0.35044000  0.83950000  1.0
  O  O255  1  0.61601000  0.50457000  0.82256000  1.0
  O  O256  1  0.08080000  0.48012000  0.67855000  1.0
  O  O257  1  0.10401000  0.67715000  0.67778000  1.0
  O  O258  1  0.40797000  0.39302000  0.89695000  1.0
  O  O259  1  0.50766000  0.28750000  0.92409000  1.0
  O  O260  1  0.18461000  0.15932000  0.91062000  1.0
  O  O261  1  0.14632000  0.95820000  0.90632000  1.0
  O  O262  1  0.35444000  0.16102000  0.84069000  1.0
  O  O263  1  0.21693000  0.83415000  0.81984000  1.0
  O  O264  1  0.30367000  0.94199000  0.76242000  1.0
  O  O265  1  0.35927000  0.40353000  0.81377000  1.0
  O  O266  1  0.60913000  0.55675000  0.38369000  1.0
  O  O267  1  0.41222000  0.38873000  0.37823000  1.0
  O  O268  1  0.33292000  0.14956000  0.33949000  1.0
  O  O269  1  0.38399000  0.99544000  0.32256000  1.0
  O  O270  1  0.91920000  0.01988000  0.17855000  1.0
  O  O271  1  0.89600000  0.82285000  0.17778000  1.0
  O  O272  1  0.59201000  0.10698000  0.39695000  1.0
  O  O273  1  0.49233000  0.21250000  0.42409000  1.0
  O  O274  1  0.81540000  0.34069000  0.41062000  1.0
  O  O275  1  0.85369000  0.54181000  0.40632000  1.0
  O  O276  1  0.64556000  0.33897000  0.34068000  1.0
  O  O277  1  0.78306000  0.66584000  0.31984000  1.0
  O  O278  1  0.69632000  0.55799000  0.26242000  1.0
  O  O279  1  0.64073000  0.09648000  0.31377000  1.0
  O  O280  1  0.60913000  0.05675000  0.11631000  1.0
  O  O281  1  0.41222000  0.88872000  0.12176000  1.0
  O  O282  1  0.33292000  0.64956000  0.16050000  1.0
  O  O283  1  0.38399000  0.49543000  0.17744000  1.0
  O  O284  1  0.91919000  0.51988000  0.32144000  1.0
  O  O285  1  0.89600000  0.32285000  0.32222000  1.0
  O  O286  1  0.59202000  0.60697000  0.10305000  1.0
  O  O287  1  0.49233000  0.71250000  0.07591000  1.0
  O  O288  1  0.81540000  0.84068000  0.08938000  1.0
  O  O289  1  0.85369000  0.04180000  0.09368000  1.0
  O  O290  1  0.64556000  0.83898000  0.15931000  1.0
  O  O291  1  0.78306000  0.16585000  0.18016000  1.0
  O  O292  1  0.69632000  0.05799000  0.23758000  1.0
  O  O293  1  0.64073000  0.59647000  0.18623000  1.0
  O  O294  1  0.39087000  0.44325000  0.61631000  1.0
  O  O295  1  0.58778000  0.61127000  0.62177000  1.0
  O  O296  1  0.66708000  0.85044000  0.66051000  1.0
  O  O297  1  0.61601000  0.00457000  0.67744000  1.0
  O  O298  1  0.08080000  0.98012000  0.82145000  1.0
  O  O299  1  0.10400000  0.17715000  0.82222000  1.0
  O  O300  1  0.40798000  0.89303000  0.60305000  1.0
  O  O301  1  0.50767000  0.78750000  0.57591000  1.0
  O  O302  1  0.18461000  0.65932000  0.58938000  1.0
  O  O303  1  0.14631000  0.45820000  0.59368000  1.0
  O  O304  1  0.35444000  0.66102000  0.65931000  1.0
  O  O305  1  0.21694000  0.33416000  0.68016000  1.0
  O  O306  1  0.30369000  0.44201000  0.73758000  1.0
  O  O307  1  0.35927000  0.90353000  0.68623000  1.0
