# generated using pymatgen
data_Al2H17C24S2N3O10
_symmetry_space_group_name_H-M   'P 1'
_cell_length_a   6.64882000
_cell_length_b   12.68720000
_cell_length_c   16.96960000
_cell_angle_alpha   85.95290000
_cell_angle_beta   82.12890000
_cell_angle_gamma   75.96220000
_symmetry_Int_Tables_number   1
_chemical_formula_structural   Al2H17C24S2N3O10
_chemical_formula_sum   'Al2 H17 C24 S2 N3 O10'
_cell_volume   1374.59607569
_cell_formula_units_Z   1
loop_
 _symmetry_equiv_pos_site_id
 _symmetry_equiv_pos_as_xyz
  1  'x, y, z'
loop_
 _atom_site_type_symbol
 _atom_site_label
 _atom_site_symmetry_multiplicity
 _atom_site_fract_x
 _atom_site_fract_y
 _atom_site_fract_z
 _atom_site_occupancy
  Al  Al0  1  0.50120000  0.49837000  0.50069000  1.0
  Al  Al1  1  0.00337000  0.49389000  0.50236000  1.0
  H  H2  1  0.20320000  0.62429000  0.45297000  1.0
  H  H3  1  0.74332000  0.43231000  0.59567000  1.0
  H  H4  1  0.95054000  0.40717000  0.74546000  1.0
  H  H5  1  0.89557000  0.40524000  0.89476000  1.0
  H  H6  1  0.30070000  0.62331000  0.88981000  1.0
  H  H7  1  0.67171000  0.39858000  0.11182000  1.0
  H  H8  1  0.17488000  0.55546000  0.11496000  1.0
  H  H9  1  0.10971000  0.55220000  0.26438000  1.0
  H  H10  1  0.26786000  0.84737000  0.54167000  1.0
  H  H11  1  0.56373000  0.59397000  0.71270000  1.0
  H  H12  1  0.41667000  0.70766000  0.76737000  1.0
  H  H13  1  0.34720000  0.68073000  0.67426000  1.0
  H  H14  1  0.43071000  0.43819000  0.30733000  1.0
  H  H15  1  0.61652000  0.31368000  0.31106000  1.0
  H  H16  1  0.47880000  0.34900000  0.22657000  1.0
  H  H17  1  0.92751000  0.10921000  0.44483000  1.0
  H  H18  1  0.76777000  0.23837000  0.45120000  1.0
  C  C19  1  0.65452000  0.69386000  0.50269000  1.0
  C  C20  1  0.81635000  0.48520000  0.35942000  1.0
  C  C21  1  0.35354000  0.30138000  0.49653000  1.0
  C  C22  1  0.19202000  0.50583000  0.64602000  1.0
  C  C23  1  0.16246000  0.51291000  0.73434000  1.0
  C  C24  1  0.02782000  0.45370000  0.77805000  1.0
  C  C25  1  0.99635000  0.45237000  0.86040000  1.0
  C  C26  1  0.09714000  0.51430000  0.90031000  1.0
  C  C27  1  0.22822000  0.57489000  0.85669000  1.0
  C  C28  1  0.26529000  0.57517000  0.77350000  1.0
  C  C29  1  0.76338000  0.43390000  0.14671000  1.0
  C  C30  1  0.92296000  0.47837000  0.10530000  1.0
  C  C31  1  0.04995000  0.52207000  0.14741000  1.0
  C  C32  1  0.01258000  0.52047000  0.22973000  1.0
  C  C33  1  0.84846000  0.47870000  0.27114000  1.0
  C  C34  1  0.72062000  0.43363000  0.22970000  1.0
  C  C35  1  0.61302000  0.11903000  0.47310000  1.0
  C  C36  1  0.40458000  0.87940000  0.52165000  1.0
  C  C37  1  0.41204000  0.18432000  0.49504000  1.0
  C  C38  1  0.60088000  0.81317000  0.50157000  1.0
  C  C39  1  0.40919000  0.99008000  0.51233000  1.0
  C  C40  1  0.60824000  0.00688000  0.48396000  1.0
  C  C41  1  0.40487000  0.64317000  0.72963000  1.0
  C  C42  1  0.55193000  0.38131000  0.27062000  1.0
  S  S43  1  0.22415000  0.11040000  0.52753000  1.0
  S  S44  1  0.79154000  0.88528000  0.47067000  1.0
  N  N45  1  0.07588000  0.52155000  0.98397000  1.0
  N  N46  1  0.94394000  0.47316000  0.02164000  1.0
  N  N47  1  0.78237000  0.15788000  0.44301000  1.0
  O  O48  1  0.50080000  0.64843000  0.51430000  1.0
  O  O49  1  0.97911000  0.47019000  0.39465000  1.0
  O  O50  1  0.15957000  0.34751000  0.51270000  1.0
  O  O51  1  0.37849000  0.48962000  0.61070000  1.0
  O  O52  1  0.50165000  0.35183000  0.48278000  1.0
  O  O53  1  0.02800000  0.51377000  0.61258000  1.0
  O  O54  1  0.84810000  0.64584000  0.49120000  1.0
  O  O55  1  0.62928000  0.50831000  0.39389000  1.0
  O  O56  1  0.23906000  0.54722000  0.46710000  1.0
  O  O57  1  0.75909000  0.44975000  0.53892000  1.0
