# generated using pymatgen
data_HgH12C13(IN2)2
_symmetry_space_group_name_H-M   'P 1'
_cell_length_a   9.69239000
_cell_length_b   13.58726428
_cell_length_c   15.24610000
_cell_angle_alpha   79.11604532
_cell_angle_beta   89.96200000
_cell_angle_gamma   69.10681260
_symmetry_Int_Tables_number   1
_chemical_formula_structural   HgH12C13(IN2)2
_chemical_formula_sum   'Hg4 H48 C52 I8 N16'
_cell_volume   1837.17283094
_cell_formula_units_Z   4
loop_
 _symmetry_equiv_pos_site_id
 _symmetry_equiv_pos_as_xyz
  1  'x, y, z'
loop_
 _atom_site_type_symbol
 _atom_site_label
 _atom_site_symmetry_multiplicity
 _atom_site_fract_x
 _atom_site_fract_y
 _atom_site_fract_z
 _atom_site_occupancy
  Hg  Hg0  1  0.22165000  0.33416000  0.77294000  1.0
  Hg  Hg1  1  0.55545000  0.66632000  0.72689000  1.0
  Hg  Hg2  1  0.77835000  0.66584000  0.22706000  1.0
  Hg  Hg3  1  0.44454000  0.33368000  0.27310000  1.0
  H  H4  1  0.20720000  0.08854000  0.85763000  1.0
  H  H5  1  0.29531000  0.91221000  0.64241000  1.0
  H  H6  1  0.79281000  0.91146000  0.14238000  1.0
  H  H7  1  0.70468000  0.08780000  0.35759000  1.0
  H  H8  1  0.82357000  0.36361000  0.77251000  1.0
  H  H9  1  0.18725000  0.63679000  0.72732000  1.0
  H  H10  1  0.17645000  0.63638000  0.22749000  1.0
  H  H11  1  0.81273000  0.36322000  0.27268000  1.0
  H  H12  1  0.73934000  0.18744000  0.81901000  1.0
  H  H13  1  0.92666000  0.81276000  0.68071000  1.0
  H  H14  1  0.26068000  0.81255000  0.18100000  1.0
  H  H15  1  0.07333000  0.18724000  0.31929000  1.0
  H  H16  1  0.21869000  0.92762000  0.84817000  1.0
  H  H17  1  0.14615000  0.07288000  0.65126000  1.0
  H  H18  1  0.78133000  0.07237000  0.15185000  1.0
  H  H19  1  0.85383000  0.92713000  0.34874000  1.0
  H  H20  1  0.24636000  0.74157000  0.91472000  1.0
  H  H21  1  0.98781000  0.25888000  0.58471000  1.0
  H  H22  1  0.75365000  0.25842000  0.08529000  1.0
  H  H23  1  0.01219000  0.74112000  0.41529000  1.0
  H  H24  1  0.79000000  0.85061000  0.97968000  1.0
  H  H25  1  0.64025000  0.14972000  0.52066000  1.0
  H  H26  1  0.21002000  0.14938000  0.02032000  1.0
  H  H27  1  0.35975000  0.85028000  0.47934000  1.0
  H  H28  1  0.76365000  0.03869000  0.91740000  1.0
  H  H29  1  0.80171000  0.96173000  0.58313000  1.0
  H  H30  1  0.23637000  0.96130000  0.08261000  1.0
  H  H31  1  0.19828000  0.03828000  0.41687000  1.0
  H  H32  1  0.94710000  0.66719000  0.03568000  1.0
  H  H33  1  0.61379000  0.33310000  0.46457000  1.0
  H  H34  1  0.05287000  0.33282000  0.96431000  1.0
  H  H35  1  0.38622000  0.66691000  0.53542000  1.0
  H  H36  1  0.14214000  0.62408000  0.03018000  1.0
  H  H37  1  0.76567000  0.37629000  0.46958000  1.0
  H  H38  1  0.85784000  0.37591000  0.96982000  1.0
  H  H39  1  0.23432000  0.62372000  0.53042000  1.0
  H  H40  1  0.23849000  0.47702000  0.94911000  1.0
  H  H41  1  0.71525000  0.52338000  0.55054000  1.0
  H  H42  1  0.76149000  0.52296000  0.05090000  1.0
  H  H43  1  0.28474000  0.47663000  0.44945000  1.0
  H  H44  1  0.90319000  0.56067000  0.74175000  1.0
  H  H45  1  0.46494000  0.43935000  0.75887000  1.0
  H  H46  1  0.09680000  0.43934000  0.25824000  1.0
  H  H47  1  0.53504000  0.56065000  0.24113000  1.0
  H  H48  1  0.81735000  0.71147000  0.85171000  1.0
  H  H49  1  0.52980000  0.28835000  0.64907000  1.0
  H  H50  1  0.18264000  0.28854000  0.14828000  1.0
  H  H51  1  0.47022000  0.71164000  0.35093000  1.0
  C  C52  1  0.09256000  0.13952000  0.83845000  1.0
  C  C53  1  0.23173000  0.86111000  0.66149000  1.0
  C  C54  1  0.90745000  0.86048000  0.16157000  1.0
  C  C55  1  0.76827000  0.13890000  0.33850000  1.0
  C  C56  1  0.89159000  0.27972000  0.79670000  1.0
  C  C57  1  0.17120000  0.72072000  0.70314000  1.0
  C  C58  1  0.10842000  0.72027000  0.20331000  1.0
  C  C59  1  0.82879000  0.27928000  0.29685000  1.0
  C  C60  1  0.84813000  0.19303000  0.81948000  1.0
  C  C61  1  0.04094000  0.80732000  0.68029000  1.0
  C  C62  1  0.15190000  0.80696000  0.18053000  1.0
  C  C63  1  0.95904000  0.19268000  0.31971000  1.0
  C  C64  1  0.98951000  0.99576000  0.87909000  1.0
  C  C65  1  0.98493000  0.00467000  0.62084000  1.0
  C  C66  1  0.01051000  0.00423000  0.12092000  1.0
  C  C67  1  0.01507000  0.99533000  0.37917000  1.0
  C  C68  1  0.12481000  0.91166000  0.87809000  1.0
  C  C69  1  0.03627000  0.08878000  0.62155000  1.0
  C  C70  1  0.87520000  0.08834000  0.12191000  1.0
  C  C71  1  0.96373000  0.91122000  0.37845000  1.0
  C  C72  1  0.13995000  0.80634000  0.91533000  1.0
  C  C73  1  0.94616000  0.19404000  0.58433000  1.0
  C  C74  1  0.86007000  0.19364000  0.08468000  1.0
  C  C75  1  0.05385000  0.80596000  0.41567000  1.0
  C  C76  1  0.02007000  0.78323000  0.95246000  1.0
  C  C77  1  0.80307000  0.21715000  0.54745000  1.0
  C  C78  1  0.97993000  0.21677000  0.04754000  1.0
  C  C79  1  0.19692000  0.78286000  0.45255000  1.0
  C  C80  1  0.88447000  0.86757000  0.95099000  1.0
  C  C81  1  0.75174000  0.13278000  0.54917000  1.0
  C  C82  1  0.11554000  0.13242000  0.04902000  1.0
  C  C83  1  0.24826000  0.86723000  0.45083000  1.0
  C  C84  1  0.86876000  0.97369000  0.91532000  1.0
  C  C85  1  0.84198000  0.02673000  0.58496000  1.0
  C  C86  1  0.13125000  0.02631000  0.08469000  1.0
  C  C87  1  0.15801000  0.97328000  0.41504000  1.0
  C  C88  1  0.03561000  0.66889000  0.99120000  1.0
  C  C89  1  0.70417000  0.33142000  0.50879000  1.0
  C  C90  1  0.96437000  0.33111000  0.00880000  1.0
  C  C91  1  0.29584000  0.66858000  0.49120000  1.0
  C  C92  1  0.13650000  0.51881000  0.90656000  1.0
  C  C93  1  0.65523000  0.48152000  0.59332000  1.0
  C  C94  1  0.86348000  0.48118000  0.09343000  1.0
  C  C95  1  0.34476000  0.51848000  0.40667000  1.0
  C  C96  1  0.95918000  0.56501000  0.80168000  1.0
  C  C97  1  0.52490000  0.43507000  0.69874000  1.0
  C  C98  1  0.04080000  0.43499000  0.19831000  1.0
  C  C99  1  0.47508000  0.56493000  0.30125000  1.0
  C  C100  1  0.91622000  0.64064000  0.85462000  1.0
  C  C101  1  0.55751000  0.35936000  0.64587000  1.0
  C  C102  1  0.08377000  0.35937000  0.14537000  1.0
  C  C103  1  0.44249000  0.64064000  0.35412000  1.0
  I  I104  1  0.44394000  0.20569000  0.89771000  1.0
  I  I105  1  0.64883000  0.79531000  0.60215000  1.0
  I  I106  1  0.55610000  0.79432000  0.10227000  1.0
  I  I107  1  0.35115000  0.20470000  0.39785000  1.0
  I  I108  1  0.12539000  0.42242000  0.59937000  1.0
  I  I109  1  0.54664000  0.57834000  0.90053000  1.0
  I  I110  1  0.87460000  0.57764000  0.40064000  1.0
  I  I111  1  0.45335000  0.42167000  0.09947000  1.0
  N  N112  1  0.04388000  0.24502000  0.80930000  1.0
  N  N113  1  0.28870000  0.75560000  0.69065000  1.0
  N  N114  1  0.95613000  0.75498000  0.19071000  1.0
  N  N115  1  0.71131000  0.24440000  0.30935000  1.0
  N  N116  1  0.97703000  0.10377000  0.84574000  1.0
  N  N117  1  0.08046000  0.89670000  0.65412000  1.0
  N  N118  1  0.02299000  0.89622000  0.15426000  1.0
  N  N119  1  0.91952000  0.10331000  0.34588000  1.0
  N  N120  1  0.09611000  0.48967000  0.83500000  1.0
  N  N121  1  0.58607000  0.51060000  0.66506000  1.0
  N  N122  1  0.90388000  0.51032000  0.16500000  1.0
  N  N123  1  0.41392000  0.48940000  0.33494000  1.0
  N  N124  1  0.02952000  0.61020000  0.92058000  1.0
  N  N125  1  0.63982000  0.39000000  0.57956000  1.0
  N  N126  1  0.97047000  0.38979000  0.07942000  1.0
  N  N127  1  0.36019000  0.61000000  0.42043000  1.0
