# generated using pymatgen
data_NiH9C6S(NO2)3
_symmetry_space_group_name_H-M   'P 1'
_cell_length_a   8.23829000
_cell_length_b   8.62204000
_cell_length_c   8.47540000
_cell_angle_alpha   98.47020000
_cell_angle_beta   102.28300000
_cell_angle_gamma   108.45800000
_symmetry_Int_Tables_number   1
_chemical_formula_structural   NiH9C6S(NO2)3
_chemical_formula_sum   'Ni2 H18 C12 S2 N6 O12'
_cell_volume   542.80319711
_cell_formula_units_Z   2
loop_
 _symmetry_equiv_pos_site_id
 _symmetry_equiv_pos_as_xyz
  1  'x, y, z'
loop_
 _atom_site_type_symbol
 _atom_site_label
 _atom_site_symmetry_multiplicity
 _atom_site_fract_x
 _atom_site_fract_y
 _atom_site_fract_z
 _atom_site_occupancy
  Ni  Ni0  1  0.20603000  0.20656000  0.27381000  1.0
  Ni  Ni1  1  0.79398000  0.79344000  0.72619000  1.0
  H  H2  1  0.34820000  0.07596000  0.45894000  1.0
  H  H3  1  0.65180000  0.92404000  0.54106000  1.0
  H  H4  1  0.21392000  0.93994000  0.29334000  1.0
  H  H5  1  0.78608000  0.06006000  0.70666000  1.0
  H  H6  1  0.35570000  0.91264000  0.15206000  1.0
  H  H7  1  0.64431000  0.08737000  0.84794000  1.0
  H  H8  1  0.21085000  0.73287000  0.09792000  1.0
  H  H9  1  0.78916000  0.26713000  0.90208000  1.0
  H  H10  1  0.58124000  0.78670000  0.07598000  1.0
  H  H11  1  0.41875000  0.21331000  0.92403000  1.0
  H  H12  1  0.91576000  0.87924000  0.11522000  1.0
  H  H13  1  0.08423000  0.12075000  0.88479000  1.0
  H  H14  1  0.97708000  0.35584000  0.37136000  1.0
  H  H15  1  0.02292000  0.64416000  0.62864000  1.0
  H  H16  1  0.56720000  0.45573000  0.13732000  1.0
  H  H17  1  0.43279000  0.54427000  0.86267000  1.0
  H  H18  1  0.56185000  0.58405000  0.31914000  1.0
  H  H19  1  0.43815000  0.41595000  0.68085000  1.0
  C  C20  1  0.67155000  0.91288000  0.14422000  1.0
  C  C21  1  0.32845000  0.08712000  0.85578000  1.0
  C  C22  1  0.85461000  0.96349000  0.16451000  1.0
  C  C23  1  0.14539000  0.03651000  0.83550000  1.0
  C  C24  1  0.88865000  0.22827000  0.30740000  1.0
  C  C25  1  0.11136000  0.77173000  0.69261000  1.0
  C  C26  1  0.70706000  0.16981000  0.29406000  1.0
  C  C27  1  0.29293000  0.83019000  0.70594000  1.0
  C  C28  1  0.48842000  0.46448000  0.22616000  1.0
  C  C29  1  0.51157000  0.53551000  0.77384000  1.0
  C  C30  1  0.31258000  0.47051000  0.13621000  1.0
  C  C31  1  0.68742000  0.52950000  0.86378000  1.0
  S  S32  1  0.62062000  0.29965000  0.41538000  1.0
  S  S33  1  0.37938000  0.70036000  0.58462000  1.0
  N  N34  1  0.45208000  0.32011000  0.30407000  1.0
  N  N35  1  0.54792000  0.67988000  0.69592000  1.0
  N  N36  1  0.59760000  0.01511000  0.20942000  1.0
  N  N37  1  0.40240000  0.98489000  0.79058000  1.0
  N  N38  1  0.96093000  0.12216000  0.24381000  1.0
  N  N39  1  0.03907000  0.87783000  0.75619000  1.0
  O  O40  1  0.17057000  0.35730000  0.14946000  1.0
  O  O41  1  0.82943000  0.64269000  0.85054000  1.0
  O  O42  1  0.30452000  0.57702000  0.05304000  1.0
  O  O43  1  0.69547000  0.42297000  0.94697000  1.0
  O  O44  1  0.76830000  0.45867000  0.47981000  1.0
  O  O45  1  0.23170000  0.54133000  0.52018000  1.0
  O  O46  1  0.56483000  0.19933000  0.53273000  1.0
  O  O47  1  0.43517000  0.80067000  0.46727000  1.0
  O  O48  1  0.22254000  0.03509000  0.38886000  1.0
  O  O49  1  0.77746000  0.96490000  0.61115000  1.0
  O  O50  1  0.22460000  0.85278000  0.12628000  1.0
  O  O51  1  0.77540000  0.14722000  0.87372000  1.0
