# generated using pymatgen
data_YPH11C9SNO9
_symmetry_space_group_name_H-M   'P 1'
_cell_length_a   6.75144000
_cell_length_b   7.51631000
_cell_length_c   13.33550000
_cell_angle_alpha   90.65570000
_cell_angle_beta   93.20600000
_cell_angle_gamma   101.86500000
_symmetry_Int_Tables_number   1
_chemical_formula_structural   YPH11C9SNO9
_chemical_formula_sum   'Y2 P2 H22 C18 S2 N2 O18'
_cell_volume   661.04503463
_cell_formula_units_Z   2
loop_
 _symmetry_equiv_pos_site_id
 _symmetry_equiv_pos_as_xyz
  1  'x, y, z'
loop_
 _atom_site_type_symbol
 _atom_site_label
 _atom_site_symmetry_multiplicity
 _atom_site_fract_x
 _atom_site_fract_y
 _atom_site_fract_z
 _atom_site_occupancy
  Y  Y0  1  0.28479000  0.76836000  0.45514000  1.0
  Y  Y1  1  0.71521000  0.23164000  0.54486000  1.0
  P  P2  1  0.25140000  0.38575000  0.62078000  1.0
  P  P3  1  0.74859000  0.61425000  0.37922000  1.0
  H  H4  1  0.16560000  0.10574000  0.77420000  1.0
  H  H5  1  0.83440000  0.89425000  0.22580000  1.0
  H  H6  1  0.16579000  0.12459000  0.96141000  1.0
  H  H7  1  0.83421000  0.87541000  0.03858000  1.0
  H  H8  1  0.21245000  0.31858000  0.12012000  1.0
  H  H9  1  0.78755000  0.68142000  0.87988000  1.0
  H  H10  1  0.27277000  0.62670000  0.19934000  1.0
  H  H11  1  0.72724000  0.37330000  0.80066000  1.0
  H  H12  1  0.33224000  0.89911000  0.09623000  1.0
  H  H13  1  0.66776000  0.10089000  0.90378000  1.0
  H  H14  1  0.33616000  0.87124000  0.90787000  1.0
  H  H15  1  0.66384000  0.12876000  0.09213000  1.0
  H  H16  1  0.31192000  0.67794000  0.76650000  1.0
  H  H17  1  0.68808000  0.32206000  0.23350000  1.0
  H  H18  1  0.23028000  0.39052000  0.34390000  1.0
  H  H19  1  0.76972000  0.60949000  0.65610000  1.0
  H  H20  1  0.02354000  0.41815000  0.38556000  1.0
  H  H21  1  0.97646000  0.58185000  0.61444000  1.0
  H  H22  1  0.23001000  0.91986000  0.64513000  1.0
  H  H23  1  0.76999000  0.08014000  0.35487000  1.0
  H  H24  1  0.10849000  0.03794000  0.57676000  1.0
  H  H25  1  0.89151000  0.96206000  0.42324000  1.0
  C  C26  1  0.23939000  0.39603000  0.75825000  1.0
  C  C27  1  0.76060000  0.60397000  0.24175000  1.0
  C  C28  1  0.19629000  0.23608000  0.81408000  1.0
  C  C29  1  0.80370000  0.76392000  0.18592000  1.0
  C  C30  1  0.19610000  0.24754000  0.91721000  1.0
  C  C31  1  0.80390000  0.75246000  0.08279000  1.0
  C  C32  1  0.23439000  0.41842000  0.96796000  1.0
  C  C33  1  0.76561000  0.58158000  0.03204000  1.0
  C  C34  1  0.23649000  0.43883000  0.07373000  1.0
  C  C35  1  0.76352000  0.56117000  0.92627000  1.0
  C  C36  1  0.27203000  0.60980000  0.11812000  1.0
  C  C37  1  0.72798000  0.39020000  0.88188000  1.0
  C  C38  1  0.30605000  0.76628000  0.05842000  1.0
  C  C39  1  0.69396000  0.23372000  0.94158000  1.0
  C  C40  1  0.30735000  0.75243000  0.95507000  1.0
  C  C41  1  0.69265000  0.24757000  0.04493000  1.0
  C  C42  1  0.27216000  0.57770000  0.90912000  1.0
  C  C43  1  0.72784000  0.42230000  0.09088000  1.0
  S  S44  1  0.39639000  0.07987000  0.30923000  1.0
  S  S45  1  0.60361000  0.92013000  0.69077000  1.0
  N  N46  1  0.27377000  0.55729000  0.80671000  1.0
  N  N47  1  0.72623000  0.44271000  0.19329000  1.0
  O  O48  1  0.24847000  0.57967000  0.58814000  1.0
  O  O49  1  0.75153000  0.42034000  0.41186000  1.0
  O  O50  1  0.44407000  0.31955000  0.60367000  1.0
  O  O51  1  0.55593000  0.68046000  0.39632000  1.0
  O  O52  1  0.05903000  0.24940000  0.58461000  1.0
  O  O53  1  0.94096000  0.75061000  0.41539000  1.0
  O  O54  1  0.26863000  0.89596000  0.28740000  1.0
  O  O55  1  0.73136000  0.10405000  0.71260000  1.0
  O  O56  1  0.43290000  0.08619000  0.42291000  1.0
  O  O57  1  0.56710000  0.91381000  0.57709000  1.0
  O  O58  1  0.29719000  0.22606000  0.27449000  1.0
  O  O59  1  0.70282000  0.77395000  0.72552000  1.0
  O  O60  1  0.59577000  0.09774000  0.26190000  1.0
  O  O61  1  0.40423000  0.90226000  0.73810000  1.0
  O  O62  1  0.15970000  0.48371000  0.36996000  1.0
  O  O63  1  0.84030000  0.51629000  0.63004000  1.0
  O  O64  1  0.14090000  0.91474000  0.58284000  1.0
  O  O65  1  0.85909000  0.08526000  0.41716000  1.0
