# generated using pymatgen
data_CuH13C15N5O
_symmetry_space_group_name_H-M   'P 1'
_cell_length_a   7.86888000
_cell_length_b   12.63560000
_cell_length_c   14.54260000
_cell_angle_alpha   109.20100000
_cell_angle_beta   105.27900000
_cell_angle_gamma   90.14920000
_symmetry_Int_Tables_number   1
_chemical_formula_structural   CuH13C15N5O
_chemical_formula_sum   'Cu4 H52 C60 N20 O4'
_cell_volume   1310.90024029
_cell_formula_units_Z   4
loop_
 _symmetry_equiv_pos_site_id
 _symmetry_equiv_pos_as_xyz
  1  'x, y, z'
loop_
 _atom_site_type_symbol
 _atom_site_label
 _atom_site_symmetry_multiplicity
 _atom_site_fract_x
 _atom_site_fract_y
 _atom_site_fract_z
 _atom_site_occupancy
  Cu  Cu0  1  0.55197000  0.17047000  0.80183000  1.0
  Cu  Cu1  1  0.74977000  0.32975000  0.19747000  1.0
  Cu  Cu2  1  0.44804000  0.82954000  0.19817000  1.0
  Cu  Cu3  1  0.25022000  0.67025000  0.80253000  1.0
  H  H4  1  0.27807000  0.08766000  0.88465000  1.0
  H  H5  1  0.39434000  0.41195000  0.11649000  1.0
  H  H6  1  0.72194000  0.91234000  0.11536000  1.0
  H  H7  1  0.60568000  0.58806000  0.88350000  1.0
  H  H8  1  0.37003000  0.96720000  0.90898000  1.0
  H  H9  1  0.46173000  0.53275000  0.09200000  1.0
  H  H10  1  0.63000000  0.03279000  0.09102000  1.0
  H  H11  1  0.53828000  0.46726000  0.90800000  1.0
  H  H12  1  0.42771000  0.89784000  0.74458000  1.0
  H  H13  1  0.68200000  0.60224000  0.25573000  1.0
  H  H14  1  0.57230000  0.10217000  0.25542000  1.0
  H  H15  1  0.31801000  0.39777000  0.74427000  1.0
  H  H16  1  0.20366000  0.92682000  0.72368000  1.0
  H  H17  1  0.47925000  0.57255000  0.27760000  1.0
  H  H18  1  0.79635000  0.07319000  0.27633000  1.0
  H  H19  1  0.52075000  0.42746000  0.72240000  1.0
  H  H20  1  0.22383000  0.94335000  0.57372000  1.0
  H  H21  1  0.64938000  0.55649000  0.42718000  1.0
  H  H22  1  0.77620000  0.05664000  0.42628000  1.0
  H  H23  1  0.35059000  0.44350000  0.57281000  1.0
  H  H24  1  0.61503000  0.30650000  0.56745000  1.0
  H  H25  1  0.04522000  0.19336000  0.43009000  1.0
  H  H26  1  0.38496000  0.69351000  0.43256000  1.0
  H  H27  1  0.95474000  0.80664000  0.56992000  1.0
  H  H28  1  0.47214000  0.23876000  0.38214000  1.0
  H  H29  1  0.08912000  0.26144000  0.61595000  1.0
  H  H30  1  0.52787000  0.76124000  0.61787000  1.0
  H  H31  1  0.91086000  0.73857000  0.38405000  1.0
  H  H32  1  0.25697000  0.11358000  0.23426000  1.0
  H  H33  1  0.02367000  0.38695000  0.76512000  1.0
  H  H34  1  0.74304000  0.88641000  0.76574000  1.0
  H  H35  1  0.97632000  0.61306000  0.23488000  1.0
  H  H36  1  0.03175000  0.94703000  0.15009000  1.0
  H  H37  1  0.88429000  0.55380000  0.85111000  1.0
  H  H38  1  0.96827000  0.05296000  0.84991000  1.0
  H  H39  1  0.11568000  0.44621000  0.14889000  1.0
  H  H40  1  0.95031000  0.84482000  0.25629000  1.0
  H  H41  1  0.69700000  0.65614000  0.74618000  1.0
  H  H42  1  0.04971000  0.15517000  0.74371000  1.0
  H  H43  1  0.30295000  0.34385000  0.25381000  1.0
  H  H44  1  0.09060000  0.90393000  0.43743000  1.0
  H  H45  1  0.65479000  0.59675000  0.56458000  1.0
  H  H46  1  0.90940000  0.09607000  0.56258000  1.0
  H  H47  1  0.34518000  0.40324000  0.43541000  1.0
  H  H48  1  0.65083000  0.04276000  0.90837000  1.0
  H  H49  1  0.74227000  0.45765000  0.09068000  1.0
  H  H50  1  0.34917000  0.95725000  0.09163000  1.0
  H  H51  1  0.25775000  0.54237000  0.90931000  1.0
  H  H52  1  0.56966000  0.14904000  0.97926000  1.0
  H  H53  1  0.59139000  0.35109000  0.02063000  1.0
  H  H54  1  0.43034000  0.85096000  0.02075000  1.0
  H  H55  1  0.40863000  0.64893000  0.97936000  1.0
  C  C56  1  0.37612000  0.02764000  0.87003000  1.0
  C  C57  1  0.50650000  0.47225000  0.13067000  1.0
  C  C58  1  0.62388000  0.97236000  0.12997000  1.0
  C  C59  1  0.49351000  0.52776000  0.86932000  1.0
  C  C60  1  0.34048000  0.96610000  0.75730000  1.0
  C  C61  1  0.58255000  0.53369000  0.24334000  1.0
  C  C62  1  0.65953000  0.03391000  0.24270000  1.0
  C  C63  1  0.41745000  0.46632000  0.75666000  1.0
  C  C64  1  0.31261000  0.02139000  0.61296000  1.0
  C  C65  1  0.69900000  0.47857000  0.38743000  1.0
  C  C66  1  0.68739000  0.97861000  0.38705000  1.0
  C  C67  1  0.30099000  0.52143000  0.61257000  1.0
  C  C68  1  0.34730000  0.08330000  0.55268000  1.0
  C  C69  1  0.79412000  0.41686000  0.44728000  1.0
  C  C70  1  0.65267000  0.91671000  0.44733000  1.0
  C  C71  1  0.20588000  0.58314000  0.55272000  1.0
  C  C72  1  0.47312000  0.18045000  0.59702000  1.0
  C  C73  1  0.87489000  0.31963000  0.40203000  1.0
  C  C74  1  0.52688000  0.81955000  0.40297000  1.0
  C  C75  1  0.12508000  0.68037000  0.59797000  1.0
  C  C76  1  0.51501000  0.23466000  0.53186000  1.0
  C  C77  1  0.98163000  0.26535000  0.46650000  1.0
  C  C78  1  0.48499000  0.76534000  0.46815000  1.0
  C  C79  1  0.01835000  0.73465000  0.53351000  1.0
  C  C80  1  0.43610000  0.19636000  0.42977000  1.0
  C  C81  1  0.00560000  0.30384000  0.56886000  1.0
  C  C82  1  0.56390000  0.80365000  0.57023000  1.0
  C  C83  1  0.99440000  0.69617000  0.43115000  1.0
  C  C84  1  0.30661000  0.10154000  0.38302000  1.0
  C  C85  1  0.92379000  0.39883000  0.61660000  1.0
  C  C86  1  0.69337000  0.89847000  0.61698000  1.0
  C  C87  1  0.07622000  0.60119000  0.38340000  1.0
  C  C88  1  0.22196000  0.06565000  0.27786000  1.0
  C  C89  1  0.94509000  0.43490000  0.72209000  1.0
  C  C90  1  0.77804000  0.93435000  0.72214000  1.0
  C  C91  1  0.05491000  0.56511000  0.27792000  1.0
  C  C92  1  0.09630000  0.97374000  0.23140000  1.0
  C  C93  1  0.86703000  0.52705000  0.76957000  1.0
  C  C94  1  0.90371000  0.02625000  0.76861000  1.0
  C  C95  1  0.13295000  0.47296000  0.23043000  1.0
  C  C96  1  0.05155000  0.91622000  0.29118000  1.0
  C  C97  1  0.76261000  0.58457000  0.71047000  1.0
  C  C98  1  0.94846000  0.08377000  0.70882000  1.0
  C  C99  1  0.23736000  0.41543000  0.28952000  1.0
  C  C100  1  0.13089000  0.95065000  0.39457000  1.0
  C  C101  1  0.73778000  0.54996000  0.60679000  1.0
  C  C102  1  0.86910000  0.04935000  0.60543000  1.0
  C  C103  1  0.26220000  0.45005000  0.39321000  1.0
  C  C104  1  0.26152000  0.04383000  0.44447000  1.0
  C  C105  1  0.81743000  0.45657000  0.55583000  1.0
  C  C106  1  0.73846000  0.95618000  0.55553000  1.0
  C  C107  1  0.18257000  0.54344000  0.44417000  1.0
  C  C108  1  0.90537000  0.31539000  0.91352000  1.0
  C  C109  1  0.99164000  0.18418000  0.08518000  1.0
  C  C110  1  0.09467000  0.68460000  0.08649000  1.0
  C  C111  1  0.00837000  0.81579000  0.91483000  1.0
  C  C112  1  0.19945000  0.32418000  0.91438000  1.0
  C  C113  1  0.28518000  0.17511000  0.08516000  1.0
  C  C114  1  0.80057000  0.67581000  0.08562000  1.0
  C  C115  1  0.71481000  0.82487000  0.91484000  1.0
  N  N116  1  0.55033000  0.09399000  0.90674000  1.0
  N  N117  1  0.64391000  0.40624000  0.09301000  1.0
  N  N118  1  0.44966000  0.90601000  0.09326000  1.0
  N  N119  1  0.35610000  0.59377000  0.90698000  1.0
  N  N120  1  0.37946000  0.04609000  0.71034000  1.0
  N  N121  1  0.66829000  0.45376000  0.28988000  1.0
  N  N122  1  0.62053000  0.95393000  0.28967000  1.0
  N  N123  1  0.33172000  0.54625000  0.71011000  1.0
  N  N124  1  0.06573000  0.36245000  0.94743000  1.0
  N  N125  1  0.11899000  0.13664000  0.05205000  1.0
  N  N126  1  0.93434000  0.63752000  0.05259000  1.0
  N  N127  1  0.88099000  0.86332000  0.94796000  1.0
  N  N128  1  0.75505000  0.28127000  0.89071000  1.0
  N  N129  1  0.86366000  0.21889000  0.10742000  1.0
  N  N130  1  0.24499000  0.71872000  0.10928000  1.0
  N  N131  1  0.13634000  0.78111000  0.89259000  1.0
  N  N132  1  0.33030000  0.29913000  0.89034000  1.0
  N  N133  1  0.43958000  0.20041000  0.10947000  1.0
  N  N134  1  0.66974000  0.70088000  0.10962000  1.0
  N  N135  1  0.56039000  0.79958000  0.89052000  1.0
  O  O136  1  0.55676000  0.22495000  0.69282000  1.0
  O  O137  1  0.86230000  0.27505000  0.30591000  1.0
  O  O138  1  0.44326000  0.77504000  0.30718000  1.0
  O  O139  1  0.13764000  0.72493000  0.69409000  1.0
