# generated using pymatgen
data_LiMnH4(C3O4)2
_symmetry_space_group_name_H-M   'P 1'
_cell_length_a   8.57391000
_cell_length_b   9.07374000
_cell_length_c   11.23600000
_cell_angle_alpha   90.00010000
_cell_angle_beta   90.00000000
_cell_angle_gamma   117.06100000
_symmetry_Int_Tables_number   1
_chemical_formula_structural   LiMnH4(C3O4)2
_chemical_formula_sum   'Li4 Mn4 H16 C24 O32'
_cell_volume   778.43430260
_cell_formula_units_Z   4
loop_
 _symmetry_equiv_pos_site_id
 _symmetry_equiv_pos_as_xyz
  1  'x, y, z'
loop_
 _atom_site_type_symbol
 _atom_site_label
 _atom_site_symmetry_multiplicity
 _atom_site_fract_x
 _atom_site_fract_y
 _atom_site_fract_z
 _atom_site_occupancy
  Li  Li0  1  0.07885000  0.97020000  0.67544000  1.0
  Li  Li1  1  0.92115000  0.52980000  0.17544000  1.0
  Li  Li2  1  0.92115000  0.02980000  0.32457000  1.0
  Li  Li3  1  0.07885000  0.47020000  0.82456000  1.0
  Mn  Mn4  1  0.44660000  0.20632000  0.60487000  1.0
  Mn  Mn5  1  0.55340000  0.29368000  0.10487000  1.0
  Mn  Mn6  1  0.55340000  0.79368000  0.39513000  1.0
  Mn  Mn7  1  0.44659000  0.70632000  0.89513000  1.0
  H  H8  1  0.71775000  0.35966000  0.74678000  1.0
  H  H9  1  0.28225000  0.14034000  0.24678000  1.0
  H  H10  1  0.28225000  0.64034000  0.25322000  1.0
  H  H11  1  0.71775000  0.85966000  0.75322000  1.0
  H  H12  1  0.60810000  0.45188000  0.77926000  1.0
  H  H13  1  0.39190000  0.04812000  0.27926000  1.0
  H  H14  1  0.39190000  0.54812000  0.22074000  1.0
  H  H15  1  0.60810000  0.95188000  0.72074000  1.0
  H  H16  1  0.77638000  0.72999000  0.60911000  1.0
  H  H17  1  0.22362000  0.77001000  0.10911000  1.0
  H  H18  1  0.22362000  0.27001000  0.39089000  1.0
  H  H19  1  0.77638000  0.22999000  0.89089000  1.0
  H  H20  1  0.85596000  0.69219000  0.72564000  1.0
  H  H21  1  0.14404000  0.80781000  0.22564000  1.0
  H  H22  1  0.14404000  0.30781000  0.27436000  1.0
  H  H23  1  0.85596000  0.19219000  0.77436000  1.0
  C  C24  1  0.11395000  0.27294000  0.60353000  1.0
  C  C25  1  0.88605000  0.22706000  0.10353000  1.0
  C  C26  1  0.88605000  0.72706000  0.39647000  1.0
  C  C27  1  0.11395000  0.77294000  0.89647000  1.0
  C  C28  1  0.04932000  0.39073000  0.55656000  1.0
  C  C29  1  0.95069000  0.10927000  0.05656000  1.0
  C  C30  1  0.95068000  0.60927000  0.44345000  1.0
  C  C31  1  0.04931000  0.89073000  0.94344000  1.0
  C  C32  1  0.88092000  0.32872000  0.50729000  1.0
  C  C33  1  0.11908000  0.17128000  0.00729000  1.0
  C  C34  1  0.11908000  0.67129000  0.49271000  1.0
  C  C35  1  0.88092000  0.82872000  0.99271000  1.0
  C  C36  1  0.75309000  0.14638000  0.51855000  1.0
  C  C37  1  0.24691000  0.35362000  0.01855000  1.0
  C  C38  1  0.24691000  0.85362000  0.48145000  1.0
  C  C39  1  0.75309000  0.64638000  0.98145000  1.0
  C  C40  1  0.16577000  0.56073000  0.55141000  1.0
  C  C41  1  0.83423000  0.93927000  0.05141000  1.0
  C  C42  1  0.83423000  0.43927000  0.44859000  1.0
  C  C43  1  0.16577000  0.06073000  0.94859000  1.0
  C  C44  1  0.33232000  0.62423000  0.62252000  1.0
  C  C45  1  0.66769000  0.87577000  0.12252000  1.0
  C  C46  1  0.66769000  0.37577000  0.37748000  1.0
  C  C47  1  0.33231000  0.12423000  0.87748000  1.0
  O  O48  1  0.01682000  0.15409000  0.67010000  1.0
  O  O49  1  0.98318000  0.34591000  0.17010000  1.0
  O  O50  1  0.98318000  0.84591000  0.32990000  1.0
  O  O51  1  0.01682000  0.65410000  0.82990000  1.0
  O  O52  1  0.26511000  0.30006000  0.56480000  1.0
  O  O53  1  0.73489000  0.19993000  0.06479000  1.0
  O  O54  1  0.73489000  0.69994000  0.43520000  1.0
  O  O55  1  0.26511000  0.80006000  0.93521000  1.0
  O  O56  1  0.77221000  0.04436000  0.45044000  1.0
  O  O57  1  0.22779000  0.45564000  0.95044000  1.0
  O  O58  1  0.22779000  0.95565000  0.54956000  1.0
  O  O59  1  0.77221000  0.54436000  0.04956000  1.0
  O  O60  1  0.63269000  0.10652000  0.59633000  1.0
  O  O61  1  0.36731000  0.39348000  0.09632000  1.0
  O  O62  1  0.36731000  0.89348000  0.40368000  1.0
  O  O63  1  0.63269000  0.60652000  0.90367000  1.0
  O  O64  1  0.30985000  0.58285000  0.73274000  1.0
  O  O65  1  0.69015000  0.91715000  0.23274000  1.0
  O  O66  1  0.69015000  0.41715000  0.26726000  1.0
  O  O67  1  0.30985000  0.08284000  0.76726000  1.0
  O  O68  1  0.47778000  0.71569000  0.57526000  1.0
  O  O69  1  0.52222000  0.78430000  0.07526000  1.0
  O  O70  1  0.52222000  0.28431000  0.42474000  1.0
  O  O71  1  0.47778000  0.21568000  0.92474000  1.0
  O  O72  1  0.64480000  0.40781000  0.71026000  1.0
  O  O73  1  0.35519000  0.09219000  0.21026000  1.0
  O  O74  1  0.35519000  0.59219000  0.28973000  1.0
  O  O75  1  0.64480000  0.90781000  0.78974000  1.0
  O  O76  1  0.84665000  0.78132000  0.68069000  1.0
  O  O77  1  0.15335000  0.71868000  0.18069000  1.0
  O  O78  1  0.15335000  0.21868000  0.31931000  1.0
  O  O79  1  0.84665000  0.28133000  0.81931000  1.0
