# generated using pymatgen
data_CdH13C11SNO7
_symmetry_space_group_name_H-M   'P 1'
_cell_length_a   5.17403000
_cell_length_b   7.72813000
_cell_length_c   17.04740000
_cell_angle_alpha   83.85900000
_cell_angle_beta   89.99900000
_cell_angle_gamma   89.99860000
_symmetry_Int_Tables_number   1
_chemical_formula_structural   CdH13C11SNO7
_chemical_formula_sum   'Cd2 H26 C22 S2 N2 O14'
_cell_volume   677.73856802
_cell_formula_units_Z   2
loop_
 _symmetry_equiv_pos_site_id
 _symmetry_equiv_pos_as_xyz
  1  'x, y, z'
loop_
 _atom_site_type_symbol
 _atom_site_label
 _atom_site_symmetry_multiplicity
 _atom_site_fract_x
 _atom_site_fract_y
 _atom_site_fract_z
 _atom_site_occupancy
  Cd  Cd0  1  0.58753000  0.07977000  0.39299000  1.0
  Cd  Cd1  1  0.08755000  0.92022000  0.60701000  1.0
  H  H2  1  0.94325000  0.57548000  0.23958000  1.0
  H  H3  1  0.44329000  0.42452000  0.76041000  1.0
  H  H4  1  0.42743000  0.42262000  0.31165000  1.0
  H  H5  1  0.92746000  0.57736000  0.68835000  1.0
  H  H6  1  0.95477000  0.54849000  0.39751000  1.0
  H  H7  1  0.45477000  0.45150000  0.60250000  1.0
  H  H8  1  0.19210000  0.40766000  0.44475000  1.0
  H  H9  1  0.69209000  0.59233000  0.55525000  1.0
  H  H10  1  0.53444000  0.62386000  0.41435000  1.0
  H  H11  1  0.03443000  0.37611000  0.58565000  1.0
  H  H12  1  0.32383000  0.75991000  0.35458000  1.0
  H  H13  1  0.82384000  0.24007000  0.64542000  1.0
  H  H14  1  0.68784000  0.34289000  0.18616000  1.0
  H  H15  1  0.18783000  0.65714000  0.81384000  1.0
  H  H16  1  0.69795000  0.07924000  0.11491000  1.0
  H  H17  1  0.19789000  0.92079000  0.88509000  1.0
  H  H18  1  0.36181000  0.03636000  0.01417000  1.0
  H  H19  1  0.86175000  0.96365000  0.98583000  1.0
  H  H20  1  0.01706000  0.25839000  0.98441000  1.0
  H  H21  1  0.51702000  0.74161000  0.01559000  1.0
  H  H22  1  0.00918000  0.52433000  0.05463000  1.0
  H  H23  1  0.50917000  0.47568000  0.94537000  1.0
  H  H24  1  0.74600000  0.84027000  0.28020000  1.0
  H  H25  1  0.24603000  0.15973000  0.71979000  1.0
  H  H26  1  0.97207000  0.95684000  0.31305000  1.0
  H  H27  1  0.47210000  0.04315000  0.68695000  1.0
  C  C28  1  0.07629000  0.26900000  0.31514000  1.0
  C  C29  1  0.57630000  0.73099000  0.68486000  1.0
  C  C30  1  0.21839000  0.44220000  0.31743000  1.0
  C  C31  1  0.71843000  0.55780000  0.68257000  1.0
  C  C32  1  0.15935000  0.51129000  0.39671000  1.0
  C  C33  1  0.65935000  0.48870000  0.60329000  1.0
  C  C34  1  0.33156000  0.66565000  0.40760000  1.0
  C  C35  1  0.83155000  0.33433000  0.59240000  1.0
  C  C36  1  0.26513000  0.76009000  0.47765000  1.0
  C  C37  1  0.76513000  0.23989000  0.52235000  1.0
  C  C38  1  0.34941000  0.44876000  0.12376000  1.0
  C  C39  1  0.84940000  0.55126000  0.87624000  1.0
  C  C40  1  0.54374000  0.32500000  0.14128000  1.0
  C  C41  1  0.04371000  0.67502000  0.85872000  1.0
  C  C42  1  0.54702000  0.17644000  0.10143000  1.0
  C  C43  1  0.04698000  0.82358000  0.89857000  1.0
  C  C44  1  0.35872000  0.15263000  0.04495000  1.0
  C  C45  1  0.85867000  0.84737000  0.95506000  1.0
  C  C46  1  0.16492000  0.27707000  0.02823000  1.0
  C  C47  1  0.66486000  0.72293000  0.97177000  1.0
  C  C48  1  0.15867000  0.42621000  0.06756000  1.0
  C  C49  1  0.65866000  0.57380000  0.93244000  1.0
  S  S50  1  0.32436000  0.63118000  0.17831000  1.0
  S  S51  1  0.82439000  0.36884000  0.82169000  1.0
  N  N52  1  0.13649000  0.57299000  0.25345000  1.0
  N  N53  1  0.63653000  0.42702000  0.74656000  1.0
  O  O54  1  0.83341000  0.27712000  0.30641000  1.0
  O  O55  1  0.33342000  0.72288000  0.69360000  1.0
  O  O56  1  0.20245000  0.12527000  0.32566000  1.0
  O  O57  1  0.70246000  0.87473000  0.67433000  1.0
  O  O58  1  0.09350000  0.70023000  0.52619000  1.0
  O  O59  1  0.59349000  0.29976000  0.47381000  1.0
  O  O60  1  0.38783000  0.90059000  0.48844000  1.0
  O  O61  1  0.88783000  0.09940000  0.51156000  1.0
  O  O62  1  0.19062000  0.76930000  0.13106000  1.0
  O  O63  1  0.69064000  0.23071000  0.86895000  1.0
  O  O64  1  0.57906000  0.66370000  0.21039000  1.0
  O  O65  1  0.07910000  0.33631000  0.78961000  1.0
  O  O66  1  0.81732000  0.88355000  0.32767000  1.0
  O  O67  1  0.31735000  0.11644000  0.67232000  1.0
