# generated using pymatgen
data_CuH6C4N3O2
_symmetry_space_group_name_H-M   'P 1'
_cell_length_a   6.69181000
_cell_length_b   7.26530000
_cell_length_c   15.74720000
_cell_angle_alpha   81.08190000
_cell_angle_beta   77.75910000
_cell_angle_gamma   62.59920000
_symmetry_Int_Tables_number   1
_chemical_formula_structural   CuH6C4N3O2
_chemical_formula_sum   'Cu4 H24 C16 N12 O8'
_cell_volume   662.79343882
_cell_formula_units_Z   4
loop_
 _symmetry_equiv_pos_site_id
 _symmetry_equiv_pos_as_xyz
  1  'x, y, z'
loop_
 _atom_site_type_symbol
 _atom_site_label
 _atom_site_symmetry_multiplicity
 _atom_site_fract_x
 _atom_site_fract_y
 _atom_site_fract_z
 _atom_site_occupancy
  Cu  Cu0  1  0.82554000  0.41132000  0.49374000  1.0
  Cu  Cu1  1  0.26957000  0.91135000  0.99366000  1.0
  Cu  Cu2  1  0.17446000  0.58867000  0.50626000  1.0
  Cu  Cu3  1  0.73045000  0.08864000  0.00634000  1.0
  H  H4  1  0.98195000  0.78496000  0.71098000  1.0
  H  H5  1  0.52217000  0.28519000  0.21109000  1.0
  H  H6  1  0.01803000  0.21506000  0.28902000  1.0
  H  H7  1  0.47782000  0.71479000  0.78892000  1.0
  H  H8  1  0.23122000  0.82310000  0.69100000  1.0
  H  H9  1  0.25497000  0.32317000  0.19100000  1.0
  H  H10  1  0.76876000  0.17691000  0.30899000  1.0
  H  H11  1  0.74506000  0.67679000  0.80901000  1.0
  H  H12  1  0.47619000  0.47147000  0.65115000  1.0
  H  H13  1  0.40148000  0.97134000  0.15126000  1.0
  H  H14  1  0.52380000  0.52855000  0.34885000  1.0
  H  H15  1  0.59854000  0.02863000  0.84875000  1.0
  H  H16  1  0.28398000  0.44508000  0.74387000  1.0
  H  H17  1  0.52732000  0.94524000  0.24400000  1.0
  H  H18  1  0.71602000  0.55494000  0.25612000  1.0
  H  H19  1  0.47269000  0.05473000  0.75600000  1.0
  H  H20  1  0.07169000  0.41081000  0.64280000  1.0
  H  H21  1  0.87467000  0.91129000  0.14297000  1.0
  H  H22  1  0.92829000  0.58920000  0.35719000  1.0
  H  H23  1  0.12535000  0.08869000  0.85704000  1.0
  H  H24  1  0.34414000  0.25588000  0.61008000  1.0
  H  H25  1  0.79009000  0.75593000  0.11029000  1.0
  H  H26  1  0.65585000  0.74413000  0.38992000  1.0
  H  H27  1  0.20992000  0.24406000  0.88972000  1.0
  C  C28  1  0.98247000  0.00612000  0.45352000  1.0
  C  C29  1  0.55774000  0.50608000  0.95351000  1.0
  C  C30  1  0.01753000  0.99387000  0.54648000  1.0
  C  C31  1  0.44227000  0.49391000  0.04651000  1.0
  C  C32  1  0.14967000  0.74145000  0.66906000  1.0
  C  C33  1  0.44003000  0.24148000  0.16914000  1.0
  C  C34  1  0.85030000  0.25857000  0.33093000  1.0
  C  C35  1  0.55998000  0.75851000  0.83086000  1.0
  C  C36  1  0.29712000  0.50632000  0.67572000  1.0
  C  C37  1  0.52108000  0.00630000  0.17580000  1.0
  C  C38  1  0.70284000  0.49371000  0.32428000  1.0
  C  C39  1  0.47893000  0.99370000  0.82421000  1.0
  C  C40  1  0.35687000  0.20435000  0.41143000  1.0
  C  C41  1  0.02669000  0.70433000  0.91143000  1.0
  C  C42  1  0.64314000  0.79565000  0.58857000  1.0
  C  C43  1  0.97334000  0.29567000  0.08857000  1.0
  N  N44  1  0.88264000  0.19777000  0.42116000  1.0
  N  N45  1  0.49827000  0.69770000  0.92109000  1.0
  N  N46  1  0.11735000  0.80224000  0.57884000  1.0
  N  N47  1  0.50174000  0.30229000  0.07891000  1.0
  N  N48  1  0.22833000  0.40766000  0.61931000  1.0
  N  N49  1  0.74484000  0.90781000  0.11942000  1.0
  N  N50  1  0.77165000  0.59235000  0.38068000  1.0
  N  N51  1  0.25518000  0.09217000  0.88058000  1.0
  N  N52  1  0.73534000  0.61548000  0.57404000  1.0
  N  N53  1  0.07559000  0.11560000  0.07393000  1.0
  N  N54  1  0.26466000  0.38452000  0.42595000  1.0
  N  N55  1  0.92439000  0.88444000  0.92607000  1.0
  O  O56  1  0.04790000  0.83824000  0.41653000  1.0
  O  O57  1  0.69683000  0.33810000  0.91656000  1.0
  O  O58  1  0.95208000  0.16178000  0.58347000  1.0
  O  O59  1  0.30318000  0.66189000  0.08346000  1.0
  O  O60  1  0.44408000  0.02623000  0.39201000  1.0
  O  O61  1  0.13704000  0.52624000  0.89193000  1.0
  O  O62  1  0.55592000  0.97377000  0.60799000  1.0
  O  O63  1  0.86296000  0.47376000  0.10807000  1.0
