# generated using pymatgen
data_AlH7C14O5F
_symmetry_space_group_name_H-M   'P 1'
_cell_length_a   6.65759000
_cell_length_b   12.98738524
_cell_length_c   17.68510000
_cell_angle_alpha   83.61187013
_cell_angle_beta   79.92510000
_cell_angle_gamma   78.83000150
_symmetry_Int_Tables_number   1
_chemical_formula_structural   AlH7C14O5F
_chemical_formula_sum   'Al2 H14 C28 O10 F2'
_cell_volume   1472.29061109
_cell_formula_units_Z   2
loop_
 _symmetry_equiv_pos_site_id
 _symmetry_equiv_pos_as_xyz
  1  'x, y, z'
loop_
 _atom_site_type_symbol
 _atom_site_label
 _atom_site_symmetry_multiplicity
 _atom_site_fract_x
 _atom_site_fract_y
 _atom_site_fract_z
 _atom_site_occupancy
  Al  Al0  1  0.50000000  0.49999000  0.50000000  1.0
  Al  Al1  1  0.00000000  0.49998000  0.50000000  1.0
  H  H2  1  0.24783000  0.59983000  0.42233000  1.0
  H  H3  1  0.75209000  0.40025000  0.57776000  1.0
  H  H4  1  0.45314000  0.49631000  0.73166000  1.0
  H  H5  1  0.38728000  0.48711000  0.87579000  1.0
  H  H6  1  0.79551000  0.56500000  0.72803000  1.0
  H  H7  1  0.20454000  0.43492000  0.27196000  1.0
  H  H8  1  0.54693000  0.50367000  0.26834000  1.0
  H  H9  1  0.61274000  0.51289000  0.12421000  1.0
  H  H10  1  0.32132000  0.81925000  0.53148000  1.0
  H  H11  1  0.96482000  0.81482000  0.43997000  1.0
  H  H12  1  0.91202000  0.01032000  0.43845000  1.0
  H  H13  1  0.67872000  0.18076000  0.46852000  1.0
  H  H14  1  0.03521000  0.18520000  0.56003000  1.0
  H  H15  1  0.08802000  0.98969000  0.56154000  1.0
  C  C16  1  0.67845000  0.68963000  0.48688000  1.0
  C  C17  1  0.83089000  0.47555000  0.36393000  1.0
  C  C18  1  0.32157000  0.31036000  0.51312000  1.0
  C  C19  1  0.16914000  0.52438000  0.63607000  1.0
  C  C20  1  0.12945000  0.52966000  0.72132000  1.0
  C  C21  1  0.29557000  0.50953000  0.76314000  1.0
  C  C22  1  0.25914000  0.50402000  0.84301000  1.0
  C  C23  1  0.05457000  0.51902000  0.88382000  1.0
  C  C24  1  0.89175000  0.54343000  0.83981000  1.0
  C  C25  1  0.92499000  0.54844000  0.76022000  1.0
  C  C26  1  0.01491000  0.50708000  0.96494000  1.0
  C  C27  1  0.98515000  0.49297000  0.03506000  1.0
  C  C28  1  0.94546000  0.48102000  0.11618000  1.0
  C  C29  1  0.10829000  0.45652000  0.16019000  1.0
  C  C30  1  0.07506000  0.45153000  0.23977000  1.0
  C  C31  1  0.87060000  0.47033000  0.27869000  1.0
  C  C32  1  0.70445000  0.49049000  0.23686000  1.0
  C  C33  1  0.74093000  0.49600000  0.15699000  1.0
  C  C34  1  0.44914000  0.86198000  0.51174000  1.0
  C  C35  1  0.81308000  0.86061000  0.45977000  1.0
  C  C36  1  0.78329000  0.96846000  0.45936000  1.0
  C  C37  1  0.58530000  0.02733000  0.48655000  1.0
  C  C38  1  0.55089000  0.13803000  0.48826000  1.0
  C  C39  1  0.18695000  0.13939000  0.54022000  1.0
  C  C40  1  0.21674000  0.03154000  0.54063000  1.0
  C  C41  1  0.41474000  0.97267000  0.51345000  1.0
  C  C42  1  0.64441000  0.80657000  0.48590000  1.0
  C  C43  1  0.35562000  0.19343000  0.51410000  1.0
  O  O44  1  0.51888000  0.64598000  0.49887000  1.0
  O  O45  1  0.98827000  0.46354000  0.39809000  1.0
  O  O46  1  0.13398000  0.35867000  0.52457000  1.0
  O  O47  1  0.35821000  0.50443000  0.60433000  1.0
  O  O48  1  0.48113000  0.35401000  0.50112000  1.0
  O  O49  1  0.01173000  0.53635000  0.60193000  1.0
  O  O50  1  0.86603000  0.64131000  0.47542000  1.0
  O  O51  1  0.64179000  0.49552000  0.39567000  1.0
  O  O52  1  0.25245000  0.54104000  0.46108000  1.0
  O  O53  1  0.74752000  0.45896000  0.53892000  1.0
  F  F54  1  0.69328000  0.56054000  0.87786000  1.0
  F  F55  1  0.30673000  0.43929000  0.12212000  1.0
