# generated using pymatgen
data_CuH12C12(BrN)2
_symmetry_space_group_name_H-M   'P 1'
_cell_length_a   7.32635000
_cell_length_b   9.82319000
_cell_length_c   10.17372066
_cell_angle_alpha   61.13587536
_cell_angle_beta   76.00447250
_cell_angle_gamma   89.99900000
_symmetry_Int_Tables_number   1
_chemical_formula_structural   CuH12C12(BrN)2
_chemical_formula_sum   'Cu2 H24 C24 Br4 N4'
_cell_volume   616.28913549
_cell_formula_units_Z   2
loop_
 _symmetry_equiv_pos_site_id
 _symmetry_equiv_pos_as_xyz
  1  'x, y, z'
loop_
 _atom_site_type_symbol
 _atom_site_label
 _atom_site_symmetry_multiplicity
 _atom_site_fract_x
 _atom_site_fract_y
 _atom_site_fract_z
 _atom_site_occupancy
  Cu  Cu0  1  0.75010000  0.92846000  0.00003000  1.0
  Cu  Cu1  1  0.24989000  0.07153000  0.99998000  1.0
  H  H2  1  0.84532000  0.48229000  0.88744000  1.0
  H  H3  1  0.34524000  0.63025000  0.88750000  1.0
  H  H4  1  0.15471000  0.51770000  0.11256000  1.0
  H  H5  1  0.65476000  0.36976000  0.11250000  1.0
  H  H6  1  0.19768000  0.91551000  0.52974000  1.0
  H  H7  1  0.69752000  0.55471000  0.52975000  1.0
  H  H8  1  0.80231000  0.08448000  0.47026000  1.0
  H  H9  1  0.30247000  0.44530000  0.47024000  1.0
  H  H10  1  0.05846000  0.03685000  0.69349000  1.0
  H  H11  1  0.55837000  0.26962000  0.69354000  1.0
  H  H12  1  0.94153000  0.96316000  0.30650000  1.0
  H  H13  1  0.44163000  0.73038000  0.30647000  1.0
  H  H14  1  0.25435000  0.63846000  0.55366000  1.0
  H  H15  1  0.75430000  0.80778000  0.55375000  1.0
  H  H16  1  0.74565000  0.36155000  0.44632000  1.0
  H  H17  1  0.24569000  0.19222000  0.44626000  1.0
  H  H18  1  0.04620000  0.66730000  0.49230000  1.0
  H  H19  1  0.54615000  0.84038000  0.49233000  1.0
  H  H20  1  0.95380000  0.33273000  0.50768000  1.0
  H  H21  1  0.45384000  0.15961000  0.50768000  1.0
  H  H22  1  0.05419000  0.48810000  0.66179000  1.0
  H  H23  1  0.55411000  0.85005000  0.66187000  1.0
  H  H24  1  0.94581000  0.51191000  0.33818000  1.0
  H  H25  1  0.44588000  0.14995000  0.33814000  1.0
  C  C26  1  0.82233000  0.68232000  0.92397000  1.0
  C  C27  1  0.32227000  0.39368000  0.92403000  1.0
  C  C28  1  0.17767000  0.31768000  0.07603000  1.0
  C  C29  1  0.67773000  0.60633000  0.07597000  1.0
  C  C30  1  0.89455000  0.60583000  0.84097000  1.0
  C  C31  1  0.39448000  0.55317000  0.84104000  1.0
  C  C32  1  0.10546000  0.39416000  0.15903000  1.0
  C  C33  1  0.60551000  0.44684000  0.15896000  1.0
  C  C34  1  0.02869000  0.68878000  0.69489000  1.0
  C  C35  1  0.52858000  0.61629000  0.69494000  1.0
  C  C36  1  0.97132000  0.31122000  0.30511000  1.0
  C  C37  1  0.47142000  0.38372000  0.30506000  1.0
  C  C38  1  0.09098000  0.84612000  0.64125000  1.0
  C  C39  1  0.59089000  0.51260000  0.64129000  1.0
  C  C40  1  0.90902000  0.15387000  0.35876000  1.0
  C  C41  1  0.40910000  0.48740000  0.35871000  1.0
  C  C42  1  0.01496000  0.91485000  0.73009000  1.0
  C  C43  1  0.51489000  0.35502000  0.73012000  1.0
  C  C44  1  0.98504000  0.08515000  0.26990000  1.0
  C  C45  1  0.48511000  0.64498000  0.26988000  1.0
  C  C46  1  0.09896000  0.61521000  0.59685000  1.0
  C  C47  1  0.59889000  0.78789000  0.59690000  1.0
  C  C48  1  0.90105000  0.38479000  0.40315000  1.0
  C  C49  1  0.40110000  0.21210000  0.40311000  1.0
  Br  Br50  1  0.92910000  0.18927000  0.83167000  1.0
  Br  Br51  1  0.42898000  0.97915000  0.83156000  1.0
  Br  Br52  1  0.07091000  0.81074000  0.16833000  1.0
  Br  Br53  1  0.57105000  0.02086000  0.16845000  1.0
  N  N54  1  0.88132000  0.83625000  0.86675000  1.0
  N  N55  1  0.38125000  0.29699000  0.86678000  1.0
  N  N56  1  0.11868000  0.16375000  0.13325000  1.0
  N  N57  1  0.61875000  0.70301000  0.13323000  1.0
