# generated using pymatgen
data_Zn4H55C72N21O2
_symmetry_space_group_name_H-M   'P 1'
_cell_length_a   19.83400000
_cell_length_b   20.29130000
_cell_length_c   21.08659389
_cell_angle_alpha   105.81506943
_cell_angle_beta   107.24066536
_cell_angle_gamma   112.03100000
_symmetry_Int_Tables_number   1
_chemical_formula_structural   Zn4H55C72N21O2
_chemical_formula_sum   'Zn4 H55 C72 N21 O2'
_cell_volume   6770.98344798
_cell_formula_units_Z   1
loop_
 _symmetry_equiv_pos_site_id
 _symmetry_equiv_pos_as_xyz
  1  'x, y, z'
loop_
 _atom_site_type_symbol
 _atom_site_label
 _atom_site_symmetry_multiplicity
 _atom_site_fract_x
 _atom_site_fract_y
 _atom_site_fract_z
 _atom_site_occupancy
  Zn  Zn0  1  0.89870000  0.89726000  0.48980000  1.0
  Zn  Zn1  1  0.09645000  0.12185000  0.49274000  1.0
  Zn  Zn2  1  0.09295000  0.02419000  0.61451000  1.0
  Zn  Zn3  1  0.89434000  0.99843000  0.38442000  1.0
  H  H4  1  0.86094000  0.81296000  0.61031000  1.0
  H  H5  1  0.07453000  0.25584000  0.58955000  1.0
  H  H6  1  0.27111000  0.13540000  0.74922000  1.0
  H  H7  1  0.80280000  0.08563000  0.44640000  1.0
  H  H8  1  0.22919000  0.30303000  0.67734000  1.0
  H  H9  1  0.84648000  0.98464000  0.60009000  1.0
  H  H10  1  0.87009000  0.16398000  0.37865000  1.0
  H  H11  1  0.07355000  0.04390000  0.75529000  1.0
  H  H12  1  0.80301000  0.72091000  0.35678000  1.0
  H  H13  1  0.29568000  0.18509000  0.53821000  1.0
  H  H14  1  0.11551000  0.87650000  0.64597000  1.0
  H  H15  1  0.89998000  0.89216000  0.24390000  1.0
  H  H16  1  0.15870000  0.05394000  0.37553000  1.0
  H  H17  1  0.91191000  0.74717000  0.42879000  1.0
  H  H18  1  0.76401000  0.84138000  0.22147000  1.0
  H  H19  1  0.20609000  0.96863000  0.56441000  1.0
  H  H20  1  0.56506000  0.20857000  0.62248000  1.0
  H  H21  1  0.68630000  0.20840000  0.63486000  1.0
  H  H22  1  0.60644000  0.00698000  0.62893000  1.0
  H  H23  1  0.66800000  0.10876000  0.68854000  1.0
  H  H24  1  0.55388000  0.11913000  0.68716000  1.0
  H  H25  1  0.49420000  0.01567000  0.63580000  1.0
  H  H26  1  0.56362000  0.03019000  0.45360000  1.0
  H  H27  1  0.55198000  0.96000000  0.48981000  1.0
  H  H28  1  0.44030000  0.01800000  0.45026000  1.0
  H  H29  1  0.65090000  0.17711000  0.53916000  1.0
  H  H30  1  0.52530000  0.16689000  0.52554000  1.0
  H  H31  1  0.43468000  0.95641000  0.49591000  1.0
  H  H32  1  0.01565000  0.61414000  0.66800000  1.0
  H  H33  1  0.00629000  0.49572000  0.66627000  1.0
  H  H34  1  0.82243000  0.38695000  0.47812000  1.0
  H  H35  1  0.86881000  0.54397000  0.58304000  1.0
  H  H36  1  0.83353000  0.50817000  0.48604000  1.0
  H  H37  1  0.02799000  0.44952000  0.49191000  1.0
  H  H38  1  0.92372000  0.40148000  0.43093000  1.0
  H  H39  1  0.04163000  0.56994000  0.49439000  1.0
  H  H40  1  0.07593000  0.50456000  0.62862000  1.0
  H  H41  1  0.08878000  0.62563000  0.63397000  1.0
  H  H42  1  0.93712000  0.52236000  0.43399000  1.0
  H  H43  1  0.40395000  0.22436000  0.81784000  1.0
  H  H44  1  0.54375000  0.32874000  0.91073000  1.0
  H  H45  1  0.65308000  0.47917000  0.12314000  1.0
  H  H46  1  0.71058000  0.59714000  0.24057000  1.0
  H  H47  1  0.37297000  0.38877000  0.73501000  1.0
  H  H48  1  0.71388000  0.62786000  0.01491000  1.0
  H  H49  1  0.51485000  0.49218000  0.82701000  1.0
  H  H50  1  0.77526000  0.74646000  0.13225000  1.0
  H  H51  1  0.92141000  0.83111000  0.15095000  1.0
  H  H52  1  0.92894000  0.80327000  0.03211000  1.0
  H  H53  1  0.87446000  0.76791000  0.82806000  1.0
  H  H54  1  0.85929000  0.79596000  0.71849000  1.0
  H  H55  1  0.17410000  0.01284000  0.26486000  1.0
  H  H56  1  0.11555000  0.96839000  0.95218000  1.0
  H  H57  1  0.18100000  0.98186000  0.14521000  1.0
  H  H58  1  0.10179000  0.99729000  0.84349000  1.0
  C  C59  1  0.91205000  0.87252000  0.63618000  1.0
  C  C60  1  0.02746000  0.22404000  0.53298000  1.0
  C  C61  1  0.24756000  0.16792000  0.72529000  1.0
  C  C62  1  0.82098000  0.05615000  0.47821000  1.0
  C  C63  1  0.22511000  0.25224000  0.68760000  1.0
  C  C64  1  0.84296000  0.00438000  0.55696000  1.0
  C  C65  1  0.92296000  0.17577000  0.42470000  1.0
  C  C66  1  0.02085000  0.98990000  0.71017000  1.0
  C  C67  1  0.97041000  0.91946000  0.71062000  1.0
  C  C68  1  0.96648000  0.23830000  0.49661000  1.0
  C  C69  1  0.28898000  0.24381000  0.73027000  1.0
  C  C70  1  0.80437000  0.04608000  0.53639000  1.0
  C  C71  1  0.80071000  0.76274000  0.33449000  1.0
  C  C72  1  0.26146000  0.13239000  0.54334000  1.0
  C  C73  1  0.06755000  0.85738000  0.59237000  1.0
  C  C74  1  0.96092000  0.93766000  0.28526000  1.0
  C  C75  1  0.09281000  0.02077000  0.35183000  1.0
  C  C76  1  0.96299000  0.79145000  0.48150000  1.0
  C  C77  1  0.78115000  0.82419000  0.26561000  1.0
  C  C78  1  0.21531000  0.02141000  0.55645000  1.0
  C  C79  1  0.77248000  0.75064000  0.26064000  1.0
  C  C80  1  0.28285000  0.07607000  0.55371000  1.0
  C  C81  1  0.00687000  0.78002000  0.53932000  1.0
  C  C82  1  0.03539000  0.95751000  0.28211000  1.0
  C  C83  1  0.63543000  0.16251000  0.58127000  1.0
  C  C84  1  0.61371000  0.06539000  0.63617000  1.0
  C  C85  1  0.53758000  0.06966000  0.63689000  1.0
  C  C86  1  0.35600000  0.07657000  0.56067000  1.0
  C  C87  1  0.62862000  0.08166000  0.57260000  1.0
  C  C88  1  0.55451000  0.16009000  0.57466000  1.0
  C  C89  1  0.49469000  0.08064000  0.56928000  1.0
  C  C90  1  0.47484000  0.01293000  0.49841000  1.0
  C  C91  1  0.55403000  0.01674000  0.49835000  1.0
  C  C92  1  0.42003000  0.07939000  0.56627000  1.0
  C  C93  1  0.70009000  0.07834000  0.57078000  1.0
  C  C94  1  0.75204000  0.06591000  0.55981000  1.0
  C  C95  1  0.01918000  0.50545000  0.62148000  1.0
  C  C96  1  0.86913000  0.43588000  0.53175000  1.0
  C  C97  1  0.87906000  0.51651000  0.53690000  1.0
  C  C98  1  0.99131000  0.70841000  0.54431000  1.0
  C  C99  1  0.95120000  0.43636000  0.54649000  1.0
  C  C100  1  0.02718000  0.58501000  0.62355000  1.0
  C  C101  1  0.96555000  0.57186000  0.54952000  1.0
  C  C102  1  0.98060000  0.53053000  0.48602000  1.0
  C  C103  1  0.97155000  0.45128000  0.48399000  1.0
  C  C104  1  0.97569000  0.64663000  0.54950000  1.0
  C  C105  1  0.94679000  0.36113000  0.53901000  1.0
  C  C106  1  0.95518000  0.30332000  0.52207000  1.0
  C  C107  1  0.74416000  0.68068000  0.19450000  1.0
  C  C108  1  0.74725000  0.68782000  0.13042000  1.0
  C  C109  1  0.71429000  0.62214000  0.06490000  1.0
  C  C110  1  0.67740000  0.54617000  0.06165000  1.0
  C  C111  1  0.68104000  0.53854000  0.12666000  1.0
  C  C112  1  0.71304000  0.60471000  0.19187000  1.0
  C  C113  1  0.50601000  0.34094000  0.87159000  1.0
  C  C114  1  0.42754000  0.28332000  0.82005000  1.0
  C  C115  1  0.53608000  0.41827000  0.87701000  1.0
  C  C116  1  0.37543000  0.30025000  0.77312000  1.0
  C  C117  1  0.41001000  0.37485000  0.77295000  1.0
  C  C118  1  0.48936000  0.43273000  0.82363000  1.0
  C  C119  1  0.97898000  0.89948000  0.77284000  1.0
  C  C120  1  0.05162000  0.94662000  0.83954000  1.0
  C  C121  1  0.06030000  0.93064000  0.90031000  1.0
  C  C122  1  0.99574000  0.86617000  0.89676000  1.0
  C  C123  1  0.92412000  0.81736000  0.83005000  1.0
  C  C124  1  0.91608000  0.83355000  0.76915000  1.0
  C  C125  1  0.98231000  0.84834000  0.08361000  1.0
  C  C126  1  0.97860000  0.86510000  0.15025000  1.0
  C  C127  1  0.05479000  0.89342000  0.08117000  1.0
  C  C128  1  0.04594000  0.92766000  0.21655000  1.0
  C  C129  1  0.12028000  0.96602000  0.21436000  1.0
  C  C130  1  0.12473000  0.94901000  0.14776000  1.0
  N  N131  1  0.92769000  0.91184000  0.59572000  1.0
  N  N132  1  0.02049000  0.15908000  0.48544000  1.0
  N  N133  1  0.16702000  0.13560000  0.68343000  1.0
  N  N134  1  0.86478000  0.02190000  0.46520000  1.0
  N  N135  1  0.15236000  0.18744000  0.65878000  1.0
  N  N136  1  0.87838000  0.98970000  0.51313000  1.0
  N  N137  1  0.95513000  0.12828000  0.41793000  1.0
  N  N138  1  0.99518000  0.98490000  0.64125000  1.0
  N  N139  1  0.82642000  0.83782000  0.37959000  1.0
  N  N140  1  0.18801000  0.11258000  0.54172000  1.0
  N  N141  1  0.05887000  0.90920000  0.56743000  1.0
  N  N142  1  0.97329000  0.98631000  0.35061000  1.0
  N  N143  1  0.05456000  0.03787000  0.39153000  1.0
  N  N144  1  0.99349000  0.86944000  0.49906000  1.0
  N  N145  1  0.81369000  0.87618000  0.33628000  1.0
  N  N146  1  0.15858000  0.04381000  0.54898000  1.0
  N  N147  1  0.62604000  0.47551000  0.99629000  1.0
  N  N148  1  0.60270000  0.48612000  0.93856000  1.0
  N  N149  1  0.99407000  0.85213000  0.95809000  1.0
  N  N150  1  0.06098000  0.89479000  0.01673000  1.0
  N  N151  1  0.83898000  0.41358000  0.58553000  1.0
  O  O152  1  0.86539000  0.46632000  0.64741000  1.0
  O  O153  1  0.79140000  0.34286000  0.56396000  1.0
