# generated using pymatgen
data_ZnH24C28(NO4)2
_symmetry_space_group_name_H-M   'P 1'
_cell_length_a   9.40877000
_cell_length_b   10.86050000
_cell_length_c   23.81430000
_cell_angle_alpha   89.68550000
_cell_angle_beta   89.52690000
_cell_angle_gamma   87.49720000
_symmetry_Int_Tables_number   1
_chemical_formula_structural   ZnH24C28(NO4)2
_chemical_formula_sum   'Zn2 H48 C56 N4 O16'
_cell_volume   2431.00296417
_cell_formula_units_Z   2
loop_
 _symmetry_equiv_pos_site_id
 _symmetry_equiv_pos_as_xyz
  1  'x, y, z'
loop_
 _atom_site_type_symbol
 _atom_site_label
 _atom_site_symmetry_multiplicity
 _atom_site_fract_x
 _atom_site_fract_y
 _atom_site_fract_z
 _atom_site_occupancy
  Zn  Zn0  1  0.64513000  0.49386000  0.49937000  1.0
  Zn  Zn1  1  0.35683000  0.50596000  0.50046000  1.0
  H  H2  1  0.43552000  0.82916000  0.94549000  1.0
  H  H3  1  0.56570000  0.21496000  0.94829000  1.0
  H  H4  1  0.73046000  0.51541000  0.21327000  1.0
  H  H5  1  0.27008000  0.53059000  0.78671000  1.0
  H  H6  1  0.73028000  0.50541000  0.31887000  1.0
  H  H7  1  0.27058000  0.52411000  0.68113000  1.0
  H  H8  1  0.27455000  0.52177000  0.32080000  1.0
  H  H9  1  0.72622000  0.49745000  0.67958000  1.0
  H  H10  1  0.27310000  0.53187000  0.21519000  1.0
  H  H11  1  0.72739000  0.50473000  0.78516000  1.0
  H  H12  1  0.73069000  0.07281000  0.46523000  1.0
  H  H13  1  0.56541000  0.21635000  0.05484000  1.0
  H  H14  1  0.27153000  0.92688000  0.53484000  1.0
  H  H15  1  0.51519000  0.04577000  0.68478000  1.0
  H  H16  1  0.50355000  0.91984000  0.63784000  1.0
  H  H17  1  0.25243000  0.07697000  0.68541000  1.0
  H  H18  1  0.23668000  0.95454000  0.63754000  1.0
  H  H19  1  0.34466000  0.80410000  0.70790000  1.0
  H  H20  1  0.19309000  0.88340000  0.73722000  1.0
  H  H21  1  0.36619000  0.92523000  0.75614000  1.0
  H  H22  1  0.67813000  0.03115000  0.35995000  1.0
  H  H23  1  0.49155000  0.06076000  0.35067000  1.0
  H  H24  1  0.88978000  0.60426000  0.57963000  1.0
  H  H25  1  0.66373000  0.84110000  0.29999000  1.0
  H  H26  1  0.48138000  0.87638000  0.28903000  1.0
  H  H27  1  0.54451000  0.08093000  0.24309000  1.0
  H  H28  1  0.62139000  0.95140000  0.20733000  1.0
  H  H29  1  0.72727000  0.03970000  0.25218000  1.0
  H  H30  1  0.80589000  0.95365000  0.64142000  1.0
  H  H31  1  0.72329000  0.07778000  0.60315000  1.0
  H  H32  1  0.00021000  0.93369000  0.57153000  1.0
  H  H33  1  0.91264000  0.04263000  0.52697000  1.0
  H  H34  1  0.93403000  0.20803000  0.59924000  1.0
  H  H35  1  0.11241000  0.39630000  0.41995000  1.0
  H  H36  1  0.10607000  0.14174000  0.58304000  1.0
  H  H37  1  0.01805000  0.10094000  0.64597000  1.0
  H  H38  1  0.08650000  0.12232000  0.41034000  1.0
  H  H39  1  0.11589000  0.04601000  0.47587000  1.0
  H  H40  1  0.18774000  0.93504000  0.36019000  1.0
  H  H41  1  0.21085000  0.85764000  0.42500000  1.0
  H  H42  1  0.94387000  0.87827000  0.44350000  1.0
  H  H43  1  0.98003000  0.80203000  0.37895000  1.0
  H  H44  1  0.92114000  0.95892000  0.37919000  1.0
  H  H45  1  0.08392000  0.70809000  0.49789000  1.0
  H  H46  1  0.91815000  0.29204000  0.50159000  1.0
  H  H47  1  0.89488000  0.59806000  0.41770000  1.0
  H  H48  1  0.10679000  0.40200000  0.58200000  1.0
  H  H49  1  0.43774000  0.83099000  0.05191000  1.0
  C  C50  1  0.49784000  0.73935000  0.49972000  1.0
  C  C51  1  0.62722000  0.50517000  0.70359000  1.0
  C  C52  1  0.37275000  0.52638000  0.23827000  1.0
  C  C53  1  0.62783000  0.50932000  0.76200000  1.0
  C  C54  1  0.50178000  0.52403000  0.20903000  1.0
  C  C55  1  0.49879000  0.51820000  0.79119000  1.0
  C  C56  1  0.60775000  0.95419000  0.53412000  1.0
  C  C57  1  0.39414000  0.04569000  0.46608000  1.0
  C  C58  1  0.47621000  0.04322000  0.55308000  1.0
  C  C59  1  0.52568000  0.95668000  0.44733000  1.0
  C  C60  1  0.50263000  0.12456000  0.49931000  1.0
  C  C61  1  0.50414000  0.26077000  0.50071000  1.0
  C  C62  1  0.50026000  0.87566000  0.50137000  1.0
  C  C63  1  0.63044000  0.03813000  0.48081000  1.0
  C  C64  1  0.37160000  0.96233000  0.51945000  1.0
  C  C65  1  0.50338000  0.50359000  0.38856000  1.0
  C  C66  1  0.49796000  0.50559000  0.61144000  1.0
  C  C67  1  0.03937000  0.61694000  0.49873000  1.0
  C  C68  1  0.96262000  0.38324000  0.50087000  1.0
  C  C69  1  0.94659000  0.55852000  0.54484000  1.0
  C  C70  1  0.05548000  0.44169000  0.45481000  1.0
  C  C71  1  0.94953000  0.55517000  0.45356000  1.0
  C  C72  1  0.63114000  0.51750000  0.23720000  1.0
  C  C73  1  0.05243000  0.44496000  0.54609000  1.0
  C  C74  1  0.52394000  0.40601000  0.87940000  1.0
  C  C75  1  0.47952000  0.63944000  0.12103000  1.0
  C  C76  1  0.47502000  0.63541000  0.87816000  1.0
  C  C77  1  0.52402000  0.40953000  0.12191000  1.0
  C  C78  1  0.47628000  0.63455000  0.94050000  1.0
  C  C79  1  0.52451000  0.41089000  0.05965000  1.0
  C  C80  1  0.50051000  0.52235000  0.97020000  1.0
  C  C81  1  0.50104000  0.52330000  0.03004000  1.0
  C  C82  1  0.52415000  0.40920000  0.94164000  1.0
  C  C83  1  0.36953000  0.52353000  0.76291000  1.0
  C  C84  1  0.47820000  0.63651000  0.05870000  1.0
  C  C85  1  0.45381000  0.74440000  0.96959000  1.0
  C  C86  1  0.54751000  0.30105000  0.03065000  1.0
  C  C87  1  0.45509000  0.74544000  0.02860000  1.0
  C  C88  1  0.54752000  0.30026000  0.97170000  1.0
  C  C89  1  0.45111000  0.00773000  0.65105000  1.0
  C  C90  1  0.30109000  0.98760000  0.67228000  1.0
  C  C91  1  0.30134000  0.89525000  0.72097000  1.0
  C  C92  1  0.57649000  0.98745000  0.35143000  1.0
  C  C93  1  0.58416000  0.91813000  0.29629000  1.0
  C  C94  1  0.63109000  0.51175000  0.29558000  1.0
  C  C95  1  0.62136000  0.00218000  0.24709000  1.0
  C  C96  1  0.78877000  0.99162000  0.59891000  1.0
  C  C97  1  0.93078000  0.01811000  0.57126000  1.0
  C  C98  1  0.00160000  0.12293000  0.60134000  1.0
  C  C99  1  0.15404000  0.05199000  0.43204000  1.0
  C  C100  1  0.14385000  0.92795000  0.40301000  1.0
  C  C101  1  0.98936000  0.88960000  0.40117000  1.0
  C  C102  1  0.36972000  0.51980000  0.70449000  1.0
  C  C103  1  0.50248000  0.51249000  0.32561000  1.0
  C  C104  1  0.49835000  0.51028000  0.67449000  1.0
  C  C105  1  0.37347000  0.52068000  0.29668000  1.0
  N  N106  1  0.49921000  0.52020000  0.85184000  1.0
  N  N107  1  0.50162000  0.52481000  0.14836000  1.0
  N  N108  1  0.85881000  0.49642000  0.49967000  1.0
  N  N109  1  0.14321000  0.50368000  0.49999000  1.0
  O  O110  1  0.61768000  0.68071000  0.49906000  1.0
  O  O111  1  0.46268000  0.73514000  0.14802000  1.0
  O  O112  1  0.45473000  0.72995000  0.85026000  1.0
  O  O113  1  0.54164000  0.31451000  0.14968000  1.0
  O  O114  1  0.45422000  0.09647000  0.60515000  1.0
  O  O115  1  0.54784000  0.90098000  0.39609000  1.0
  O  O116  1  0.71056000  0.90104000  0.56898000  1.0
  O  O117  1  0.29324000  0.10090000  0.43107000  1.0
  O  O118  1  0.38435000  0.31901000  0.50514000  1.0
  O  O119  1  0.37586000  0.69259000  0.49844000  1.0
  O  O120  1  0.62567000  0.30836000  0.49783000  1.0
  O  O121  1  0.62434000  0.49788000  0.41212000  1.0
  O  O122  1  0.37726000  0.51429000  0.58769000  1.0
  O  O123  1  0.38309000  0.50193000  0.41345000  1.0
  O  O124  1  0.61833000  0.49389000  0.58675000  1.0
  O  O125  1  0.54342000  0.31037000  0.85259000  1.0
