# generated using pymatgen
data_LuH21(C9O2)3
_symmetry_space_group_name_H-M   'P 1'
_cell_length_a   7.76595000
_cell_length_b   11.35390000
_cell_length_c   13.02100000
_cell_angle_alpha   94.44440000
_cell_angle_beta   90.00000000
_cell_angle_gamma   90.00000000
_symmetry_Int_Tables_number   1
_chemical_formula_structural   LuH21(C9O2)3
_chemical_formula_sum   'Lu2 H42 C54 O12'
_cell_volume   1144.65893715
_cell_formula_units_Z   2
loop_
 _symmetry_equiv_pos_site_id
 _symmetry_equiv_pos_as_xyz
  1  'x, y, z'
loop_
 _atom_site_type_symbol
 _atom_site_label
 _atom_site_symmetry_multiplicity
 _atom_site_fract_x
 _atom_site_fract_y
 _atom_site_fract_z
 _atom_site_occupancy
  Lu  Lu0  1  0.49790000  0.53999000  0.47497000  1.0
  Lu  Lu1  1  0.99790000  0.46001000  0.52503000  1.0
  H  H2  1  0.67711000  0.12997000  0.60886000  1.0
  H  H3  1  0.17708000  0.87002000  0.39116000  1.0
  H  H4  1  0.33355000  0.26584000  0.60255000  1.0
  H  H5  1  0.83351000  0.73417000  0.39746000  1.0
  H  H6  1  0.54301000  0.96125000  0.59609000  1.0
  H  H7  1  0.04299000  0.03876000  0.40392000  1.0
  H  H8  1  0.38077000  0.78039000  0.62508000  1.0
  H  H9  1  0.88076000  0.21961000  0.37492000  1.0
  H  H10  1  0.06823000  0.79039000  0.66429000  1.0
  H  H11  1  0.56822000  0.20962000  0.33570000  1.0
  H  H12  1  0.91490000  0.98400000  0.67052000  1.0
  H  H13  1  0.41489000  0.01600000  0.32946000  1.0
  H  H14  1  0.07777000  0.16716000  0.63862000  1.0
  H  H15  1  0.57776000  0.83285000  0.36139000  1.0
  H  H16  1  0.40795000  0.62637000  0.75648000  1.0
  H  H17  1  0.90794000  0.37362000  0.24351000  1.0
  H  H18  1  0.17411000  0.45177000  0.86171000  1.0
  H  H19  1  0.67410000  0.54823000  0.13829000  1.0
  H  H20  1  0.44597000  0.73296000  0.90378000  1.0
  H  H21  1  0.94596000  0.26704000  0.09621000  1.0
  H  H22  1  0.50738000  0.82806000  0.07666000  1.0
  H  H23  1  0.00738000  0.17194000  0.92334000  1.0
  H  H24  1  0.40585000  0.73526000  0.23369000  1.0
  H  H25  1  0.90585000  0.26475000  0.76631000  1.0
  H  H26  1  0.24038000  0.54815000  0.21602000  1.0
  H  H27  1  0.74037000  0.45186000  0.78398000  1.0
  H  H28  1  0.17803000  0.45170000  0.04158000  1.0
  H  H29  1  0.67802000  0.54830000  0.95842000  1.0
  H  H30  1  0.13789000  0.18442000  0.26368000  1.0
  H  H31  1  0.63790000  0.81559000  0.73631000  1.0
  H  H32  1  0.43810000  0.33214000  0.18691000  1.0
  H  H33  1  0.93811000  0.66786000  0.81309000  1.0
  H  H34  1  0.19304000  0.04242000  0.14057000  1.0
  H  H35  1  0.69304000  0.95758000  0.85943000  1.0
  H  H36  1  0.18207000  0.92736000  0.97231000  1.0
  H  H37  1  0.68205000  0.07264000  0.02769000  1.0
  H  H38  1  0.32113000  0.00395000  0.81858000  1.0
  H  H39  1  0.82112000  0.99604000  0.18142000  1.0
  H  H40  1  0.47428000  0.19792000  0.83507000  1.0
  H  H41  1  0.97429000  0.80207000  0.16492000  1.0
  H  H42  1  0.48569000  0.31398000  0.00429000  1.0
  H  H43  1  0.98569000  0.68602000  0.99570000  1.0
  C  C44  1  0.66283000  0.31812000  0.58932000  1.0
  C  C45  1  0.16281000  0.68187000  0.41069000  1.0
  C  C46  1  0.58618000  0.20243000  0.60390000  1.0
  C  C47  1  0.08613000  0.79757000  0.39611000  1.0
  C  C48  1  0.41380000  0.18750000  0.60729000  1.0
  C  C49  1  0.91380000  0.81250000  0.39273000  1.0
  C  C50  1  0.32250000  0.07774000  0.61894000  1.0
  C  C51  1  0.82248000  0.92226000  0.38108000  1.0
  C  C52  1  0.40613000  0.96725000  0.61448000  1.0
  C  C53  1  0.90613000  0.03275000  0.38553000  1.0
  C  C54  1  0.31484000  0.86522000  0.63098000  1.0
  C  C55  1  0.81483000  0.13479000  0.36902000  1.0
  C  C56  1  0.13827000  0.87112000  0.65209000  1.0
  C  C57  1  0.63827000  0.12888000  0.34791000  1.0
  C  C58  1  0.05290000  0.97962000  0.65497000  1.0
  C  C59  1  0.55288000  0.02038000  0.34503000  1.0
  C  C60  1  0.14369000  0.08216000  0.63763000  1.0
  C  C61  1  0.64367000  0.91785000  0.36238000  1.0
  C  C62  1  0.24071000  0.49835000  0.67324000  1.0
  C  C63  1  0.74071000  0.50164000  0.32676000  1.0
  C  C64  1  0.31724000  0.55501000  0.76686000  1.0
  C  C65  1  0.81724000  0.44499000  0.23314000  1.0
  C  C66  1  0.26454000  0.52567000  0.86062000  1.0
  C  C67  1  0.76452000  0.47433000  0.13938000  1.0
  C  C68  1  0.30907000  0.58416000  0.96038000  1.0
  C  C69  1  0.80907000  0.41585000  0.03963000  1.0
  C  C70  1  0.40175000  0.69122000  0.97173000  1.0
  C  C71  1  0.90175000  0.30879000  0.02826000  1.0
  C  C72  1  0.43570000  0.74533000  0.06917000  1.0
  C  C73  1  0.93570000  0.25467000  0.93083000  1.0
  C  C74  1  0.37753000  0.69418000  0.15725000  1.0
  C  C75  1  0.87752000  0.30583000  0.84275000  1.0
  C  C76  1  0.28500000  0.58829000  0.14745000  1.0
  C  C77  1  0.78500000  0.41171000  0.85255000  1.0
  C  C78  1  0.25089000  0.53403000  0.04993000  1.0
  C  C79  1  0.75089000  0.46597000  0.95007000  1.0
  C  C80  1  0.25546000  0.32963000  0.35843000  1.0
  C  C81  1  0.75547000  0.67037000  0.64157000  1.0
  C  C82  1  0.24070000  0.24994000  0.26411000  1.0
  C  C83  1  0.74071000  0.75007000  0.73589000  1.0
  C  C84  1  0.34343000  0.26049000  0.18142000  1.0
  C  C85  1  0.84343000  0.73952000  0.81858000  1.0
  C  C86  1  0.33794000  0.18790000  0.08430000  1.0
  C  C87  1  0.83794000  0.81210000  0.91569000  1.0
  C  C88  1  0.25353000  0.07768000  0.07383000  1.0
  C  C89  1  0.75352000  0.92232000  0.92617000  1.0
  C  C90  1  0.24810000  0.01231000  0.97903000  1.0
  C  C91  1  0.74808000  0.98769000  0.02097000  1.0
  C  C92  1  0.32693000  0.05527000  0.89276000  1.0
  C  C93  1  0.82693000  0.94473000  0.10724000  1.0
  C  C94  1  0.41248000  0.16393000  0.90195000  1.0
  C  C95  1  0.91249000  0.83607000  0.09804000  1.0
  C  C96  1  0.41891000  0.22923000  0.99705000  1.0
  C  C97  1  0.91891000  0.77077000  0.00294000  1.0
  O  O98  1  0.56467000  0.40805000  0.58309000  1.0
  O  O99  1  0.06464000  0.59193000  0.41691000  1.0
  O  O100  1  0.82707000  0.32387000  0.58365000  1.0
  O  O101  1  0.32705000  0.67612000  0.41635000  1.0
  O  O102  1  0.26945000  0.54324000  0.58513000  1.0
  O  O103  1  0.76945000  0.45675000  0.41487000  1.0
  O  O104  1  0.13412000  0.41357000  0.67427000  1.0
  O  O105  1  0.63412000  0.58643000  0.32573000  1.0
  O  O106  1  0.13387000  0.32655000  0.42500000  1.0
  O  O107  1  0.63388000  0.67344000  0.57500000  1.0
  O  O108  1  0.38494000  0.39834000  0.37038000  1.0
  O  O109  1  0.88496000  0.60165000  0.62963000  1.0
