# generated using pymatgen
data_NdH14C12N9O7
_symmetry_space_group_name_H-M   'P 1'
_cell_length_a   8.71105000
_cell_length_b   9.86958000
_cell_length_c   11.12850000
_cell_angle_alpha   81.47490000
_cell_angle_beta   86.37450000
_cell_angle_gamma   77.03420000
_symmetry_Int_Tables_number   1
_chemical_formula_structural   NdH14C12N9O7
_chemical_formula_sum   'Nd2 H28 C24 N18 O14'
_cell_volume   921.62477625
_cell_formula_units_Z   2
loop_
 _symmetry_equiv_pos_site_id
 _symmetry_equiv_pos_as_xyz
  1  'x, y, z'
loop_
 _atom_site_type_symbol
 _atom_site_label
 _atom_site_symmetry_multiplicity
 _atom_site_fract_x
 _atom_site_fract_y
 _atom_site_fract_z
 _atom_site_occupancy
  Nd  Nd0  1  0.38474000  0.03130000  0.15937000  1.0
  Nd  Nd1  1  0.61526000  0.96870000  0.84063000  1.0
  H  H2  1  0.21017000  0.72658000  0.49714000  1.0
  H  H3  1  0.78983000  0.27342000  0.50286000  1.0
  H  H4  1  0.37489000  0.60172000  0.44793000  1.0
  H  H5  1  0.62511000  0.39828000  0.55207000  1.0
  H  H6  1  0.67375000  0.58800000  0.78011000  1.0
  H  H7  1  0.32625000  0.41201000  0.21989000  1.0
  H  H8  1  0.36679000  0.93602000  0.59735000  1.0
  H  H9  1  0.63321000  0.06398000  0.40265000  1.0
  H  H10  1  0.52602000  0.39689000  0.84944000  1.0
  H  H11  1  0.47398000  0.60311000  0.15056000  1.0
  H  H12  1  0.37619000  0.34331000  0.77905000  1.0
  H  H13  1  0.62381000  0.65670000  0.22095000  1.0
  H  H14  1  0.19445000  0.80650000  0.96735000  1.0
  H  H15  1  0.80555000  0.19350000  0.03265000  1.0
  H  H16  1  0.11673000  0.51637000  0.74799000  1.0
  H  H17  1  0.88327000  0.48363000  0.25201000  1.0
  H  H18  1  0.96304000  0.08218000  0.84117000  1.0
  H  H19  1  0.03696000  0.91782000  0.15883000  1.0
  H  H20  1  0.00266000  0.24274000  0.86960000  1.0
  H  H21  1  0.99734000  0.75726000  0.13040000  1.0
  H  H22  1  0.17598000  0.38497000  0.47165000  1.0
  H  H23  1  0.82403000  0.61503000  0.52835000  1.0
  H  H24  1  0.03066000  0.01518000  0.62245000  1.0
  H  H25  1  0.96934000  0.98482000  0.37755000  1.0
  H  H26  1  0.13280000  0.14279000  0.35256000  1.0
  H  H27  1  0.86720000  0.85721000  0.64744000  1.0
  H  H28  1  0.05097000  0.19045000  0.22112000  1.0
  H  H29  1  0.94903000  0.80956000  0.77888000  1.0
  C  C30  1  0.35973000  0.81428000  0.36072000  1.0
  C  C31  1  0.64027000  0.18572000  0.63928000  1.0
  C  C32  1  0.33665000  0.70852000  0.47206000  1.0
  C  C33  1  0.66335000  0.29148000  0.52794000  1.0
  C  C34  1  0.58927000  0.65235000  0.71587000  1.0
  C  C35  1  0.41073000  0.34765000  0.28413000  1.0
  C  C36  1  0.43219000  0.83058000  0.62676000  1.0
  C  C37  1  0.56781000  0.16943000  0.37324000  1.0
  C  C38  1  0.39693000  0.27076000  0.96946000  1.0
  C  C39  1  0.60307000  0.72924000  0.03054000  1.0
  C  C40  1  0.40495000  0.38192000  0.86063000  1.0
  C  C41  1  0.59505000  0.61808000  0.13937000  1.0
  C  C42  1  0.20580000  0.71358000  0.92339000  1.0
  C  C43  1  0.79420000  0.28642000  0.07661000  1.0
  C  C44  1  0.16324000  0.57092000  0.81059000  1.0
  C  C45  1  0.83676000  0.42908000  0.18941000  1.0
  C  C46  1  0.20322000  0.06756000  0.88879000  1.0
  C  C47  1  0.79677000  0.93244000  0.11121000  1.0
  C  C48  1  0.05039000  0.14805000  0.82721000  1.0
  C  C49  1  0.94961000  0.85195000  0.17280000  1.0
  C  C50  1  0.13837000  0.30318000  0.53521000  1.0
  C  C51  1  0.86164000  0.69682000  0.46479000  1.0
  C  C52  1  0.06763000  0.11458000  0.60741000  1.0
  C  C53  1  0.93237000  0.88542000  0.39259000  1.0
  N  N54  1  0.42630000  0.71710000  0.57512000  1.0
  N  N55  1  0.57370000  0.28289000  0.42488000  1.0
  N  N56  1  0.52733000  0.60149000  0.63081000  1.0
  N  N57  1  0.47267000  0.39851000  0.36919000  1.0
  N  N58  1  0.53416000  0.79304000  0.71669000  1.0
  N  N59  1  0.46584000  0.20696000  0.28331000  1.0
  N  N60  1  0.29751000  0.51478000  0.87034000  1.0
  N  N61  1  0.70248000  0.48522000  0.12966000  1.0
  N  N62  1  0.07273000  0.18916000  0.69817000  1.0
  N  N63  1  0.92727000  0.81084000  0.30183000  1.0
  N  N64  1  0.10207000  0.69781000  0.84205000  1.0
  N  N65  1  0.89793000  0.30219000  0.15795000  1.0
  N  N66  1  0.32651000  0.60449000  0.94338000  1.0
  N  N67  1  0.67349000  0.39551000  0.05662000  1.0
  N  N68  1  0.10804000  0.18426000  0.50188000  1.0
  N  N69  1  0.89196000  0.81574000  0.49812000  1.0
  N  N70  1  0.11894000  0.31033000  0.65389000  1.0
  N  N71  1  0.88106000  0.68967000  0.34611000  1.0
  O  O72  1  0.13815000  0.11877000  0.26763000  1.0
  O  O73  1  0.86185000  0.88123000  0.73237000  1.0
  O  O74  1  0.44052000  0.90474000  0.36939000  1.0
  O  O75  1  0.55948000  0.09526000  0.63061000  1.0
  O  O76  1  0.29389000  0.80715000  0.26392000  1.0
  O  O77  1  0.70611000  0.19285000  0.73608000  1.0
  O  O78  1  0.49856000  0.15338000  0.96822000  1.0
  O  O79  1  0.50144000  0.84662000  0.03178000  1.0
  O  O80  1  0.29547000  0.29040000  0.05371000  1.0
  O  O81  1  0.70452000  0.70960000  0.94629000  1.0
  O  O82  1  0.19211000  0.04138000  0.00403000  1.0
  O  O83  1  0.80789000  0.95862000  0.99597000  1.0
  O  O84  1  0.32425000  0.03428000  0.82178000  1.0
  O  O85  1  0.67575000  0.96572000  0.17822000  1.0
