# generated using pymatgen
data_CuMoH4C5NO4
_symmetry_space_group_name_H-M   'P 1'
_cell_length_a   5.47434000
_cell_length_b   6.80304000
_cell_length_c   10.74780000
_cell_angle_alpha   73.58410000
_cell_angle_beta   78.83100000
_cell_angle_gamma   70.03760000
_symmetry_Int_Tables_number   1
_chemical_formula_structural   CuMoH4C5NO4
_chemical_formula_sum   'Cu2 Mo2 H8 C10 N2 O8'
_cell_volume   358.78099306
_cell_formula_units_Z   2
loop_
 _symmetry_equiv_pos_site_id
 _symmetry_equiv_pos_as_xyz
  1  'x, y, z'
loop_
 _atom_site_type_symbol
 _atom_site_label
 _atom_site_symmetry_multiplicity
 _atom_site_fract_x
 _atom_site_fract_y
 _atom_site_fract_z
 _atom_site_occupancy
  Cu  Cu0  1  0.58976000  0.29831000  0.10499000  1.0
  Cu  Cu1  1  0.41025000  0.70169000  0.89501000  1.0
  Mo  Mo2  1  0.74603000  0.76212000  0.09165000  1.0
  Mo  Mo3  1  0.25398000  0.23788000  0.90835000  1.0
  H  H4  1  0.01280000  0.06796000  0.26806000  1.0
  H  H5  1  0.98721000  0.93206000  0.73194000  1.0
  H  H6  1  0.23984000  0.43255000  0.32015000  1.0
  H  H7  1  0.76016000  0.56745000  0.67985000  1.0
  H  H8  1  0.25173000  0.35553000  0.56483000  1.0
  H  H9  1  0.74826000  0.64447000  0.43517000  1.0
  H  H10  1  0.65485000  0.12066000  0.66008000  1.0
  H  H11  1  0.34514000  0.87933000  0.33991000  1.0
  C  C12  1  0.85197000  0.12398000  0.33979000  1.0
  C  C13  1  0.14803000  0.87602000  0.66021000  1.0
  C  C14  1  0.41521000  0.33167000  0.36778000  1.0
  C  C15  1  0.58480000  0.66832000  0.63222000  1.0
  C  C16  1  0.87590000  0.07128000  0.47390000  1.0
  C  C17  1  0.12410000  0.92871000  0.52610000  1.0
  C  C18  1  0.42321000  0.28851000  0.50155000  1.0
  C  C19  1  0.57679000  0.71148000  0.49846000  1.0
  C  C20  1  0.65308000  0.15757000  0.55479000  1.0
  C  C21  1  0.34691000  0.84242000  0.44522000  1.0
  N  N22  1  0.62753000  0.24815000  0.29012000  1.0
  N  N23  1  0.37247000  0.75185000  0.70988000  1.0
  O  O24  1  0.54614000  0.01959000  0.12400000  1.0
  O  O25  1  0.45386000  0.98041000  0.87600000  1.0
  O  O26  1  0.53537000  0.61087000  0.06953000  1.0
  O  O27  1  0.46462000  0.38914000  0.93048000  1.0
  O  O28  1  0.98641000  0.78629000  0.96002000  1.0
  O  O29  1  0.01359000  0.21372000  0.03998000  1.0
  O  O30  1  0.90200000  0.61336000  0.22938000  1.0
  O  O31  1  0.09801000  0.38665000  0.77061000  1.0
