# generated using pymatgen
data_CdH14C19(NO)4
_symmetry_space_group_name_H-M   'P 1'
_cell_length_a   9.14387000
_cell_length_b   11.18860000
_cell_length_c   12.33700000
_cell_angle_alpha   104.93100000
_cell_angle_beta   107.36300000
_cell_angle_gamma   108.44400000
_symmetry_Int_Tables_number   1
_chemical_formula_structural   CdH14C19(NO)4
_chemical_formula_sum   'Cd2 H28 C38 N8 O8'
_cell_volume   1052.83482349
_cell_formula_units_Z   2
loop_
 _symmetry_equiv_pos_site_id
 _symmetry_equiv_pos_as_xyz
  1  'x, y, z'
loop_
 _atom_site_type_symbol
 _atom_site_label
 _atom_site_symmetry_multiplicity
 _atom_site_fract_x
 _atom_site_fract_y
 _atom_site_fract_z
 _atom_site_occupancy
  Cd  Cd0  1  0.12716000  0.42993000  0.33234000  1.0
  Cd  Cd1  1  0.87284000  0.57007000  0.66766000  1.0
  H  H2  1  0.44430000  0.28332000  0.06150000  1.0
  H  H3  1  0.55570000  0.71668000  0.93849000  1.0
  H  H4  1  0.75726000  0.01889000  0.35941000  1.0
  H  H5  1  0.24274000  0.98111000  0.64059000  1.0
  H  H6  1  0.29273000  0.17347000  0.56665000  1.0
  H  H7  1  0.70727000  0.82653000  0.43335000  1.0
  H  H8  1  0.35900000  0.85844000  0.27540000  1.0
  H  H9  1  0.64101000  0.14156000  0.72460000  1.0
  H  H10  1  0.49316000  0.88361000  0.64623000  1.0
  H  H11  1  0.50684000  0.11640000  0.35377000  1.0
  H  H12  1  0.83096000  0.17823000  0.06651000  1.0
  H  H13  1  0.16904000  0.82176000  0.93349000  1.0
  H  H14  1  0.68544000  0.01241000  0.84602000  1.0
  H  H15  1  0.31456000  0.98759000  0.15398000  1.0
  H  H16  1  0.84959000  0.96922000  0.72578000  1.0
  H  H17  1  0.15041000  0.03078000  0.27422000  1.0
  H  H18  1  0.16381000  0.08268000  0.82012000  1.0
  H  H19  1  0.83619000  0.91732000  0.17988000  1.0
  H  H20  1  0.49571000  0.53875000  0.34269000  1.0
  H  H21  1  0.50429000  0.46125000  0.65731000  1.0
  H  H22  1  0.52000000  0.39752000  0.37146000  1.0
  H  H23  1  0.48000000  0.60248000  0.62854000  1.0
  H  H24  1  0.75508000  0.34649000  0.35018000  1.0
  H  H25  1  0.24492000  0.65351000  0.64982000  1.0
  H  H26  1  0.95096000  0.62300000  0.19727000  1.0
  H  H27  1  0.04904000  0.37700000  0.80274000  1.0
  H  H28  1  0.64645000  0.62470000  0.19973000  1.0
  H  H29  1  0.35355000  0.37530000  0.80027000  1.0
  C  C30  1  0.05584000  0.22094000  0.41331000  1.0
  C  C31  1  0.94416000  0.77906000  0.58669000  1.0
  C  C32  1  0.86264000  0.00895000  0.42040000  1.0
  C  C33  1  0.13736000  0.99105000  0.57959000  1.0
  C  C34  1  0.02765000  0.10728000  0.45869000  1.0
  C  C35  1  0.97234000  0.89272000  0.54130000  1.0
  C  C36  1  0.16499000  0.09752000  0.53866000  1.0
  C  C37  1  0.83501000  0.90247000  0.46134000  1.0
  C  C38  1  0.32969000  0.70471000  0.40764000  1.0
  C  C39  1  0.67031000  0.29529000  0.59236000  1.0
  C  C40  1  0.41903000  0.85726000  0.45645000  1.0
  C  C41  1  0.58098000  0.14275000  0.54355000  1.0
  C  C42  1  0.42195000  0.92219000  0.37351000  1.0
  C  C43  1  0.57805000  0.07781000  0.62649000  1.0
  C  C44  1  0.49764000  0.93608000  0.58330000  1.0
  C  C45  1  0.50236000  0.06392000  0.41670000  1.0
  C  C46  1  0.07856000  0.22504000  0.06487000  1.0
  C  C47  1  0.92144000  0.77496000  0.93513000  1.0
  C  C48  1  0.90183000  0.15911000  0.01219000  1.0
  C  C49  1  0.09817000  0.84089000  0.98781000  1.0
  C  C50  1  0.82319000  0.06691000  0.89004000  1.0
  C  C51  1  0.17681000  0.93309000  0.10996000  1.0
  C  C52  1  0.91669000  0.04135000  0.82157000  1.0
  C  C53  1  0.08331000  0.95865000  0.17843000  1.0
  C  C54  1  0.09316000  0.10573000  0.87339000  1.0
  C  C55  1  0.90684000  0.89427000  0.12661000  1.0
  C  C56  1  0.17180000  0.19729000  0.99619000  1.0
  C  C57  1  0.82820000  0.80271000  0.00381000  1.0
  C  C58  1  0.34546000  0.34789000  0.18861000  1.0
  C  C59  1  0.65454000  0.65211000  0.81139000  1.0
  C  C60  1  0.50425000  0.44296000  0.30184000  1.0
  C  C61  1  0.49575000  0.55704000  0.69816000  1.0
  C  C62  1  0.76738000  0.41903000  0.30580000  1.0
  C  C63  1  0.23262000  0.58097000  0.69421000  1.0
  C  C64  1  0.86317000  0.56405000  0.22687000  1.0
  C  C65  1  0.13683000  0.43595000  0.77313000  1.0
  C  C66  1  0.71358000  0.56564000  0.22697000  1.0
  C  C67  1  0.28642000  0.43437000  0.77303000  1.0
  N  N68  1  0.19093000  0.31949000  0.18325000  1.0
  N  N69  1  0.80907000  0.68051000  0.81674000  1.0
  N  N70  1  0.34071000  0.27680000  0.07838000  1.0
  N  N71  1  0.65929000  0.72320000  0.92162000  1.0
  N  N72  1  0.65466000  0.47320000  0.27719000  1.0
  N  N73  1  0.34534000  0.52680000  0.72281000  1.0
  N  N74  1  0.89436000  0.47186000  0.27578000  1.0
  N  N75  1  0.10564000  0.52815000  0.72422000  1.0
  O  O76  1  0.20658000  0.31575000  0.45808000  1.0
  O  O77  1  0.79342000  0.68425000  0.54192000  1.0
  O  O78  1  0.93029000  0.21927000  0.33149000  1.0
  O  O79  1  0.06970000  0.78073000  0.66851000  1.0
  O  O80  1  0.31477000  0.64762000  0.48458000  1.0
  O  O81  1  0.68523000  0.35238000  0.51542000  1.0
  O  O82  1  0.26965000  0.63664000  0.29260000  1.0
  O  O83  1  0.73036000  0.36336000  0.70740000  1.0
