# generated using pymatgen
data_P2H8Pb3(C3O5)2
_symmetry_space_group_name_H-M   'P 1'
_cell_length_a   9.12140000
_cell_length_b   10.72660000
_cell_length_c   14.55840000
_cell_angle_alpha   90.00000000
_cell_angle_beta   90.00000000
_cell_angle_gamma   111.32900000
_symmetry_Int_Tables_number   1
_chemical_formula_structural   P2H8Pb3(C3O5)2
_chemical_formula_sum   'P8 H32 Pb12 C24 O40'
_cell_volume   1326.85502744
_cell_formula_units_Z   4
loop_
 _symmetry_equiv_pos_site_id
 _symmetry_equiv_pos_as_xyz
  1  'x, y, z'
loop_
 _atom_site_type_symbol
 _atom_site_label
 _atom_site_symmetry_multiplicity
 _atom_site_fract_x
 _atom_site_fract_y
 _atom_site_fract_z
 _atom_site_occupancy
  P  P0  1  0.41809000  0.56212000  0.66579000  1.0
  P  P1  1  0.41809000  0.06213000  0.83421000  1.0
  P  P2  1  0.58191000  0.43787000  0.33422000  1.0
  P  P3  1  0.58190000  0.93788000  0.16578000  1.0
  P  P4  1  0.75143000  0.09318000  0.64905000  1.0
  P  P5  1  0.75143000  0.59318000  0.85095000  1.0
  P  P6  1  0.24857000  0.90682000  0.35095000  1.0
  P  P7  1  0.24858000  0.40682000  0.14905000  1.0
  H  H8  1  0.28583000  0.59368000  0.53085000  1.0
  H  H9  1  0.28583000  0.09369000  0.96914000  1.0
  H  H10  1  0.71418000  0.40632000  0.46915000  1.0
  H  H11  1  0.71417000  0.90632000  0.03086000  1.0
  H  H12  1  0.27738000  0.42869000  0.54583000  1.0
  H  H13  1  0.27738000  0.92869000  0.95418000  1.0
  H  H14  1  0.72263000  0.57131000  0.45418000  1.0
  H  H15  1  0.72262000  0.07131000  0.04582000  1.0
  H  H16  1  0.08755000  0.44586000  0.69189000  1.0
  H  H17  1  0.08755000  0.94586000  0.80811000  1.0
  H  H18  1  0.91245000  0.55414000  0.30810000  1.0
  H  H19  1  0.91245000  0.05414000  0.19190000  1.0
  H  H20  1  0.01381000  0.38488000  0.58396000  1.0
  H  H21  1  0.01381000  0.88489000  0.91604000  1.0
  H  H22  1  0.98619000  0.61511000  0.41604000  1.0
  H  H23  1  0.98619000  0.11512000  0.08396000  1.0
  H  H24  1  0.91522000  0.03350000  0.54667000  1.0
  H  H25  1  0.91522000  0.53350000  0.95333000  1.0
  H  H26  1  0.08477000  0.96650000  0.45333000  1.0
  H  H27  1  0.08478000  0.46649000  0.04667000  1.0
  H  H28  1  0.95558000  0.20566000  0.54085000  1.0
  H  H29  1  0.95558000  0.70566000  0.95915000  1.0
  H  H30  1  0.04442000  0.79434000  0.45915000  1.0
  H  H31  1  0.04443000  0.29434000  0.04085000  1.0
  H  H32  1  0.12474000  0.25060000  0.67749000  1.0
  H  H33  1  0.12474000  0.75060000  0.82251000  1.0
  H  H34  1  0.87526000  0.74940000  0.32251000  1.0
  H  H35  1  0.87526000  0.24940000  0.17749000  1.0
  H  H36  1  0.03256000  0.08356000  0.71679000  1.0
  H  H37  1  0.03256000  0.58356000  0.78321000  1.0
  H  H38  1  0.96744000  0.91643000  0.28320000  1.0
  H  H39  1  0.96744000  0.41643000  0.21679000  1.0
  Pb  Pb40  1  0.81747000  0.75525000  0.62207000  1.0
  Pb  Pb41  1  0.81747000  0.25526000  0.87792000  1.0
  Pb  Pb42  1  0.18253000  0.24475000  0.37793000  1.0
  Pb  Pb43  1  0.18253000  0.74474000  0.12207000  1.0
  Pb  Pb44  1  0.37854000  0.38395000  0.89382000  1.0
  Pb  Pb45  1  0.37854000  0.88395000  0.60618000  1.0
  Pb  Pb46  1  0.62146000  0.61605000  0.10619000  1.0
  Pb  Pb47  1  0.62146000  0.11605000  0.39381000  1.0
  Pb  Pb48  1  0.58009000  0.83603000  0.83435000  1.0
  Pb  Pb49  1  0.58010000  0.33602000  0.66566000  1.0
  Pb  Pb50  1  0.41991000  0.16398000  0.16566000  1.0
  Pb  Pb51  1  0.41991000  0.66398000  0.33434000  1.0
  C  C52  1  0.26159000  0.51302000  0.58170000  1.0
  C  C53  1  0.26159000  0.01302000  0.91830000  1.0
  C  C54  1  0.73841000  0.48698000  0.41830000  1.0
  C  C55  1  0.73841000  0.98699000  0.08170000  1.0
  C  C56  1  0.09433000  0.47397000  0.61877000  1.0
  C  C57  1  0.09432000  0.97397000  0.88123000  1.0
  C  C58  1  0.90568000  0.52603000  0.38123000  1.0
  C  C59  1  0.90567000  0.02603000  0.11877000  1.0
  C  C60  1  0.02032000  0.57866000  0.60981000  1.0
  C  C61  1  0.02032000  0.07867000  0.89019000  1.0
  C  C62  1  0.97968000  0.42134000  0.39019000  1.0
  C  C63  1  0.97967000  0.92134000  0.10981000  1.0
  C  C64  1  0.93565000  0.12283000  0.58942000  1.0
  C  C65  1  0.93564000  0.62283000  0.91058000  1.0
  C  C66  1  0.06435000  0.87717000  0.41058000  1.0
  C  C67  1  0.06435000  0.37716000  0.08942000  1.0
  C  C68  1  0.07414000  0.14592000  0.65565000  1.0
  C  C69  1  0.07414000  0.64592000  0.84435000  1.0
  C  C70  1  0.92586000  0.85408000  0.34435000  1.0
  C  C71  1  0.92586000  0.35408000  0.15565000  1.0
  C  C72  1  0.20052000  0.10558000  0.61072000  1.0
  C  C73  1  0.20052000  0.60558000  0.88928000  1.0
  C  C74  1  0.79948000  0.89443000  0.38928000  1.0
  C  C75  1  0.79949000  0.39443000  0.11072000  1.0
  O  O76  1  0.41721000  0.68705000  0.71748000  1.0
  O  O77  1  0.41721000  0.18704000  0.78252000  1.0
  O  O78  1  0.58279000  0.31296000  0.28252000  1.0
  O  O79  1  0.58278000  0.81295000  0.21748000  1.0
  O  O80  1  0.57026000  0.58630000  0.60913000  1.0
  O  O81  1  0.57026000  0.08630000  0.89087000  1.0
  O  O82  1  0.42975000  0.41371000  0.39088000  1.0
  O  O83  1  0.42973000  0.91370000  0.10913000  1.0
  O  O84  1  0.39133000  0.43907000  0.72878000  1.0
  O  O85  1  0.39133000  0.93907000  0.77122000  1.0
  O  O86  1  0.60867000  0.56093000  0.27122000  1.0
  O  O87  1  0.60866000  0.06093000  0.22878000  1.0
  O  O88  1  0.70597000  0.95223000  0.69240000  1.0
  O  O89  1  0.70596000  0.45223000  0.80760000  1.0
  O  O90  1  0.29403000  0.04777000  0.30760000  1.0
  O  O91  1  0.29403000  0.54778000  0.19240000  1.0
  O  O92  1  0.62604000  0.09793000  0.57863000  1.0
  O  O93  1  0.62604000  0.59794000  0.92137000  1.0
  O  O94  1  0.37396000  0.90207000  0.42137000  1.0
  O  O95  1  0.37396000  0.40206000  0.07863000  1.0
  O  O96  1  0.77858000  0.20909000  0.71895000  1.0
  O  O97  1  0.77858000  0.70909000  0.78105000  1.0
  O  O98  1  0.22142000  0.79091000  0.28104000  1.0
  O  O99  1  0.22143000  0.29092000  0.21896000  1.0
  O  O100  1  0.10172000  0.69941000  0.58997000  1.0
  O  O101  1  0.10172000  0.19941000  0.91003000  1.0
  O  O102  1  0.89827000  0.30059000  0.41003000  1.0
  O  O103  1  0.89827000  0.80059000  0.08997000  1.0
  O  O104  1  0.87142000  0.54017000  0.62261000  1.0
  O  O105  1  0.87142000  0.04017000  0.87739000  1.0
  O  O106  1  0.12858000  0.45983000  0.37739000  1.0
  O  O107  1  0.12858000  0.95983000  0.12261000  1.0
  O  O108  1  0.18335000  0.98239000  0.62264000  1.0
  O  O109  1  0.18336000  0.48239000  0.87735000  1.0
  O  O110  1  0.81664000  0.01761000  0.37735000  1.0
  O  O111  1  0.81664000  0.51761000  0.12264000  1.0
  O  O112  1  0.30716000  0.18873000  0.56215000  1.0
  O  O113  1  0.30716000  0.68873000  0.93785000  1.0
  O  O114  1  0.69284000  0.81127000  0.43785000  1.0
  O  O115  1  0.69284000  0.31127000  0.06215000  1.0
