# generated using pymatgen
data_UH21C21S3O11
_symmetry_space_group_name_H-M   'P 1'
_cell_length_a   10.84180000
_cell_length_b   11.92960000
_cell_length_c   22.35770000
_cell_angle_alpha   89.99970000
_cell_angle_beta   89.99990000
_cell_angle_gamma   113.90200000
_symmetry_Int_Tables_number   1
_chemical_formula_structural   UH21C21S3O11
_chemical_formula_sum   'U4 H84 C84 S12 O44'
_cell_volume   2643.71434527
_cell_formula_units_Z   4
loop_
 _symmetry_equiv_pos_site_id
 _symmetry_equiv_pos_as_xyz
  1  'x, y, z'
loop_
 _atom_site_type_symbol
 _atom_site_label
 _atom_site_symmetry_multiplicity
 _atom_site_fract_x
 _atom_site_fract_y
 _atom_site_fract_z
 _atom_site_occupancy
  U  U0  1  0.44507000  0.23001000  0.52513000  1.0
  U  U1  1  0.05494000  0.76999000  0.02513000  1.0
  U  U2  1  0.55494000  0.76999000  0.47487000  1.0
  U  U3  1  0.94507000  0.23002000  0.97487000  1.0
  H  H4  1  0.53427000  0.57744000  0.87098000  1.0
  H  H5  1  0.96574000  0.42255000  0.37098000  1.0
  H  H6  1  0.46573000  0.42255000  0.12902000  1.0
  H  H7  1  0.03428000  0.57745000  0.62902000  1.0
  H  H8  1  0.44756000  0.41746000  0.86974000  1.0
  H  H9  1  0.05245000  0.58254000  0.36974000  1.0
  H  H10  1  0.55244000  0.58254000  0.13026000  1.0
  H  H11  1  0.94755000  0.41747000  0.63026000  1.0
  H  H12  1  0.35569000  0.51303000  0.86710000  1.0
  H  H13  1  0.14431000  0.48696000  0.36710000  1.0
  H  H14  1  0.64431000  0.48697000  0.13290000  1.0
  H  H15  1  0.85570000  0.51304000  0.63290000  1.0
  H  H16  1  0.32587000  0.59677000  0.76853000  1.0
  H  H17  1  0.17412000  0.40323000  0.26852000  1.0
  H  H18  1  0.67413000  0.40324000  0.23147000  1.0
  H  H19  1  0.82588000  0.59678000  0.73147000  1.0
  H  H20  1  0.36205000  0.61196000  0.65858000  1.0
  H  H21  1  0.13796000  0.38804000  0.15858000  1.0
  H  H22  1  0.63796000  0.38805000  0.34142000  1.0
  H  H23  1  0.86203000  0.61195000  0.84142000  1.0
  H  H24  1  0.63124000  0.42927000  0.67424000  1.0
  H  H25  1  0.86876000  0.57073000  0.17424000  1.0
  H  H26  1  0.36875000  0.57073000  0.32576000  1.0
  H  H27  1  0.13123000  0.42927000  0.82576000  1.0
  H  H28  1  0.59414000  0.41276000  0.78498000  1.0
  H  H29  1  0.90584000  0.58723000  0.28498000  1.0
  H  H30  1  0.40585000  0.58724000  0.21502000  1.0
  H  H31  1  0.09415000  0.41278000  0.71502000  1.0
  H  H32  1  0.42958000  0.12644000  0.92727000  1.0
  H  H33  1  0.07043000  0.87356000  0.42728000  1.0
  H  H34  1  0.57043000  0.87356000  0.07273000  1.0
  H  H35  1  0.92957000  0.12643000  0.57272000  1.0
  H  H36  1  0.25193000  0.05792000  0.93603000  1.0
  H  H37  1  0.24808000  0.94208000  0.43603000  1.0
  H  H38  1  0.74807000  0.94209000  0.06398000  1.0
  H  H39  1  0.75192000  0.05791000  0.56398000  1.0
  H  H40  1  0.33467000  0.21550000  0.94701000  1.0
  H  H41  1  0.16532000  0.78450000  0.44701000  1.0
  H  H42  1  0.66533000  0.78450000  0.05299000  1.0
  H  H43  1  0.83467000  0.21549000  0.55299000  1.0
  H  H44  1  0.17890000  0.24473000  0.87092000  1.0
  H  H45  1  0.32109000  0.75527000  0.37093000  1.0
  H  H46  1  0.82109000  0.75528000  0.12908000  1.0
  H  H47  1  0.67891000  0.24472000  0.62908000  1.0
  H  H48  1  0.14410000  0.27246000  0.76203000  1.0
  H  H49  1  0.35590000  0.72753000  0.26204000  1.0
  H  H50  1  0.85591000  0.72755000  0.23797000  1.0
  H  H51  1  0.64408000  0.27246000  0.73797000  1.0
  H  H52  1  0.40970000  0.09676000  0.71632000  1.0
  H  H53  1  0.09029000  0.90324000  0.21631000  1.0
  H  H54  1  0.59030000  0.90323000  0.28369000  1.0
  H  H55  1  0.90971000  0.09676000  0.78368000  1.0
  H  H56  1  0.44954000  0.07491000  0.82479000  1.0
  H  H57  1  0.05045000  0.92509000  0.32480000  1.0
  H  H58  1  0.55044000  0.92508000  0.17521000  1.0
  H  H59  1  0.94956000  0.07491000  0.67520000  1.0
  H  H60  1  0.57375000  0.12298000  0.13375000  1.0
  H  H61  1  0.92626000  0.87701000  0.63376000  1.0
  H  H62  1  0.42624000  0.87702000  0.86624000  1.0
  H  H63  1  0.07375000  0.12298000  0.36624000  1.0
  H  H64  1  0.75174000  0.17051000  0.14053000  1.0
  H  H65  1  0.74827000  0.82949000  0.64053000  1.0
  H  H66  1  0.24825000  0.82949000  0.85946000  1.0
  H  H67  1  0.25174000  0.17050000  0.35946000  1.0
  H  H68  1  0.68145000  0.27909000  0.14514000  1.0
  H  H69  1  0.81857000  0.72091000  0.64513000  1.0
  H  H70  1  0.31854000  0.72090000  0.85486000  1.0
  H  H71  1  0.18144000  0.27909000  0.35486000  1.0
  H  H72  1  0.43234000  0.08003000  0.22237000  1.0
  H  H73  1  0.06765000  0.91995000  0.72237000  1.0
  H  H74  1  0.56765000  0.91997000  0.77763000  1.0
  H  H75  1  0.93236000  0.08004000  0.27763000  1.0
  H  H76  1  0.40726000  0.04839000  0.33227000  1.0
  H  H77  1  0.09274000  0.95159000  0.83227000  1.0
  H  H78  1  0.59273000  0.95160000  0.66773000  1.0
  H  H79  1  0.90726000  0.04840000  0.16772000  1.0
  H  H80  1  0.83937000  0.20608000  0.35146000  1.0
  H  H81  1  0.66063000  0.79392000  0.85146000  1.0
  H  H82  1  0.16063000  0.79392000  0.64854000  1.0
  H  H83  1  0.33938000  0.20609000  0.14853000  1.0
  H  H84  1  0.86365000  0.24627000  0.24156000  1.0
  H  H85  1  0.63634000  0.75371000  0.74156000  1.0
  H  H86  1  0.13634000  0.75371000  0.75844000  1.0
  H  H87  1  0.36366000  0.24628000  0.25844000  1.0
  C  C88  1  0.44600000  0.50225000  0.85122000  1.0
  C  C89  1  0.05401000  0.49774000  0.35122000  1.0
  C  C90  1  0.55400000  0.49775000  0.14878000  1.0
  C  C91  1  0.94600000  0.50227000  0.64878000  1.0
  C  C92  1  0.45827000  0.50489000  0.78472000  1.0
  C  C93  1  0.04172000  0.49511000  0.28472000  1.0
  C  C94  1  0.54173000  0.49512000  0.21528000  1.0
  C  C95  1  0.95828000  0.50489000  0.71528000  1.0
  C  C96  1  0.39215000  0.55920000  0.74821000  1.0
  C  C97  1  0.10784000  0.44079000  0.24821000  1.0
  C  C98  1  0.60786000  0.44081000  0.25179000  1.0
  C  C99  1  0.89216000  0.55921000  0.75179000  1.0
  C  C100  1  0.41176000  0.56803000  0.68660000  1.0
  C  C101  1  0.08824000  0.43197000  0.18660000  1.0
  C  C102  1  0.58825000  0.43198000  0.31340000  1.0
  C  C103  1  0.91175000  0.56803000  0.81340000  1.0
  C  C104  1  0.49998000  0.52239000  0.66057000  1.0
  C  C105  1  0.00003000  0.47762000  0.16056000  1.0
  C  C106  1  0.50003000  0.47761000  0.33943000  1.0
  C  C107  1  0.99996000  0.52238000  0.83944000  1.0
  C  C108  1  0.56424000  0.46490000  0.69558000  1.0
  C  C109  1  0.93575000  0.53509000  0.19558000  1.0
  C  C110  1  0.43576000  0.53510000  0.30442000  1.0
  C  C111  1  0.06424000  0.46491000  0.80443000  1.0
  C  C112  1  0.54295000  0.45566000  0.75695000  1.0
  C  C113  1  0.95704000  0.54433000  0.25695000  1.0
  C  C114  1  0.45705000  0.54435000  0.24305000  1.0
  C  C115  1  0.04296000  0.45567000  0.74306000  1.0
  C  C116  1  0.33710000  0.14052000  0.91932000  1.0
  C  C117  1  0.16291000  0.85948000  0.41931000  1.0
  C  C118  1  0.66290000  0.85948000  0.08069000  1.0
  C  C119  1  0.83709000  0.14051000  0.58068000  1.0
  C  C120  1  0.31674000  0.15804000  0.85509000  1.0
  C  C121  1  0.18327000  0.84196000  0.35509000  1.0
  C  C122  1  0.68326000  0.84196000  0.14491000  1.0
  C  C123  1  0.81673000  0.15803000  0.64491000  1.0
  C  C124  1  0.22932000  0.21357000  0.83673000  1.0
  C  C125  1  0.27068000  0.78643000  0.33673000  1.0
  C  C126  1  0.77068000  0.78643000  0.16327000  1.0
  C  C127  1  0.72932000  0.21357000  0.66327000  1.0
  C  C128  1  0.21007000  0.22935000  0.77678000  1.0
  C  C129  1  0.28992000  0.77065000  0.27678000  1.0
  C  C130  1  0.78993000  0.77065000  0.22322000  1.0
  C  C131  1  0.71007000  0.22935000  0.72322000  1.0
  C  C132  1  0.27615000  0.18767000  0.73345000  1.0
  C  C133  1  0.22384000  0.81232000  0.23345000  1.0
  C  C134  1  0.72386000  0.81234000  0.26655000  1.0
  C  C135  1  0.77616000  0.18768000  0.76655000  1.0
  C  C136  1  0.36124000  0.12976000  0.75060000  1.0
  C  C137  1  0.13874000  0.87022000  0.25060000  1.0
  C  C138  1  0.63876000  0.87024000  0.24941000  1.0
  C  C139  1  0.86125000  0.12977000  0.74940000  1.0
  C  C140  1  0.38182000  0.11667000  0.81064000  1.0
  C  C141  1  0.11818000  0.88333000  0.31064000  1.0
  C  C142  1  0.61818000  0.88333000  0.18937000  1.0
  C  C143  1  0.88183000  0.11667000  0.68936000  1.0
  C  C144  1  0.66412000  0.18463000  0.15768000  1.0
  C  C145  1  0.83589000  0.81536000  0.65768000  1.0
  C  C146  1  0.33588000  0.81536000  0.84232000  1.0
  C  C147  1  0.16412000  0.18463000  0.34232000  1.0
  C  C148  1  0.64954000  0.16567000  0.22403000  1.0
  C  C149  1  0.85046000  0.83432000  0.72404000  1.0
  C  C150  1  0.35045000  0.83433000  0.77597000  1.0
  C  C151  1  0.14955000  0.16567000  0.27596000  1.0
  C  C152  1  0.52157000  0.11024000  0.25068000  1.0
  C  C153  1  0.97843000  0.88974000  0.75068000  1.0
  C  C154  1  0.47843000  0.88975000  0.74932000  1.0
  C  C155  1  0.02157000  0.11025000  0.24931000  1.0
  C  C156  1  0.50708000  0.09059000  0.31214000  1.0
  C  C157  1  0.99292000  0.90940000  0.81214000  1.0
  C  C158  1  0.49291000  0.90941000  0.68786000  1.0
  C  C159  1  0.00708000  0.09060000  0.18785000  1.0
  C  C160  1  0.62243000  0.12437000  0.34785000  1.0
  C  C161  1  0.87758000  0.87563000  0.84785000  1.0
  C  C162  1  0.37757000  0.87562000  0.65215000  1.0
  C  C163  1  0.12243000  0.12438000  0.15214000  1.0
  C  C164  1  0.75106000  0.18106000  0.32273000  1.0
  C  C165  1  0.74895000  0.81894000  0.82273000  1.0
  C  C166  1  0.24894000  0.81893000  0.67727000  1.0
  C  C167  1  0.25106000  0.18106000  0.17727000  1.0
  C  C168  1  0.76347000  0.20247000  0.26128000  1.0
  C  C169  1  0.73653000  0.79752000  0.76128000  1.0
  C  C170  1  0.23652000  0.79752000  0.73872000  1.0
  C  C171  1  0.26347000  0.20248000  0.23872000  1.0
  S  S172  1  0.53813000  0.53875000  0.58293000  1.0
  S  S173  1  0.96188000  0.46126000  0.08293000  1.0
  S  S174  1  0.46187000  0.46125000  0.41707000  1.0
  S  S175  1  0.03811000  0.53875000  0.91707000  1.0
  S  S176  1  0.24171000  0.19729000  0.65679000  1.0
  S  S177  1  0.25828000  0.80271000  0.15679000  1.0
  S  S178  1  0.75830000  0.80272000  0.34322000  1.0
  S  S179  1  0.74171000  0.19729000  0.84321000  1.0
  S  S180  1  0.60857000  0.09041000  0.42528000  1.0
  S  S181  1  0.89144000  0.90960000  0.92527000  1.0
  S  S182  1  0.39143000  0.90959000  0.57473000  1.0
  S  S183  1  0.10857000  0.09041000  0.07472000  1.0
  O  O184  1  0.27113000  0.16356000  0.50303000  1.0
  O  O185  1  0.22888000  0.83645000  0.00303000  1.0
  O  O186  1  0.72888000  0.83645000  0.49697000  1.0
  O  O187  1  0.77112000  0.16355000  0.99697000  1.0
  O  O188  1  0.61926000  0.29542000  0.54756000  1.0
  O  O189  1  0.88074000  0.70459000  0.04755000  1.0
  O  O190  1  0.38075000  0.70459000  0.45245000  1.0
  O  O191  1  0.11925000  0.29542000  0.95244000  1.0
  O  O192  1  0.50295000  0.64140000  0.56371000  1.0
  O  O193  1  0.99704000  0.35860000  0.06371000  1.0
  O  O194  1  0.49705000  0.35861000  0.43629000  1.0
  O  O195  1  0.00293000  0.64140000  0.93629000  1.0
  O  O196  1  0.44247000  0.42336000  0.55432000  1.0
  O  O197  1  0.05753000  0.57665000  0.05432000  1.0
  O  O198  1  0.55753000  0.57665000  0.44568000  1.0
  O  O199  1  0.94246000  0.42336000  0.94568000  1.0
  O  O200  1  0.67867000  0.56071000  0.57709000  1.0
  O  O201  1  0.82133000  0.43929000  0.07709000  1.0
  O  O202  1  0.32133000  0.43929000  0.42291000  1.0
  O  O203  1  0.17866000  0.56073000  0.92291000  1.0
  O  O204  1  0.19459000  0.29492000  0.65044000  1.0
  O  O205  1  0.30541000  0.70508000  0.15044000  1.0
  O  O206  1  0.80542000  0.70508000  0.34956000  1.0
  O  O207  1  0.69458000  0.29491000  0.84956000  1.0
  O  O208  1  0.37508000  0.22506000  0.62778000  1.0
  O  O209  1  0.12492000  0.77494000  0.12778000  1.0
  O  O210  1  0.62494000  0.77494000  0.37222000  1.0
  O  O211  1  0.87507000  0.22506000  0.87222000  1.0
  O  O212  1  0.14264000  0.07457000  0.64148000  1.0
  O  O213  1  0.35736000  0.92542000  0.14148000  1.0
  O  O214  1  0.85738000  0.92543000  0.35852000  1.0
  O  O215  1  0.64264000  0.07458000  0.85852000  1.0
  O  O216  1  0.56258000  0.95505000  0.42893000  1.0
  O  O217  1  0.93744000  0.04496000  0.92892000  1.0
  O  O218  1  0.43743000  0.04495000  0.57108000  1.0
  O  O219  1  0.06257000  0.95504000  0.07107000  1.0
  O  O220  1  0.49436000  0.12076000  0.44623000  1.0
  O  O221  1  0.00566000  0.87925000  0.94623000  1.0
  O  O222  1  0.50565000  0.87925000  0.55378000  1.0
  O  O223  1  0.99435000  0.12076000  0.05377000  1.0
  O  O224  1  0.73697000  0.16012000  0.45288000  1.0
  O  O225  1  0.76304000  0.83989000  0.95289000  1.0
  O  O226  1  0.26304000  0.83988000  0.54711000  1.0
  O  O227  1  0.23696000  0.16012000  0.04711000  1.0
