# generated using pymatgen
data_CdH14C10N4Cl2O
_symmetry_space_group_name_H-M   'P 1'
_cell_length_a   7.30419000
_cell_length_b   9.72443908
_cell_length_c   10.45220000
_cell_angle_alpha   83.51172095
_cell_angle_beta   81.64910000
_cell_angle_gamma   68.12679081
_symmetry_Int_Tables_number   1
_chemical_formula_structural   CdH14C10N4Cl2O
_chemical_formula_sum   'Cd2 H28 C20 N8 Cl4 O2'
_cell_volume   680.25652853
_cell_formula_units_Z   2
loop_
 _symmetry_equiv_pos_site_id
 _symmetry_equiv_pos_as_xyz
  1  'x, y, z'
loop_
 _atom_site_type_symbol
 _atom_site_label
 _atom_site_symmetry_multiplicity
 _atom_site_fract_x
 _atom_site_fract_y
 _atom_site_fract_z
 _atom_site_occupancy
  Cd  Cd0  1  0.29202000  0.95918000  0.41965000  1.0
  Cd  Cd1  1  0.70798000  0.04082000  0.58035000  1.0
  H  H2  1  0.87246000  0.09121000  0.25713000  1.0
  H  H3  1  0.12753000  0.90879000  0.74286000  1.0
  H  H4  1  0.45101000  0.06590000  0.10482000  1.0
  H  H5  1  0.54899000  0.93409000  0.89519000  1.0
  H  H6  1  0.19748000  0.18699000  0.91108000  1.0
  H  H7  1  0.80252000  0.81301000  0.08892000  1.0
  H  H8  1  0.68232000  0.20161000  0.07792000  1.0
  H  H9  1  0.31768000  0.79839000  0.92207000  1.0
  H  H10  1  0.81377000  0.14969000  0.92268000  1.0
  H  H11  1  0.18623000  0.85031000  0.07731000  1.0
  H  H12  1  0.59628000  0.41863000  0.92909000  1.0
  H  H13  1  0.40373000  0.58137000  0.07091000  1.0
  H  H14  1  0.75084000  0.44305000  0.03688000  1.0
  H  H15  1  0.24917000  0.55694000  0.96312000  1.0
  H  H16  1  0.90998000  0.58916000  0.86899000  1.0
  H  H17  1  0.09003000  0.41084000  0.13100000  1.0
  H  H18  1  0.70109000  0.60036000  0.79240000  1.0
  H  H19  1  0.29891000  0.39964000  0.20760000  1.0
  H  H20  1  0.92044000  0.46911000  0.60710000  1.0
  H  H21  1  0.07956000  0.53088000  0.39290000  1.0
  H  H22  1  0.94824000  0.64041000  0.62477000  1.0
  H  H23  1  0.05175000  0.35959000  0.37522000  1.0
  H  H24  1  0.20437000  0.22558000  0.65044000  1.0
  H  H25  1  0.79564000  0.77442000  0.34956000  1.0
  H  H26  1  0.65627000  0.39069000  0.67302000  1.0
  H  H27  1  0.34373000  0.60932000  0.32698000  1.0
  H  H28  1  0.29206000  0.62764000  0.67629000  1.0
  H  H29  1  0.70794000  0.37236000  0.32371000  1.0
  C  C30  1  0.99827000  0.10030000  0.19155000  1.0
  C  C31  1  0.00173000  0.89969000  0.80844000  1.0
  C  C32  1  0.29374000  0.08861000  0.10735000  1.0
  C  C33  1  0.70627000  0.91138000  0.89265000  1.0
  C  C34  1  0.17150000  0.14805000  0.01081000  1.0
  C  C35  1  0.82850000  0.85195000  0.98920000  1.0
  C  C36  1  0.80021000  0.21475000  0.00524000  1.0
  C  C37  1  0.19979000  0.78525000  0.99476000  1.0
  C  C38  1  0.74783000  0.37656000  0.95845000  1.0
  C  C39  1  0.25217000  0.62344000  0.04155000  1.0
  C  C40  1  0.85910000  0.53413000  0.80212000  1.0
  C  C41  1  0.14091000  0.46587000  0.19788000  1.0
  C  C42  1  0.97328000  0.52773000  0.66856000  1.0
  C  C43  1  0.02672000  0.47227000  0.33144000  1.0
  C  C44  1  0.28136000  0.29923000  0.66154000  1.0
  C  C45  1  0.71865000  0.70077000  0.33846000  1.0
  C  C46  1  0.50754000  0.39148000  0.67308000  1.0
  C  C47  1  0.49245000  0.60853000  0.32692000  1.0
  C  C48  1  0.32887000  0.50885000  0.67655000  1.0
  C  C49  1  0.67113000  0.49115000  0.32345000  1.0
  N  N50  1  0.18430000  0.05948000  0.21882000  1.0
  N  N51  1  0.81569000  0.94052000  0.78118000  1.0
  N  N52  1  0.98413000  0.15534000  0.06629000  1.0
  N  N53  1  0.01587000  0.84465000  0.93371000  1.0
  N  N54  1  0.18690000  0.44827000  0.66878000  1.0
  N  N55  1  0.81310000  0.55173000  0.33122000  1.0
  N  N56  1  0.47596000  0.26152000  0.66357000  1.0
  N  N57  1  0.52404000  0.73849000  0.33643000  1.0
  Cl  Cl58  1  0.46323000  0.88054000  0.63800000  1.0
  Cl  Cl59  1  0.53677000  0.11946000  0.36200000  1.0
  Cl  Cl60  1  0.97304000  0.17524000  0.53116000  1.0
  Cl  Cl61  1  0.02695000  0.82477000  0.46885000  1.0
  O  O62  1  0.88541000  0.38541000  0.84998000  1.0
  O  O63  1  0.11460000  0.61459000  0.15002000  1.0
