# generated using pymatgen
data_CuH8C14N2(OF)4
_symmetry_space_group_name_H-M   'P 1'
_cell_length_a   10.47440000
_cell_length_b   10.47440000
_cell_length_c   14.85300000
_cell_angle_alpha   105.45000000
_cell_angle_beta   105.45100000
_cell_angle_gamma   104.12900000
_symmetry_Int_Tables_number   1
_chemical_formula_structural   CuH8C14N2(OF)4
_chemical_formula_sum   'Cu4 H32 C56 N8 O16 F16'
_cell_volume   1424.18919534
_cell_formula_units_Z   4
loop_
 _symmetry_equiv_pos_site_id
 _symmetry_equiv_pos_as_xyz
  1  'x, y, z'
loop_
 _atom_site_type_symbol
 _atom_site_label
 _atom_site_symmetry_multiplicity
 _atom_site_fract_x
 _atom_site_fract_y
 _atom_site_fract_z
 _atom_site_occupancy
  Cu  Cu0  1  0.82260000  0.51785000  0.12614000  1.0
  Cu  Cu1  1  0.48216000  0.17741000  0.87386000  1.0
  Cu  Cu2  1  0.85825000  0.05343000  0.62612000  1.0
  Cu  Cu3  1  0.94656000  0.14175000  0.37388000  1.0
  H  H4  1  0.88550000  0.24489000  0.09460000  1.0
  H  H5  1  0.75511000  0.11449000  0.90540000  1.0
  H  H6  1  0.09955000  0.95885000  0.59439000  1.0
  H  H7  1  0.04115000  0.90045000  0.40560000  1.0
  H  H8  1  0.08397000  0.16921000  0.06002000  1.0
  H  H9  1  0.83078000  0.91602000  0.93997000  1.0
  H  H10  1  0.14052000  0.72574000  0.55966000  1.0
  H  H11  1  0.27426000  0.85948000  0.44035000  1.0
  H  H12  1  0.29156000  0.34995000  0.05914000  1.0
  H  H13  1  0.65005000  0.70844000  0.94086000  1.0
  H  H14  1  0.95897000  0.51735000  0.55889000  1.0
  H  H15  1  0.48265000  0.04104000  0.44111000  1.0
  H  H16  1  0.29387000  0.59616000  0.09275000  1.0
  H  H17  1  0.40384000  0.70613000  0.90726000  1.0
  H  H18  1  0.74644000  0.54867000  0.59260000  1.0
  H  H19  1  0.45132000  0.25355000  0.40740000  1.0
  H  H20  1  0.27500000  0.80327000  0.11982000  1.0
  H  H21  1  0.19673000  0.72500000  0.88018000  1.0
  H  H22  1  0.56649000  0.59461000  0.61975000  1.0
  H  H23  1  0.40537000  0.43350000  0.38024000  1.0
  H  H24  1  0.22403000  0.02625000  0.14265000  1.0
  H  H25  1  0.97375000  0.77597000  0.85736000  1.0
  H  H26  1  0.36632000  0.66836000  0.64263000  1.0
  H  H27  1  0.33163000  0.63368000  0.35736000  1.0
  H  H28  1  0.99038000  0.03323000  0.16094000  1.0
  H  H29  1  0.96678000  0.00962000  0.83907000  1.0
  H  H30  1  0.37749000  0.92019000  0.66077000  1.0
  H  H31  1  0.07981000  0.62251000  0.33923000  1.0
  H  H32  1  0.82432000  0.81585000  0.15763000  1.0
  H  H33  1  0.18416000  0.17567000  0.84237000  1.0
  H  H34  1  0.59149000  0.08300000  0.65742000  1.0
  H  H35  1  0.91699000  0.40852000  0.34259000  1.0
  C  C36  1  0.97710000  0.31770000  0.09133000  1.0
  C  C37  1  0.68231000  0.02290000  0.90867000  1.0
  C  C38  1  0.02346000  0.86401000  0.59113000  1.0
  C  C39  1  0.13599000  0.97653000  0.40887000  1.0
  C  C40  1  0.08840000  0.27795000  0.07396000  1.0
  C  C41  1  0.72205000  0.91159000  0.92604000  1.0
  C  C42  1  0.04578000  0.73529000  0.57368000  1.0
  C  C43  1  0.26471000  0.95422000  0.42632000  1.0
  C  C44  1  0.20308000  0.37803000  0.07293000  1.0
  C  C45  1  0.62197000  0.79692000  0.92707000  1.0
  C  C46  1  0.94472000  0.61964000  0.57272000  1.0
  C  C47  1  0.38035000  0.05528000  0.42728000  1.0
  C  C48  1  0.20417000  0.51589000  0.09130000  1.0
  C  C49  1  0.48411000  0.79583000  0.90870000  1.0
  C  C50  1  0.82525000  0.63693000  0.59114000  1.0
  C  C51  1  0.36307000  0.17475000  0.40886000  1.0
  C  C52  1  0.08911000  0.54931000  0.10735000  1.0
  C  C53  1  0.45069000  0.91089000  0.89265000  1.0
  C  C54  1  0.80791000  0.76806000  0.60724000  1.0
  C  C55  1  0.23194000  0.19209000  0.39275000  1.0
  C  C56  1  0.07562000  0.68991000  0.12465000  1.0
  C  C57  1  0.31009000  0.92438000  0.87535000  1.0
  C  C58  1  0.68463000  0.79887000  0.62458000  1.0
  C  C59  1  0.20113000  0.31537000  0.37542000  1.0
  C  C60  1  0.17557000  0.80811000  0.12731000  1.0
  C  C61  1  0.19189000  0.82443000  0.87269000  1.0
  C  C62  1  0.56912000  0.70152000  0.62723000  1.0
  C  C63  1  0.29847000  0.43088000  0.37276000  1.0
  C  C64  1  0.14649000  0.93346000  0.14009000  1.0
  C  C65  1  0.06654000  0.85351000  0.85990000  1.0
  C  C66  1  0.45654000  0.74336000  0.64006000  1.0
  C  C67  1  0.25664000  0.54346000  0.35994000  1.0
  C  C68  1  0.01895000  0.93839000  0.15018000  1.0
  C  C69  1  0.06161000  0.98105000  0.84982000  1.0
  C  C70  1  0.46160000  0.88091000  0.65005000  1.0
  C  C71  1  0.11908000  0.53840000  0.34995000  1.0
  C  C72  1  0.92456000  0.81750000  0.14860000  1.0
  C  C73  1  0.18249000  0.07544000  0.85140000  1.0
  C  C74  1  0.58086000  0.97379000  0.64846000  1.0
  C  C75  1  0.02621000  0.41914000  0.35154000  1.0
  C  C76  1  0.73463000  0.63996000  0.27328000  1.0
  C  C77  1  0.36005000  0.26537000  0.72672000  1.0
  C  C78  1  0.88332000  0.28861000  0.77324000  1.0
  C  C79  1  0.71139000  0.11669000  0.22677000  1.0
  C  C80  1  0.61080000  0.66525000  0.30638000  1.0
  C  C81  1  0.33475000  0.38920000  0.69362000  1.0
  C  C82  1  0.89106000  0.44548000  0.80626000  1.0
  C  C83  1  0.55452000  0.10894000  0.19374000  1.0
  C  C84  1  0.59122000  0.80757000  0.30917000  1.0
  C  C85  1  0.19243000  0.40878000  0.69084000  1.0
  C  C86  1  0.75154000  0.46789000  0.80907000  1.0
  C  C87  1  0.53211000  0.24846000  0.19093000  1.0
  C  C88  1  0.72109000  0.93652000  0.38620000  1.0
  C  C89  1  0.06348000  0.27891000  0.61380000  1.0
  C  C90  1  0.69964000  0.41510000  0.88617000  1.0
  C  C91  1  0.58491000  0.30037000  0.11384000  1.0
  N  N92  1  0.95356000  0.69782000  0.13660000  1.0
  N  N93  1  0.30217000  0.04643000  0.86340000  1.0
  N  N94  1  0.68862000  0.93285000  0.63651000  1.0
  N  N95  1  0.06715000  0.31139000  0.36349000  1.0
  N  N96  1  0.97732000  0.44973000  0.10609000  1.0
  N  N97  1  0.55028000  0.02267000  0.89391000  1.0
  N  N98  1  0.90624000  0.87858000  0.60597000  1.0
  N  N99  1  0.12142000  0.09376000  0.39402000  1.0
  O  O100  1  0.69962000  0.60549000  0.17805000  1.0
  O  O101  1  0.39452000  0.30039000  0.82195000  1.0
  O  O102  1  0.82244000  0.22825000  0.67802000  1.0
  O  O103  1  0.77174000  0.17757000  0.32199000  1.0
  O  O104  1  0.84562000  0.65221000  0.33648000  1.0
  O  O105  1  0.34780000  0.15438000  0.66352000  1.0
  O  O106  1  0.93452000  0.24095000  0.83644000  1.0
  O  O107  1  0.75905000  0.06549000  0.16356000  1.0
  O  O108  1  0.82705000  0.95270000  0.35742000  1.0
  O  O109  1  0.04731000  0.17294000  0.64258000  1.0
  O  O110  1  0.65472000  0.28037000  0.85742000  1.0
  O  O111  1  0.71964000  0.34529000  0.14260000  1.0
  O  O112  1  0.70944000  0.00434000  0.46413000  1.0
  O  O113  1  0.99566000  0.29055000  0.53587000  1.0
  O  O114  1  0.70981000  0.50466000  0.96411000  1.0
  O  O115  1  0.49536000  0.29020000  0.03589000  1.0
  F  F116  1  0.48577000  0.55930000  0.24290000  1.0
  F  F117  1  0.44070000  0.51423000  0.75710000  1.0
  F  F118  1  0.93355000  0.50705000  0.74279000  1.0
  F  F119  1  0.49295000  0.06645000  0.25721000  1.0
  F  F120  1  0.62892000  0.65954000  0.40058000  1.0
  F  F121  1  0.34046000  0.37108000  0.59942000  1.0
  F  F122  1  0.99090000  0.52151000  0.90048000  1.0
  F  F123  1  0.47849000  0.00912000  0.09952000  1.0
  F  F124  1  0.56346000  0.81282000  0.21444000  1.0
  F  F125  1  0.18718000  0.43653000  0.78556000  1.0
  F  F126  1  0.65157000  0.40100000  0.71437000  1.0
  F  F127  1  0.59900000  0.34844000  0.28563000  1.0
  F  F128  1  0.47159000  0.80901000  0.33199000  1.0
  F  F129  1  0.19098000  0.52840000  0.66800000  1.0
  F  F130  1  0.77298000  0.61034000  0.83188000  1.0
  F  F131  1  0.38966000  0.22703000  0.16812000  1.0
