# generated using pymatgen
data_V2ZnH8C12(NO2)3
_symmetry_space_group_name_H-M   'P 1'
_cell_length_a   8.04283000
_cell_length_b   8.95846000
_cell_length_c   11.07370000
_cell_angle_alpha   105.84900000
_cell_angle_beta   102.10200000
_cell_angle_gamma   108.24200000
_symmetry_Int_Tables_number   1
_chemical_formula_structural   V2ZnH8C12(NO2)3
_chemical_formula_sum   'V4 Zn2 H16 C24 N6 O12'
_cell_volume   689.88561440
_cell_formula_units_Z   2
loop_
 _symmetry_equiv_pos_site_id
 _symmetry_equiv_pos_as_xyz
  1  'x, y, z'
loop_
 _atom_site_type_symbol
 _atom_site_label
 _atom_site_symmetry_multiplicity
 _atom_site_fract_x
 _atom_site_fract_y
 _atom_site_fract_z
 _atom_site_occupancy
  V  V0  1  0.47415000  0.27857000  0.07148000  1.0
  V  V1  1  0.52585000  0.72144000  0.92852000  1.0
  V  V2  1  0.72780000  0.06817000  0.19456000  1.0
  V  V3  1  0.27220000  0.93183000  0.80544000  1.0
  Zn  Zn4  1  0.16381000  0.35527000  0.25120000  1.0
  Zn  Zn5  1  0.83619000  0.64473000  0.74879000  1.0
  H  H6  1  0.21426000  0.54523000  0.05972000  1.0
  H  H7  1  0.78574000  0.45477000  0.94028000  1.0
  H  H8  1  0.17639000  0.80335000  0.03326000  1.0
  H  H9  1  0.82361000  0.19665000  0.96674000  1.0
  H  H10  1  0.06548000  0.96924000  0.19598000  1.0
  H  H11  1  0.93452000  0.03076000  0.80402000  1.0
  H  H12  1  0.98949000  0.86840000  0.37441000  1.0
  H  H13  1  0.01051000  0.13160000  0.62559000  1.0
  H  H14  1  0.69608000  0.65466000  0.27416000  1.0
  H  H15  1  0.30392000  0.34534000  0.72584000  1.0
  H  H16  1  0.47955000  0.79597000  0.29103000  1.0
  H  H17  1  0.52045000  0.20403000  0.70897000  1.0
  H  H18  1  0.39781000  0.86738000  0.50425000  1.0
  H  H19  1  0.60219000  0.13262000  0.49575000  1.0
  H  H20  1  0.55637000  0.80757000  0.69184000  1.0
  H  H21  1  0.44363000  0.19242000  0.30816000  1.0
  C  C22  1  0.15759000  0.61652000  0.12402000  1.0
  C  C23  1  0.84241000  0.38348000  0.87598000  1.0
  C  C24  1  0.14150000  0.76293000  0.11219000  1.0
  C  C25  1  0.85850000  0.23707000  0.88781000  1.0
  C  C26  1  0.07863000  0.85385000  0.20209000  1.0
  C  C27  1  0.92137000  0.14615000  0.79791000  1.0
  C  C28  1  0.03180000  0.79566000  0.30006000  1.0
  C  C29  1  0.96820000  0.20434000  0.69994000  1.0
  C  C30  1  0.04257000  0.64387000  0.30199000  1.0
  C  C31  1  0.95743000  0.35613000  0.69800000  1.0
  C  C32  1  0.00520000  0.57125000  0.40383000  1.0
  C  C33  1  0.99480000  0.42875000  0.59617000  1.0
  C  C34  1  0.88994000  0.58874000  0.48287000  1.0
  C  C35  1  0.11006000  0.41127000  0.51713000  1.0
  C  C36  1  0.75630000  0.67108000  0.47896000  1.0
  C  C37  1  0.24370000  0.32892000  0.52104000  1.0
  C  C38  1  0.67016000  0.69663000  0.36777000  1.0
  C  C39  1  0.32984000  0.30337000  0.63223000  1.0
  C  C40  1  0.54285000  0.77154000  0.37634000  1.0
  C  C41  1  0.45715000  0.22846000  0.62366000  1.0
  C  C42  1  0.49888000  0.81206000  0.49272000  1.0
  C  C43  1  0.50112000  0.18794000  0.50728000  1.0
  C  C44  1  0.58668000  0.77871000  0.59872000  1.0
  C  C45  1  0.41331000  0.22129000  0.40128000  1.0
  N  N46  1  0.10841000  0.55848000  0.21590000  1.0
  N  N47  1  0.89159000  0.44152000  0.78410000  1.0
  N  N48  1  0.10593000  0.48189000  0.42525000  1.0
  N  N49  1  0.89407000  0.51812000  0.57475000  1.0
  N  N50  1  0.71265000  0.71100000  0.59237000  1.0
  N  N51  1  0.28735000  0.28900000  0.40763000  1.0
  O  O52  1  0.65050000  0.44788000  0.09561000  1.0
  O  O53  1  0.34950000  0.55212000  0.90439000  1.0
  O  O54  1  0.32462000  0.33021000  0.14432000  1.0
  O  O55  1  0.67538000  0.66979000  0.85568000  1.0
  O  O56  1  0.55676000  0.15045000  0.14782000  1.0
  O  O57  1  0.44324000  0.84955000  0.85218000  1.0
  O  O58  1  0.36905000  0.15577000  0.89526000  1.0
  O  O59  1  0.63095000  0.84423000  0.10474000  1.0
  O  O60  1  0.92015000  0.16365000  0.16009000  1.0
  O  O61  1  0.07985000  0.83635000  0.83991000  1.0
  O  O62  1  0.78045000  0.10441000  0.35361000  1.0
  O  O63  1  0.21955000  0.89559000  0.64639000  1.0
