# generated using pymatgen
data_PrH19C24S(NO2)4
_symmetry_space_group_name_H-M   'P 1'
_cell_length_a   8.99709000
_cell_length_b   9.01352000
_cell_length_c   14.51520000
_cell_angle_alpha   96.72750000
_cell_angle_beta   91.57370000
_cell_angle_gamma   99.78010000
_symmetry_Int_Tables_number   1
_chemical_formula_structural   PrH19C24S(NO2)4
_chemical_formula_sum   'Pr2 H38 C48 S2 N8 O16'
_cell_volume   1150.67259807
_cell_formula_units_Z   2
loop_
 _symmetry_equiv_pos_site_id
 _symmetry_equiv_pos_as_xyz
  1  'x, y, z'
loop_
 _atom_site_type_symbol
 _atom_site_label
 _atom_site_symmetry_multiplicity
 _atom_site_fract_x
 _atom_site_fract_y
 _atom_site_fract_z
 _atom_site_occupancy
  Pr  Pr0  1  0.54698000  0.56531000  0.64800000  1.0
  Pr  Pr1  1  0.45302000  0.43469000  0.35199000  1.0
  H  H2  1  0.10976000  0.44766000  0.10308000  1.0
  H  H3  1  0.89024000  0.55234000  0.89692000  1.0
  H  H4  1  0.40011000  0.83618000  0.78516000  1.0
  H  H5  1  0.59989000  0.16382000  0.21484000  1.0
  H  H6  1  0.25140000  0.88973000  0.92518000  1.0
  H  H7  1  0.74860000  0.11027000  0.07482000  1.0
  H  H8  1  0.18095000  0.68493000  0.02626000  1.0
  H  H9  1  0.81905000  0.31507000  0.97374000  1.0
  H  H10  1  0.48857000  0.03885000  0.92676000  1.0
  H  H11  1  0.51143000  0.96115000  0.07324000  1.0
  H  H12  1  0.64981000  0.02788000  0.78820000  1.0
  H  H13  1  0.35018000  0.97212000  0.21180000  1.0
  H  H14  1  0.67654000  0.24266000  0.69272000  1.0
  H  H15  1  0.32345000  0.75734000  0.30728000  1.0
  H  H16  1  0.10674000  0.94306000  0.07703000  1.0
  H  H17  1  0.89326000  0.05694000  0.92297000  1.0
  H  H18  1  0.93130000  0.78168000  0.17001000  1.0
  H  H19  1  0.06870000  0.21832000  0.82999000  1.0
  H  H20  1  0.79161000  0.90568000  0.29480000  1.0
  H  H21  1  0.20839000  0.09432000  0.70520000  1.0
  H  H22  1  0.83902000  0.18755000  0.32921000  1.0
  H  H23  1  0.16098000  0.81245000  0.67079000  1.0
  H  H24  1  0.92292000  0.97658000  0.55170000  1.0
  H  H25  1  0.07708000  0.02342000  0.44830000  1.0
  H  H26  1  0.85986000  0.06651000  0.65536000  1.0
  H  H27  1  0.14014000  0.93349000  0.34464000  1.0
  H  H28  1  0.60854000  0.06420000  0.56763000  1.0
  H  H29  1  0.39146000  0.93580000  0.43237000  1.0
  H  H30  1  0.68754000  0.99712000  0.46448000  1.0
  H  H31  1  0.31247000  0.00288000  0.53552000  1.0
  H  H32  1  0.81941000  0.29820000  0.58573000  1.0
  H  H33  1  0.18059000  0.70180000  0.41427000  1.0
  H  H34  1  0.88299000  0.23222000  0.47672000  1.0
  H  H35  1  0.11701000  0.76779000  0.52328000  1.0
  H  H36  1  0.20166000  0.44725000  0.64005000  1.0
  H  H37  1  0.79835000  0.55275000  0.35995000  1.0
  H  H38  1  0.26841000  0.34034000  0.56262000  1.0
  H  H39  1  0.73159000  0.65966000  0.43738000  1.0
  C  C40  1  0.37184000  0.75115000  0.83230000  1.0
  C  C41  1  0.62816000  0.24885000  0.16770000  1.0
  C  C42  1  0.28685000  0.78002000  0.91013000  1.0
  C  C43  1  0.71315000  0.21998000  0.08987000  1.0
  C  C44  1  0.24857000  0.66698000  0.96602000  1.0
  C  C45  1  0.75143000  0.33302000  0.03398000  1.0
  C  C46  1  0.29921000  0.52791000  0.94504000  1.0
  C  C47  1  0.70078000  0.47209000  0.05495000  1.0
  C  C48  1  0.26772000  0.40171000  0.99623000  1.0
  C  C49  1  0.73227000  0.59829000  0.00377000  1.0
  C  C50  1  0.32805000  0.26838000  0.97674000  1.0
  C  C51  1  0.67195000  0.73162000  0.02326000  1.0
  C  C52  1  0.42708000  0.25309000  0.90216000  1.0
  C  C53  1  0.57292000  0.74690000  0.09784000  1.0
  C  C54  1  0.50127000  0.12859000  0.88210000  1.0
  C  C55  1  0.49873000  0.87141000  0.11790000  1.0
  C  C56  1  0.59172000  0.12303000  0.80680000  1.0
  C  C57  1  0.40828000  0.87697000  0.19320000  1.0
  C  C58  1  0.60542000  0.24271000  0.75220000  1.0
  C  C59  1  0.39457000  0.75729000  0.24780000  1.0
  C  C60  1  0.45134000  0.37180000  0.84466000  1.0
  C  C61  1  0.54866000  0.62820000  0.15534000  1.0
  C  C62  1  0.38864000  0.50948000  0.86633000  1.0
  C  C63  1  0.61136000  0.49052000  0.13367000  1.0
  C  C64  1  0.17858000  0.23191000  0.08857000  1.0
  C  C65  1  0.82142000  0.76809000  0.91143000  1.0
  C  C66  1  0.07757000  0.15408000  0.15194000  1.0
  C  C67  1  0.92243000  0.84592000  0.84806000  1.0
  C  C68  1  0.04866000  0.99449000  0.13391000  1.0
  C  C69  1  0.95134000  0.00551000  0.86609000  1.0
  C  C70  1  0.94903000  0.90504000  0.18499000  1.0
  C  C71  1  0.05097000  0.09496000  0.81501000  1.0
  C  C72  1  0.87193000  0.97445000  0.25521000  1.0
  C  C73  1  0.12807000  0.02555000  0.74479000  1.0
  C  C74  1  0.89990000  0.13215000  0.27546000  1.0
  C  C75  1  0.10010000  0.86785000  0.72454000  1.0
  C  C76  1  0.00263000  0.22245000  0.22588000  1.0
  C  C77  1  0.99737000  0.77755000  0.77412000  1.0
  C  C78  1  0.74164000  0.84166000  0.61288000  1.0
  C  C79  1  0.25836000  0.15834000  0.38712000  1.0
  C  C80  1  0.82249000  0.99290000  0.59034000  1.0
  C  C81  1  0.17752000  0.00710000  0.40966000  1.0
  C  C82  1  0.71573000  0.06533000  0.53257000  1.0
  C  C83  1  0.28427000  0.93467000  0.46743000  1.0
  C  C84  1  0.78326000  0.22912000  0.51897000  1.0
  C  C85  1  0.21674000  0.77088000  0.48103000  1.0
  C  C86  1  0.66511000  0.29701000  0.47086000  1.0
  C  C87  1  0.33489000  0.70299000  0.52914000  1.0
  S  S88  1  0.03717000  0.42284000  0.26626000  1.0
  S  S89  1  0.96283000  0.57716000  0.73374000  1.0
  N  N90  1  0.42092000  0.62052000  0.81051000  1.0
  N  N91  1  0.57909000  0.37948000  0.18949000  1.0
  N  N92  1  0.53765000  0.36284000  0.76965000  1.0
  N  N93  1  0.46235000  0.63716000  0.23035000  1.0
  N  N94  1  0.17466000  0.37651000  0.06783000  1.0
  N  N95  1  0.82534000  0.62349000  0.93217000  1.0
  N  N96  1  0.27252000  0.16425000  0.03449000  1.0
  N  N97  1  0.72748000  0.83575000  0.96551000  1.0
  O  O98  1  0.20084000  0.45893000  0.29157000  1.0
  O  O99  1  0.79916000  0.54107000  0.70843000  1.0
  O  O100  1  0.94489000  0.44544000  0.34607000  1.0
  O  O101  1  0.05511000  0.55456000  0.65393000  1.0
  O  O102  1  0.99922000  0.50441000  0.18890000  1.0
  O  O103  1  0.00078000  0.49559000  0.81110000  1.0
  O  O104  1  0.67835000  0.83316000  0.69007000  1.0
  O  O105  1  0.32165000  0.16684000  0.30993000  1.0
  O  O106  1  0.73059000  0.72413000  0.55230000  1.0
  O  O107  1  0.26941000  0.27587000  0.44770000  1.0
  O  O108  1  0.59140000  0.38714000  0.51876000  1.0
  O  O109  1  0.40860000  0.61286000  0.48124000  1.0
  O  O110  1  0.63395000  0.25984000  0.38478000  1.0
  O  O111  1  0.36605000  0.74016000  0.61522000  1.0
  O  O112  1  0.28898000  0.39557000  0.62654000  1.0
  O  O113  1  0.71102000  0.60443000  0.37346000  1.0
