# generated using pymatgen
data_Zn8H65C80Br7O32
_symmetry_space_group_name_H-M   'P 1'
_cell_length_a   18.31030000
_cell_length_b   18.32260000
_cell_length_c   18.40310000
_cell_angle_alpha   90.30220000
_cell_angle_beta   119.82300000
_cell_angle_gamma   119.36200000
_symmetry_Int_Tables_number   1
_chemical_formula_structural   Zn8H65C80Br7O32
_chemical_formula_sum   'Zn8 H65 C80 Br7 O32'
_cell_volume   4407.67936309
_cell_formula_units_Z   1
loop_
 _symmetry_equiv_pos_site_id
 _symmetry_equiv_pos_as_xyz
  1  'x, y, z'
loop_
 _atom_site_type_symbol
 _atom_site_label
 _atom_site_symmetry_multiplicity
 _atom_site_fract_x
 _atom_site_fract_y
 _atom_site_fract_z
 _atom_site_occupancy
  Zn  Zn0  1  0.41051000  0.54134000  0.46135000  1.0
  Zn  Zn1  1  0.58297000  0.54072000  0.45648000  1.0
  Zn  Zn2  1  0.41772000  0.37074000  0.46251000  1.0
  Zn  Zn3  1  0.58945000  0.54225000  0.63526000  1.0
  Zn  Zn4  1  0.58560000  0.95368000  0.04722000  1.0
  Zn  Zn5  1  0.59049000  0.12929000  0.04852000  1.0
  Zn  Zn6  1  0.40663000  0.95098000  0.03795000  1.0
  Zn  Zn7  1  0.41301000  0.95811000  0.87080000  1.0
  H  H8  1  0.53758000  0.80123000  0.65567000  1.0
  H  H9  1  0.09891000  0.78164000  0.96941000  1.0
  H  H10  1  0.90494000  0.67412000  0.87515000  1.0
  H  H11  1  0.35486000  0.18554000  0.26755000  1.0
  H  H12  1  0.35356000  0.08695000  0.17283000  1.0
  H  H13  1  0.73873000  0.34018000  0.30480000  1.0
  H  H14  1  0.73616000  0.44999000  0.38520000  1.0
  H  H15  1  0.40435000  0.46231000  0.81555000  1.0
  H  H16  1  0.66864000  0.46608000  0.28301000  1.0
  H  H17  1  0.32340000  0.72360000  0.12799000  1.0
  H  H18  1  0.70542000  0.83218000  0.24623000  1.0
  H  H19  1  0.08627000  0.45878000  0.34803000  1.0
  H  H20  1  0.73197000  0.91258000  0.32720000  1.0
  H  H21  1  0.70035000  0.73276000  0.34027000  1.0
  H  H22  1  0.72659000  0.81338000  0.42097000  1.0
  H  H23  1  0.89189000  0.35794000  0.25021000  1.0
  H  H24  1  0.10751000  0.44306000  0.55363000  1.0
  H  H25  1  0.04026000  0.46762000  0.45970000  1.0
  H  H26  1  0.27241000  0.55533000  0.57363000  1.0
  H  H27  1  0.20786000  0.58262000  0.48204000  1.0
  H  H28  1  0.14822000  0.62980000  0.56038000  1.0
  H  H29  1  0.28345000  0.69173000  0.62302000  1.0
  H  H30  1  0.37607000  0.08962000  0.69008000  1.0
  H  H31  1  0.21632000  0.60463000  0.65336000  1.0
  H  H32  1  0.22924000  0.16383000  0.58978000  1.0
  H  H33  1  0.29109000  0.25469000  0.55852000  1.0
  H  H34  1  0.20109000  0.15463000  0.41013000  1.0
  H  H35  1  0.14683000  0.06045000  0.44031000  1.0
  H  H36  1  0.05224000  0.11162000  0.46334000  1.0
  H  H37  1  0.02226000  0.10303000  0.35468000  1.0
  H  H38  1  0.10953000  0.20841000  0.43744000  1.0
  H  H39  1  0.85874000  0.45877000  0.00889000  1.0
  H  H40  1  0.75087000  0.37241000  0.90751000  1.0
  H  H41  1  0.59005000  0.36829000  0.96523000  1.0
  H  H42  1  0.83774000  0.33973000  0.08562000  1.0
  H  H43  1  0.74580000  0.25875000  0.98008000  1.0
  H  H44  1  0.87969000  0.32271000  0.94501000  1.0
  H  H45  1  0.91652000  0.28685000  0.03875000  1.0
  H  H46  1  0.97170000  0.40162000  0.05333000  1.0
  H  H47  1  0.84268000  0.61498000  0.96850000  1.0
  H  H48  1  0.74743000  0.57392000  0.98955000  1.0
  H  H49  1  0.74772000  0.64987000  0.84098000  1.0
  H  H50  1  0.63642000  0.58740000  0.83839000  1.0
  H  H51  1  0.71585000  0.69551000  0.97991000  1.0
  H  H52  1  0.57903000  0.45898000  0.86631000  1.0
  H  H53  1  0.72187000  0.75049000  0.90208000  1.0
  H  H54  1  0.83306000  0.76061000  0.99019000  1.0
  H  H55  1  0.22787000  0.22351000  0.22404000  1.0
  H  H56  1  0.18387000  0.29377000  0.20036000  1.0
  H  H57  1  0.06094000  0.10100000  0.08495000  1.0
  H  H58  1  0.02060000  0.17268000  0.06025000  1.0
  H  H59  1  0.16879000  0.27453000  0.04935000  1.0
  H  H60  1  0.09121000  0.16545000  0.97478000  1.0
  H  H61  1  0.21006000  0.20262000  0.07513000  1.0
  H  H62  1  0.86925000  0.01445000  0.20877000  1.0
  H  H63  1  0.89690000  0.73964000  0.58761000  1.0
  H  H64  1  0.97751000  0.03121000  0.21446000  1.0
  H  H65  1  0.75326000  0.91036000  0.05369000  1.0
  H  H66  1  0.85906000  0.92269000  0.06093000  1.0
  H  H67  1  0.89659000  0.86343000  0.18996000  1.0
  H  H68  1  0.76913000  0.78602000  0.09687000  1.0
  H  H69  1  0.79316000  0.85422000  0.18542000  1.0
  H  H70  1  0.45994000  0.53244000  0.72285000  1.0
  H  H71  1  0.08700000  0.83866000  0.67917000  1.0
  H  H72  1  0.10557000  0.69507000  0.93478000  1.0
  C  C73  1  0.77379000  0.63413000  0.63608000  1.0
  C  C74  1  0.11181000  0.30164000  0.30260000  1.0
  C  C75  1  0.05868000  0.21803000  0.24071000  1.0
  C  C76  1  0.22539000  0.36037000  0.36601000  1.0
  C  C77  1  0.94970000  0.16152000  0.18582000  1.0
  C  C78  1  0.89044000  0.18766000  0.18941000  1.0
  C  C79  1  0.94492000  0.27051000  0.25060000  1.0
  C  C80  1  0.93190000  0.33004000  0.29204000  1.0
  C  C81  1  0.05519000  0.39333000  0.35729000  1.0
  C  C82  1  0.55047000  0.34333000  0.79230000  1.0
  C  C83  1  0.48344000  0.30712000  0.69951000  1.0
  C  C84  1  0.41312000  0.64948000  0.85638000  1.0
  C  C85  1  0.41632000  0.21288000  0.66466000  1.0
  C  C86  1  0.42696000  0.16152000  0.72040000  1.0
  C  C87  1  0.49751000  0.19932000  0.81286000  1.0
  C  C88  1  0.48529000  0.62588000  0.35511000  1.0
  C  C89  1  0.55735000  0.29206000  0.84792000  1.0
  C  C90  1  0.62794000  0.37132000  0.93287000  1.0
  C  C91  1  0.62034000  0.43009000  0.86776000  1.0
  C  C92  1  0.94748000  0.69706000  0.77874000  1.0
  C  C93  1  0.88753000  0.69082000  0.69085000  1.0
  C  C94  1  0.94113000  0.74332000  0.65636000  1.0
  C  C95  1  0.45371000  0.69641000  0.80917000  1.0
  C  C96  1  0.04775000  0.79932000  0.70785000  1.0
  C  C97  1  0.10725000  0.80706000  0.79747000  1.0
  C  C98  1  0.05401000  0.75395000  0.83074000  1.0
  C  C99  1  0.06608000  0.72834000  0.91221000  1.0
  C  C100  1  0.48999000  0.36465000  0.64316000  1.0
  C  C101  1  0.94572000  0.66388000  0.85303000  1.0
  C  C102  1  0.57348000  0.33537000  0.28865000  1.0
  C  C103  1  0.49646000  0.30347000  0.30251000  1.0
  C  C104  1  0.41654000  0.21249000  0.25855000  1.0
  C  C105  1  0.41596000  0.15707000  0.20582000  1.0
  C  C106  1  0.46772000  0.65077000  0.75820000  1.0
  C  C107  1  0.49611000  0.18888000  0.19500000  1.0
  C  C108  1  0.57405000  0.27920000  0.23754000  1.0
  C  C109  1  0.67940000  0.35134000  0.26305000  1.0
  C  C110  1  0.67482000  0.41654000  0.31404000  1.0
  C  C111  1  0.56801000  0.73934000  0.29888000  1.0
  C  C112  1  0.49835000  0.36078000  0.36175000  1.0
  C  C113  1  0.47929000  0.67771000  0.29281000  1.0
  C  C114  1  0.39063000  0.67310000  0.22808000  1.0
  C  C115  1  0.39320000  0.72877000  0.17651000  1.0
  C  C116  1  0.48454000  0.79174000  0.18557000  1.0
  C  C117  1  0.49711000  0.69012000  0.70262000  1.0
  C  C118  1  0.57124000  0.79460000  0.24722000  1.0
  C  C119  1  0.68490000  0.84141000  0.29066000  1.0
  C  C120  1  0.68162000  0.77891000  0.34962000  1.0
  C  C121  1  0.50241000  0.14086000  0.86867000  1.0
  C  C122  1  0.48782000  0.85223000  0.13212000  1.0
  C  C123  1  0.77656000  0.13071000  0.13493000  1.0
  C  C124  1  0.50436000  0.64086000  0.64384000  1.0
  C  C125  1  0.22076000  0.86680000  0.85408000  1.0
  C  C126  1  0.49712000  0.12868000  0.14163000  1.0
  C  C127  1  0.48399000  0.84505000  0.86736000  1.0
  C  C128  1  0.51660000  0.77225000  0.69929000  1.0
  C  C129  1  0.44868000  0.56628000  0.76107000  1.0
  C  C130  1  0.41750000  0.52662000  0.81239000  1.0
  C  C131  1  0.39890000  0.56807000  0.85961000  1.0
  C  C132  1  0.10898000  0.46692000  0.49930000  1.0
  C  C133  1  0.20606000  0.55925000  0.53653000  1.0
  C  C134  1  0.21402000  0.62491000  0.59648000  1.0
  C  C135  1  0.25837000  0.18345000  0.54812000  1.0
  C  C136  1  0.17265000  0.13032000  0.45121000  1.0
  C  C137  1  0.08437000  0.13874000  0.42526000  1.0
  C  C138  1  0.78883000  0.39119000  0.97973000  1.0
  C  C139  1  0.51110000  0.81950000  0.75453000  1.0
  C  C140  1  0.81505000  0.32694000  0.01676000  1.0
  C  C141  1  0.90025000  0.33490000  0.01320000  1.0
  C  C142  1  0.75994000  0.58078000  0.93639000  1.0
  C  C143  1  0.72025000  0.63201000  0.88365000  1.0
  C  C144  1  0.74968000  0.71427000  0.94209000  1.0
  C  C145  1  0.15899000  0.22401000  0.19001000  1.0
  C  C146  1  0.08863000  0.17089000  0.09164000  1.0
  C  C147  1  0.14273000  0.20535000  0.04533000  1.0
  C  C148  1  0.89909000  0.01398000  0.16954000  1.0
  C  C149  1  0.82928000  0.92354000  0.10001000  1.0
  C  C150  1  0.48003000  0.78395000  0.80827000  1.0
  C  C151  1  0.82165000  0.85286000  0.14537000  1.0
  C  C152  1  0.05095000  0.32481000  0.30544000  1.0
  Br  Br153  1  0.86275000  0.27566000  0.35059000  1.0
  Br  Br154  1  0.89234000  0.53738000  0.83177000  1.0
  Br  Br155  1  0.69947000  0.38257000  0.16941000  1.0
  Br  Br156  1  0.26013000  0.58617000  0.20380000  1.0
  Br  Br157  1  0.35077000  0.50520000  0.92447000  1.0
  Br  Br158  1  0.36802000  0.69126000  0.90883000  1.0
  Br  Br159  1  0.55216000  0.93719000  0.75410000  1.0
  O  O160  1  0.50110000  0.50075000  0.50485000  1.0
  O  O161  1  0.26289000  0.87525000  0.93633000  1.0
  O  O162  1  0.57265000  0.16518000  0.13553000  1.0
  O  O163  1  0.73248000  0.60069000  0.67716000  1.0
  O  O164  1  0.41622000  0.86109000  0.82929000  1.0
  O  O165  1  0.42335000  0.04649000  0.10714000  1.0
  O  O166  1  0.55985000  0.87931000  0.94828000  1.0
  O  O167  1  0.73205000  0.04763000  0.12092000  1.0
  O  O168  1  0.26643000  0.90372000  0.81726000  1.0
  O  O169  1  0.55243000  0.17800000  0.95179000  1.0
  O  O170  1  0.41626000  0.86430000  0.09796000  1.0
  O  O171  1  0.43806000  0.61669000  0.39038000  1.0
  O  O172  1  0.26530000  0.44361000  0.38336000  1.0
  O  O173  1  0.54201000  0.59858000  0.36988000  1.0
  O  O174  1  0.45645000  0.32897000  0.56414000  1.0
  O  O175  1  0.57068000  0.44320000  0.39487000  1.0
  O  O176  1  0.57692000  0.63051000  0.68175000  1.0
  O  O177  1  0.42818000  0.32305000  0.37511000  1.0
  O  O178  1  0.43635000  0.61441000  0.56109000  1.0
  O  O179  1  0.10149000  0.40107000  0.44733000  1.0
  O  O180  1  0.33723000  0.16745000  0.57682000  1.0
  O  O181  1  0.72524000  0.39497000  0.00214000  1.0
  O  O182  1  0.53305000  0.44692000  0.67970000  1.0
  O  O183  1  0.71277000  0.49471000  0.87978000  1.0
  O  O184  1  0.10906000  0.18566000  0.23417000  1.0
  O  O185  1  0.90273000  0.08143000  0.12737000  1.0
  O  O186  1  0.72760000  0.62473000  0.55357000  1.0
  O  O187  1  0.27220000  0.32331000  0.39867000  1.0
  O  O188  1  0.49952000  0.99854000  0.00080000  1.0
  O  O189  1  0.45591000  0.05889000  0.82845000  1.0
  O  O190  1  0.56348000  0.88750000  0.12588000  1.0
  O  O191  1  0.73410000  0.17228000  0.10883000  1.0
