# generated using pymatgen
data_CdH10C13N2O7
_symmetry_space_group_name_H-M   'P 1'
_cell_length_a   8.01069000
_cell_length_b   12.74560000
_cell_length_c   18.30060000
_cell_angle_alpha   90.00000000
_cell_angle_beta   90.00000000
_cell_angle_gamma   90.00000000
_symmetry_Int_Tables_number   1
_chemical_formula_structural   CdH10C13N2O7
_chemical_formula_sum   'Cd4 H40 C52 N8 O28'
_cell_volume   1868.51048412
_cell_formula_units_Z   4
loop_
 _symmetry_equiv_pos_site_id
 _symmetry_equiv_pos_as_xyz
  1  'x, y, z'
loop_
 _atom_site_type_symbol
 _atom_site_label
 _atom_site_symmetry_multiplicity
 _atom_site_fract_x
 _atom_site_fract_y
 _atom_site_fract_z
 _atom_site_occupancy
  Cd  Cd0  1  0.10019000  0.16178000  0.10821000  1.0
  Cd  Cd1  1  0.39981000  0.83822000  0.60821000  1.0
  Cd  Cd2  1  0.60019000  0.33822000  0.89179000  1.0
  Cd  Cd3  1  0.89981000  0.66178000  0.39179000  1.0
  H  H4  1  0.29661000  0.66365000  0.38757000  1.0
  H  H5  1  0.20338000  0.33635000  0.88757000  1.0
  H  H6  1  0.79662000  0.83635000  0.61243000  1.0
  H  H7  1  0.70338000  0.16365000  0.11243000  1.0
  H  H8  1  0.49915000  0.36172000  0.44148000  1.0
  H  H9  1  0.00085000  0.63829000  0.94148000  1.0
  H  H10  1  0.99915000  0.13829000  0.55852000  1.0
  H  H11  1  0.50085000  0.86171000  0.05852000  1.0
  H  H12  1  0.96617000  0.41871000  0.42216000  1.0
  H  H13  1  0.53383000  0.58129000  0.92217000  1.0
  H  H14  1  0.46617000  0.08129000  0.57783000  1.0
  H  H15  1  0.03383000  0.91871000  0.07784000  1.0
  H  H16  1  0.25349000  0.13049000  0.48706000  1.0
  H  H17  1  0.24651000  0.86951000  0.98706000  1.0
  H  H18  1  0.75349000  0.36951000  0.51294000  1.0
  H  H19  1  0.74651000  0.63049000  0.01294000  1.0
  H  H20  1  0.41477000  0.22907000  0.49440000  1.0
  H  H21  1  0.08523000  0.77093000  0.99440000  1.0
  H  H22  1  0.91477000  0.27093000  0.50560000  1.0
  H  H23  1  0.58523000  0.72907000  0.00560000  1.0
  H  H24  1  0.29211000  0.21889000  0.25729000  1.0
  H  H25  1  0.20789000  0.78111000  0.75729000  1.0
  H  H26  1  0.79211000  0.28111000  0.74271000  1.0
  H  H27  1  0.70789000  0.71889000  0.24271000  1.0
  H  H28  1  0.00683000  0.95152000  0.21952000  1.0
  H  H29  1  0.49317000  0.04848000  0.71952000  1.0
  H  H30  1  0.50683000  0.54848000  0.78048000  1.0
  H  H31  1  0.99317000  0.45152000  0.28048000  1.0
  H  H32  1  0.25564000  0.98403000  0.42695000  1.0
  H  H33  1  0.24435000  0.01597000  0.92695000  1.0
  H  H34  1  0.75565000  0.51597000  0.57305000  1.0
  H  H35  1  0.74436000  0.48403000  0.07305000  1.0
  H  H36  1  0.01571000  0.23749000  0.95851000  1.0
  H  H37  1  0.48429000  0.76251000  0.45851000  1.0
  H  H38  1  0.51571000  0.26251000  0.04149000  1.0
  H  H39  1  0.98429000  0.73749000  0.54149000  1.0
  H  H40  1  0.19549000  0.18526000  0.95300000  1.0
  H  H41  1  0.30451000  0.81474000  0.45300000  1.0
  H  H42  1  0.69549000  0.31474000  0.04700000  1.0
  H  H43  1  0.80451000  0.68526000  0.54700000  1.0
  C  C44  1  0.28064000  0.58161000  0.40199000  1.0
  C  C45  1  0.21936000  0.41839000  0.90199000  1.0
  C  C46  1  0.78064000  0.91839000  0.59801000  1.0
  C  C47  1  0.71936000  0.08161000  0.09801000  1.0
  C  C48  1  0.41759000  0.51768000  0.41704000  1.0
  C  C49  1  0.08241000  0.48232000  0.91704000  1.0
  C  C50  1  0.91759000  0.98232000  0.58296000  1.0
  C  C51  1  0.58241000  0.01768000  0.08296000  1.0
  C  C52  1  0.59160000  0.56168000  0.41590000  1.0
  C  C53  1  0.90840000  0.43833000  0.91590000  1.0
  C  C54  1  0.09160000  0.93833000  0.58410000  1.0
  C  C55  1  0.40840000  0.06167000  0.08410000  1.0
  C  C56  1  0.39104000  0.41178000  0.43277000  1.0
  C  C57  1  0.10896000  0.58822000  0.93277000  1.0
  C  C58  1  0.89104000  0.08822000  0.56723000  1.0
  C  C59  1  0.60896000  0.91178000  0.06723000  1.0
  C  C60  1  0.22720000  0.37477000  0.43578000  1.0
  C  C61  1  0.27280000  0.62523000  0.93578000  1.0
  C  C62  1  0.72720000  0.12523000  0.56422000  1.0
  C  C63  1  0.77281000  0.87477000  0.06423000  1.0
  C  C64  1  0.09605000  0.44427000  0.42101000  1.0
  C  C65  1  0.40395000  0.55573000  0.92102000  1.0
  C  C66  1  0.59605000  0.05573000  0.57899000  1.0
  C  C67  1  0.90395000  0.94427000  0.07899000  1.0
  C  C68  1  0.31248000  0.19849000  0.46082000  1.0
  C  C69  1  0.18752000  0.80151000  0.96082000  1.0
  C  C70  1  0.81248000  0.30151000  0.53918000  1.0
  C  C71  1  0.68752000  0.69849000  0.03917000  1.0
  C  C72  1  0.28392000  0.11016000  0.34832000  1.0
  C  C73  1  0.21608000  0.88984000  0.84832000  1.0
  C  C74  1  0.78392000  0.38984000  0.65168000  1.0
  C  C75  1  0.71608000  0.61016000  0.15168000  1.0
  C  C76  1  0.24621000  0.14380000  0.27759000  1.0
  C  C77  1  0.25379000  0.85620000  0.77759000  1.0
  C  C78  1  0.74621000  0.35620000  0.72241000  1.0
  C  C79  1  0.75379000  0.64380000  0.22241000  1.0
  C  C80  1  0.08758000  0.99518000  0.25653000  1.0
  C  C81  1  0.41242000  0.00482000  0.75653000  1.0
  C  C82  1  0.58758000  0.50482000  0.74347000  1.0
  C  C83  1  0.91242000  0.49518000  0.24347000  1.0
  C  C84  1  0.12199000  0.95540000  0.32627000  1.0
  C  C85  1  0.37801000  0.04460000  0.82627000  1.0
  C  C86  1  0.62199000  0.54460000  0.67373000  1.0
  C  C87  1  0.87801000  0.45540000  0.17373000  1.0
  C  C88  1  0.05013000  0.85279000  0.35152000  1.0
  C  C89  1  0.44988000  0.14720000  0.85152000  1.0
  C  C90  1  0.55013000  0.64720000  0.64848000  1.0
  C  C91  1  0.94987000  0.35279000  0.14848000  1.0
  C  C92  1  0.22445000  0.01370000  0.37276000  1.0
  C  C93  1  0.27555000  0.98630000  0.87276000  1.0
  C  C94  1  0.72445000  0.48630000  0.62724000  1.0
  C  C95  1  0.77555000  0.51370000  0.12724000  1.0
  N  N96  1  0.12366000  0.54513000  0.40427000  1.0
  N  N97  1  0.37634000  0.45486000  0.90427000  1.0
  N  N98  1  0.62366000  0.95487000  0.59573000  1.0
  N  N99  1  0.87634000  0.04513000  0.09573000  1.0
  N  N100  1  0.15050000  0.08642000  0.23236000  1.0
  N  N101  1  0.34950000  0.91358000  0.73236000  1.0
  N  N102  1  0.65050000  0.41358000  0.76764000  1.0
  N  N103  1  0.84950000  0.58642000  0.26764000  1.0
  O  O104  1  0.71325000  0.49970000  0.42444000  1.0
  O  O105  1  0.78675000  0.50030000  0.92444000  1.0
  O  O106  1  0.21325000  0.00030000  0.57556000  1.0
  O  O107  1  0.28675000  0.99970000  0.07556000  1.0
  O  O108  1  0.60769000  0.66096000  0.40552000  1.0
  O  O109  1  0.89231000  0.33904000  0.90552000  1.0
  O  O110  1  0.10769000  0.83904000  0.59448000  1.0
  O  O111  1  0.39231000  0.16096000  0.09448000  1.0
  O  O112  1  0.18164000  0.27401000  0.45326000  1.0
  O  O113  1  0.31836000  0.72599000  0.95326000  1.0
  O  O114  1  0.68164000  0.22599000  0.54674000  1.0
  O  O115  1  0.81836000  0.77401000  0.04674000  1.0
  O  O116  1  0.38304000  0.17368000  0.39189000  1.0
  O  O117  1  0.11696000  0.82632000  0.89189000  1.0
  O  O118  1  0.88304000  0.32632000  0.60811000  1.0
  O  O119  1  0.61697000  0.67368000  0.10811000  1.0
  O  O120  1  0.92257000  0.81652000  0.31894000  1.0
  O  O121  1  0.57744000  0.18348000  0.81894000  1.0
  O  O122  1  0.42257000  0.68348000  0.68106000  1.0
  O  O123  1  0.07743000  0.31652000  0.18106000  1.0
  O  O124  1  0.11904000  0.80605000  0.40544000  1.0
  O  O125  1  0.38096000  0.19395000  0.90544000  1.0
  O  O126  1  0.61904000  0.69395000  0.59456000  1.0
  O  O127  1  0.88096000  0.30604000  0.09456000  1.0
  O  O128  1  0.08779000  0.18272000  0.98001000  1.0
  O  O129  1  0.41221000  0.81728000  0.48001000  1.0
  O  O130  1  0.58779000  0.31728000  0.01999000  1.0
  O  O131  1  0.91221000  0.68272000  0.51999000  1.0
