# generated using pymatgen
data_Dy2H37C39N7O16
_symmetry_space_group_name_H-M   'P 1'
_cell_length_a   15.16280000
_cell_length_b   15.16280000
_cell_length_c   25.15750000
_cell_angle_alpha   78.21160000
_cell_angle_beta   78.21160000
_cell_angle_gamma   71.83250000
_symmetry_Int_Tables_number   1
_chemical_formula_structural   Dy2H37C39N7O16
_chemical_formula_sum   'Dy8 H148 C156 N28 O64'
_cell_volume   5317.90757803
_cell_formula_units_Z   4
loop_
 _symmetry_equiv_pos_site_id
 _symmetry_equiv_pos_as_xyz
  1  'x, y, z'
loop_
 _atom_site_type_symbol
 _atom_site_label
 _atom_site_symmetry_multiplicity
 _atom_site_fract_x
 _atom_site_fract_y
 _atom_site_fract_z
 _atom_site_occupancy
  Dy  Dy0  1  0.01689000  0.16874000  0.74174000  1.0
  Dy  Dy1  1  0.83126000  0.98311000  0.75826000  1.0
  Dy  Dy2  1  0.98311000  0.83126000  0.25826000  1.0
  Dy  Dy3  1  0.16874000  0.01689000  0.24174000  1.0
  Dy  Dy4  1  0.09472000  0.47527000  0.05765000  1.0
  Dy  Dy5  1  0.52473000  0.90528000  0.44235000  1.0
  Dy  Dy6  1  0.90528000  0.52473000  0.94235000  1.0
  Dy  Dy7  1  0.47527000  0.09472000  0.55765000  1.0
  H  H8  1  0.98287000  0.79522000  0.86951000  1.0
  H  H9  1  0.20478000  0.01713000  0.63049000  1.0
  H  H10  1  0.01713000  0.20478000  0.13049000  1.0
  H  H11  1  0.79522000  0.98287000  0.36951000  1.0
  H  H12  1  0.87272000  0.28018000  0.86148000  1.0
  H  H13  1  0.71982000  0.12728000  0.63852000  1.0
  H  H14  1  0.12728000  0.71982000  0.13852000  1.0
  H  H15  1  0.28018000  0.87272000  0.36148000  1.0
  H  H16  1  0.93948000  0.67805000  0.11845000  1.0
  H  H17  1  0.32196000  0.06052000  0.38155000  1.0
  H  H18  1  0.06052000  0.32196000  0.88155000  1.0
  H  H19  1  0.67804000  0.93948000  0.61845000  1.0
  H  H20  1  0.00926000  0.34796000  0.63163000  1.0
  H  H21  1  0.65204000  0.99074000  0.86837000  1.0
  H  H22  1  0.99074000  0.65204000  0.36837000  1.0
  H  H23  1  0.34797000  0.00926000  0.13163000  1.0
  H  H24  1  0.31850000  0.32579000  0.05119000  1.0
  H  H25  1  0.67422000  0.68150000  0.44881000  1.0
  H  H26  1  0.68150000  0.67422000  0.94882000  1.0
  H  H27  1  0.32578000  0.31850000  0.55119000  1.0
  H  H28  1  0.05364000  0.31589000  0.17671000  1.0
  H  H29  1  0.68411000  0.94636000  0.32329000  1.0
  H  H30  1  0.94636000  0.68411000  0.82329000  1.0
  H  H31  1  0.31589000  0.05364000  0.67671000  1.0
  H  H32  1  0.95381000  0.43526000  0.78409000  1.0
  H  H33  1  0.56474000  0.04619000  0.71590000  1.0
  H  H34  1  0.04620000  0.56474000  0.21590000  1.0
  H  H35  1  0.43526000  0.95381000  0.28410000  1.0
  H  H36  1  0.20123000  0.68920000  0.97078000  1.0
  H  H37  1  0.31080000  0.79876000  0.52922000  1.0
  H  H38  1  0.79876000  0.31080000  0.02922000  1.0
  H  H39  1  0.68920000  0.20124000  0.47078000  1.0
  H  H40  1  0.62062000  0.40532000  0.96553000  1.0
  H  H41  1  0.59468000  0.37938000  0.53447000  1.0
  H  H42  1  0.37938000  0.59468000  0.03447000  1.0
  H  H43  1  0.40532000  0.62061000  0.46553000  1.0
  H  H44  1  0.68840000  0.87243000  0.18632000  1.0
  H  H45  1  0.12757000  0.31160000  0.31368000  1.0
  H  H46  1  0.31160000  0.12757000  0.81368000  1.0
  H  H47  1  0.87243000  0.68840000  0.68632000  1.0
  H  H48  1  0.21886000  0.23037000  0.51723000  1.0
  H  H49  1  0.76964000  0.78114000  0.98277000  1.0
  H  H50  1  0.78114000  0.76964000  0.48276000  1.0
  H  H51  1  0.23037000  0.21886000  0.01724000  1.0
  H  H52  1  0.13097000  0.17233000  0.52152000  1.0
  H  H53  1  0.82767000  0.86903000  0.97848000  1.0
  H  H54  1  0.86903000  0.82767000  0.47848000  1.0
  H  H55  1  0.17233000  0.13097000  0.02152000  1.0
  H  H56  1  0.19181000  0.15538000  0.57857000  1.0
  H  H57  1  0.84462000  0.80819000  0.92143000  1.0
  H  H58  1  0.80819000  0.84462000  0.42143000  1.0
  H  H59  1  0.15538000  0.19181000  0.07857000  1.0
  H  H60  1  0.23766000  0.26926000  0.19671000  1.0
  H  H61  1  0.73074000  0.76234000  0.30329000  1.0
  H  H62  1  0.76234000  0.73074000  0.80329000  1.0
  H  H63  1  0.26925000  0.23767000  0.69671000  1.0
  H  H64  1  0.34851000  0.27182000  0.21054000  1.0
  H  H65  1  0.72818000  0.65148000  0.28946000  1.0
  H  H66  1  0.65148000  0.72818000  0.78946000  1.0
  H  H67  1  0.27181000  0.34852000  0.71054000  1.0
  H  H68  1  0.33162000  0.16490000  0.20062000  1.0
  H  H69  1  0.83510000  0.66838000  0.29939000  1.0
  H  H70  1  0.66838000  0.83510000  0.79939000  1.0
  H  H71  1  0.16490000  0.33162000  0.70062000  1.0
  H  H72  1  0.90798000  0.49489000  0.28025000  1.0
  H  H73  1  0.50511000  0.09202000  0.21975000  1.0
  H  H74  1  0.09202000  0.50512000  0.71975000  1.0
  H  H75  1  0.49489000  0.90798000  0.78025000  1.0
  H  H76  1  0.81358000  0.46780000  0.26108000  1.0
  H  H77  1  0.53220000  0.18642000  0.23892000  1.0
  H  H78  1  0.18642000  0.53220000  0.73892000  1.0
  H  H79  1  0.46780000  0.81358000  0.76108000  1.0
  H  H80  1  0.88385000  0.53087000  0.21109000  1.0
  H  H81  1  0.46913000  0.11615000  0.28891000  1.0
  H  H82  1  0.11615000  0.46913000  0.78891000  1.0
  H  H83  1  0.53087000  0.88385000  0.71109000  1.0
  H  H84  1  0.81685000  0.34685000  0.71725000  1.0
  H  H85  1  0.65316000  0.18314000  0.78275000  1.0
  H  H86  1  0.18315000  0.65315000  0.28275000  1.0
  H  H87  1  0.34684000  0.81685000  0.21725000  1.0
  H  H88  1  0.73260000  0.46007000  0.71020000  1.0
  H  H89  1  0.53994000  0.26740000  0.78980000  1.0
  H  H90  1  0.26741000  0.53993000  0.28980000  1.0
  H  H91  1  0.46006000  0.73260000  0.21020000  1.0
  H  H92  1  0.72023000  0.37711000  0.77118000  1.0
  H  H93  1  0.62289000  0.27976000  0.72882000  1.0
  H  H94  1  0.27977000  0.62289000  0.22882000  1.0
  H  H95  1  0.37711000  0.72023000  0.27118000  1.0
  H  H96  1  0.99497000  0.41634000  0.54920000  1.0
  H  H97  1  0.58366000  0.00502000  0.95080000  1.0
  H  H98  1  0.00502000  0.58366000  0.45080000  1.0
  H  H99  1  0.41634000  0.99498000  0.04920000  1.0
  H  H100  1  0.01262000  0.33861000  0.50088000  1.0
  H  H101  1  0.66139000  0.98738000  0.99913000  1.0
  H  H102  1  0.98738000  0.66139000  0.49912000  1.0
  H  H103  1  0.33861000  0.01262000  0.00088000  1.0
  H  H104  1  0.10103000  0.39414000  0.50082000  1.0
  H  H105  1  0.60586000  0.89896000  0.99918000  1.0
  H  H106  1  0.89897000  0.60586000  0.49918000  1.0
  H  H107  1  0.39414000  0.10104000  0.00082000  1.0
  H  H108  1  0.45761000  0.23897000  0.06452000  1.0
  H  H109  1  0.76104000  0.54239000  0.43548000  1.0
  H  H110  1  0.54239000  0.76103000  0.93548000  1.0
  H  H111  1  0.23896000  0.45761000  0.56452000  1.0
  H  H112  1  0.46064000  0.14281000  0.11915000  1.0
  H  H113  1  0.85719000  0.53936000  0.38085000  1.0
  H  H114  1  0.53936000  0.85719000  0.88085000  1.0
  H  H115  1  0.14281000  0.46064000  0.61915000  1.0
  H  H116  1  0.48832000  0.24419000  0.12848000  1.0
  H  H117  1  0.75581000  0.51168000  0.37152000  1.0
  H  H118  1  0.51168000  0.75581000  0.87152000  1.0
  H  H119  1  0.24418000  0.48832000  0.62848000  1.0
  H  H120  1  0.99558000  0.24098000  0.25343000  1.0
  H  H121  1  0.75902000  0.00441000  0.24658000  1.0
  H  H122  1  0.00442000  0.75902000  0.74658000  1.0
  H  H123  1  0.24098000  0.99558000  0.75342000  1.0
  H  H124  1  0.87121000  0.29082000  0.27040000  1.0
  H  H125  1  0.70918000  0.12879000  0.22960000  1.0
  H  H126  1  0.12879000  0.70918000  0.72960000  1.0
  H  H127  1  0.29082000  0.87121000  0.77040000  1.0
  H  H128  1  0.95020000  0.30588000  0.30924000  1.0
  H  H129  1  0.69413000  0.04980000  0.19077000  1.0
  H  H130  1  0.04980000  0.69413000  0.69077000  1.0
  H  H131  1  0.30587000  0.95020000  0.80924000  1.0
  H  H132  1  0.82913000  0.53735000  0.81247000  1.0
  H  H133  1  0.46265000  0.17087000  0.68753000  1.0
  H  H134  1  0.17088000  0.46265000  0.18753000  1.0
  H  H135  1  0.53734000  0.82913000  0.31247000  1.0
  H  H136  1  0.72280000  0.50495000  0.82403000  1.0
  H  H137  1  0.49505000  0.27720000  0.67597000  1.0
  H  H138  1  0.27721000  0.49505000  0.17597000  1.0
  H  H139  1  0.50495000  0.72280000  0.32403000  1.0
  H  H140  1  0.75000000  0.58123000  0.76276000  1.0
  H  H141  1  0.41877000  0.25000000  0.73724000  1.0
  H  H142  1  0.25001000  0.41877000  0.23724000  1.0
  H  H143  1  0.58123000  0.75000000  0.26276000  1.0
  H  H144  1  0.16404000  0.96296000  0.86911000  1.0
  H  H145  1  0.03704000  0.83596000  0.63089000  1.0
  H  H146  1  0.83596000  0.03704000  0.13088000  1.0
  H  H147  1  0.96296000  0.16404000  0.36911000  1.0
  H  H148  1  0.63362000  0.17272000  0.88540000  1.0
  H  H149  1  0.82728000  0.36638000  0.61460000  1.0
  H  H150  1  0.36638000  0.82727000  0.11460000  1.0
  H  H151  1  0.17272000  0.63361000  0.38540000  1.0
  H  H152  1  0.67666000  0.71177000  0.06483000  1.0
  H  H153  1  0.28823000  0.32334000  0.43517000  1.0
  H  H154  1  0.32334000  0.28823000  0.93517000  1.0
  H  H155  1  0.71177000  0.67666000  0.56483000  1.0
  C  C156  1  0.07022000  0.88529000  0.86438000  1.0
  C  C157  1  0.11471000  0.92977000  0.63562000  1.0
  C  C158  1  0.92977000  0.11471000  0.13562000  1.0
  C  C159  1  0.88528000  0.07022000  0.36438000  1.0
  C  C160  1  0.75766000  0.22109000  0.86833000  1.0
  C  C161  1  0.77891000  0.24234000  0.63167000  1.0
  C  C162  1  0.24234000  0.77890000  0.13167000  1.0
  C  C163  1  0.22109000  0.75766000  0.36833000  1.0
  C  C164  1  0.81252000  0.68582000  0.08876000  1.0
  C  C165  1  0.31418000  0.18748000  0.41124000  1.0
  C  C166  1  0.18748000  0.31419000  0.91124000  1.0
  C  C167  1  0.68582000  0.81252000  0.58876000  1.0
  C  C168  1  0.04197000  0.80368000  0.88431000  1.0
  C  C169  1  0.19632000  0.95803000  0.61569000  1.0
  C  C170  1  0.95803000  0.19632000  0.11569000  1.0
  C  C171  1  0.80368000  0.04197000  0.38430000  1.0
  C  C172  1  0.80043000  0.28313000  0.87981000  1.0
  C  C173  1  0.71687000  0.19957000  0.62019000  1.0
  C  C174  1  0.19957000  0.71687000  0.12019000  1.0
  C  C175  1  0.28313000  0.80042000  0.37981000  1.0
  C  C176  1  0.86387000  0.71035000  0.12090000  1.0
  C  C177  1  0.28965000  0.13613000  0.37910000  1.0
  C  C178  1  0.13613000  0.28965000  0.87910000  1.0
  C  C179  1  0.71035000  0.86387000  0.62090000  1.0
  C  C180  1  0.06531000  0.28529000  0.62045000  1.0
  C  C181  1  0.71471000  0.93469000  0.87956000  1.0
  C  C182  1  0.93469000  0.71471000  0.37956000  1.0
  C  C183  1  0.28529000  0.06531000  0.12044000  1.0
  C  C184  1  0.28589000  0.31570000  0.09449000  1.0
  C  C185  1  0.68430000  0.71411000  0.40551000  1.0
  C  C186  1  0.71411000  0.68430000  0.90551000  1.0
  C  C187  1  0.31570000  0.28589000  0.59449000  1.0
  C  C188  1  0.01018000  0.38642000  0.18494000  1.0
  C  C189  1  0.61358000  0.98982000  0.31506000  1.0
  C  C190  1  0.98982000  0.61358000  0.81506000  1.0
  C  C191  1  0.38643000  0.01018000  0.68494000  1.0
  C  C192  1  0.92112000  0.40241000  0.76104000  1.0
  C  C193  1  0.59759000  0.07888000  0.73896000  1.0
  C  C194  1  0.07889000  0.59759000  0.23896000  1.0
  C  C195  1  0.40240000  0.92112000  0.26103000  1.0
  C  C196  1  0.08788000  0.73410000  0.92324000  1.0
  C  C197  1  0.26591000  0.91212000  0.57676000  1.0
  C  C198  1  0.91212000  0.26591000  0.07676000  1.0
  C  C199  1  0.73409000  0.08788000  0.42324000  1.0
  C  C200  1  0.75108000  0.34915000  0.91468000  1.0
  C  C201  1  0.65085000  0.24892000  0.58532000  1.0
  C  C202  1  0.24892000  0.65085000  0.08532000  1.0
  C  C203  1  0.34915000  0.75108000  0.41468000  1.0
  C  C204  1  0.81890000  0.77740000  0.15597000  1.0
  C  C205  1  0.22260000  0.18110000  0.34402000  1.0
  C  C206  1  0.18110000  0.22260000  0.84403000  1.0
  C  C207  1  0.77740000  0.81891000  0.65597000  1.0
  C  C208  1  0.16468000  0.74488000  0.94141000  1.0
  C  C209  1  0.25512000  0.83532000  0.55859000  1.0
  C  C210  1  0.83532000  0.25513000  0.05859000  1.0
  C  C211  1  0.74488000  0.16468000  0.44141000  1.0
  C  C212  1  0.65871000  0.35289000  0.93888000  1.0
  C  C213  1  0.64711000  0.34129000  0.56112000  1.0
  C  C214  1  0.34129000  0.64711000  0.06112000  1.0
  C  C215  1  0.35289000  0.65871000  0.43888000  1.0
  C  C216  1  0.72269000  0.82058000  0.15880000  1.0
  C  C217  1  0.17942000  0.27731000  0.34120000  1.0
  C  C218  1  0.27731000  0.17942000  0.84120000  1.0
  C  C219  1  0.82058000  0.72269000  0.65880000  1.0
  C  C220  1  0.16221000  0.20606000  0.54469000  1.0
  C  C221  1  0.79394000  0.83779000  0.95531000  1.0
  C  C222  1  0.83780000  0.79394000  0.45531000  1.0
  C  C223  1  0.20605000  0.16221000  0.04469000  1.0
  C  C224  1  0.31376000  0.24118000  0.18760000  1.0
  C  C225  1  0.75882000  0.68624000  0.31240000  1.0
  C  C226  1  0.68624000  0.75882000  0.81241000  1.0
  C  C227  1  0.24118000  0.31377000  0.68760000  1.0
  C  C228  1  0.88467000  0.47545000  0.24672000  1.0
  C  C229  1  0.52455000  0.11533000  0.25328000  1.0
  C  C230  1  0.11533000  0.52455000  0.75328000  1.0
  C  C231  1  0.47545000  0.88467000  0.74672000  1.0
  C  C232  1  0.77098000  0.40369000  0.73916000  1.0
  C  C233  1  0.59631000  0.22901000  0.76084000  1.0
  C  C234  1  0.22902000  0.59631000  0.26084000  1.0
  C  C235  1  0.40369000  0.77098000  0.23916000  1.0
  C  C236  1  0.19295000  0.82703000  0.92169000  1.0
  C  C237  1  0.17297000  0.80705000  0.57831000  1.0
  C  C238  1  0.80705000  0.17297000  0.07831000  1.0
  C  C239  1  0.82703000  0.19295000  0.42169000  1.0
  C  C240  1  0.61701000  0.28855000  0.92857000  1.0
  C  C241  1  0.71145000  0.38299000  0.57143000  1.0
  C  C242  1  0.38299000  0.71145000  0.07143000  1.0
  C  C243  1  0.28855000  0.61700000  0.42857000  1.0
  C  C244  1  0.67176000  0.79755000  0.12541000  1.0
  C  C245  1  0.20245000  0.32824000  0.37459000  1.0
  C  C246  1  0.32824000  0.20245000  0.87459000  1.0
  C  C247  1  0.79755000  0.67176000  0.62541000  1.0
  C  C248  1  0.04747000  0.36296000  0.52704000  1.0
  C  C249  1  0.63704000  0.95253000  0.97297000  1.0
  C  C250  1  0.95253000  0.63704000  0.47297000  1.0
  C  C251  1  0.36296000  0.04748000  0.02703000  1.0
  C  C252  1  0.44316000  0.21981000  0.10910000  1.0
  C  C253  1  0.78019000  0.55683000  0.39090000  1.0
  C  C254  1  0.55684000  0.78019000  0.89091000  1.0
  C  C255  1  0.21981000  0.44316000  0.60909000  1.0
  C  C256  1  0.94068000  0.30137000  0.26778000  1.0
  C  C257  1  0.69863000  0.05932000  0.23222000  1.0
  C  C258  1  0.05932000  0.69864000  0.73222000  1.0
  C  C259  1  0.30137000  0.94068000  0.76778000  1.0
  C  C260  1  0.78009000  0.52039000  0.79242000  1.0
  C  C261  1  0.47961000  0.21991000  0.70758000  1.0
  C  C262  1  0.21992000  0.47961000  0.20758000  1.0
  C  C263  1  0.52039000  0.78009000  0.29242000  1.0
  C  C264  1  0.14462000  0.89785000  0.88381000  1.0
  C  C265  1  0.10215000  0.85538000  0.61619000  1.0
  C  C266  1  0.85538000  0.10215000  0.11619000  1.0
  C  C267  1  0.89785000  0.14462000  0.38381000  1.0
  C  C268  1  0.66648000  0.22213000  0.89352000  1.0
  C  C269  1  0.77787000  0.33352000  0.60648000  1.0
  C  C270  1  0.33352000  0.77787000  0.10648000  1.0
  C  C271  1  0.22213000  0.66648000  0.39352000  1.0
  C  C272  1  0.71630000  0.72963000  0.09066000  1.0
  C  C273  1  0.27037000  0.28370000  0.40934000  1.0
  C  C274  1  0.28370000  0.27037000  0.90934000  1.0
  C  C275  1  0.72963000  0.71630000  0.59066000  1.0
  C  C276  1  0.02140000  0.95994000  0.82206000  1.0
  C  C277  1  0.04007000  0.97860000  0.67794000  1.0
  C  C278  1  0.97861000  0.04007000  0.17794000  1.0
  C  C279  1  0.95993000  0.02140000  0.32206000  1.0
  C  C280  1  0.80869000  0.15743000  0.82645000  1.0
  C  C281  1  0.84257000  0.19130000  0.67355000  1.0
  C  C282  1  0.19131000  0.84256000  0.17355000  1.0
  C  C283  1  0.15743000  0.80870000  0.32645000  1.0
  C  C284  1  0.86133000  0.61624000  0.04970000  1.0
  C  C285  1  0.38376000  0.13867000  0.45030000  1.0
  C  C286  1  0.13867000  0.38377000  0.95030000  1.0
  C  C287  1  0.61624000  0.86133000  0.54970000  1.0
  C  C288  1  0.05427000  0.64825000  0.94701000  1.0
  C  C289  1  0.35175000  0.94573000  0.55299000  1.0
  C  C290  1  0.94573000  0.35175000  0.05299000  1.0
  C  C291  1  0.64825000  0.05427000  0.44701000  1.0
  C  C292  1  0.79769000  0.41736000  0.92418000  1.0
  C  C293  1  0.58264000  0.20231000  0.57582000  1.0
  C  C294  1  0.20231000  0.58264000  0.07582000  1.0
  C  C295  1  0.41736000  0.79769000  0.42418000  1.0
  C  C296  1  0.87531000  0.80278000  0.18994000  1.0
  C  C297  1  0.19722000  0.12469000  0.31006000  1.0
  C  C298  1  0.12469000  0.19722000  0.81006000  1.0
  C  C299  1  0.80279000  0.87531000  0.68994000  1.0
  C  C300  1  0.27136000  0.84041000  0.93895000  1.0
  C  C301  1  0.15959000  0.72864000  0.56105000  1.0
  C  C302  1  0.72864000  0.15959000  0.06105000  1.0
  C  C303  1  0.84041000  0.27136000  0.43895000  1.0
  C  C304  1  0.52340000  0.28974000  0.95308000  1.0
  C  C305  1  0.71026000  0.47660000  0.54692000  1.0
  C  C306  1  0.47661000  0.71026000  0.04692000  1.0
  C  C307  1  0.28974000  0.52339000  0.45308000  1.0
  C  C308  1  0.57489000  0.84617000  0.12522000  1.0
  C  C309  1  0.15383000  0.42511000  0.37478000  1.0
  C  C310  1  0.42511000  0.15383000  0.87478000  1.0
  C  C311  1  0.84617000  0.57489000  0.62522000  1.0
  N  N312  1  0.09113000  0.28489000  0.56643000  1.0
  N  N313  1  0.71511000  0.90887000  0.93357000  1.0
  N  N314  1  0.90887000  0.71511000  0.43357000  1.0
  N  N315  1  0.28489000  0.09113000  0.06643000  1.0
  N  N316  1  0.34474000  0.26174000  0.12900000  1.0
  N  N317  1  0.73827000  0.65526000  0.37100000  1.0
  N  N318  1  0.65527000  0.73827000  0.87100000  1.0
  N  N319  1  0.26173000  0.34474000  0.62900000  1.0
  N  N320  1  0.94735000  0.38727000  0.23107000  1.0
  N  N321  1  0.61272000  0.05264000  0.26893000  1.0
  N  N322  1  0.05264000  0.61272000  0.76893000  1.0
  N  N323  1  0.38728000  0.94735000  0.73107000  1.0
  N  N324  1  0.82801000  0.43977000  0.76439000  1.0
  N  N325  1  0.56023000  0.17199000  0.73561000  1.0
  N  N326  1  0.17199000  0.56024000  0.23561000  1.0
  N  N327  1  0.43977000  0.82800000  0.26439000  1.0
  N  N328  1  0.33585000  0.85393000  0.95122000  1.0
  N  N329  1  0.14608000  0.66414000  0.54878000  1.0
  N  N330  1  0.66414000  0.14608000  0.04878000  1.0
  N  N331  1  0.85393000  0.33585000  0.45122000  1.0
  N  N332  1  0.44665000  0.28929000  0.97254000  1.0
  N  N333  1  0.71071000  0.55335000  0.52746000  1.0
  N  N334  1  0.55335000  0.71071000  0.02746000  1.0
  N  N335  1  0.28929000  0.44664000  0.47254000  1.0
  N  N336  1  0.49586000  0.88742000  0.12443000  1.0
  N  N337  1  0.11258000  0.50414000  0.37557000  1.0
  N  N338  1  0.50414000  0.11258000  0.87557000  1.0
  N  N339  1  0.88742000  0.49586000  0.62443000  1.0
  O  O340  1  0.10112000  0.22056000  0.65647000  1.0
  O  O341  1  0.77944000  0.89888000  0.84353000  1.0
  O  O342  1  0.89888000  0.77944000  0.34353000  1.0
  O  O343  1  0.22057000  0.10111000  0.15647000  1.0
  O  O344  1  0.19992000  0.35260000  0.10935000  1.0
  O  O345  1  0.64740000  0.80008000  0.39066000  1.0
  O  O346  1  0.80008000  0.64740000  0.89066000  1.0
  O  O347  1  0.35260000  0.19992000  0.60935000  1.0
  O  O348  1  0.01986000  0.45946000  0.15367000  1.0
  O  O349  1  0.54054000  0.98014000  0.34633000  1.0
  O  O350  1  0.98014000  0.54054000  0.84633000  1.0
  O  O351  1  0.45946000  0.01986000  0.65367000  1.0
  O  O352  1  0.96866000  0.33683000  0.73491000  1.0
  O  O353  1  0.66317000  0.03134000  0.76509000  1.0
  O  O354  1  0.03134000  0.66317000  0.26510000  1.0
  O  O355  1  0.33683000  0.96865000  0.23491000  1.0
  O  O356  1  0.05032000  0.03228000  0.80716000  1.0
  O  O357  1  0.96772000  0.94968000  0.69284000  1.0
  O  O358  1  0.94968000  0.96771000  0.19284000  1.0
  O  O359  1  0.03227000  0.05032000  0.30716000  1.0
  O  O360  1  0.87748000  0.17912000  0.79451000  1.0
  O  O361  1  0.82088000  0.12252000  0.70549000  1.0
  O  O362  1  0.12252000  0.82087000  0.20550000  1.0
  O  O363  1  0.17912000  0.87747000  0.29451000  1.0
  O  O364  1  0.94388000  0.56594000  0.05564000  1.0
  O  O365  1  0.43407000  0.05612000  0.44436000  1.0
  O  O366  1  0.05612000  0.43407000  0.94437000  1.0
  O  O367  1  0.56594000  0.94388000  0.55564000  1.0
  O  O368  1  0.95601000  0.94363000  0.80461000  1.0
  O  O369  1  0.05637000  0.04399000  0.69539000  1.0
  O  O370  1  0.04398000  0.05637000  0.19539000  1.0
  O  O371  1  0.94363000  0.95601000  0.30461000  1.0
  O  O372  1  0.77807000  0.08968000  0.82430000  1.0
  O  O373  1  0.91032000  0.22193000  0.67570000  1.0
  O  O374  1  0.22193000  0.91031000  0.17570000  1.0
  O  O375  1  0.08968000  0.77807000  0.32430000  1.0
  O  O376  1  0.81783000  0.61370000  0.01210000  1.0
  O  O377  1  0.38630000  0.18217000  0.48790000  1.0
  O  O378  1  0.18217000  0.38630000  0.98790000  1.0
  O  O379  1  0.61370000  0.81783000  0.51210000  1.0
  O  O380  1  0.98220000  0.64261000  0.93089000  1.0
  O  O381  1  0.35739000  0.01780000  0.56911000  1.0
  O  O382  1  0.01780000  0.35739000  0.06911000  1.0
  O  O383  1  0.64262000  0.98220000  0.43089000  1.0
  O  O384  1  0.88339000  0.40843000  0.90167000  1.0
  O  O385  1  0.59157000  0.11661000  0.59834000  1.0
  O  O386  1  0.11661000  0.59157000  0.09834000  1.0
  O  O387  1  0.40843000  0.88339000  0.40166000  1.0
  O  O388  1  0.96347000  0.78354000  0.17564000  1.0
  O  O389  1  0.21645000  0.03653000  0.32436000  1.0
  O  O390  1  0.03653000  0.21645000  0.82436000  1.0
  O  O391  1  0.78355000  0.96347000  0.67564000  1.0
  O  O392  1  0.10065000  0.58907000  0.98171000  1.0
  O  O393  1  0.41093000  0.89935000  0.51829000  1.0
  O  O394  1  0.89934000  0.41093000  0.01829000  1.0
  O  O395  1  0.58907000  0.10065000  0.48171000  1.0
  O  O396  1  0.75267000  0.48132000  0.95308000  1.0
  O  O397  1  0.51868000  0.24732000  0.54692000  1.0
  O  O398  1  0.24732000  0.51868000  0.04691000  1.0
  O  O399  1  0.48132000  0.75267000  0.45309000  1.0
  O  O400  1  0.83349000  0.84095000  0.23283000  1.0
  O  O401  1  0.15905000  0.16651000  0.26717000  1.0
  O  O402  1  0.16651000  0.15905000  0.76717000  1.0
  O  O403  1  0.84095000  0.83349000  0.73283000  1.0
