# generated using pymatgen
data_Cu2H7(C3N)4
_symmetry_space_group_name_H-M   'P 1'
_cell_length_a   20.98490000
_cell_length_b   21.72190000
_cell_length_c   21.91320000
_cell_angle_alpha   91.75720000
_cell_angle_beta   90.81490000
_cell_angle_gamma   93.80010000
_symmetry_Int_Tables_number   1
_chemical_formula_structural   Cu2H7(C3N)4
_chemical_formula_sum   'Cu12 H42 C72 N24'
_cell_volume   9960.76377476
_cell_formula_units_Z   6
loop_
 _symmetry_equiv_pos_site_id
 _symmetry_equiv_pos_as_xyz
  1  'x, y, z'
loop_
 _atom_site_type_symbol
 _atom_site_label
 _atom_site_symmetry_multiplicity
 _atom_site_fract_x
 _atom_site_fract_y
 _atom_site_fract_z
 _atom_site_occupancy
  Cu  Cu0  1  0.17941000  0.20826000  0.90723000  1.0
  Cu  Cu1  1  0.11319000  0.25258000  0.79073000  1.0
  Cu  Cu2  1  0.22847000  0.16539000  0.77906000  1.0
  Cu  Cu3  1  0.24284000  0.78333000  0.13548000  1.0
  Cu  Cu4  1  0.14122000  0.77323000  0.24298000  1.0
  Cu  Cu5  1  0.22313000  0.89817000  0.21637000  1.0
  Cu  Cu6  1  0.75905000  0.19962000  0.12575000  1.0
  Cu  Cu7  1  0.86106000  0.20782000  0.23331000  1.0
  Cu  Cu8  1  0.80871000  0.07888000  0.17599000  1.0
  Cu  Cu9  1  0.78537000  0.75926000  0.86074000  1.0
  Cu  Cu10  1  0.91267000  0.81134000  0.80796000  1.0
  Cu  Cu11  1  0.78066000  0.85226000  0.75386000  1.0
  H  H12  1  0.09096000  0.26718000  0.00871000  1.0
  H  H13  1  0.03687000  0.36484000  0.84866000  1.0
  H  H14  1  0.35223000  0.09627000  0.81819000  1.0
  H  H15  1  0.26178000  0.12770000  0.99176000  1.0
  H  H16  1  0.02238000  0.19341000  0.68832000  1.0
  H  H17  1  0.18468000  0.08265000  0.66585000  1.0
  H  H18  1  0.17705000  0.69079000  0.03992000  1.0
  H  H19  1  0.04516000  0.66696000  0.18856000  1.0
  H  H20  1  0.29370000  0.00091000  0.13411000  1.0
  H  H21  1  0.35227000  0.83292000  0.04644000  1.0
  H  H22  1  0.05881000  0.81757000  0.35578000  1.0
  H  H23  1  0.15538000  0.98924000  0.30252000  1.0
  H  H24  1  0.79856000  0.31644000  0.05468000  1.0
  H  H25  1  0.94796000  0.32344000  0.19309000  1.0
  H  H26  1  0.74208000  0.98000000  0.07874000  1.0
  H  H27  1  0.64413000  0.14363000  0.03837000  1.0
  H  H28  1  0.92683000  0.16402000  0.35709000  1.0
  H  H29  1  0.88561000  0.99057000  0.25727000  1.0
  H  H30  1  0.83153000  0.64281000  0.93287000  1.0
  H  H31  1  0.01146000  0.73816000  0.88693000  1.0
  H  H32  1  0.65755000  0.92008000  0.78376000  1.0
  H  H33  1  0.67986000  0.81126000  0.94374000  1.0
  H  H34  1  0.00715000  0.90825000  0.74248000  1.0
  H  H35  1  0.83219000  0.92910000  0.64046000  1.0
  H  H36  1  0.93758000  0.93708000  0.55008000  1.0
  H  H37  1  0.07087000  0.09540000  0.53549000  1.0
  H  H38  1  0.93152000  0.07190000  0.45239000  1.0
  H  H39  1  0.07409000  0.93951000  0.47025000  1.0
  H  H40  1  0.01222000  0.03478000  0.71240000  1.0
  H  H41  1  0.00555000  0.98375000  0.29205000  1.0
  H  H42  1  0.90657000  0.46696000  0.09482000  1.0
  H  H43  1  0.03940000  0.45688000  0.94725000  1.0
  H  H44  1  0.05096000  0.54095000  0.09374000  1.0
  H  H45  1  0.91906000  0.54803000  0.94215000  1.0
  H  H46  1  0.96537000  0.29063000  0.03059000  1.0
  H  H47  1  0.02833000  0.71296000  0.00668000  1.0
  H  H48  1  0.45600000  0.92289000  0.02590000  1.0
  H  H49  1  0.44946000  0.06574000  0.89451000  1.0
  H  H50  1  0.52186000  0.91039000  0.88113000  1.0
  H  H51  1  0.54940000  0.05517000  0.01959000  1.0
  H  H52  1  0.28658000  0.02182000  0.00712000  1.0
  H  H53  1  0.70878000  0.95517000  0.96053000  1.0
  C  C54  1  0.08392000  0.28441000  0.96330000  1.0
  C  C55  1  0.04676000  0.33209000  0.94476000  1.0
  C  C56  1  0.05726000  0.33533000  0.88182000  1.0
  C  C57  1  0.32370000  0.11101000  0.85622000  1.0
  C  C58  1  0.32544000  0.09407000  0.91748000  1.0
  C  C59  1  0.27659000  0.12614000  0.94451000  1.0
  C  C60  1  0.06843000  0.17344000  0.68935000  1.0
  C  C61  1  0.08718000  0.11953000  0.65994000  1.0
  C  C62  1  0.15135000  0.11711000  0.67761000  1.0
  C  C63  1  0.15183000  0.69139000  0.08283000  1.0
  C  C64  1  0.09209000  0.66326000  0.09694000  1.0
  C  C65  1  0.08494000  0.67851000  0.15896000  1.0
  C  C66  1  0.30167000  0.95383000  0.11966000  1.0
  C  C67  1  0.33673000  0.93234000  0.07024000  1.0
  C  C68  1  0.33288000  0.86808000  0.07570000  1.0
  C  C69  1  0.08961000  0.85399000  0.33668000  1.0
  C  C70  1  0.08936000  0.91807000  0.34567000  1.0
  C  C71  1  0.13857000  0.94153000  0.30870000  1.0
  C  C72  1  0.82868000  0.31116000  0.09460000  1.0
  C  C73  1  0.88918000  0.33934000  0.10902000  1.0
  C  C74  1  0.90502000  0.31454000  0.16512000  1.0
  C  C75  1  0.72527000  0.02600000  0.07560000  1.0
  C  C76  1  0.67586000  0.04650000  0.03914000  1.0
  C  C77  1  0.67421000  0.10926000  0.05595000  1.0
  C  C78  1  0.91028000  0.12660000  0.32562000  1.0
  C  C79  1  0.92230000  0.06389000  0.32623000  1.0
  C  C80  1  0.89028000  0.03828000  0.27384000  1.0
  C  C81  1  0.87013000  0.67223000  0.91473000  1.0
  C  C82  1  0.93607000  0.67278000  0.92654000  1.0
  C  C83  1  0.96192000  0.72181000  0.89238000  1.0
  C  C84  1  0.66928000  0.88667000  0.81728000  1.0
  C  C85  1  0.65026000  0.88218000  0.87809000  1.0
  C  C86  1  0.68149000  0.83156000  0.89908000  1.0
  C  C87  1  0.95859000  0.90672000  0.72445000  1.0
  C  C88  1  0.93441000  0.93720000  0.67447000  1.0
  C  C89  1  0.86968000  0.91637000  0.67132000  1.0
  C  C90  1  0.96716000  0.97499000  0.57189000  1.0
  C  C91  1  0.00334000  0.01577000  0.53575000  1.0
  C  C92  1  0.04248000  0.06378000  0.56366000  1.0
  C  C93  1  0.04598000  0.07087000  0.62739000  1.0
  C  C94  1  0.00970000  0.02922000  0.66276000  1.0
  C  C95  1  0.97009000  0.98102000  0.63584000  1.0
  C  C96  1  0.00259000  0.00656000  0.46811000  1.0
  C  C97  1  0.96321000  0.03995000  0.43115000  1.0
  C  C98  1  0.96298000  0.03127000  0.36741000  1.0
  C  C99  1  0.00396000  0.98959000  0.34162000  1.0
  C  C100  1  0.04422000  0.95636000  0.37772000  1.0
  C  C101  1  0.04257000  0.96444000  0.44132000  1.0
  C  C102  1  0.93421000  0.43956000  0.06362000  1.0
  C  C103  1  0.97309000  0.46895000  0.02016000  1.0
  C  C104  1  0.00824000  0.43356000  0.98000000  1.0
  C  C105  1  0.00696000  0.36917000  0.98380000  1.0
  C  C106  1  0.96807000  0.34079000  0.02770000  1.0
  C  C107  1  0.93100000  0.37509000  0.06717000  1.0
  C  C108  1  0.98318000  0.53740000  0.01841000  1.0
  C  C109  1  0.02786000  0.56743000  0.05929000  1.0
  C  C110  1  0.04528000  0.63046000  0.05464000  1.0
  C  C111  1  0.01624000  0.66347000  0.00918000  1.0
  C  C112  1  0.96933000  0.63502000  0.96947000  1.0
  C  C113  1  0.95368000  0.57141000  0.97411000  1.0
  C  C114  1  0.42929000  0.95713000  0.00296000  1.0
  C  C115  1  0.45906000  0.99217000  0.95748000  1.0
  C  C116  1  0.42590000  0.03758000  0.92910000  1.0
  C  C117  1  0.36340000  0.04884000  0.94684000  1.0
  C  C118  1  0.33548000  0.01443000  0.99389000  1.0
  C  C119  1  0.36764000  0.96834000  0.02218000  1.0
  C  C120  1  0.52870000  0.98478000  0.94964000  1.0
  C  C121  1  0.55346000  0.93894000  0.91208000  1.0
  C  C122  1  0.61864000  0.92819000  0.91608000  1.0
  C  C123  1  0.65812000  0.96347000  0.95808000  1.0
  C  C124  1  0.63458000  0.01036000  0.99498000  1.0
  C  C125  1  0.56958000  0.02076000  0.98960000  1.0
  N  N126  1  0.09752000  0.29238000  0.86417000  1.0
  N  N127  1  0.11458000  0.26123000  0.91501000  1.0
  N  N128  1  0.24773000  0.15919000  0.90246000  1.0
  N  N129  1  0.27673000  0.14966000  0.84737000  1.0
  N  N130  1  0.16940000  0.16567000  0.71562000  1.0
  N  N131  1  0.11775000  0.20086000  0.72271000  1.0
  N  N132  1  0.13651000  0.71398000  0.18017000  1.0
  N  N133  1  0.17829000  0.72146000  0.13287000  1.0
  N  N134  1  0.29729000  0.85231000  0.12443000  1.0
  N  N135  1  0.27844000  0.90572000  0.15199000  1.0
  N  N136  1  0.16598000  0.89484000  0.27943000  1.0
  N  N137  1  0.13543000  0.84028000  0.29641000  1.0
  N  N138  1  0.85749000  0.27393000  0.18256000  1.0
  N  N139  1  0.80993000  0.27180000  0.13858000  1.0
  N  N140  1  0.71951000  0.12495000  0.09900000  1.0
  N  N141  1  0.75094000  0.07307000  0.11149000  1.0
  N  N142  1  0.86146000  0.08247000  0.24417000  1.0
  N  N143  1  0.87423000  0.13758000  0.27596000  1.0
  N  N144  1  0.91478000  0.74845000  0.86264000  1.0
  N  N145  1  0.85764000  0.71801000  0.87688000  1.0
  N  N146  1  0.71704000  0.80801000  0.85419000  1.0
  N  N147  1  0.70990000  0.84255000  0.80324000  1.0
  N  N148  1  0.85627000  0.87666000  0.71640000  1.0
  N  N149  1  0.91178000  0.87031000  0.74910000  1.0
