# generated using pymatgen
data_Sm2H9C18(NO4)3
_symmetry_space_group_name_H-M   'P 1'
_cell_length_a   6.52736000
_cell_length_b   7.65056000
_cell_length_c   18.19330000
_cell_angle_alpha   90.00000000
_cell_angle_beta   90.20760000
_cell_angle_gamma   90.00000000
_symmetry_Int_Tables_number   1
_chemical_formula_structural   Sm2H9C18(NO4)3
_chemical_formula_sum   'Sm4 H18 C36 N6 O24'
_cell_volume   908.53031155
_cell_formula_units_Z   2
loop_
 _symmetry_equiv_pos_site_id
 _symmetry_equiv_pos_as_xyz
  1  'x, y, z'
loop_
 _atom_site_type_symbol
 _atom_site_label
 _atom_site_symmetry_multiplicity
 _atom_site_fract_x
 _atom_site_fract_y
 _atom_site_fract_z
 _atom_site_occupancy
  Sm  Sm0  1  0.55710000  0.40444000  0.89591000  1.0
  Sm  Sm1  1  0.94290000  0.40444000  0.60409000  1.0
  Sm  Sm2  1  0.44290000  0.59556000  0.10409000  1.0
  Sm  Sm3  1  0.05710000  0.59556000  0.39591000  1.0
  H  H4  1  0.22469000  0.00756000  0.13705000  1.0
  H  H5  1  0.27531000  0.00756000  0.36295000  1.0
  H  H6  1  0.77531000  0.99244000  0.86294000  1.0
  H  H7  1  0.72469000  0.99244000  0.63706000  1.0
  H  H8  1  0.63118000  0.00172000  0.03128000  1.0
  H  H9  1  0.86883000  0.00172000  0.46872000  1.0
  H  H10  1  0.36882000  0.99828000  0.96872000  1.0
  H  H11  1  0.13118000  0.99828000  0.53128000  1.0
  H  H12  1  0.53203000  0.81225000  0.81264000  1.0
  H  H13  1  0.96797000  0.81225000  0.68736000  1.0
  H  H14  1  0.46797000  0.18775000  0.18736000  1.0
  H  H15  1  0.03203000  0.18775000  0.31264000  1.0
  H  H16  1  0.92348000  0.47556000  0.07999000  1.0
  H  H17  1  0.57653000  0.47556000  0.42001000  1.0
  H  H18  1  0.07653000  0.52444000  0.92001000  1.0
  H  H19  1  0.42348000  0.52444000  0.57999000  1.0
  H  H20  1  0.25000000  0.28360000  0.75000000  1.0
  H  H21  1  0.75000000  0.71640000  0.25000000  1.0
  C  C22  1  0.75799000  0.25646000  0.05283000  1.0
  C  C23  1  0.74201000  0.25647000  0.44717000  1.0
  C  C24  1  0.24201000  0.74353000  0.94717000  1.0
  C  C25  1  0.25799000  0.74353000  0.55283000  1.0
  C  C26  1  0.09647000  0.26157000  0.11121000  1.0
  C  C27  1  0.40354000  0.26157000  0.38879000  1.0
  C  C28  1  0.90354000  0.73843000  0.88879000  1.0
  C  C29  1  0.59646000  0.73843000  0.61121000  1.0
  C  C30  1  0.09535000  0.07756000  0.11326000  1.0
  C  C31  1  0.40465000  0.07756000  0.38675000  1.0
  C  C32  1  0.90465000  0.92244000  0.88674000  1.0
  C  C33  1  0.59535000  0.92244000  0.61326000  1.0
  C  C34  1  0.75934000  0.07429000  0.05398000  1.0
  C  C35  1  0.74067000  0.07428000  0.44602000  1.0
  C  C36  1  0.24067000  0.92571000  0.94602000  1.0
  C  C37  1  0.25933000  0.92571000  0.55398000  1.0
  C  C38  1  0.92945000  0.98735000  0.08411000  1.0
  C  C39  1  0.57055000  0.98735000  0.41589000  1.0
  C  C40  1  0.07055000  0.01265000  0.91589000  1.0
  C  C41  1  0.42945000  0.01265000  0.58411000  1.0
  C  C42  1  0.93614000  0.79074000  0.08460000  1.0
  C  C43  1  0.56386000  0.79074000  0.41540000  1.0
  C  C44  1  0.06386000  0.20926000  0.91540000  1.0
  C  C45  1  0.43614000  0.20926000  0.58460000  1.0
  C  C46  1  0.40758000  0.06681000  0.78701000  1.0
  C  C47  1  0.09242000  0.06681000  0.71299000  1.0
  C  C48  1  0.59243000  0.93319000  0.21299000  1.0
  C  C49  1  0.90757000  0.93319000  0.28701000  1.0
  C  C50  1  0.40945000  0.88350000  0.78535000  1.0
  C  C51  1  0.09054000  0.88350000  0.71465000  1.0
  C  C52  1  0.59055000  0.11650000  0.21465000  1.0
  C  C53  1  0.90946000  0.11650000  0.28535000  1.0
  C  C54  1  0.25000000  0.79535000  0.75000000  1.0
  C  C55  1  0.75000000  0.20466000  0.25000000  1.0
  C  C56  1  0.25000000  0.59905000  0.75000000  1.0
  C  C57  1  0.75000000  0.40095000  0.25000000  1.0
  N  N58  1  0.92666000  0.34088000  0.08078000  1.0
  N  N59  1  0.57334000  0.34088000  0.41922000  1.0
  N  N60  1  0.07334000  0.65911000  0.91922000  1.0
  N  N61  1  0.42666000  0.65912000  0.58078000  1.0
  N  N62  1  0.25000000  0.14905000  0.75000000  1.0
  N  N63  1  0.75000000  0.85095000  0.25000000  1.0
  O  O64  1  0.61024000  0.35579000  0.02638000  1.0
  O  O65  1  0.88975000  0.35579000  0.47362000  1.0
  O  O66  1  0.38976000  0.64421000  0.97362000  1.0
  O  O67  1  0.11025000  0.64421000  0.52638000  1.0
  O  O68  1  0.24338000  0.35830000  0.13480000  1.0
  O  O69  1  0.25662000  0.35830000  0.36520000  1.0
  O  O70  1  0.75662000  0.64170000  0.86520000  1.0
  O  O71  1  0.74338000  0.64170000  0.63480000  1.0
  O  O72  1  0.10602000  0.71434000  0.09602000  1.0
  O  O73  1  0.39399000  0.71434000  0.40398000  1.0
  O  O74  1  0.89398000  0.28566000  0.90398000  1.0
  O  O75  1  0.60602000  0.28566000  0.59602000  1.0
  O  O76  1  0.77094000  0.70686000  0.07241000  1.0
  O  O77  1  0.72906000  0.70686000  0.42759000  1.0
  O  O78  1  0.22906000  0.29314000  0.92758000  1.0
  O  O79  1  0.27093000  0.29314000  0.57242000  1.0
  O  O80  1  0.54004000  0.16234000  0.82137000  1.0
  O  O81  1  0.95996000  0.16235000  0.67863000  1.0
  O  O82  1  0.45996000  0.83765000  0.17863000  1.0
  O  O83  1  0.04004000  0.83765000  0.32137000  1.0
  O  O84  1  0.35573000  0.51850000  0.79824000  1.0
  O  O85  1  0.14427000  0.51850000  0.70176000  1.0
  O  O86  1  0.64427000  0.48150000  0.20176000  1.0
  O  O87  1  0.85573000  0.48150000  0.29824000  1.0
