# generated using pymatgen
data_CdH13C20NO7
_symmetry_space_group_name_H-M   'P 1'
_cell_length_a   6.56397000
_cell_length_b   9.87360000
_cell_length_c   13.61000000
_cell_angle_alpha   95.67310000
_cell_angle_beta   99.59710000
_cell_angle_gamma   90.55170000
_symmetry_Int_Tables_number   1
_chemical_formula_structural   CdH13C20NO7
_chemical_formula_sum   'Cd2 H26 C40 N2 O14'
_cell_volume   865.15306003
_cell_formula_units_Z   2
loop_
 _symmetry_equiv_pos_site_id
 _symmetry_equiv_pos_as_xyz
  1  'x, y, z'
loop_
 _atom_site_type_symbol
 _atom_site_label
 _atom_site_symmetry_multiplicity
 _atom_site_fract_x
 _atom_site_fract_y
 _atom_site_fract_z
 _atom_site_occupancy
  Cd  Cd0  1  0.21734000  0.47449000  0.60121000  1.0
  Cd  Cd1  1  0.78261000  0.52554000  0.39879000  1.0
  H  H2  1  0.21688000  0.99623000  0.58095000  1.0
  H  H3  1  0.78311000  0.00381000  0.41905000  1.0
  H  H4  1  0.60005000  0.60409000  0.64789000  1.0
  H  H5  1  0.39993000  0.39591000  0.35209000  1.0
  H  H6  1  0.50811000  0.62220000  0.74941000  1.0
  H  H7  1  0.49193000  0.37778000  0.25059000  1.0
  H  H8  1  0.22364000  0.03633000  0.97428000  1.0
  H  H9  1  0.77645000  0.96365000  0.02572000  1.0
  H  H10  1  0.96179000  0.66131000  0.73709000  1.0
  H  H11  1  0.03822000  0.33872000  0.26293000  1.0
  H  H12  1  0.17617000  0.30055000  0.95292000  1.0
  H  H13  1  0.82379000  0.69945000  0.04709000  1.0
  H  H14  1  0.39342000  0.68215000  0.20879000  1.0
  H  H15  1  0.60656000  0.31784000  0.79122000  1.0
  H  H16  1  0.17991000  0.08511000  0.15231000  1.0
  H  H17  1  0.82019000  0.91489000  0.84767000  1.0
  H  H18  1  0.43284000  0.63614000  0.03072000  1.0
  H  H19  1  0.56714000  0.36383000  0.96930000  1.0
  H  H20  1  0.31975000  0.13826000  0.30434000  1.0
  H  H21  1  0.68023000  0.86175000  0.69565000  1.0
  H  H22  1  0.23107000  0.70662000  0.32659000  1.0
  H  H23  1  0.76891000  0.29339000  0.67342000  1.0
  H  H24  1  0.86784000  0.68109000  0.90651000  1.0
  H  H25  1  0.13220000  0.31894000  0.09352000  1.0
  H  H26  1  0.23437000  0.29037000  0.77723000  1.0
  H  H27  1  0.76559000  0.70963000  0.22278000  1.0
  C  C28  1  0.28463000  0.22503000  0.49610000  1.0
  C  C29  1  0.71533000  0.77497000  0.50388000  1.0
  C  C30  1  0.26812000  0.08214000  0.44628000  1.0
  C  C31  1  0.73190000  0.91788000  0.55371000  1.0
  C  C32  1  0.22989000  0.97487000  0.50225000  1.0
  C  C33  1  0.77008000  0.02515000  0.49774000  1.0
  C  C34  1  0.18664000  0.72618000  0.51870000  1.0
  C  C35  1  0.81331000  0.27383000  0.48130000  1.0
  C  C36  1  0.27268000  0.91906000  0.30004000  1.0
  C  C37  1  0.72731000  0.08093000  0.69995000  1.0
  C  C38  1  0.21606000  0.84017000  0.45767000  1.0
  C  C39  1  0.78388000  0.15984000  0.54232000  1.0
  C  C40  1  0.01976000  0.49446000  0.94785000  1.0
  C  C41  1  0.98024000  0.50554000  0.05217000  1.0
  C  C42  1  0.24054000  0.81246000  0.35834000  1.0
  C  C43  1  0.75941000  0.18755000  0.64165000  1.0
  C  C44  1  0.28942000  0.88923000  0.19469000  1.0
  C  C45  1  0.71059000  0.11077000  0.80532000  1.0
  C  C46  1  0.33701000  0.83521000  0.99250000  1.0
  C  C47  1  0.66305000  0.16476000  0.00750000  1.0
  C  C48  1  0.35571000  0.76034000  0.15792000  1.0
  C  C49  1  0.64427000  0.23965000  0.84209000  1.0
  C  C50  1  0.28669000  0.05438000  0.34603000  1.0
  C  C51  1  0.71329000  0.94563000  0.65397000  1.0
  C  C52  1  0.23991000  0.98807000  0.12656000  1.0
  C  C53  1  0.76014000  0.01192000  0.87344000  1.0
  C  C54  1  0.26290000  0.96130000  0.02741000  1.0
  C  C55  1  0.73717000  0.03867000  0.97259000  1.0
  C  C56  1  0.95573000  0.59425000  0.88365000  1.0
  C  C57  1  0.04430000  0.40576000  0.11637000  1.0
  C  C58  1  0.37890000  0.73416000  0.05872000  1.0
  C  C59  1  0.62108000  0.26582000  0.94129000  1.0
  C  C60  1  0.36197000  0.80738000  0.88482000  1.0
  C  C61  1  0.63812000  0.19257000  0.11518000  1.0
  C  C62  1  0.00186000  0.58264000  0.78718000  1.0
  C  C63  1  0.99814000  0.41739000  0.21283000  1.0
  C  C64  1  0.12244000  0.38272000  0.90834000  1.0
  C  C65  1  0.87755000  0.61727000  0.09168000  1.0
  C  C66  1  0.15830000  0.37669000  0.81050000  1.0
  C  C67  1  0.84168000  0.62333000  0.18951000  1.0
  N  N68  1  0.10252000  0.47614000  0.75133000  1.0
  N  N69  1  0.89746000  0.52388000  0.24868000  1.0
  O  O70  1  0.30812000  0.32423000  0.44620000  1.0
  O  O71  1  0.69179000  0.67576000  0.55376000  1.0
  O  O72  1  0.26599000  0.24144000  0.58877000  1.0
  O  O73  1  0.73398000  0.75859000  0.41120000  1.0
  O  O74  1  0.15206000  0.60498000  0.47180000  1.0
  O  O75  1  0.84792000  0.39504000  0.52820000  1.0
  O  O76  1  0.53454000  0.55303000  0.69445000  1.0
  O  O77  1  0.46546000  0.44696000  0.30553000  1.0
  O  O78  1  0.20142000  0.74838000  0.61194000  1.0
  O  O79  1  0.79856000  0.25166000  0.38805000  1.0
  O  O80  1  0.49807000  0.72400000  0.86245000  1.0
  O  O81  1  0.50199000  0.27594000  0.13755000  1.0
  O  O82  1  0.23900000  0.86799000  0.82318000  1.0
  O  O83  1  0.76109000  0.13195000  0.17682000  1.0
