# generated using pymatgen
data_ZnH15C15N3O7
_symmetry_space_group_name_H-M   'P 1'
_cell_length_a   7.12697000
_cell_length_b   13.54960000
_cell_length_c   22.05140000
_cell_angle_alpha   89.99970000
_cell_angle_beta   92.80160000
_cell_angle_gamma   89.99980000
_symmetry_Int_Tables_number   1
_chemical_formula_structural   ZnH15C15N3O7
_chemical_formula_sum   'Zn4 H60 C60 N12 O28'
_cell_volume   2126.90543661
_cell_formula_units_Z   4
loop_
 _symmetry_equiv_pos_site_id
 _symmetry_equiv_pos_as_xyz
  1  'x, y, z'
loop_
 _atom_site_type_symbol
 _atom_site_label
 _atom_site_symmetry_multiplicity
 _atom_site_fract_x
 _atom_site_fract_y
 _atom_site_fract_z
 _atom_site_occupancy
  Zn  Zn0  1  0.40175000  0.41025000  0.18963000  1.0
  Zn  Zn1  1  0.59826000  0.91025000  0.31037000  1.0
  Zn  Zn2  1  0.59827000  0.58974000  0.81037000  1.0
  Zn  Zn3  1  0.40175000  0.08974000  0.68963000  1.0
  H  H4  1  0.61187000  0.65929000  0.27835000  1.0
  H  H5  1  0.38812000  0.15930000  0.22165000  1.0
  H  H6  1  0.38813000  0.34071000  0.72165000  1.0
  H  H7  1  0.61190000  0.84070000  0.77835000  1.0
  H  H8  1  0.83744000  0.54725000  0.22773000  1.0
  H  H9  1  0.16254000  0.04726000  0.27228000  1.0
  H  H10  1  0.16255000  0.45276000  0.77227000  1.0
  H  H11  1  0.83747000  0.95274000  0.72773000  1.0
  H  H12  1  0.29140000  0.70145000  0.32460000  1.0
  H  H13  1  0.70859000  0.20145000  0.17539000  1.0
  H  H14  1  0.70861000  0.29855000  0.67539000  1.0
  H  H15  1  0.29140000  0.79856000  0.82462000  1.0
  H  H16  1  0.04807000  0.80505000  0.37393000  1.0
  H  H17  1  0.95192000  0.30505000  0.12606000  1.0
  H  H18  1  0.95194000  0.19494000  0.62606000  1.0
  H  H19  1  0.04808000  0.69495000  0.87394000  1.0
  H  H20  1  0.20994000  0.57744000  0.05861000  1.0
  H  H21  1  0.79006000  0.07744000  0.44139000  1.0
  H  H22  1  0.79007000  0.42255000  0.94138000  1.0
  H  H23  1  0.20994000  0.92256000  0.55861000  1.0
  H  H24  1  0.99037000  0.48992000  0.12560000  1.0
  H  H25  1  0.00964000  0.98993000  0.37440000  1.0
  H  H26  1  0.00964000  0.51007000  0.87440000  1.0
  H  H27  1  0.99038000  0.01007000  0.62560000  1.0
  H  H28  1  0.76621000  0.70092000  0.95509000  1.0
  H  H29  1  0.23381000  0.20092000  0.54491000  1.0
  H  H30  1  0.23380000  0.29908000  0.04492000  1.0
  H  H31  1  0.76622000  0.79909000  0.45509000  1.0
  H  H32  1  0.52834000  0.61434000  0.01683000  1.0
  H  H33  1  0.47168000  0.11434000  0.48317000  1.0
  H  H34  1  0.47167000  0.38566000  0.98317000  1.0
  H  H35  1  0.52836000  0.88565000  0.51684000  1.0
  H  H36  1  0.77341000  0.38650000  0.25779000  1.0
  H  H37  1  0.22657000  0.88651000  0.24221000  1.0
  H  H38  1  0.22658000  0.61349000  0.74221000  1.0
  H  H39  1  0.77342000  0.11349000  0.75779000  1.0
  H  H40  1  0.01301000  0.35660000  0.31748000  1.0
  H  H41  1  0.98695000  0.85661000  0.18252000  1.0
  H  H42  1  0.98698000  0.64339000  0.68252000  1.0
  H  H43  1  0.01302000  0.14339000  0.81748000  1.0
  H  H44  1  0.00626000  0.23675000  0.35142000  1.0
  H  H45  1  0.99370000  0.73676000  0.14858000  1.0
  H  H46  1  0.99372000  0.76324000  0.64858000  1.0
  H  H47  1  0.00628000  0.26324000  0.85142000  1.0
  H  H48  1  0.96926000  0.34370000  0.39655000  1.0
  H  H49  1  0.03069000  0.84371000  0.10345000  1.0
  H  H50  1  0.03072000  0.65629000  0.60345000  1.0
  H  H51  1  0.96926000  0.15629000  0.89655000  1.0
  H  H52  1  0.47870000  0.27078000  0.36571000  1.0
  H  H53  1  0.52128000  0.77080000  0.13429000  1.0
  H  H54  1  0.52129000  0.72922000  0.63430000  1.0
  H  H55  1  0.47871000  0.22922000  0.86570000  1.0
  H  H56  1  0.66710000  0.26546000  0.42315000  1.0
  H  H57  1  0.33287000  0.76547000  0.07685000  1.0
  H  H58  1  0.33289000  0.73454000  0.57685000  1.0
  H  H59  1  0.66710000  0.23455000  0.92314000  1.0
  H  H60  1  0.63968000  0.17033000  0.36710000  1.0
  H  H61  1  0.36030000  0.67034000  0.13290000  1.0
  H  H62  1  0.36030000  0.82967000  0.63291000  1.0
  H  H63  1  0.63969000  0.32967000  0.86709000  1.0
  C  C64  1  0.76334000  0.66465000  0.28656000  1.0
  C  C65  1  0.23665000  0.16467000  0.21344000  1.0
  C  C66  1  0.23666000  0.33534000  0.71343000  1.0
  C  C67  1  0.76336000  0.83534000  0.78656000  1.0
  C  C68  1  0.89025000  0.60359000  0.25953000  1.0
  C  C69  1  0.10974000  0.10360000  0.24047000  1.0
  C  C70  1  0.10975000  0.39641000  0.74047000  1.0
  C  C71  1  0.89026000  0.89641000  0.75953000  1.0
  C  C72  1  0.08317000  0.61472000  0.27294000  1.0
  C  C73  1  0.91682000  0.11472000  0.22705000  1.0
  C  C74  1  0.91684000  0.38528000  0.72705000  1.0
  C  C75  1  0.08317000  0.88529000  0.77295000  1.0
  C  C76  1  0.14259000  0.68949000  0.31334000  1.0
  C  C77  1  0.85742000  0.18950000  0.18666000  1.0
  C  C78  1  0.85742000  0.31050000  0.68666000  1.0
  C  C79  1  0.14257000  0.81051000  0.81334000  1.0
  C  C80  1  0.01220000  0.74869000  0.34021000  1.0
  C  C81  1  0.98779000  0.24869000  0.15979000  1.0
  C  C82  1  0.98780000  0.25130000  0.65979000  1.0
  C  C83  1  0.01222000  0.75131000  0.84022000  1.0
  C  C84  1  0.22301000  0.54822000  0.24514000  1.0
  C  C85  1  0.77698000  0.04823000  0.25485000  1.0
  C  C86  1  0.77700000  0.45177000  0.75485000  1.0
  C  C87  1  0.22301000  0.95177000  0.74515000  1.0
  C  C88  1  0.05834000  0.58499000  0.05305000  1.0
  C  C89  1  0.94167000  0.08500000  0.44695000  1.0
  C  C90  1  0.94168000  0.41500000  0.94694000  1.0
  C  C91  1  0.05833000  0.91501000  0.55305000  1.0
  C  C92  1  0.93441000  0.53626000  0.08861000  1.0
  C  C93  1  0.06559000  0.03627000  0.41139000  1.0
  C  C94  1  0.06560000  0.46373000  0.91139000  1.0
  C  C95  1  0.93442000  0.96373000  0.58862000  1.0
  C  C96  1  0.74008000  0.54610000  0.07736000  1.0
  C  C97  1  0.25992000  0.04611000  0.42264000  1.0
  C  C98  1  0.25993000  0.45389000  0.92263000  1.0
  C  C99  1  0.74010000  0.95389000  0.57737000  1.0
  C  C100  1  0.80496000  0.65572000  0.99450000  1.0
  C  C101  1  0.19506000  0.15572000  0.50550000  1.0
  C  C102  1  0.19505000  0.34428000  0.00550000  1.0
  C  C103  1  0.80496000  0.84429000  0.49450000  1.0
  C  C104  1  0.67777000  0.60633000  0.02873000  1.0
  C  C105  1  0.32224000  0.10634000  0.47127000  1.0
  C  C106  1  0.32224000  0.39367000  0.97127000  1.0
  C  C107  1  0.67778000  0.89367000  0.52874000  1.0
  C  C108  1  0.60657000  0.49374000  0.11547000  1.0
  C  C109  1  0.39343000  0.99374000  0.38453000  1.0
  C  C110  1  0.39344000  0.50627000  0.88453000  1.0
  C  C111  1  0.60657000  0.00626000  0.61548000  1.0
  C  C112  1  0.67198000  0.34705000  0.28505000  1.0
  C  C113  1  0.32799000  0.84705000  0.21495000  1.0
  C  C114  1  0.32800000  0.65295000  0.71495000  1.0
  C  C115  1  0.67201000  0.15295000  0.78505000  1.0
  C  C116  1  0.94465000  0.31116000  0.35120000  1.0
  C  C117  1  0.05532000  0.81117000  0.14881000  1.0
  C  C118  1  0.05534000  0.68883000  0.64881000  1.0
  C  C119  1  0.94467000  0.18883000  0.85120000  1.0
  C  C120  1  0.62540000  0.24982000  0.37551000  1.0
  C  C121  1  0.37458000  0.74983000  0.12449000  1.0
  C  C122  1  0.37459000  0.75018000  0.62450000  1.0
  C  C123  1  0.62541000  0.25018000  0.87550000  1.0
  N  N124  1  0.82558000  0.73483000  0.32679000  1.0
  N  N125  1  0.17441000  0.23483000  0.17320000  1.0
  N  N126  1  0.17442000  0.26517000  0.67320000  1.0
  N  N127  1  0.82558000  0.76518000  0.82680000  1.0
  N  N128  1  0.99495000  0.64626000  0.00691000  1.0
  N  N129  1  0.00507000  0.14626000  0.49309000  1.0
  N  N130  1  0.00507000  0.35374000  0.99309000  1.0
  N  N131  1  0.99496000  0.85374000  0.50691000  1.0
  N  N132  1  0.74380000  0.30615000  0.33593000  1.0
  N  N133  1  0.25617000  0.80615000  0.16407000  1.0
  N  N134  1  0.25619000  0.69385000  0.66407000  1.0
  N  N135  1  0.74382000  0.19385000  0.83593000  1.0
  O  O136  1  0.15987000  0.46662000  0.22157000  1.0
  O  O137  1  0.84012000  0.96663000  0.27842000  1.0
  O  O138  1  0.84014000  0.53338000  0.77843000  1.0
  O  O139  1  0.15988000  0.03338000  0.72158000  1.0
  O  O140  1  0.39280000  0.57328000  0.24541000  1.0
  O  O141  1  0.60718000  0.07329000  0.25458000  1.0
  O  O142  1  0.60720000  0.42672000  0.75459000  1.0
  O  O143  1  0.39281000  0.92672000  0.74542000  1.0
  O  O144  1  0.43035000  0.50255000  0.10478000  1.0
  O  O145  1  0.56965000  0.00255000  0.39521000  1.0
  O  O146  1  0.56966000  0.49745000  0.89521000  1.0
  O  O147  1  0.43036000  0.99744000  0.60479000  1.0
  O  O148  1  0.67152000  0.44058000  0.16015000  1.0
  O  O149  1  0.32847000  0.94059000  0.33984000  1.0
  O  O150  1  0.32848000  0.55942000  0.83985000  1.0
  O  O151  1  0.67153000  0.05941000  0.66016000  1.0
  O  O152  1  0.70093000  0.78909000  0.35512000  1.0
  O  O153  1  0.29904000  0.28909000  0.14488000  1.0
  O  O154  1  0.29906000  0.21091000  0.64488000  1.0
  O  O155  1  0.70094000  0.71091000  0.85512000  1.0
  O  O156  1  0.11407000  0.69327000  0.97514000  1.0
  O  O157  1  0.88595000  0.19328000  0.52486000  1.0
  O  O158  1  0.88595000  0.30672000  0.02486000  1.0
  O  O159  1  0.11407000  0.80673000  0.47513000  1.0
  O  O160  1  0.50044000  0.34160000  0.26840000  1.0
  O  O161  1  0.49954000  0.84161000  0.23159000  1.0
  O  O162  1  0.49955000  0.65838000  0.73160000  1.0
  O  O163  1  0.50046000  0.15839000  0.76840000  1.0
