# generated using pymatgen
data_ZnH18C20N3O5
_symmetry_space_group_name_H-M   'P 1'
_cell_length_a   7.61198000
_cell_length_b   11.28110000
_cell_length_c   13.02729030
_cell_angle_alpha   113.52272969
_cell_angle_beta   101.33523169
_cell_angle_gamma   97.47470000
_symmetry_Int_Tables_number   1
_chemical_formula_structural   ZnH18C20N3O5
_chemical_formula_sum   'Zn2 H36 C40 N6 O10'
_cell_volume   978.27608104
_cell_formula_units_Z   2
loop_
 _symmetry_equiv_pos_site_id
 _symmetry_equiv_pos_as_xyz
  1  'x, y, z'
loop_
 _atom_site_type_symbol
 _atom_site_label
 _atom_site_symmetry_multiplicity
 _atom_site_fract_x
 _atom_site_fract_y
 _atom_site_fract_z
 _atom_site_occupancy
  Zn  Zn0  1  0.32545000  0.83599000  0.23307000  1.0
  Zn  Zn1  1  0.67455000  0.16401000  0.76693000  1.0
  H  H2  1  0.16371000  0.32277000  0.96900000  1.0
  H  H3  1  0.83629000  0.67723000  0.03100000  1.0
  H  H4  1  0.17968000  0.27698000  0.76733000  1.0
  H  H5  1  0.82032000  0.72302000  0.23267000  1.0
  H  H6  1  0.31753000  0.46965000  0.73232000  1.0
  H  H7  1  0.68247000  0.53034000  0.26768000  1.0
  H  H8  1  0.46900000  0.67457000  0.79775000  1.0
  H  H9  1  0.53100000  0.32543000  0.20225000  1.0
  H  H10  1  0.54686000  0.78322000  0.94751000  1.0
  H  H11  1  0.45314000  0.21679000  0.05250000  1.0
  H  H12  1  0.47860000  0.95910000  0.87606000  1.0
  H  H13  1  0.52140000  0.04090000  0.12394000  1.0
  H  H14  1  0.24521000  0.08312000  0.84224000  1.0
  H  H15  1  0.75480000  0.91688000  0.15776000  1.0
  H  H16  1  0.81840000  0.77350000  0.81646000  1.0
  H  H17  1  0.18160000  0.22651000  0.18354000  1.0
  H  H18  1  0.04607000  0.65004000  0.84951000  1.0
  H  H19  1  0.95393000  0.34996000  0.15049000  1.0
  H  H20  1  0.61830000  0.80351000  0.43434000  1.0
  H  H21  1  0.38168000  0.19648000  0.56565000  1.0
  H  H22  1  0.90777000  0.02120000  0.58969000  1.0
  H  H23  1  0.09222000  0.97880000  0.41031000  1.0
  H  H24  1  0.57678000  0.12422000  0.35062000  1.0
  H  H25  1  0.42322000  0.87578000  0.64938000  1.0
  H  H26  1  0.04460000  0.23065000  0.55866000  1.0
  H  H27  1  0.95539000  0.76934000  0.44134000  1.0
  H  H28  1  0.87610000  0.29671000  0.62842000  1.0
  H  H29  1  0.12390000  0.70330000  0.37158000  1.0
  H  H30  1  0.73570000  0.33876000  0.46082000  1.0
  H  H31  1  0.26431000  0.66123000  0.53917000  1.0
  H  H32  1  0.89296000  0.26657000  0.38511000  1.0
  H  H33  1  0.10704000  0.73343000  0.61489000  1.0
  H  H34  1  0.99875000  0.51284000  0.62172000  1.0
  H  H35  1  0.00126000  0.48715000  0.37827000  1.0
  H  H36  1  0.15501000  0.44345000  0.54369000  1.0
  H  H37  1  0.84499000  0.55655000  0.45630000  1.0
  C  C38  1  0.27585000  0.54796000  0.16201000  1.0
  C  C39  1  0.72415000  0.45204000  0.83799000  1.0
  C  C40  1  0.27788000  0.53113000  0.04046000  1.0
  C  C41  1  0.72212000  0.46887000  0.95954000  1.0
  C  C42  1  0.21761000  0.40390000  0.95013000  1.0
  C  C43  1  0.78239000  0.59610000  0.04987000  1.0
  C  C44  1  0.22687000  0.37746000  0.83680000  1.0
  C  C45  1  0.77313000  0.62254000  0.16321000  1.0
  C  C46  1  0.29989000  0.48107000  0.81635000  1.0
  C  C47  1  0.70011000  0.51893000  0.18365000  1.0
  C  C48  1  0.34701000  0.63898000  0.01612000  1.0
  C  C49  1  0.65298000  0.36102000  0.98388000  1.0
  C  C50  1  0.42419000  0.71774000  0.87720000  1.0
  C  C51  1  0.57581000  0.28226000  0.12280000  1.0
  C  C52  1  0.27999000  0.79504000  0.86396000  1.0
  C  C53  1  0.72001000  0.20496000  0.13604000  1.0
  C  C54  1  0.33381000  0.91864000  0.86365000  1.0
  C  C55  1  0.66620000  0.08136000  0.13635000  1.0
  C  C56  1  0.20244000  0.98817000  0.84413000  1.0
  C  C57  1  0.79758000  0.01183000  0.15587000  1.0
  C  C58  1  0.01521000  0.93601000  0.82587000  1.0
  C  C59  1  0.98480000  0.06399000  0.17413000  1.0
  C  C60  1  0.96286000  0.81437000  0.82949000  1.0
  C  C61  1  0.03714000  0.18563000  0.17051000  1.0
  C  C62  1  0.09382000  0.74457000  0.84815000  1.0
  C  C63  1  0.90618000  0.25543000  0.15185000  1.0
  C  C64  1  0.86923000  0.00457000  0.80108000  1.0
  C  C65  1  0.13078000  0.99544000  0.19893000  1.0
  C  C66  1  0.65603000  0.90208000  0.43935000  1.0
  C  C67  1  0.34396000  0.09792000  0.56065000  1.0
  C  C68  1  0.79945000  0.00768000  0.51553000  1.0
  C  C69  1  0.20053000  0.99232000  0.48447000  1.0
  C  C70  1  0.62916000  0.06674000  0.39394000  1.0
  C  C71  1  0.37084000  0.93326000  0.60606000  1.0
  C  C72  1  0.90283000  0.24415000  0.54351000  1.0
  C  C73  1  0.09717000  0.75584000  0.45648000  1.0
  C  C74  1  0.87671000  0.32291000  0.47250000  1.0
  C  C75  1  0.12329000  0.67709000  0.52750000  1.0
  C  C76  1  0.01310000  0.45813000  0.53348000  1.0
  C  C77  1  0.98690000  0.54187000  0.46652000  1.0
  N  N78  1  0.35724000  0.60703000  0.90266000  1.0
  N  N79  1  0.64276000  0.39297000  0.09734000  1.0
  N  N80  1  0.55078000  0.94062000  0.36436000  1.0
  N  N81  1  0.44921000  0.05939000  0.63564000  1.0
  N  N82  1  0.78065000  0.11061000  0.48499000  1.0
  N  N83  1  0.21934000  0.88939000  0.51501000  1.0
  O  O84  1  0.27248000  0.44735000  0.18019000  1.0
  O  O85  1  0.72752000  0.55265000  0.81981000  1.0
  O  O86  1  0.27734000  0.66368000  0.24087000  1.0
  O  O87  1  0.72266000  0.33632000  0.75914000  1.0
  O  O88  1  0.40386000  0.76156000  0.08704000  1.0
  O  O89  1  0.59613000  0.23843000  0.91295000  1.0
  O  O90  1  0.70258000  0.95424000  0.78471000  1.0
  O  O91  1  0.29742000  0.04576000  0.21529000  1.0
  O  O92  1  0.91861000  0.11611000  0.79489000  1.0
  O  O93  1  0.08141000  0.88390000  0.20511000  1.0
