# generated using pymatgen
data_CdH17C17N2O5
_symmetry_space_group_name_H-M   'P 1'
_cell_length_a   8.75040000
_cell_length_b   10.60350000
_cell_length_c   10.86922392
_cell_angle_alpha   118.91655924
_cell_angle_beta   105.10898599
_cell_angle_gamma   94.88200000
_symmetry_Int_Tables_number   1
_chemical_formula_structural   CdH17C17N2O5
_chemical_formula_sum   'Cd2 H34 C34 N4 O10'
_cell_volume   825.21944108
_cell_formula_units_Z   2
loop_
 _symmetry_equiv_pos_site_id
 _symmetry_equiv_pos_as_xyz
  1  'x, y, z'
loop_
 _atom_site_type_symbol
 _atom_site_label
 _atom_site_symmetry_multiplicity
 _atom_site_fract_x
 _atom_site_fract_y
 _atom_site_fract_z
 _atom_site_occupancy
  Cd  Cd0  1  0.22433000  0.41636000  0.33298000  1.0
  Cd  Cd1  1  0.77567000  0.58364000  0.66702000  1.0
  H  H2  1  0.97054000  0.22122000  0.97524000  1.0
  H  H3  1  0.02946000  0.77878000  0.02476000  1.0
  H  H4  1  0.38247000  0.57596000  0.15769000  1.0
  H  H5  1  0.61753000  0.42405000  0.84232000  1.0
  H  H6  1  0.20925000  0.49540000  0.86455000  1.0
  H  H7  1  0.79075000  0.50460000  0.13545000  1.0
  H  H8  1  0.91064000  0.33704000  0.69372000  1.0
  H  H9  1  0.08935000  0.66297000  0.30628000  1.0
  H  H10  1  0.81524000  0.22192000  0.74076000  1.0
  H  H11  1  0.18475000  0.77807000  0.25923000  1.0
  H  H12  1  0.95688000  0.21241000  0.46846000  1.0
  H  H13  1  0.04312000  0.78760000  0.53154000  1.0
  H  H14  1  0.99117000  0.00571000  0.72938000  1.0
  H  H15  1  0.00883000  0.99430000  0.27062000  1.0
  H  H16  1  0.73598000  0.05827000  0.16267000  1.0
  H  H17  1  0.26402000  0.94172000  0.83733000  1.0
  H  H18  1  0.66455000  0.22219000  0.24231000  1.0
  H  H19  1  0.33545000  0.77781000  0.75769000  1.0
  H  H20  1  0.50507000  0.29841000  0.08763000  1.0
  H  H21  1  0.49493000  0.70159000  0.91237000  1.0
  H  H22  1  0.35622000  0.24277000  0.83166000  1.0
  H  H23  1  0.64378000  0.75723000  0.16834000  1.0
  H  H24  1  0.40025000  0.03908000  0.61135000  1.0
  H  H25  1  0.59975000  0.96092000  0.38865000  1.0
  H  H26  1  0.75792000  0.95872000  0.90390000  1.0
  H  H27  1  0.24208000  0.04128000  0.09610000  1.0
  H  H28  1  0.57539000  0.87522000  0.51327000  1.0
  H  H29  1  0.42461000  0.12479000  0.48674000  1.0
  H  H30  1  0.73177000  0.84818000  0.63433000  1.0
  H  H31  1  0.26823000  0.15182000  0.36567000  1.0
  H  H32  1  0.37550000  0.53271000  0.61607000  1.0
  H  H33  1  0.62450000  0.46729000  0.38393000  1.0
  H  H34  1  0.19508000  0.50803000  0.62025000  1.0
  H  H35  1  0.80492000  0.49196000  0.37975000  1.0
  C  C36  1  0.06174000  0.30608000  0.98692000  1.0
  C  C37  1  0.93826000  0.69392000  0.01308000  1.0
  C  C38  1  0.27278000  0.48893000  0.07589000  1.0
  C  C39  1  0.72722000  0.51107000  0.92411000  1.0
  C  C40  1  0.18940000  0.45043000  0.93157000  1.0
  C  C41  1  0.81060000  0.54958000  0.06844000  1.0
  C  C42  1  0.92938000  0.25669000  0.72836000  1.0
  C  C43  1  0.07062000  0.74331000  0.27164000  1.0
  C  C44  1  0.97508000  0.11880000  0.48207000  1.0
  C  C45  1  0.02492000  0.88120000  0.51793000  1.0
  C  C46  1  0.96913000  0.12459000  0.61204000  1.0
  C  C47  1  0.03087000  0.87541000  0.38796000  1.0
  C  C48  1  0.99482000  0.00472000  0.62931000  1.0
  C  C49  1  0.00518000  0.99528000  0.37069000  1.0
  C  C50  1  0.90423000  0.25756000  0.22999000  1.0
  C  C51  1  0.09577000  0.74244000  0.77001000  1.0
  C  C52  1  0.73080000  0.16356000  0.16771000  1.0
  C  C53  1  0.26920000  0.83644000  0.83229000  1.0
  C  C54  1  0.64250000  0.13311000  0.01284000  1.0
  C  C55  1  0.35750000  0.86689000  0.98716000  1.0
  C  C56  1  0.52993000  0.21347000  0.99167000  1.0
  C  C57  1  0.47007000  0.78653000  0.00833000  1.0
  C  C58  1  0.44536000  0.18130000  0.84771000  1.0
  C  C59  1  0.55464000  0.81870000  0.15229000  1.0
  C  C60  1  0.47184000  0.06846000  0.72407000  1.0
  C  C61  1  0.52816000  0.93154000  0.27593000  1.0
  C  C62  1  0.58567000  0.98842000  0.74326000  1.0
  C  C63  1  0.41433000  0.01158000  0.25674000  1.0
  C  C64  1  0.67086000  0.02217000  0.88820000  1.0
  C  C65  1  0.32914000  0.97783000  0.11180000  1.0
  C  C66  1  0.60597000  0.85992000  0.60863000  1.0
  C  C67  1  0.39403000  0.14007000  0.39137000  1.0
  C  C68  1  0.49193000  0.71662000  0.56385000  1.0
  C  C69  1  0.50807000  0.28338000  0.43615000  1.0
  N  N70  1  0.19164000  0.39806000  0.10893000  1.0
  N  N71  1  0.80836000  0.60194000  0.89107000  1.0
  N  N72  1  0.05577000  0.33488000  0.87740000  1.0
  N  N73  1  0.94423000  0.66512000  0.12260000  1.0
  O  O74  1  0.01866000  0.19226000  0.20867000  1.0
  O  O75  1  0.98134000  0.80775000  0.79134000  1.0
  O  O76  1  0.93067000  0.39994000  0.29820000  1.0
  O  O77  1  0.06933000  0.60006000  0.70180000  1.0
  O  O78  1  0.53379000  0.65930000  0.64446000  1.0
  O  O79  1  0.46621000  0.34070000  0.35554000  1.0
  O  O80  1  0.35968000  0.66481000  0.45402000  1.0
  O  O81  1  0.64032000  0.33519000  0.54597000  1.0
  O  O82  1  0.27206000  0.45433000  0.57256000  1.0
  O  O83  1  0.72794000  0.54567000  0.42744000  1.0
