# generated using pymatgen
data_LiErH40(C6N)8
_symmetry_space_group_name_H-M   'P 1'
_cell_length_a   9.01147000
_cell_length_b   12.94980000
_cell_length_c   20.09240000
_cell_angle_alpha   89.99960000
_cell_angle_beta   89.99900000
_cell_angle_gamma   71.80900000
_symmetry_Int_Tables_number   1
_chemical_formula_structural   LiErH40(C6N)8
_chemical_formula_sum   'Li2 Er2 H80 C96 N16'
_cell_volume   2227.53106539
_cell_formula_units_Z   2
loop_
 _symmetry_equiv_pos_site_id
 _symmetry_equiv_pos_as_xyz
  1  'x, y, z'
loop_
 _atom_site_type_symbol
 _atom_site_label
 _atom_site_symmetry_multiplicity
 _atom_site_fract_x
 _atom_site_fract_y
 _atom_site_fract_z
 _atom_site_occupancy
  Li  Li0  1  0.74298000  0.23214000  0.81207000  1.0
  Li  Li1  1  0.25702000  0.76785000  0.31207000  1.0
  Er  Er2  1  0.35703000  0.27202000  0.83822000  1.0
  Er  Er3  1  0.64296000  0.72798000  0.33821000  1.0
  H  H4  1  0.09487000  0.11939000  0.98925000  1.0
  H  H5  1  0.90513000  0.88061000  0.48924000  1.0
  H  H6  1  0.95951000  0.02035000  0.06126000  1.0
  H  H7  1  0.04048000  0.97966000  0.56125000  1.0
  H  H8  1  0.07880000  0.82313000  0.08134000  1.0
  H  H9  1  0.92118000  0.17688000  0.58132000  1.0
  H  H10  1  0.32889000  0.72174000  0.02557000  1.0
  H  H11  1  0.67109000  0.27826000  0.52556000  1.0
  H  H12  1  0.46372000  0.82014000  0.95365000  1.0
  H  H13  1  0.53626000  0.17985000  0.45364000  1.0
  H  H14  1  0.48046000  0.97993000  0.90454000  1.0
  H  H15  1  0.51954000  0.02007000  0.40455000  1.0
  H  H16  1  0.33840000  0.15791000  0.00543000  1.0
  H  H17  1  0.66160000  0.84208000  0.50543000  1.0
  H  H18  1  0.45304000  0.14979000  0.10905000  1.0
  H  H19  1  0.54698000  0.85021000  0.60906000  1.0
  H  H20  1  0.62295000  0.03562000  0.19629000  1.0
  H  H21  1  0.37709000  0.96437000  0.69630000  1.0
  H  H22  1  0.81524000  0.85796000  0.16587000  1.0
  H  H23  1  0.18479000  0.14204000  0.66588000  1.0
  H  H24  1  0.84302000  0.79786000  0.04752000  1.0
  H  H25  1  0.15699000  0.20213000  0.54753000  1.0
  H  H26  1  0.68025000  0.91325000  0.96063000  1.0
  H  H27  1  0.31974000  0.08674000  0.46064000  1.0
  H  H28  1  0.70050000  0.16424000  0.99634000  1.0
  H  H29  1  0.29949000  0.83575000  0.49634000  1.0
  H  H30  1  0.90455000  0.28300000  0.95301000  1.0
  H  H31  1  0.09544000  0.71701000  0.45301000  1.0
  H  H32  1  0.87259000  0.43823000  0.85963000  1.0
  H  H33  1  0.12740000  0.56178000  0.35962000  1.0
  H  H34  1  0.58495000  0.47080000  0.80389000  1.0
  H  H35  1  0.41505000  0.52920000  0.30389000  1.0
  H  H36  1  0.15270000  0.01060000  0.85612000  1.0
  H  H37  1  0.84730000  0.98939000  0.35612000  1.0
  H  H38  1  0.92552000  0.07667000  0.75294000  1.0
  H  H39  1  0.07449000  0.92333000  0.25294000  1.0
  H  H40  1  0.82867000  0.26328000  0.67932000  1.0
  H  H41  1  0.17135000  0.73672000  0.17933000  1.0
  H  H42  1  0.02110000  0.37991000  0.71332000  1.0
  H  H43  1  0.97892000  0.62009000  0.21332000  1.0
  H  H44  1  0.96827000  0.53591000  0.71913000  1.0
  H  H45  1  0.03174000  0.46409000  0.21913000  1.0
  H  H46  1  0.78105000  0.68730000  0.65881000  1.0
  H  H47  1  0.21896000  0.31271000  0.15880000  1.0
  H  H48  1  0.86908000  0.83600000  0.61039000  1.0
  H  H49  1  0.13092000  0.16399000  0.11039000  1.0
  H  H50  1  0.14725000  0.82978000  0.62271000  1.0
  H  H51  1  0.85276000  0.17021000  0.12271000  1.0
  H  H52  1  0.33588000  0.67483000  0.68047000  1.0
  H  H53  1  0.66413000  0.32517000  0.18047000  1.0
  H  H54  1  0.38986000  0.52210000  0.74619000  1.0
  H  H55  1  0.61014000  0.47790000  0.24619000  1.0
  H  H56  1  0.23465000  0.38643000  0.66544000  1.0
  H  H57  1  0.76534000  0.61357000  0.16543000  1.0
  H  H58  1  0.26449000  0.42346000  0.55366000  1.0
  H  H59  1  0.73550000  0.57654000  0.05366000  1.0
  H  H60  1  0.40528000  0.48213000  0.46262000  1.0
  H  H61  1  0.59470000  0.51789000  0.96262000  1.0
  H  H62  1  0.65667000  0.51806000  0.48587000  1.0
  H  H63  1  0.34331000  0.48195000  0.98588000  1.0
  H  H64  1  0.76657000  0.49261000  0.60011000  1.0
  H  H65  1  0.23342000  0.50739000  0.10012000  1.0
  H  H66  1  0.62322000  0.43649000  0.69188000  1.0
  H  H67  1  0.37680000  0.56349000  0.19189000  1.0
  H  H68  1  0.53068000  0.21920000  0.63673000  1.0
  H  H69  1  0.46931000  0.78080000  0.13673000  1.0
  H  H70  1  0.72054000  0.99948000  0.65227000  1.0
  H  H71  1  0.27947000  0.00052000  0.15226000  1.0
  H  H72  1  0.82714000  0.87543000  0.76265000  1.0
  H  H73  1  0.17286000  0.12457000  0.26264000  1.0
  H  H74  1  0.70942000  0.00683000  0.86862000  1.0
  H  H75  1  0.29056000  0.99318000  0.36862000  1.0
  H  H76  1  0.09714000  0.61363000  0.82832000  1.0
  H  H77  1  0.90286000  0.38638000  0.32832000  1.0
  H  H78  1  0.95153000  0.63145000  0.95609000  1.0
  H  H79  1  0.04846000  0.36855000  0.45609000  1.0
  H  H80  1  0.97460000  0.48042000  0.05460000  1.0
  H  H81  1  0.02539000  0.51959000  0.55460000  1.0
  H  H82  1  0.17125000  0.29279000  0.00833000  1.0
  H  H83  1  0.82875000  0.70722000  0.50833000  1.0
  C  C84  1  0.14709000  0.03225000  0.99772000  1.0
  C  C85  1  0.85290000  0.96775000  0.49771000  1.0
  C  C86  1  0.07086000  0.97708000  0.03798000  1.0
  C  C87  1  0.92913000  0.02292000  0.53797000  1.0
  C  C88  1  0.13703000  0.86550000  0.04877000  1.0
  C  C89  1  0.86296000  0.13450000  0.54876000  1.0
  C  C90  1  0.27757000  0.80896000  0.01798000  1.0
  C  C91  1  0.72241000  0.19104000  0.51796000  1.0
  C  C92  1  0.35298000  0.86437000  0.97722000  1.0
  C  C93  1  0.64701000  0.13563000  0.47721000  1.0
  C  C94  1  0.29022000  0.97656000  0.96749000  1.0
  C  C95  1  0.70976000  0.02344000  0.46748000  1.0
  C  C96  1  0.37915000  0.03855000  0.92885000  1.0
  C  C97  1  0.62085000  0.96145000  0.42884000  1.0
  C  C98  1  0.44200000  0.10795000  0.97794000  1.0
  C  C99  1  0.55800000  0.89204000  0.47794000  1.0
  C  C100  1  0.55321000  0.03941000  0.02893000  1.0
  C  C101  1  0.44679000  0.96059000  0.52893000  1.0
  C  C102  1  0.54096000  0.07329000  0.09547000  1.0
  C  C103  1  0.45905000  0.92670000  0.59548000  1.0
  C  C104  1  0.63610000  0.00932000  0.14449000  1.0
  C  C105  1  0.36393000  0.99068000  0.64450000  1.0
  C  C106  1  0.74354000  0.90933000  0.12761000  1.0
  C  C107  1  0.25647000  0.09067000  0.62763000  1.0
  C  C108  1  0.75847000  0.87554000  0.06126000  1.0
  C  C109  1  0.24153000  0.12445000  0.56126000  1.0
  C  C110  1  0.66614000  0.94090000  0.01218000  1.0
  C  C111  1  0.33386000  0.05909000  0.51219000  1.0
  C  C112  1  0.62426000  0.20582000  0.95535000  1.0
  C  C113  1  0.37571000  0.79418000  0.45535000  1.0
  C  C114  1  0.66779000  0.28585000  0.91789000  1.0
  C  C115  1  0.33221000  0.71414000  0.41789000  1.0
  C  C116  1  0.80598000  0.31492000  0.91978000  1.0
  C  C117  1  0.19401000  0.68509000  0.41978000  1.0
  C  C118  1  0.78875000  0.39648000  0.87152000  1.0
  C  C119  1  0.21124000  0.60353000  0.37152000  1.0
  C  C120  1  0.64079000  0.41326000  0.84265000  1.0
  C  C121  1  0.35921000  0.58674000  0.34265000  1.0
  C  C122  1  0.18227000  0.08480000  0.84454000  1.0
  C  C123  1  0.81773000  0.91520000  0.34454000  1.0
  C  C124  1  0.09587000  0.15470000  0.79378000  1.0
  C  C125  1  0.90413000  0.84530000  0.29378000  1.0
  C  C126  1  0.96962000  0.14592000  0.75499000  1.0
  C  C127  1  0.03039000  0.85408000  0.25499000  1.0
  C  C128  1  0.92094000  0.24167000  0.71638000  1.0
  C  C129  1  0.07907000  0.75834000  0.21638000  1.0
  C  C130  1  0.02186000  0.30186000  0.73322000  1.0
  C  C131  1  0.97815000  0.69814000  0.23322000  1.0
  C  C132  1  0.00897000  0.59888000  0.69676000  1.0
  C  C133  1  0.99104000  0.40112000  0.19675000  1.0
  C  C134  1  0.90270000  0.68515000  0.66339000  1.0
  C  C135  1  0.09731000  0.31484000  0.16339000  1.0
  C  C136  1  0.95206000  0.76810000  0.63606000  1.0
  C  C137  1  0.04794000  0.23189000  0.13605000  1.0
  C  C138  1  0.10776000  0.76457000  0.64278000  1.0
  C  C139  1  0.89224000  0.23543000  0.14278000  1.0
  C  C140  1  0.21385000  0.67783000  0.67597000  1.0
  C  C141  1  0.78617000  0.32217000  0.17597000  1.0
  C  C142  1  0.16628000  0.59359000  0.70304000  1.0
  C  C143  1  0.83373000  0.40641000  0.20304000  1.0
  C  C144  1  0.28544000  0.49732000  0.73573000  1.0
  C  C145  1  0.71457000  0.50268000  0.23573000  1.0
  C  C146  1  0.34059000  0.40026000  0.68597000  1.0
  C  C147  1  0.65942000  0.59973000  0.18597000  1.0
  C  C148  1  0.43159000  0.42853000  0.62927000  1.0
  C  C149  1  0.56841000  0.57148000  0.12927000  1.0
  C  C150  1  0.37395000  0.43945000  0.56423000  1.0
  C  C151  1  0.62604000  0.56054000  0.06422000  1.0
  C  C152  1  0.45372000  0.47211000  0.51279000  1.0
  C  C153  1  0.54627000  0.52789000  0.01279000  1.0
  C  C154  1  0.59413000  0.49248000  0.52576000  1.0
  C  C155  1  0.40585000  0.50753000  0.02576000  1.0
  C  C156  1  0.65517000  0.47880000  0.59038000  1.0
  C  C157  1  0.34482000  0.52119000  0.09038000  1.0
  C  C158  1  0.57434000  0.44742000  0.64169000  1.0
  C  C159  1  0.42567000  0.55257000  0.14170000  1.0
  C  C160  1  0.51766000  0.21928000  0.69112000  1.0
  C  C161  1  0.48235000  0.78070000  0.19111000  1.0
  C  C162  1  0.60367000  0.12476000  0.72702000  1.0
  C  C163  1  0.39634000  0.87524000  0.22702000  1.0
  C  C164  1  0.69647000  0.02246000  0.70406000  1.0
  C  C165  1  0.30354000  0.97754000  0.20405000  1.0
  C  C166  1  0.75052000  0.95890000  0.76112000  1.0
  C  C167  1  0.24948000  0.04110000  0.26111000  1.0
  C  C168  1  0.68898000  0.02585000  0.81604000  1.0
  C  C169  1  0.31101000  0.97414000  0.31603000  1.0
  C  C170  1  0.14860000  0.52682000  0.84014000  1.0
  C  C171  1  0.85140000  0.47319000  0.34014000  1.0
  C  C172  1  0.11576000  0.48963000  0.90321000  1.0
  C  C173  1  0.88426000  0.51038000  0.40321000  1.0
  C  C174  1  0.02004000  0.54585000  0.95582000  1.0
  C  C175  1  0.97996000  0.45416000  0.45582000  1.0
  C  C176  1  0.03169000  0.46898000  0.00636000  1.0
  C  C177  1  0.96830000  0.53103000  0.50636000  1.0
  C  C178  1  0.13398000  0.37022000  0.98242000  1.0
  C  C179  1  0.86602000  0.62979000  0.48241000  1.0
  N  N180  1  0.49741000  0.18459000  0.93981000  1.0
  N  N181  1  0.50260000  0.81541000  0.43981000  1.0
  N  N182  1  0.29033000  0.11100000  0.87687000  1.0
  N  N183  1  0.70967000  0.88900000  0.37687000  1.0
  N  N184  1  0.12813000  0.25000000  0.77954000  1.0
  N  N185  1  0.87187000  0.75000000  0.27954000  1.0
  N  N186  1  0.56645000  0.34584000  0.86952000  1.0
  N  N187  1  0.43355000  0.65416000  0.36952000  1.0
  N  N188  1  0.23833000  0.45861000  0.79801000  1.0
  N  N189  1  0.76167000  0.54139000  0.29800000  1.0
  N  N190  1  0.42763000  0.30289000  0.72334000  1.0
  N  N191  1  0.57238000  0.69711000  0.22334000  1.0
  N  N192  1  0.59923000  0.12717000  0.79645000  1.0
  N  N193  1  0.40076000  0.87283000  0.29644000  1.0
  N  N194  1  0.18545000  0.38106000  0.92026000  1.0
  N  N195  1  0.81455000  0.61895000  0.42025000  1.0
