# generated using pymatgen
data_ErH6C9N2O7
_symmetry_space_group_name_H-M   'P 1'
_cell_length_a   6.58487000
_cell_length_b   12.89210000
_cell_length_c   12.89530000
_cell_angle_alpha   85.08460000
_cell_angle_beta   89.99990000
_cell_angle_gamma   89.99950000
_symmetry_Int_Tables_number   1
_chemical_formula_structural   ErH6C9N2O7
_chemical_formula_sum   'Er4 H24 C36 N8 O28'
_cell_volume   1090.69211337
_cell_formula_units_Z   4
loop_
 _symmetry_equiv_pos_site_id
 _symmetry_equiv_pos_as_xyz
  1  'x, y, z'
loop_
 _atom_site_type_symbol
 _atom_site_label
 _atom_site_symmetry_multiplicity
 _atom_site_fract_x
 _atom_site_fract_y
 _atom_site_fract_z
 _atom_site_occupancy
  Er  Er0  1  0.18056000  0.82339000  0.66132000  1.0
  Er  Er1  1  0.68056000  0.67661000  0.33868000  1.0
  Er  Er2  1  0.81944000  0.17661000  0.33867000  1.0
  Er  Er3  1  0.31944000  0.32339000  0.66132000  1.0
  H  H4  1  0.68194000  0.70376000  0.80618000  1.0
  H  H5  1  0.18195000  0.79625000  0.19383000  1.0
  H  H6  1  0.31806000  0.29624000  0.19382000  1.0
  H  H7  1  0.81806000  0.20376000  0.80617000  1.0
  H  H8  1  0.18181000  0.06965000  0.91664000  1.0
  H  H9  1  0.68181000  0.43035000  0.08336000  1.0
  H  H10  1  0.81821000  0.93036000  0.08335000  1.0
  H  H11  1  0.31818000  0.56965000  0.91665000  1.0
  H  H12  1  0.62959000  0.82652000  0.96026000  1.0
  H  H13  1  0.12957000  0.67348000  0.03975000  1.0
  H  H14  1  0.37043000  0.17348000  0.03974000  1.0
  H  H15  1  0.87042000  0.32652000  0.96026000  1.0
  H  H16  1  0.57514000  0.51745000  0.77239000  1.0
  H  H17  1  0.07514000  0.98255000  0.22761000  1.0
  H  H18  1  0.42485000  0.48255000  0.22761000  1.0
  H  H19  1  0.92485000  0.01744000  0.77239000  1.0
  H  H20  1  0.14579000  0.74492000  0.45531000  1.0
  H  H21  1  0.64578000  0.75508000  0.54469000  1.0
  H  H22  1  0.85420000  0.25508000  0.54469000  1.0
  H  H23  1  0.35420000  0.24492000  0.45530000  1.0
  H  H24  1  0.02292000  0.84520000  0.44958000  1.0
  H  H25  1  0.52293000  0.65480000  0.55042000  1.0
  H  H26  1  0.97706000  0.15479000  0.55042000  1.0
  H  H27  1  0.47707000  0.34521000  0.44958000  1.0
  C  C28  1  0.01683000  0.57725000  0.68476000  1.0
  C  C29  1  0.51683000  0.92275000  0.31525000  1.0
  C  C30  1  0.98317000  0.42275000  0.31523000  1.0
  C  C31  1  0.48317000  0.07724000  0.68476000  1.0
  C  C32  1  0.21643000  0.57539000  0.63337000  1.0
  C  C33  1  0.71642000  0.92461000  0.36664000  1.0
  C  C34  1  0.78358000  0.42460000  0.36662000  1.0
  C  C35  1  0.28357000  0.07540000  0.63337000  1.0
  C  C36  1  0.77510000  0.64926000  0.76727000  1.0
  C  C37  1  0.27511000  0.85074000  0.23274000  1.0
  C  C38  1  0.22490000  0.35073000  0.23273000  1.0
  C  C39  1  0.72490000  0.14926000  0.76726000  1.0
  C  C40  1  0.28713000  0.88169000  0.85375000  1.0
  C  C41  1  0.78713000  0.61832000  0.14627000  1.0
  C  C42  1  0.71287000  0.11832000  0.14626000  1.0
  C  C43  1  0.21286000  0.38168000  0.85373000  1.0
  C  C44  1  0.82552000  0.40380000  0.65250000  1.0
  C  C45  1  0.32552000  0.09620000  0.34749000  1.0
  C  C46  1  0.17448000  0.59621000  0.34749000  1.0
  C  C47  1  0.67448000  0.90379000  0.65251000  1.0
  C  C48  1  0.39338000  0.94122000  0.93178000  1.0
  C  C49  1  0.89337000  0.55878000  0.06823000  1.0
  C  C50  1  0.60664000  0.05879000  0.06822000  1.0
  C  C51  1  0.10662000  0.44121000  0.93177000  1.0
  C  C52  1  0.32025000  0.03913000  0.95398000  1.0
  C  C53  1  0.82024000  0.46088000  0.04602000  1.0
  C  C54  1  0.67976000  0.96089000  0.04601000  1.0
  C  C55  1  0.17975000  0.53912000  0.95399000  1.0
  C  C56  1  0.86005000  0.50473000  0.69618000  1.0
  C  C57  1  0.36005000  0.99527000  0.30383000  1.0
  C  C58  1  0.13995000  0.49527000  0.30382000  1.0
  C  C59  1  0.63995000  0.00472000  0.69618000  1.0
  C  C60  1  0.57371000  0.90247000  0.97820000  1.0
  C  C61  1  0.07369000  0.59753000  0.02179000  1.0
  C  C62  1  0.42631000  0.09755000  0.02179000  1.0
  C  C63  1  0.92630000  0.40246000  0.97821000  1.0
  N  N64  1  0.71040000  0.55274000  0.74923000  1.0
  N  N65  1  0.21040000  0.94726000  0.25078000  1.0
  N  N66  1  0.28961000  0.44726000  0.25077000  1.0
  N  N67  1  0.78960000  0.05274000  0.74923000  1.0
  N  N68  1  0.96054000  0.66715000  0.72817000  1.0
  N  N69  1  0.46054000  0.83285000  0.27185000  1.0
  N  N70  1  0.03946000  0.33285000  0.27184000  1.0
  N  N71  1  0.53946000  0.16714000  0.72815000  1.0
  O  O72  1  0.36343000  0.79760000  0.82502000  1.0
  O  O73  1  0.86343000  0.70239000  0.17499000  1.0
  O  O74  1  0.63658000  0.20239000  0.17499000  1.0
  O  O75  1  0.13657000  0.29761000  0.82501000  1.0
  O  O76  1  0.12421000  0.91904000  0.80987000  1.0
  O  O77  1  0.62420000  0.58096000  0.19014000  1.0
  O  O78  1  0.87580000  0.08096000  0.19014000  1.0
  O  O79  1  0.37579000  0.41904000  0.80986000  1.0
  O  O80  1  0.64388000  0.37350000  0.64569000  1.0
  O  O81  1  0.14388000  0.12651000  0.35430000  1.0
  O  O82  1  0.35612000  0.62651000  0.35430000  1.0
  O  O83  1  0.85611000  0.87349000  0.64570000  1.0
  O  O84  1  0.28952000  0.49455000  0.59989000  1.0
  O  O85  1  0.78952000  0.00546000  0.40012000  1.0
  O  O86  1  0.71048000  0.50546000  0.40011000  1.0
  O  O87  1  0.21047000  0.99453000  0.59988000  1.0
  O  O88  1  0.14367000  0.81269000  0.48608000  1.0
  O  O89  1  0.64366000  0.68731000  0.51393000  1.0
  O  O90  1  0.85632000  0.18731000  0.51392000  1.0
  O  O91  1  0.35633000  0.31269000  0.48607000  1.0
  O  O92  1  0.31137000  0.66284000  0.62625000  1.0
  O  O93  1  0.81136000  0.83716000  0.37376000  1.0
  O  O94  1  0.68864000  0.33717000  0.37375000  1.0
  O  O95  1  0.18864000  0.16282000  0.62625000  1.0
  O  O96  1  0.97545000  0.35258000  0.62114000  1.0
  O  O97  1  0.47545000  0.14743000  0.37886000  1.0
  O  O98  1  0.02454000  0.64743000  0.37886000  1.0
  O  O99  1  0.52456000  0.85256000  0.62114000  1.0
