# generated using pymatgen
data_Al6H80(C15O4)7
_symmetry_space_group_name_H-M   'P 1'
_cell_length_a   12.79695273
_cell_length_b   12.84820000
_cell_length_c   27.59220000
_cell_angle_alpha   90.49030000
_cell_angle_beta   90.23946677
_cell_angle_gamma   61.64218712
_symmetry_Int_Tables_number   1
_chemical_formula_structural   Al6H80(C15O4)7
_chemical_formula_sum   'Al6 H80 C105 O28'
_cell_volume   3992.09832307
_cell_formula_units_Z   1
loop_
 _symmetry_equiv_pos_site_id
 _symmetry_equiv_pos_as_xyz
  1  'x, y, z'
loop_
 _atom_site_type_symbol
 _atom_site_label
 _atom_site_symmetry_multiplicity
 _atom_site_fract_x
 _atom_site_fract_y
 _atom_site_fract_z
 _atom_site_occupancy
  Al  Al0  1  0.43359000  0.41468000  0.49736000  1.0
  Al  Al1  1  0.41285000  0.17612000  0.49541000  1.0
  Al  Al2  1  0.18720000  0.40705000  0.49767000  1.0
  Al  Al3  1  0.90872000  0.91204000  0.98684000  1.0
  Al  Al4  1  0.92876000  0.15151000  0.98065000  1.0
  Al  Al5  1  0.15510000  0.92163000  0.98305000  1.0
  H  H6  1  0.06739000  0.35261000  0.18493000  1.0
  H  H7  1  0.29152000  0.97915000  0.20414000  1.0
  H  H8  1  0.97393000  0.77872000  0.21374000  1.0
  H  H9  1  0.74311000  0.30120000  0.21450000  1.0
  H  H10  1  0.02786000  0.30775000  0.86594000  1.0
  H  H11  1  0.32275000  0.69029000  0.86881000  1.0
  H  H12  1  0.72623000  0.97397000  0.86031000  1.0
  H  H13  1  0.09012000  0.39140000  0.62772000  1.0
  H  H14  1  0.39983000  0.53575000  0.63066000  1.0
  H  H15  1  0.57280000  0.02892000  0.62252000  1.0
  H  H16  1  0.99317000  0.44478000  0.79666000  1.0
  H  H17  1  0.35352000  0.60412000  0.19675000  1.0
  H  H18  1  0.45630000  0.61163000  0.79677000  1.0
  H  H19  1  0.65564000  0.90601000  0.78829000  1.0
  H  H20  1  0.01414000  0.47460000  0.70982000  1.0
  H  H21  1  0.48360000  0.55830000  0.70954000  1.0
  H  H22  1  0.60309000  0.92343000  0.70113000  1.0
  H  H23  1  0.23262000  0.93150000  0.84484000  1.0
  H  H24  1  0.95674000  0.77284000  0.85834000  1.0
  H  H25  1  0.80434000  0.26254000  0.84805000  1.0
  H  H26  1  0.30147000  0.84791000  0.76193000  1.0
  H  H27  1  0.87224000  0.75451000  0.77892000  1.0
  H  H28  1  0.61283000  0.05605000  0.18095000  1.0
  H  H29  1  0.78787000  0.35894000  0.76772000  1.0
  H  H30  1  0.32431000  0.87777000  0.67527000  1.0
  H  H31  1  0.89834000  0.70452000  0.69159000  1.0
  H  H32  1  0.73224000  0.37842000  0.68090000  1.0
  H  H33  1  0.29806000  0.01554000  0.60675000  1.0
  H  H34  1  0.03291000  0.62167000  0.61971000  1.0
  H  H35  1  0.64834000  0.31942000  0.61031000  1.0
  H  H36  1  0.12588000  0.04446000  0.28416000  1.0
  H  H37  1  0.05651000  0.85369000  0.29929000  1.0
  H  H38  1  0.84448000  0.11859000  0.29115000  1.0
  H  H39  1  0.19768000  0.33680000  0.27100000  1.0
  H  H40  1  0.00466000  0.18720000  0.29148000  1.0
  H  H41  1  0.20682000  0.81602000  0.30792000  1.0
  H  H42  1  0.82372000  0.99246000  0.29061000  1.0
  H  H43  1  0.97883000  0.21822000  0.20715000  1.0
  H  H44  1  0.23935000  0.82207000  0.22417000  1.0
  H  H45  1  0.82686000  0.98197000  0.20518000  1.0
  H  H46  1  0.06721000  0.06321000  0.20232000  1.0
  H  H47  1  0.08278000  0.89814000  0.21935000  1.0
  H  H48  1  0.88719000  0.08010000  0.20802000  1.0
  H  H49  1  0.35753000  0.13459000  0.26508000  1.0
  H  H50  1  0.31448000  0.49023000  0.27770000  1.0
  H  H51  1  0.10456000  0.55198000  0.26943000  1.0
  H  H52  1  0.52815000  0.34025000  0.27203000  1.0
  H  H53  1  0.33860000  0.01371000  0.28350000  1.0
  H  H54  1  0.99517000  0.69072000  0.29061000  1.0
  H  H55  1  0.66360000  0.32698000  0.29351000  1.0
  H  H56  1  0.35649000  0.06674000  0.18589000  1.0
  H  H57  1  0.04628000  0.63209000  0.19154000  1.0
  H  H58  1  0.59501000  0.35683000  0.19471000  1.0
  H  H59  1  0.86105000  0.62790000  0.30624000  1.0
  H  H60  1  0.79568000  0.53934000  0.32358000  1.0
  H  H61  1  0.49068000  0.17582000  0.26785000  1.0
  H  H62  1  0.85855000  0.59319000  0.36825000  1.0
  H  H63  1  0.99537000  0.37866000  0.34982000  1.0
  H  H64  1  0.06137000  0.46665000  0.33560000  1.0
  H  H65  1  0.98770000  0.47667000  0.24809000  1.0
  H  H66  1  0.94416000  0.37105000  0.26296000  1.0
  H  H67  1  0.63395000  0.49854000  0.32143000  1.0
  H  H68  1  0.55650000  0.64596000  0.34320000  1.0
  H  H69  1  0.59768000  0.52615000  0.38382000  1.0
  H  H70  1  0.38080000  0.61756000  0.36359000  1.0
  H  H71  1  0.45637000  0.46990000  0.34451000  1.0
  H  H72  1  0.22302000  0.29350000  0.18887000  1.0
  H  H73  1  0.47733000  0.54038000  0.26050000  1.0
  H  H74  1  0.38650000  0.68632000  0.27930000  1.0
  H  H75  1  0.51499000  0.84244000  0.29432000  1.0
  H  H76  1  0.66835000  0.76947000  0.30847000  1.0
  H  H77  1  0.56199000  0.82579000  0.35582000  1.0
  H  H78  1  0.65035000  0.95998000  0.34288000  1.0
  H  H79  1  0.49839000  0.03294000  0.33000000  1.0
  H  H80  1  0.55448000  0.96997000  0.24011000  1.0
  H  H81  1  0.70175000  0.92732000  0.25579000  1.0
  H  H82  1  0.27503000  0.52228000  0.19558000  1.0
  H  H83  1  0.51252000  0.20835000  0.18719000  1.0
  H  H84  1  0.52911000  0.51806000  0.46788000  1.0
  H  H85  1  0.85145000  0.76721000  0.97006000  1.0
  C  C86  1  0.21088000  0.55286000  0.43317000  1.0
  C  C87  1  0.15220000  0.14995000  0.13773000  1.0
  C  C88  1  0.40383000  0.59472000  0.28542000  1.0
  C  C89  1  0.44706000  0.55819000  0.33740000  1.0
  C  C90  1  0.56501000  0.55722000  0.34708000  1.0
  C  C91  1  0.60919000  0.98912000  0.26603000  1.0
  C  C92  1  0.58403000  0.96126000  0.31716000  1.0
  C  C93  1  0.58222000  0.84347000  0.31910000  1.0
  C  C94  1  0.15436000  0.73814000  0.14986000  1.0
  C  C95  1  0.72062000  0.16321000  0.14144000  1.0
  C  C96  1  0.19118000  0.18954000  0.33574000  1.0
  C  C97  1  0.17798000  0.63868000  0.34483000  1.0
  C  C98  1  0.63516000  0.16727000  0.33719000  1.0
  C  C99  1  0.20868000  0.19431000  0.37889000  1.0
  C  C100  1  0.18040000  0.61045000  0.38693000  1.0
  C  C101  1  0.60558000  0.18461000  0.37950000  1.0
  C  C102  1  0.80341000  0.10251000  0.91040000  1.0
  C  C103  1  0.54921000  0.21810000  0.42613000  1.0
  C  C104  1  0.11248000  0.09701000  0.91158000  1.0
  C  C105  1  0.11577000  0.77872000  0.91872000  1.0
  C  C106  1  0.78725000  0.12663000  0.04983000  1.0
  C  C107  1  0.11391000  0.11369000  0.04668000  1.0
  C  C108  1  0.11517000  0.80317000  0.05789000  1.0
  C  C109  1  0.12771000  0.30268000  0.64271000  1.0
  C  C110  1  0.31367000  0.56848000  0.64822000  1.0
  C  C111  1  0.60553000  0.08489000  0.63938000  1.0
  C  C112  1  0.11353000  0.28717000  0.69202000  1.0
  C  C113  1  0.29968000  0.60009000  0.69736000  1.0
  C  C114  1  0.23482000  0.21769000  0.42722000  1.0
  C  C115  1  0.64001000  0.06972000  0.68816000  1.0
  C  C116  1  0.08919000  0.25231000  0.79245000  1.0
  C  C117  1  0.26853000  0.66037000  0.79778000  1.0
  C  C118  1  0.70135000  0.04876000  0.78830000  1.0
  C  C119  1  0.24199000  0.52854000  0.57031000  1.0
  C  C120  1  0.55637000  0.20038000  0.56263000  1.0
  C  C121  1  0.21955000  0.22755000  0.56232000  1.0
  C  C122  1  0.03948000  0.36888000  0.77243000  1.0
  C  C123  1  0.38187000  0.61937000  0.77476000  1.0
  C  C124  1  0.66256000  0.97195000  0.76576000  1.0
  C  C125  1  0.28568000  0.06691000  0.20831000  1.0
  C  C126  1  0.05096000  0.38546000  0.72435000  1.0
  C  C127  1  0.39683000  0.59050000  0.72663000  1.0
  C  C128  1  0.63356000  0.98162000  0.71776000  1.0
  C  C129  1  0.07769000  0.23302000  0.84163000  1.0
  C  C130  1  0.25031000  0.69345000  0.84683000  1.0
  C  C131  1  0.73078000  0.04066000  0.83754000  1.0
  C  C132  1  0.13062000  0.11804000  0.86016000  1.0
  C  C133  1  0.13864000  0.73270000  0.86808000  1.0
  C  C134  1  0.76642000  0.11824000  0.85861000  1.0
  C  C135  1  0.24566000  0.08996000  0.63085000  1.0
  C  C136  1  0.05571000  0.69377000  0.21673000  1.0
  C  C137  1  0.10580000  0.61710000  0.64182000  1.0
  C  C138  1  0.64837000  0.24967000  0.63258000  1.0
  C  C139  1  0.22974000  0.07031000  0.67958000  1.0
  C  C140  1  0.08730000  0.65142000  0.69078000  1.0
  C  C141  1  0.68508000  0.23667000  0.68107000  1.0
  C  C142  1  0.16483000  0.16991000  0.71093000  1.0
  C  C143  1  0.18558000  0.64096000  0.71927000  1.0
  C  C144  1  0.67919000  0.14706000  0.70960000  1.0
  C  C145  1  0.27774000  0.95367000  0.69946000  1.0
  C  C146  1  0.97362000  0.69417000  0.71369000  1.0
  C  C147  1  0.66531000  0.28641000  0.21608000  1.0
  C  C148  1  0.72596000  0.31207000  0.70338000  1.0
  C  C149  1  0.26521000  0.93707000  0.74746000  1.0
  C  C150  1  0.95912000  0.72168000  0.76194000  1.0
  C  C151  1  0.75626000  0.30144000  0.75127000  1.0
  C  C152  1  0.20423000  0.03539000  0.77997000  1.0
  C  C153  1  0.05649000  0.71035000  0.79143000  1.0
  C  C154  1  0.74766000  0.21488000  0.78114000  1.0
  C  C155  1  0.13496000  0.30555000  0.25900000  1.0
  C  C156  1  0.29639000  0.58078000  0.26873000  1.0
  C  C157  1  0.58297000  0.11683000  0.25655000  1.0
  C  C158  1  0.29889000  0.09452000  0.26171000  1.0
  C  C159  1  0.15255000  0.15261000  0.76099000  1.0
  C  C160  1  0.17033000  0.67024000  0.76941000  1.0
  C  C161  1  0.70981000  0.13663000  0.75953000  1.0
  C  C162  1  0.19383000  0.02017000  0.82967000  1.0
  C  C163  1  0.04299000  0.73989000  0.84081000  1.0
  C  C164  1  0.77478000  0.20449000  0.83074000  1.0
  C  C165  1  0.19476000  0.20508000  0.61260000  1.0
  C  C166  1  0.21820000  0.57508000  0.62094000  1.0
  C  C167  1  0.60795000  0.17517000  0.61216000  1.0
  C  C168  1  0.08798000  0.13617000  0.27149000  1.0
  C  C169  1  0.07665000  0.64696000  0.26890000  1.0
  C  C170  1  0.14695000  0.79572000  0.28598000  1.0
  C  C171  1  0.79307000  0.07970000  0.27413000  1.0
  C  C172  1  0.06598000  0.14400000  0.21622000  1.0
  C  C173  1  0.15832000  0.81548000  0.23153000  1.0
  C  C174  1  0.81045000  0.06922000  0.21857000  1.0
  C  C175  1  0.14130000  0.13825000  0.09451000  1.0
  C  C176  1  0.14282000  0.76113000  0.10691000  1.0
  C  C177  1  0.74136000  0.15705000  0.09828000  1.0
  C  C178  1  0.17667000  0.18269000  0.28375000  1.0
  C  C179  1  0.17536000  0.66583000  0.29383000  1.0
  C  C180  1  0.62501000  0.28746000  0.26860000  1.0
  C  C181  1  0.66028000  0.16007000  0.28572000  1.0
  C  C182  1  0.14719000  0.28524000  0.20315000  1.0
  C  C183  1  0.27837000  0.59796000  0.21302000  1.0
  C  C184  1  0.59503000  0.13613000  0.20176000  1.0
  C  C185  1  0.16336000  0.16133000  0.18958000  1.0
  C  C186  1  0.16201000  0.71165000  0.20111000  1.0
  C  C187  1  0.69786000  0.16503000  0.19287000  1.0
  C  C188  1  0.00915000  0.40143000  0.27245000  1.0
  C  C189  1  0.98941000  0.44720000  0.32477000  1.0
  C  C190  1  0.86972000  0.55780000  0.33116000  1.0
  O  O191  1  0.51606000  0.32359000  0.43960000  1.0
  O  O192  1  0.54372000  0.29269000  0.54176000  1.0
  O  O193  1  0.31427000  0.15076000  0.54151000  1.0
  O  O194  1  0.15911000  0.51800000  0.54761000  1.0
  O  O195  1  0.34424000  0.49821000  0.55361000  1.0
  O  O196  1  0.52221000  0.12760000  0.54494000  1.0
  O  O197  1  0.14661000  0.32742000  0.54365000  1.0
  O  O198  1  0.34321000  0.33167000  0.49630000  1.0
  O  O199  1  0.01717000  0.80242000  0.93761000  1.0
  O  O200  1  0.82257000  0.18379000  0.92997000  1.0
  O  O201  1  0.18429000  0.99679000  0.92978000  1.0
  O  O202  1  0.33389000  0.14102000  0.44557000  1.0
  O  O203  1  0.81785000  0.00957000  0.93123000  1.0
  O  O204  1  0.02248000  0.17767000  0.93396000  1.0
  O  O205  1  0.19636000  0.79729000  0.93929000  1.0
  O  O206  1  0.99873000  0.99590000  0.98361000  1.0
  O  O207  1  0.80718000  0.02610000  0.03450000  1.0
  O  O208  1  0.01249000  0.18684000  0.02950000  1.0
  O  O209  1  0.19446000  0.81949000  0.03533000  1.0
  O  O210  1  0.13535000  0.52385000  0.45156000  1.0
  O  O211  1  0.01484000  0.82410000  0.04171000  1.0
  O  O212  1  0.80908000  0.20139000  0.02696000  1.0
  O  O213  1  0.18926000  0.01788000  0.02592000  1.0
  O  O214  1  0.31034000  0.53002000  0.45101000  1.0
  O  O215  1  0.53288000  0.14036000  0.44929000  1.0
  O  O216  1  0.16143000  0.31492000  0.44727000  1.0
  O  O217  1  0.51487000  0.49294000  0.49894000  1.0
  O  O218  1  0.82545000  0.83649000  0.99051000  1.0
