# generated using pymatgen
data_ZnH12C14N6O7
_symmetry_space_group_name_H-M   'P 1'
_cell_length_a   9.60141000
_cell_length_b   9.61187000
_cell_length_c   10.19710000
_cell_angle_alpha   68.53850000
_cell_angle_beta   83.12870000
_cell_angle_gamma   74.46340000
_symmetry_Int_Tables_number   1
_chemical_formula_structural   ZnH12C14N6O7
_chemical_formula_sum   'Zn2 H24 C28 N12 O14'
_cell_volume   843.56647884
_cell_formula_units_Z   2
loop_
 _symmetry_equiv_pos_site_id
 _symmetry_equiv_pos_as_xyz
  1  'x, y, z'
loop_
 _atom_site_type_symbol
 _atom_site_label
 _atom_site_symmetry_multiplicity
 _atom_site_fract_x
 _atom_site_fract_y
 _atom_site_fract_z
 _atom_site_occupancy
  Zn  Zn0  1  0.60547000  0.69697000  0.96798000  1.0
  Zn  Zn1  1  0.39452000  0.30304000  0.03202000  1.0
  H  H2  1  0.97654000  0.58142000  0.81611000  1.0
  H  H3  1  0.02346000  0.41858000  0.18390000  1.0
  H  H4  1  0.85031000  0.52722000  0.77156000  1.0
  H  H5  1  0.14969000  0.47278000  0.22845000  1.0
  H  H6  1  0.32075000  0.41915000  0.58799000  1.0
  H  H7  1  0.67926000  0.58085000  0.41201000  1.0
  H  H8  1  0.44408000  0.31928000  0.72766000  1.0
  H  H9  1  0.55592000  0.68071000  0.27234000  1.0
  H  H10  1  0.54746000  0.04822000  0.77354000  1.0
  H  H11  1  0.45255000  0.95177000  0.22645000  1.0
  H  H12  1  0.16408000  0.21269000  0.33581000  1.0
  H  H13  1  0.83592000  0.78730000  0.66419000  1.0
  H  H14  1  0.21515000  0.01548000  0.35847000  1.0
  H  H15  1  0.78485000  0.98451000  0.64153000  1.0
  H  H16  1  0.34035000  0.73513000  0.55028000  1.0
  H  H17  1  0.65965000  0.26486000  0.44973000  1.0
  H  H18  1  0.50996000  0.56323000  0.75220000  1.0
  H  H19  1  0.49004000  0.43676000  0.24781000  1.0
  H  H20  1  0.09283000  0.20570000  0.84427000  1.0
  H  H21  1  0.90716000  0.79431000  0.15572000  1.0
  H  H22  1  0.97586000  0.11343000  0.69774000  1.0
  H  H23  1  0.02414000  0.88657000  0.30225000  1.0
  H  H24  1  0.03822000  0.82934000  0.73796000  1.0
  H  H25  1  0.96178000  0.17066000  0.26204000  1.0
  C  C26  1  0.37520000  0.19142000  0.63314000  1.0
  C  C27  1  0.62480000  0.80857000  0.36686000  1.0
  C  C28  1  0.44402000  0.92493000  0.70225000  1.0
  C  C29  1  0.55598000  0.07506000  0.29775000  1.0
  C  C30  1  0.36101000  0.92975000  0.59764000  1.0
  C  C31  1  0.63899000  0.07024000  0.40236000  1.0
  C  C32  1  0.28080000  0.07605000  0.50954000  1.0
  C  C33  1  0.71920000  0.92394000  0.49046000  1.0
  C  C34  1  0.47349000  0.68829000  0.71826000  1.0
  C  C35  1  0.52651000  0.31171000  0.28175000  1.0
  C  C36  1  0.17122000  0.76718000  0.91396000  1.0
  C  C37  1  0.82878000  0.23282000  0.08604000  1.0
  C  C38  1  0.22985000  0.81824000  0.00367000  1.0
  C  C39  1  0.77015000  0.18176000  0.99633000  1.0
  C  C40  1  0.20204000  0.97832000  0.97400000  1.0
  C  C41  1  0.79796000  0.02170000  0.02599000  1.0
  C  C42  1  0.11253000  0.08301000  0.86312000  1.0
  C  C43  1  0.88747000  0.91699000  0.13687000  1.0
  C  C44  1  0.04850000  0.03091000  0.78077000  1.0
  C  C45  1  0.95150000  0.96910000  0.21922000  1.0
  C  C46  1  0.08021000  0.87350000  0.80532000  1.0
  C  C47  1  0.91979000  0.12651000  0.19468000  1.0
  C  C48  1  0.21628000  0.60217000  0.92188000  1.0
  C  C49  1  0.78371000  0.39783000  0.07812000  1.0
  C  C50  1  0.31663000  0.70446000  0.13140000  1.0
  C  C51  1  0.68338000  0.29554000  0.86860000  1.0
  C  C52  1  0.26985000  0.04233000  0.05634000  1.0
  C  C53  1  0.73014000  0.95768000  0.94365000  1.0
  N  N54  1  0.28883000  0.20185000  0.53517000  1.0
  N  N55  1  0.71118000  0.79814000  0.46483000  1.0
  N  N56  1  0.39119000  0.32135000  0.64404000  1.0
  N  N57  1  0.60882000  0.67864000  0.35595000  1.0
  N  N58  1  0.45527000  0.05434000  0.72019000  1.0
  N  N59  1  0.54473000  0.94565000  0.27982000  1.0
  N  N60  1  0.19923000  0.09743000  0.40373000  1.0
  N  N61  1  0.80077000  0.90256000  0.59628000  1.0
  N  N62  1  0.38254000  0.77628000  0.61101000  1.0
  N  N63  1  0.61746000  0.22371000  0.38900000  1.0
  N  N64  1  0.51186000  0.77625000  0.77731000  1.0
  N  N65  1  0.48815000  0.22375000  0.22269000  1.0
  O  O66  1  0.33035000  0.52267000  0.99536000  1.0
  O  O67  1  0.66964000  0.47734000  0.00465000  1.0
  O  O68  1  0.15304000  0.55167000  0.85483000  1.0
  O  O69  1  0.84696000  0.44834000  0.14516000  1.0
  O  O70  1  0.45582000  0.69162000  0.12681000  1.0
  O  O71  1  0.54418000  0.30838000  0.87319000  1.0
  O  O72  1  0.25084000  0.63276000  0.23648000  1.0
  O  O73  1  0.74917000  0.36725000  0.76353000  1.0
  O  O74  1  0.29809000  0.96529000  0.18496000  1.0
  O  O75  1  0.70191000  0.03471000  0.81503000  1.0
  O  O76  1  0.29700000  0.17357000  0.98622000  1.0
  O  O77  1  0.70299000  0.82644000  0.01377000  1.0
  O  O78  1  0.87467000  0.61364000  0.78548000  1.0
  O  O79  1  0.12534000  0.38636000  0.21452000  1.0
