# generated using pymatgen
data_ZnH10C12(NO3)2
_symmetry_space_group_name_H-M   'P 1'
_cell_length_a   4.86254000
_cell_length_b   4.86255000
_cell_length_c   27.30680000
_cell_angle_alpha   94.88470000
_cell_angle_beta   94.88510000
_cell_angle_gamma   90.29190000
_symmetry_Int_Tables_number   1
_chemical_formula_structural   ZnH10C12(NO3)2
_chemical_formula_sum   'Zn2 H20 C24 N4 O12'
_cell_volume   640.92001607
_cell_formula_units_Z   2
loop_
 _symmetry_equiv_pos_site_id
 _symmetry_equiv_pos_as_xyz
  1  'x, y, z'
loop_
 _atom_site_type_symbol
 _atom_site_label
 _atom_site_symmetry_multiplicity
 _atom_site_fract_x
 _atom_site_fract_y
 _atom_site_fract_z
 _atom_site_occupancy
  Zn  Zn0  1  0.16809000  0.83192000  0.25000000  1.0
  Zn  Zn1  1  0.83191000  0.16809000  0.75000000  1.0
  H  H2  1  0.30142000  0.94601000  0.14646000  1.0
  H  H3  1  0.05399000  0.69858000  0.35354000  1.0
  H  H4  1  0.69858000  0.05399000  0.85354000  1.0
  H  H5  1  0.94601000  0.30142000  0.64646000  1.0
  H  H6  1  0.42596000  0.27086000  0.17337000  1.0
  H  H7  1  0.72913000  0.57403000  0.32663000  1.0
  H  H8  1  0.57404000  0.72913000  0.82663000  1.0
  H  H9  1  0.27087000  0.42597000  0.67337000  1.0
  H  H10  1  0.66442000  0.60986000  0.99364000  1.0
  H  H11  1  0.39014000  0.33558000  0.50636000  1.0
  H  H12  1  0.33558000  0.39014000  0.00636000  1.0
  H  H13  1  0.60986000  0.66442000  0.49364000  1.0
  H  H14  1  0.07439000  0.31135000  0.07706000  1.0
  H  H15  1  0.68865000  0.92561000  0.42294000  1.0
  H  H16  1  0.92561000  0.68866000  0.92294000  1.0
  H  H17  1  0.31134000  0.07438000  0.57706000  1.0
  H  H18  1  0.66323000  0.31211000  0.10488000  1.0
  H  H19  1  0.68788000  0.33677000  0.39512000  1.0
  H  H20  1  0.33677000  0.68788000  0.89512000  1.0
  H  H21  1  0.31212000  0.66323000  0.60488000  1.0
  C  C22  1  0.66481000  0.93235000  0.19632000  1.0
  C  C23  1  0.06765000  0.33519000  0.30367000  1.0
  C  C24  1  0.33519000  0.06765000  0.80368000  1.0
  C  C25  1  0.93235000  0.66481000  0.69633000  1.0
  C  C26  1  0.49003000  0.07038000  0.15658000  1.0
  C  C27  1  0.92962000  0.50997000  0.34342000  1.0
  C  C28  1  0.50997000  0.92962000  0.84342000  1.0
  C  C29  1  0.07038000  0.49003000  0.65658000  1.0
  C  C30  1  0.68910000  0.89630000  0.08247000  1.0
  C  C31  1  0.10369000  0.31090000  0.41754000  1.0
  C  C32  1  0.31090000  0.10369000  0.91753000  1.0
  C  C33  1  0.89631000  0.68910000  0.58246000  1.0
  C  C34  1  0.84884000  0.95473000  0.04019000  1.0
  C  C35  1  0.04526000  0.15116000  0.45981000  1.0
  C  C36  1  0.15116000  0.04527000  0.95981000  1.0
  C  C37  1  0.95473000  0.84884000  0.54019000  1.0
  C  C38  1  0.81239000  0.78005000  0.99657000  1.0
  C  C39  1  0.21995000  0.18761000  0.50343000  1.0
  C  C40  1  0.18761000  0.21995000  0.00343000  1.0
  C  C41  1  0.78005000  0.81239000  0.49657000  1.0
  C  C42  1  0.03891000  0.17493000  0.04334000  1.0
  C  C43  1  0.82507000  0.96109000  0.45666000  1.0
  C  C44  1  0.96109000  0.82507000  0.95666000  1.0
  C  C45  1  0.17493000  0.03891000  0.54334000  1.0
  N  N46  1  0.63445000  0.11380000  0.11400000  1.0
  N  N47  1  0.88619000  0.36555000  0.38599000  1.0
  N  N48  1  0.36555000  0.88620000  0.88599000  1.0
  N  N49  1  0.11380000  0.63445000  0.61401000  1.0
  O  O50  1  0.55328000  0.84594000  0.23285000  1.0
  O  O51  1  0.15407000  0.44673000  0.26715000  1.0
  O  O52  1  0.44672000  0.15407000  0.76715000  1.0
  O  O53  1  0.84594000  0.55328000  0.73285000  1.0
  O  O54  1  0.92265000  0.91423000  0.19221000  1.0
  O  O55  1  0.08577000  0.07736000  0.30779000  1.0
  O  O56  1  0.07735000  0.08577000  0.80779000  1.0
  O  O57  1  0.91423000  0.92265000  0.69221000  1.0
  O  O58  1  0.61007000  0.65685000  0.08867000  1.0
  O  O59  1  0.34315000  0.38994000  0.41133000  1.0
  O  O60  1  0.38993000  0.34315000  0.91133000  1.0
  O  O61  1  0.65685000  0.61006000  0.58867000  1.0
