# generated using pymatgen
data_Cu2H5C4NCl2
_symmetry_space_group_name_H-M   'P 1'
_cell_length_a   6.80781000
_cell_length_b   13.17340000
_cell_length_c   15.36500000
_cell_angle_alpha   90.00000000
_cell_angle_beta   90.00000000
_cell_angle_gamma   90.00000000
_symmetry_Int_Tables_number   1
_chemical_formula_structural   Cu2H5C4NCl2
_chemical_formula_sum   'Cu16 H40 C32 N8 Cl16'
_cell_volume   1377.96399536
_cell_formula_units_Z   8
loop_
 _symmetry_equiv_pos_site_id
 _symmetry_equiv_pos_as_xyz
  1  'x, y, z'
loop_
 _atom_site_type_symbol
 _atom_site_label
 _atom_site_symmetry_multiplicity
 _atom_site_fract_x
 _atom_site_fract_y
 _atom_site_fract_z
 _atom_site_occupancy
  Cu  Cu0  1  0.82387000  0.79659000  0.91147000  1.0
  Cu  Cu1  1  0.32387000  0.79660000  0.58852000  1.0
  Cu  Cu2  1  0.82388000  0.70340000  0.41149000  1.0
  Cu  Cu3  1  0.32388000  0.70340000  0.08851000  1.0
  Cu  Cu4  1  0.17612000  0.20340000  0.08852000  1.0
  Cu  Cu5  1  0.67613000  0.20340000  0.41148000  1.0
  Cu  Cu6  1  0.17613000  0.29660000  0.58852000  1.0
  Cu  Cu7  1  0.67613000  0.29660000  0.91148000  1.0
  Cu  Cu8  1  0.76730000  0.04721000  0.05184000  1.0
  Cu  Cu9  1  0.26730000  0.04722000  0.44815000  1.0
  Cu  Cu10  1  0.76730000  0.45278000  0.55184000  1.0
  Cu  Cu11  1  0.26729000  0.45278000  0.94816000  1.0
  Cu  Cu12  1  0.23269000  0.95279000  0.94816000  1.0
  Cu  Cu13  1  0.73270000  0.95278000  0.55184000  1.0
  Cu  Cu14  1  0.23270000  0.54722000  0.44816000  1.0
  Cu  Cu15  1  0.73269000  0.54721000  0.05184000  1.0
  H  H16  1  0.02315000  0.57972000  0.67113000  1.0
  H  H17  1  0.52313000  0.57972000  0.82887000  1.0
  H  H18  1  0.02314000  0.92027000  0.17112000  1.0
  H  H19  1  0.52314000  0.92029000  0.32887000  1.0
  H  H20  1  0.97688000  0.42027000  0.32887000  1.0
  H  H21  1  0.47685000  0.42027000  0.17112000  1.0
  H  H22  1  0.97685000  0.07973000  0.82888000  1.0
  H  H23  1  0.47685000  0.07971000  0.67112000  1.0
  H  H24  1  0.90679000  0.67382000  0.60715000  1.0
  H  H25  1  0.40678000  0.67381000  0.89285000  1.0
  H  H26  1  0.90681000  0.82619000  0.10717000  1.0
  H  H27  1  0.40682000  0.82620000  0.39283000  1.0
  H  H28  1  0.09319000  0.32619000  0.39285000  1.0
  H  H29  1  0.59319000  0.32618000  0.10717000  1.0
  H  H30  1  0.09321000  0.17382000  0.89284000  1.0
  H  H31  1  0.59322000  0.17382000  0.60716000  1.0
  H  H32  1  0.57496000  0.58857000  0.63027000  1.0
  H  H33  1  0.07496000  0.58856000  0.86973000  1.0
  H  H34  1  0.57500000  0.91144000  0.13027000  1.0
  H  H35  1  0.07501000  0.91145000  0.36972000  1.0
  H  H36  1  0.42501000  0.41144000  0.36973000  1.0
  H  H37  1  0.92501000  0.41143000  0.13027000  1.0
  H  H38  1  0.42500000  0.08856000  0.86973000  1.0
  H  H39  1  0.92505000  0.08856000  0.63027000  1.0
  H  H40  1  0.83829000  0.42210000  0.71504000  1.0
  H  H41  1  0.33823000  0.42210000  0.78496000  1.0
  H  H42  1  0.83823000  0.07789000  0.21503000  1.0
  H  H43  1  0.33820000  0.07790000  0.28497000  1.0
  H  H44  1  0.16179000  0.57789000  0.28497000  1.0
  H  H45  1  0.66176000  0.57788000  0.21504000  1.0
  H  H46  1  0.16175000  0.92211000  0.78497000  1.0
  H  H47  1  0.66175000  0.92210000  0.71504000  1.0
  H  H48  1  0.57488000  0.41104000  0.68503000  1.0
  H  H49  1  0.07489000  0.41104000  0.81497000  1.0
  H  H50  1  0.57495000  0.08894000  0.18503000  1.0
  H  H51  1  0.07493000  0.08895000  0.31497000  1.0
  H  H52  1  0.42508000  0.58895000  0.31497000  1.0
  H  H53  1  0.92509000  0.58894000  0.18503000  1.0
  H  H54  1  0.42507000  0.91105000  0.81497000  1.0
  H  H55  1  0.92511000  0.91105000  0.68503000  1.0
  C  C56  1  0.85899000  0.68517000  0.74023000  1.0
  C  C57  1  0.35899000  0.68515000  0.75977000  1.0
  C  C58  1  0.85902000  0.81485000  0.24021000  1.0
  C  C59  1  0.35902000  0.81485000  0.25978000  1.0
  C  C60  1  0.14099000  0.31486000  0.25977000  1.0
  C  C61  1  0.64099000  0.31483000  0.24022000  1.0
  C  C62  1  0.14099000  0.18517000  0.75978000  1.0
  C  C63  1  0.64101000  0.18516000  0.74023000  1.0
  C  C64  1  0.88591000  0.62312000  0.66342000  1.0
  C  C65  1  0.38590000  0.62313000  0.83658000  1.0
  C  C66  1  0.88593000  0.87687000  0.16343000  1.0
  C  C67  1  0.38592000  0.87689000  0.33657000  1.0
  C  C68  1  0.11409000  0.37687000  0.33658000  1.0
  C  C69  1  0.61407000  0.37687000  0.16343000  1.0
  C  C70  1  0.11409000  0.12313000  0.83658000  1.0
  C  C71  1  0.61409000  0.12312000  0.66342000  1.0
  C  C72  1  0.71253000  0.55241000  0.64954000  1.0
  C  C73  1  0.21254000  0.55241000  0.85045000  1.0
  C  C74  1  0.71257000  0.94760000  0.14956000  1.0
  C  C75  1  0.21257000  0.94760000  0.35043000  1.0
  C  C76  1  0.28744000  0.44758000  0.35044000  1.0
  C  C77  1  0.78744000  0.44759000  0.14955000  1.0
  C  C78  1  0.28743000  0.05242000  0.85045000  1.0
  C  C79  1  0.78747000  0.05241000  0.64955000  1.0
  C  C80  1  0.71226000  0.45333000  0.68036000  1.0
  C  C81  1  0.21223000  0.45335000  0.81963000  1.0
  C  C82  1  0.71226000  0.04665000  0.18036000  1.0
  C  C83  1  0.21225000  0.04665000  0.31964000  1.0
  C  C84  1  0.28776000  0.54664000  0.31963000  1.0
  C  C85  1  0.78775000  0.54664000  0.18037000  1.0
  C  C86  1  0.28775000  0.95337000  0.81963000  1.0
  C  C87  1  0.78776000  0.95335000  0.68036000  1.0
  N  N88  1  0.83686000  0.73237000  0.80375000  1.0
  N  N89  1  0.33687000  0.73238000  0.69626000  1.0
  N  N90  1  0.83689000  0.76764000  0.30373000  1.0
  N  N91  1  0.33690000  0.76765000  0.19627000  1.0
  N  N92  1  0.16312000  0.26763000  0.19627000  1.0
  N  N93  1  0.66311000  0.26763000  0.30374000  1.0
  N  N94  1  0.16311000  0.23237000  0.69626000  1.0
  N  N95  1  0.66312000  0.23236000  0.80374000  1.0
  Cl  Cl96  1  0.75661000  0.96643000  0.92361000  1.0
  Cl  Cl97  1  0.25662000  0.96644000  0.57638000  1.0
  Cl  Cl98  1  0.75662000  0.53357000  0.42361000  1.0
  Cl  Cl99  1  0.25662000  0.53357000  0.07639000  1.0
  Cl  Cl100  1  0.24339000  0.03357000  0.07639000  1.0
  Cl  Cl101  1  0.74339000  0.03356000  0.42362000  1.0
  Cl  Cl102  1  0.24338000  0.46644000  0.57639000  1.0
  Cl  Cl103  1  0.74338000  0.46643000  0.92361000  1.0
  Cl  Cl104  1  0.15683000  0.78895000  0.97681000  1.0
  Cl  Cl105  1  0.65683000  0.78895000  0.52319000  1.0
  Cl  Cl106  1  0.15684000  0.71105000  0.47681000  1.0
  Cl  Cl107  1  0.65684000  0.71104000  0.02319000  1.0
  Cl  Cl108  1  0.84316000  0.21105000  0.02319000  1.0
  Cl  Cl109  1  0.34316000  0.21105000  0.47681000  1.0
  Cl  Cl110  1  0.84317000  0.28895000  0.52319000  1.0
  Cl  Cl111  1  0.34316000  0.28895000  0.97681000  1.0
