# generated using pymatgen
data_NdH9(C2O3)3
_symmetry_space_group_name_H-M   'P 1'
_cell_length_a   8.54077000
_cell_length_b   10.01830000
_cell_length_c   12.04490000
_cell_angle_alpha   89.99980000
_cell_angle_beta   69.72900000
_cell_angle_gamma   89.99980000
_symmetry_Int_Tables_number   1
_chemical_formula_structural   NdH9(C2O3)3
_chemical_formula_sum   'Nd4 H36 C24 O36'
_cell_volume   966.77835646
_cell_formula_units_Z   4
loop_
 _symmetry_equiv_pos_site_id
 _symmetry_equiv_pos_as_xyz
  1  'x, y, z'
loop_
 _atom_site_type_symbol
 _atom_site_label
 _atom_site_symmetry_multiplicity
 _atom_site_fract_x
 _atom_site_fract_y
 _atom_site_fract_z
 _atom_site_occupancy
  Nd  Nd0  1  0.03273000  0.18436000  0.91729000  1.0
  Nd  Nd1  1  0.96727000  0.68436000  0.58271000  1.0
  Nd  Nd2  1  0.96727000  0.81564000  0.08271000  1.0
  Nd  Nd3  1  0.03273000  0.31564000  0.41729000  1.0
  H  H4  1  0.49185000  0.14311000  0.54126000  1.0
  H  H5  1  0.50816000  0.64310000  0.95875000  1.0
  H  H6  1  0.50814000  0.85690000  0.45875000  1.0
  H  H7  1  0.49185000  0.35690000  0.04125000  1.0
  H  H8  1  0.55579000  0.22955000  0.64480000  1.0
  H  H9  1  0.44422000  0.72954000  0.85520000  1.0
  H  H10  1  0.44422000  0.77046000  0.35519000  1.0
  H  H11  1  0.55578000  0.27045000  0.14480000  1.0
  H  H12  1  0.46697000  0.44423000  0.59682000  1.0
  H  H13  1  0.53303000  0.94422000  0.90318000  1.0
  H  H14  1  0.53303000  0.55577000  0.40318000  1.0
  H  H15  1  0.46696000  0.05577000  0.09682000  1.0
  H  H16  1  0.42364000  0.36239000  0.47991000  1.0
  H  H17  1  0.57636000  0.86239000  0.02010000  1.0
  H  H18  1  0.57636000  0.63761000  0.52009000  1.0
  H  H19  1  0.42364000  0.13761000  0.97990000  1.0
  H  H20  1  0.33127000  0.37458000  0.79085000  1.0
  H  H21  1  0.66874000  0.87458000  0.70916000  1.0
  H  H22  1  0.66873000  0.62542000  0.20916000  1.0
  H  H23  1  0.33126000  0.12542000  0.29084000  1.0
  H  H24  1  0.76654000  0.12119000  0.15672000  1.0
  H  H25  1  0.23346000  0.62119000  0.34327000  1.0
  H  H26  1  0.23346000  0.87881000  0.84327000  1.0
  H  H27  1  0.76654000  0.37881000  0.65672000  1.0
  H  H28  1  0.81284000  0.44425000  0.98621000  1.0
  H  H29  1  0.18717000  0.94425000  0.51379000  1.0
  H  H30  1  0.18716000  0.55575000  0.01379000  1.0
  H  H31  1  0.81284000  0.05576000  0.48621000  1.0
  H  H32  1  0.85349000  0.25545000  0.17769000  1.0
  H  H33  1  0.14651000  0.75545000  0.32230000  1.0
  H  H34  1  0.14651000  0.74455000  0.82230000  1.0
  H  H35  1  0.85349000  0.24455000  0.67770000  1.0
  H  H36  1  0.95088000  0.48005000  0.86636000  1.0
  H  H37  1  0.04912000  0.98005000  0.63364000  1.0
  H  H38  1  0.04913000  0.51995000  0.13364000  1.0
  H  H39  1  0.95087000  0.01995000  0.36636000  1.0
  C  C40  1  0.23553000  0.49940000  0.57855000  1.0
  C  C41  1  0.76446000  0.99939000  0.92146000  1.0
  C  C42  1  0.76446000  0.50060000  0.42146000  1.0
  C  C43  1  0.23554000  0.00060000  0.07854000  1.0
  C  C44  1  0.30524000  0.27682000  0.65265000  1.0
  C  C45  1  0.69477000  0.77682000  0.84735000  1.0
  C  C46  1  0.69476000  0.72319000  0.34735000  1.0
  C  C47  1  0.30523000  0.22318000  0.15265000  1.0
  C  C48  1  0.41875000  0.05318000  0.71237000  1.0
  C  C49  1  0.58126000  0.55318000  0.78763000  1.0
  C  C50  1  0.58124000  0.94682000  0.28763000  1.0
  C  C51  1  0.41875000  0.44682000  0.21237000  1.0
  C  C52  1  0.44881000  0.17690000  0.63385000  1.0
  C  C53  1  0.55120000  0.67689000  0.86615000  1.0
  C  C54  1  0.55119000  0.82311000  0.36615000  1.0
  C  C55  1  0.44880000  0.32311000  0.13385000  1.0
  C  C56  1  0.16480000  0.20479000  0.62531000  1.0
  C  C57  1  0.83521000  0.70478000  0.87469000  1.0
  C  C58  1  0.83520000  0.79522000  0.37469000  1.0
  C  C59  1  0.16479000  0.29522000  0.12531000  1.0
  C  C60  1  0.36850000  0.39732000  0.57176000  1.0
  C  C61  1  0.63151000  0.89731000  0.92824000  1.0
  C  C62  1  0.63151000  0.60269000  0.42824000  1.0
  C  C63  1  0.36849000  0.10268000  0.07176000  1.0
  O  O64  1  0.89514000  0.40426000  0.91624000  1.0
  O  O65  1  0.10486000  0.90426000  0.58376000  1.0
  O  O66  1  0.10486000  0.59574000  0.08375000  1.0
  O  O67  1  0.89514000  0.09574000  0.41624000  1.0
  O  O68  1  0.09908000  0.45887000  0.56371000  1.0
  O  O69  1  0.90092000  0.95888000  0.93629000  1.0
  O  O70  1  0.90092000  0.54112000  0.43629000  1.0
  O  O71  1  0.09908000  0.04112000  0.06370000  1.0
  O  O72  1  0.81155000  0.21016000  0.12119000  1.0
  O  O73  1  0.18844000  0.71015000  0.37880000  1.0
  O  O74  1  0.18845000  0.78984000  0.87880000  1.0
  O  O75  1  0.81156000  0.28984000  0.62119000  1.0
  O  O76  1  0.25423000  0.62095000  0.59633000  1.0
  O  O77  1  0.74577000  0.12095000  0.90367000  1.0
  O  O78  1  0.74577000  0.37905000  0.40368000  1.0
  O  O79  1  0.25423000  0.87905000  0.09633000  1.0
  O  O80  1  0.03978000  0.16180000  0.71150000  1.0
  O  O81  1  0.96022000  0.66179000  0.78850000  1.0
  O  O82  1  0.96021000  0.83822000  0.28850000  1.0
  O  O83  1  0.03977000  0.33820000  0.21150000  1.0
  O  O84  1  0.18301000  0.18437000  0.51791000  1.0
  O  O85  1  0.81700000  0.68436000  0.98209000  1.0
  O  O86  1  0.81699000  0.81564000  0.48209000  1.0
  O  O87  1  0.18300000  0.31564000  0.01790000  1.0
  O  O88  1  0.24061000  0.32356000  0.77286000  1.0
  O  O89  1  0.75940000  0.82356000  0.72714000  1.0
  O  O90  1  0.75940000  0.67644000  0.22714000  1.0
  O  O91  1  0.24060000  0.17644000  0.27285000  1.0
  O  O92  1  0.28466000  0.04169000  0.80440000  1.0
  O  O93  1  0.71534000  0.54168000  0.69560000  1.0
  O  O94  1  0.71533000  0.95832000  0.19561000  1.0
  O  O95  1  0.28466000  0.45831000  0.30440000  1.0
  O  O96  1  0.53294000  0.96706000  0.68106000  1.0
  O  O97  1  0.46707000  0.46706000  0.81895000  1.0
  O  O98  1  0.46706000  0.03294000  0.31894000  1.0
  O  O99  1  0.53293000  0.53293000  0.18106000  1.0
