# generated using pymatgen
data_ZnSiH22C26S2(N2F3)2
_symmetry_space_group_name_H-M   'P 1'
_cell_length_a   10.28330000
_cell_length_b   13.14916417
_cell_length_c   13.14921708
_cell_angle_alpha   71.72145906
_cell_angle_beta   66.99624017
_cell_angle_gamma   66.99585712
_symmetry_Int_Tables_number   1
_chemical_formula_structural   ZnSiH22C26S2(N2F3)2
_chemical_formula_sum   'Zn2 Si2 H44 C52 S4 N8 F12'
_cell_volume   1479.04031886
_cell_formula_units_Z   2
loop_
 _symmetry_equiv_pos_site_id
 _symmetry_equiv_pos_as_xyz
  1  'x, y, z'
loop_
 _atom_site_type_symbol
 _atom_site_label
 _atom_site_symmetry_multiplicity
 _atom_site_fract_x
 _atom_site_fract_y
 _atom_site_fract_z
 _atom_site_occupancy
  Zn  Zn0  1  0.49999000  0.24999000  0.75002000  1.0
  Zn  Zn1  1  0.50000000  0.75002000  0.24998000  1.0
  Si  Si2  1  0.50000000  0.00000000  0.00000000  1.0
  Si  Si3  1  0.50000000  0.50000000  0.50000000  1.0
  H  H4  1  0.81917000  0.24356000  0.97399000  1.0
  H  H5  1  0.18083000  0.02601000  0.75644000  1.0
  H  H6  1  0.03687000  0.25620000  0.52583000  1.0
  H  H7  1  0.96313000  0.47417000  0.74379000  1.0
  H  H8  1  0.18083000  0.75644000  0.02601000  1.0
  H  H9  1  0.81917000  0.97399000  0.24356000  1.0
  H  H10  1  0.96314000  0.74379000  0.47417000  1.0
  H  H11  1  0.03687000  0.52583000  0.25621000  1.0
  H  H12  1  0.56663000  0.57822000  0.84446000  1.0
  H  H13  1  0.43337000  0.15554000  0.42178000  1.0
  H  H14  1  0.98935000  0.92154000  0.65557000  1.0
  H  H15  1  0.01065000  0.34443000  0.07846000  1.0
  H  H16  1  0.43337000  0.42178000  0.15554000  1.0
  H  H17  1  0.56665000  0.84445000  0.57821000  1.0
  H  H18  1  0.01065000  0.07846000  0.34443000  1.0
  H  H19  1  0.98935000  0.65557000  0.92154000  1.0
  H  H20  1  0.46065000  0.48648000  0.76885000  1.0
  H  H21  1  0.53934000  0.23115000  0.51353000  1.0
  H  H22  1  0.71610000  0.01333000  0.73117000  1.0
  H  H23  1  0.28390000  0.26883000  0.98667000  1.0
  H  H24  1  0.53935000  0.51352000  0.23115000  1.0
  H  H25  1  0.46066000  0.76885000  0.48647000  1.0
  H  H26  1  0.28390000  0.98667000  0.26883000  1.0
  H  H27  1  0.71609000  0.73117000  0.01333000  1.0
  H  H28  1  0.69727000  0.16715000  0.89723000  1.0
  H  H29  1  0.30272000  0.10278000  0.83285000  1.0
  H  H30  1  0.76190000  0.33264000  0.60271000  1.0
  H  H31  1  0.23810000  0.39729000  0.66736000  1.0
  H  H32  1  0.30273000  0.83285000  0.10277000  1.0
  H  H33  1  0.69728000  0.89723000  0.16714000  1.0
  H  H34  1  0.23811000  0.66736000  0.39729000  1.0
  H  H35  1  0.76190000  0.60271000  0.33264000  1.0
  H  H36  1  0.13865000  0.02091000  0.02090000  1.0
  H  H37  1  0.86135000  0.97910000  0.97909000  1.0
  H  H38  1  0.18050000  0.47895000  0.47895000  1.0
  H  H39  1  0.81950000  0.52105000  0.52105000  1.0
  H  H40  1  0.77559000  0.78797000  0.78797000  1.0
  H  H41  1  0.22440000  0.21204000  0.21203000  1.0
  H  H42  1  0.35187000  0.71165000  0.71166000  1.0
  H  H43  1  0.64812000  0.28835000  0.28835000  1.0
  H  H44  1  0.13119000  0.65662000  0.65663000  1.0
  H  H45  1  0.86880000  0.34338000  0.34338000  1.0
  H  H46  1  0.44459000  0.84311000  0.84311000  1.0
  H  H47  1  0.55542000  0.15689000  0.15689000  1.0
  C  C48  1  0.70159000  0.41777000  0.91555000  1.0
  C  C49  1  0.29841000  0.08445000  0.58223000  1.0
  C  C50  1  0.03501000  0.08201000  0.58443000  1.0
  C  C51  1  0.96499000  0.41557000  0.91799000  1.0
  C  C52  1  0.29841000  0.58223000  0.08445000  1.0
  C  C53  1  0.70159000  0.91555000  0.41777000  1.0
  C  C54  1  0.96499000  0.91799000  0.41557000  1.0
  C  C55  1  0.03500000  0.58443000  0.08202000  1.0
  C  C56  1  0.74047000  0.30066000  0.92914000  1.0
  C  C57  1  0.25953000  0.07086000  0.69934000  1.0
  C  C58  1  0.97039000  0.19913000  0.57078000  1.0
  C  C59  1  0.02961000  0.42922000  0.80087000  1.0
  C  C60  1  0.25953000  0.69934000  0.07086000  1.0
  C  C61  1  0.74047000  0.92914000  0.30066000  1.0
  C  C62  1  0.02961000  0.80087000  0.42922000  1.0
  C  C63  1  0.97039000  0.57078000  0.19913000  1.0
  C  C64  1  0.59870000  0.48683000  0.85828000  1.0
  C  C65  1  0.40130000  0.14172000  0.51317000  1.0
  C  C66  1  0.94388000  0.01295000  0.64171000  1.0
  C  C67  1  0.05611000  0.35830000  0.98705000  1.0
  C  C68  1  0.40130000  0.51317000  0.14172000  1.0
  C  C69  1  0.59870000  0.85828000  0.48683000  1.0
  C  C70  1  0.05612000  0.98705000  0.35829000  1.0
  C  C71  1  0.94389000  0.64170000  0.01295000  1.0
  C  C72  1  0.53806000  0.43632000  0.81692000  1.0
  C  C73  1  0.46194000  0.18308000  0.56368000  1.0
  C  C74  1  0.79142000  0.06348000  0.68307000  1.0
  C  C75  1  0.20858000  0.31693000  0.93652000  1.0
  C  C76  1  0.46194000  0.56368000  0.18308000  1.0
  C  C77  1  0.53806000  0.81692000  0.43632000  1.0
  C  C78  1  0.20858000  0.93652000  0.31693000  1.0
  C  C79  1  0.79142000  0.68307000  0.06348000  1.0
  C  C80  1  0.67330000  0.25763000  0.88638000  1.0
  C  C81  1  0.32669000  0.11362000  0.74238000  1.0
  C  C82  1  0.81750000  0.24216000  0.61356000  1.0
  C  C83  1  0.18250000  0.38644000  0.75784000  1.0
  C  C84  1  0.32670000  0.74237000  0.11362000  1.0
  C  C85  1  0.67331000  0.88638000  0.25762000  1.0
  C  C86  1  0.18250000  0.75784000  0.38644000  1.0
  C  C87  1  0.81750000  0.61356000  0.24216000  1.0
  C  C88  1  0.04914000  0.00799000  0.00798000  1.0
  C  C89  1  0.95086000  0.99202000  0.99201000  1.0
  C  C90  1  0.06513000  0.49195000  0.49195000  1.0
  C  C91  1  0.93487000  0.50805000  0.50805000  1.0
  C  C92  1  0.01685000  0.69856000  0.69857000  1.0
  C  C93  1  0.98316000  0.30144000  0.30143000  1.0
  C  C94  1  0.41416000  0.80114000  0.80114000  1.0
  C  C95  1  0.58584000  0.19886000  0.19886000  1.0
  C  C96  1  0.88857000  0.74545000  0.74545000  1.0
  C  C97  1  0.11143000  0.25455000  0.25455000  1.0
  C  C98  1  0.37979000  0.75419000  0.75419000  1.0
  C  C99  1  0.62020000  0.24582000  0.24582000  1.0
  S  S100  1  0.77239000  0.47751000  0.97763000  1.0
  S  S101  1  0.22761000  0.02237000  0.52249000  1.0
  S  S102  1  0.22761000  0.52249000  0.02237000  1.0
  S  S103  1  0.77239000  0.97763000  0.47751000  1.0
  N  N104  1  0.57361000  0.32408000  0.83137000  1.0
  N  N105  1  0.42639000  0.16863000  0.67592000  1.0
  N  N106  1  0.72924000  0.17572000  0.66859000  1.0
  N  N107  1  0.27076000  0.33141000  0.82428000  1.0
  N  N108  1  0.42639000  0.67592000  0.16863000  1.0
  N  N109  1  0.57362000  0.83137000  0.32407000  1.0
  N  N110  1  0.27076000  0.82428000  0.33141000  1.0
  N  N111  1  0.72924000  0.66859000  0.17572000  1.0
  F  F112  1  0.50000000  0.11232000  0.88768000  1.0
  F  F113  1  0.50000000  0.38767000  0.61233000  1.0
  F  F114  1  0.50000000  0.88768000  0.11232000  1.0
  F  F115  1  0.50000000  0.61233000  0.38767000  1.0
  F  F116  1  0.31267000  0.03165000  0.03164000  1.0
  F  F117  1  0.68734000  0.96835000  0.96835000  1.0
  F  F118  1  0.37595000  0.46834000  0.46834000  1.0
  F  F119  1  0.62406000  0.53165000  0.53166000  1.0
  F  F120  1  0.52981000  0.91345000  0.91345000  1.0
  F  F121  1  0.47019000  0.08655000  0.08655000  1.0
  F  F122  1  0.35679000  0.58655000  0.58655000  1.0
  F  F123  1  0.64321000  0.41345000  0.41345000  1.0
