# generated using pymatgen
data_ZnH4C3(N2O)2
_symmetry_space_group_name_H-M   'P 1'
_cell_length_a   9.10565000
_cell_length_b   10.44610000
_cell_length_c   12.50400000
_cell_angle_alpha   90.00000000
_cell_angle_beta   90.00000000
_cell_angle_gamma   90.00000000
_symmetry_Int_Tables_number   1
_chemical_formula_structural   ZnH4C3(N2O)2
_chemical_formula_sum   'Zn8 H32 C24 N32 O16'
_cell_volume   1189.36210493
_cell_formula_units_Z   8
loop_
 _symmetry_equiv_pos_site_id
 _symmetry_equiv_pos_as_xyz
  1  'x, y, z'
loop_
 _atom_site_type_symbol
 _atom_site_label
 _atom_site_symmetry_multiplicity
 _atom_site_fract_x
 _atom_site_fract_y
 _atom_site_fract_z
 _atom_site_occupancy
  Zn  Zn0  1  0.08764000  0.39674000  0.09995000  1.0
  Zn  Zn1  1  0.41236000  0.60326000  0.59995000  1.0
  Zn  Zn2  1  0.91236000  0.89674000  0.40005000  1.0
  Zn  Zn3  1  0.58764000  0.10326000  0.90005000  1.0
  Zn  Zn4  1  0.91236000  0.60326000  0.90005000  1.0
  Zn  Zn5  1  0.58764000  0.39674000  0.40005000  1.0
  Zn  Zn6  1  0.08764000  0.10326000  0.59995000  1.0
  Zn  Zn7  1  0.41236000  0.89674000  0.09995000  1.0
  H  H8  1  0.28187000  0.42851000  0.90631000  1.0
  H  H9  1  0.21813000  0.57149000  0.40631000  1.0
  H  H10  1  0.71813000  0.92851000  0.59369000  1.0
  H  H11  1  0.78187000  0.07149000  0.09369000  1.0
  H  H12  1  0.71813000  0.57149000  0.09369000  1.0
  H  H13  1  0.78187000  0.42851000  0.59369000  1.0
  H  H14  1  0.28187000  0.07149000  0.40631000  1.0
  H  H15  1  0.21813000  0.92851000  0.90631000  1.0
  H  H16  1  0.40723000  0.33548000  0.83630000  1.0
  H  H17  1  0.09277000  0.66452000  0.33630000  1.0
  H  H18  1  0.59277000  0.83548000  0.66370000  1.0
  H  H19  1  0.90723000  0.16452000  0.16370000  1.0
  H  H20  1  0.59277000  0.66452000  0.16370000  1.0
  H  H21  1  0.90723000  0.33548000  0.66370000  1.0
  H  H22  1  0.40723000  0.16452000  0.33630000  1.0
  H  H23  1  0.09277000  0.83548000  0.83630000  1.0
  H  H24  1  0.17064000  0.10439000  0.16595000  1.0
  H  H25  1  0.32936000  0.89561000  0.66595000  1.0
  H  H26  1  0.82936000  0.60439000  0.33405000  1.0
  H  H27  1  0.67064000  0.39561000  0.83405000  1.0
  H  H28  1  0.82936000  0.89561000  0.83405000  1.0
  H  H29  1  0.67064000  0.10439000  0.33405000  1.0
  H  H30  1  0.17064000  0.39561000  0.66595000  1.0
  H  H31  1  0.32936000  0.60439000  0.16595000  1.0
  H  H32  1  0.04861000  0.35236000  0.40060000  1.0
  H  H33  1  0.45139000  0.64763000  0.90060000  1.0
  H  H34  1  0.95139000  0.85237000  0.09940000  1.0
  H  H35  1  0.54861000  0.14763000  0.59940000  1.0
  H  H36  1  0.95139000  0.64764000  0.59940000  1.0
  H  H37  1  0.54861000  0.35237000  0.09940000  1.0
  H  H38  1  0.04861000  0.14764000  0.90060000  1.0
  H  H39  1  0.45139000  0.85237000  0.40060000  1.0
  C  C40  1  0.23417000  0.13576000  0.09730000  1.0
  C  C41  1  0.26583000  0.86424000  0.59730000  1.0
  C  C42  1  0.76582000  0.63576000  0.40270000  1.0
  C  C43  1  0.73417000  0.36424000  0.90270000  1.0
  C  C44  1  0.76583000  0.86424000  0.90270000  1.0
  C  C45  1  0.73418000  0.13576000  0.40270000  1.0
  C  C46  1  0.23417000  0.36424000  0.59730000  1.0
  C  C47  1  0.26583000  0.63576000  0.09730000  1.0
  C  C48  1  0.32227000  0.25332000  0.97123000  1.0
  C  C49  1  0.17773000  0.74668000  0.47123000  1.0
  C  C50  1  0.67773000  0.75332000  0.52877000  1.0
  C  C51  1  0.82227000  0.24668000  0.02877000  1.0
  C  C52  1  0.67773000  0.74668000  0.02877000  1.0
  C  C53  1  0.82227000  0.25332000  0.52877000  1.0
  C  C54  1  0.32227000  0.24668000  0.47123000  1.0
  C  C55  1  0.17773000  0.75332000  0.97123000  1.0
  C  C56  1  0.05037000  0.33129000  0.31351000  1.0
  C  C57  1  0.44963000  0.66870000  0.81351000  1.0
  C  C58  1  0.94963000  0.83129000  0.18649000  1.0
  C  C59  1  0.55037000  0.16870000  0.68649000  1.0
  C  C60  1  0.94963000  0.66871000  0.68649000  1.0
  C  C61  1  0.55037000  0.33129000  0.18649000  1.0
  C  C62  1  0.05037000  0.16871000  0.81351000  1.0
  C  C63  1  0.44963000  0.83129000  0.31351000  1.0
  N  N64  1  0.22216000  0.25381000  0.05286000  1.0
  N  N65  1  0.27784000  0.74619000  0.55286000  1.0
  N  N66  1  0.77784000  0.75381000  0.44714000  1.0
  N  N67  1  0.72216000  0.24619000  0.94714000  1.0
  N  N68  1  0.77784000  0.74619000  0.94714000  1.0
  N  N69  1  0.72216000  0.25381000  0.44714000  1.0
  N  N70  1  0.22216000  0.24619000  0.55286000  1.0
  N  N71  1  0.27784000  0.75381000  0.05286000  1.0
  N  N72  1  0.33341000  0.06488000  0.04796000  1.0
  N  N73  1  0.16659000  0.93513000  0.54796000  1.0
  N  N74  1  0.66659000  0.56488000  0.45204000  1.0
  N  N75  1  0.83341000  0.43513000  0.95204000  1.0
  N  N76  1  0.66659000  0.93513000  0.95204000  1.0
  N  N77  1  0.83341000  0.06488000  0.45204000  1.0
  N  N78  1  0.33341000  0.43513000  0.54796000  1.0
  N  N79  1  0.16659000  0.56488000  0.04796000  1.0
  N  N80  1  0.39208000  0.13953000  0.96637000  1.0
  N  N81  1  0.10792000  0.86048000  0.46637000  1.0
  N  N82  1  0.60792000  0.63953000  0.53363000  1.0
  N  N83  1  0.89208000  0.36048000  0.03363000  1.0
  N  N84  1  0.60792000  0.86048000  0.03363000  1.0
  N  N85  1  0.89208000  0.13953000  0.53363000  1.0
  N  N86  1  0.39208000  0.36047000  0.46637000  1.0
  N  N87  1  0.10792000  0.63953000  0.96637000  1.0
  N  N88  1  0.35146000  0.35293000  0.90631000  1.0
  N  N89  1  0.14854000  0.64708000  0.40631000  1.0
  N  N90  1  0.64854000  0.85293000  0.59369000  1.0
  N  N91  1  0.85146000  0.14708000  0.09369000  1.0
  N  N92  1  0.64854000  0.64707000  0.09369000  1.0
  N  N93  1  0.85146000  0.35292000  0.59369000  1.0
  N  N94  1  0.35146000  0.14707000  0.40631000  1.0
  N  N95  1  0.14854000  0.85293000  0.90631000  1.0
  O  O96  1  0.09384000  0.42603000  0.25540000  1.0
  O  O97  1  0.40616000  0.57397000  0.75540000  1.0
  O  O98  1  0.90616000  0.92603000  0.24460000  1.0
  O  O99  1  0.59384000  0.07397000  0.74460000  1.0
  O  O100  1  0.90616000  0.57397000  0.74460000  1.0
  O  O101  1  0.59384000  0.42603000  0.24460000  1.0
  O  O102  1  0.09384000  0.07397000  0.75540000  1.0
  O  O103  1  0.40616000  0.92603000  0.25540000  1.0
  O  O104  1  0.01207000  0.22330000  0.28119000  1.0
  O  O105  1  0.48793000  0.77669000  0.78119000  1.0
  O  O106  1  0.98793000  0.72330000  0.21881000  1.0
  O  O107  1  0.51207000  0.27669000  0.71881000  1.0
  O  O108  1  0.98793000  0.77670000  0.71881000  1.0
  O  O109  1  0.51207000  0.22331000  0.21881000  1.0
  O  O110  1  0.01207000  0.27670000  0.78119000  1.0
  O  O111  1  0.48793000  0.72331000  0.28119000  1.0
