# generated using pymatgen
data_Zn2H19C42Br5(NO2)4
_symmetry_space_group_name_H-M   'P 1'
_cell_length_a   12.51330000
_cell_length_b   13.35940000
_cell_length_c   15.93240000
_cell_angle_alpha   89.18050000
_cell_angle_beta   74.66800000
_cell_angle_gamma   80.41360000
_symmetry_Int_Tables_number   1
_chemical_formula_structural   Zn2H19C42Br5(NO2)4
_chemical_formula_sum   'Zn2 H19 C42 Br5 N4 O8'
_cell_volume   2531.52310413
_cell_formula_units_Z   1
loop_
 _symmetry_equiv_pos_site_id
 _symmetry_equiv_pos_as_xyz
  1  'x, y, z'
loop_
 _atom_site_type_symbol
 _atom_site_label
 _atom_site_symmetry_multiplicity
 _atom_site_fract_x
 _atom_site_fract_y
 _atom_site_fract_z
 _atom_site_occupancy
  Zn  Zn0  1  0.60980000  0.51734000  0.48511000  1.0
  Zn  Zn1  1  0.38129000  0.48833000  0.52574000  1.0
  H  H2  1  0.53065000  0.31227000  0.96918000  1.0
  H  H3  1  0.08074000  0.29639000  0.68627000  1.0
  H  H4  1  0.25330000  0.58657000  0.43302000  1.0
  H  H5  1  0.33081000  0.58283000  0.98125000  1.0
  H  H6  1  0.24054000  0.79401000  0.47734000  1.0
  H  H7  1  0.30617000  0.11715000  0.36105000  1.0
  H  H8  1  0.22111000  0.96758000  0.41592000  1.0
  H  H9  1  0.27608000  0.40225000  0.09181000  1.0
  H  H10  1  0.35214000  0.38202000  0.16396000  1.0
  H  H11  1  0.49696000  0.74590000  0.99031000  1.0
  H  H12  1  0.44144000  0.72629000  0.09562000  1.0
  H  H13  1  0.55578000  0.82822000  0.51966000  1.0
  H  H14  1  0.75053000  0.21612000  0.49606000  1.0
  H  H15  1  0.66940000  0.91513000  0.51462000  1.0
  H  H16  1  0.71994000  0.68302000  0.39627000  1.0
  H  H17  1  0.10846000  0.69482000  0.37766000  1.0
  H  H18  1  0.80967000  0.44449000  0.54465000  1.0
  H  H19  1  0.27425000  0.33631000  0.62429000  1.0
  H  H20  1  0.68952000  0.40690000  0.02353000  1.0
  C  C21  1  0.56700000  0.31181000  0.46497000  1.0
  C  C22  1  0.40114000  0.80251000  0.50073000  1.0
  C  C23  1  0.69928000  0.16240000  0.48399000  1.0
  C  C24  1  0.49703000  0.46921000  0.66531000  1.0
  C  C25  1  0.72373000  0.05912000  0.50097000  1.0
  C  C26  1  0.65126000  0.99342000  0.49587000  1.0
  C  C27  1  0.55438000  0.02754000  0.46654000  1.0
  C  C28  1  0.53533000  0.13012000  0.43920000  1.0
  C  C29  1  0.47316000  0.96133000  0.46635000  1.0
  C  C30  1  0.37764000  0.99847000  0.43490000  1.0
  C  C31  1  0.37114000  0.09470000  0.39494000  1.0
  C  C32  1  0.50696000  0.48019000  0.91799000  1.0
  C  C33  1  0.44777000  0.15643000  0.39536000  1.0
  C  C34  1  0.48319000  0.86202000  0.49737000  1.0
  C  C35  1  0.30442000  0.84159000  0.47314000  1.0
  C  C36  1  0.42091000  0.69421000  0.52632000  1.0
  C  C37  1  0.60417000  0.19830000  0.45613000  1.0
  C  C38  1  0.88945000  0.67230000  0.41008000  1.0
  C  C39  1  0.20274000  0.37574000  0.60311000  1.0
  C  C40  1  0.09509000  0.35303000  0.63659000  1.0
  C  C41  1  0.00582000  0.40621000  0.60910000  1.0
  C  C42  1  0.02517000  0.47857000  0.54239000  1.0
  C  C43  1  0.50033000  0.59705000  0.02025000  1.0
  C  C44  1  0.13810000  0.49910000  0.51522000  1.0
  C  C45  1  0.94353000  0.53466000  0.50107000  1.0
  C  C46  1  0.97353000  0.61635000  0.44513000  1.0
  C  C47  1  0.08617000  0.63508000  0.42288000  1.0
  C  C48  1  0.51214000  0.53504000  0.34109000  1.0
  C  C49  1  0.16591000  0.57623000  0.45402000  1.0
  C  C50  1  0.83675000  0.50915000  0.50830000  1.0
  C  C51  1  0.78569000  0.64325000  0.42363000  1.0
  C  C52  1  0.60985000  0.44505000  0.01345000  1.0
  C  C53  1  0.52159000  0.39326000  0.98478000  1.0
  C  C54  1  0.51349000  0.50935000  0.08711000  1.0
  C  C55  1  0.50005000  0.46372000  0.75529000  1.0
  C  C56  1  0.51523000  0.53427000  0.25004000  1.0
  C  C57  1  0.59632000  0.53146000  0.94875000  1.0
  C  C58  1  0.41051000  0.54419000  0.99133000  1.0
  C  C59  1  0.42298000  0.45841000  0.05738000  1.0
  C  C60  1  0.50355000  0.46830000  0.83083000  1.0
  C  C61  1  0.51585000  0.52386000  0.17402000  1.0
  C  C62  1  0.29398000  0.93745000  0.43964000  1.0
  Br  Br63  1  0.85574000  0.01124000  0.53798000  1.0
  Br  Br64  1  0.44379000  0.27320000  0.32523000  1.0
  Br  Br65  1  0.91635000  0.78744000  0.34163000  1.0
  Br  Br66  1  0.86221000  0.38056000  0.67287000  1.0
  Br  Br67  1  0.71804000  0.58440000  0.87209000  1.0
  N  N68  1  0.76264000  0.56047000  0.47021000  1.0
  N  N69  1  0.22313000  0.44897000  0.54640000  1.0
  N  N70  1  0.32966000  0.43114000  0.11947000  1.0
  N  N71  1  0.50189000  0.69891000  0.04066000  1.0
  O  O72  1  0.64091000  0.36836000  0.44000000  1.0
  O  O73  1  0.46416000  0.34028000  0.50512000  1.0
  O  O74  1  0.59182000  0.46576000  0.60931000  1.0
  O  O75  1  0.40077000  0.47884000  0.65035000  1.0
  O  O76  1  0.51862000  0.65780000  0.53385000  1.0
  O  O77  1  0.34042000  0.64418000  0.53478000  1.0
  O  O78  1  0.59407000  0.56157000  0.36326000  1.0
  O  O79  1  0.42594000  0.50636000  0.39174000  1.0
