# generated using pymatgen
data_ZnH16C12(N2O3)2
_symmetry_space_group_name_H-M   'P 1'
_cell_length_a   6.31096000
_cell_length_b   6.98548000
_cell_length_c   9.10939000
_cell_angle_alpha   107.48800000
_cell_angle_beta   99.30590000
_cell_angle_gamma   104.26400000
_symmetry_Int_Tables_number   1
_chemical_formula_structural   ZnH16C12(N2O3)2
_chemical_formula_sum   'Zn1 H16 C12 N4 O6'
_cell_volume   358.94293987
_cell_formula_units_Z   1
loop_
 _symmetry_equiv_pos_site_id
 _symmetry_equiv_pos_as_xyz
  1  'x, y, z'
loop_
 _atom_site_type_symbol
 _atom_site_label
 _atom_site_symmetry_multiplicity
 _atom_site_fract_x
 _atom_site_fract_y
 _atom_site_fract_z
 _atom_site_occupancy
  Zn  Zn0  1  0.50004000  0.00007000  0.50001000  1.0
  H  H1  1  0.02481000  0.17430000  0.05156000  1.0
  H  H2  1  0.97515000  0.82553000  0.94839000  1.0
  H  H3  1  0.94093000  0.17630000  0.85398000  1.0
  H  H4  1  0.05903000  0.82358000  0.14598000  1.0
  H  H5  1  0.10743000  0.41353000  0.01519000  1.0
  H  H6  1  0.89252000  0.58635000  0.98482000  1.0
  H  H7  1  0.14669000  0.09003000  0.69049000  1.0
  H  H8  1  0.85338000  0.90996000  0.30949000  1.0
  H  H9  1  0.44279000  0.16599000  0.13918000  1.0
  H  H10  1  0.55710000  0.83388000  0.86080000  1.0
  H  H11  1  0.49788000  0.43198000  0.14480000  1.0
  H  H12  1  0.50206000  0.56791000  0.85521000  1.0
  H  H13  1  0.62727000  0.26211000  0.03032000  1.0
  H  H14  1  0.37270000  0.73779000  0.96971000  1.0
  H  H15  1  0.86805000  0.77228000  0.60913000  1.0
  H  H16  1  0.13199000  0.22785000  0.39088000  1.0
  C  C17  1  0.07661000  0.24235000  0.96399000  1.0
  C  C18  1  0.92335000  0.75754000  0.03599000  1.0
  C  C19  1  0.30154000  0.12543000  0.78303000  1.0
  C  C20  1  0.69847000  0.87451000  0.21696000  1.0
  C  C21  1  0.47358000  0.26890000  0.06922000  1.0
  C  C22  1  0.52635000  0.73098000  0.93079000  1.0
  C  C23  1  0.87804000  0.37813000  0.61607000  1.0
  C  C24  1  0.12200000  0.62207000  0.38395000  1.0
  C  C25  1  0.70339000  0.65110000  0.56150000  1.0
  C  C26  1  0.29659000  0.34900000  0.43850000  1.0
  C  C27  1  0.67906000  0.44444000  0.55545000  1.0
  C  C28  1  0.32100000  0.55571000  0.44456000  1.0
  N  N29  1  0.28290000  0.20208000  0.93186000  1.0
  N  N30  1  0.71709000  0.79782000  0.06812000  1.0
  N  N31  1  0.47497000  0.29617000  0.49335000  1.0
  N  N32  1  0.52508000  0.70395000  0.50666000  1.0
  O  O33  1  0.48079000  0.09928000  0.74919000  1.0
  O  O34  1  0.51924000  0.90069000  0.25082000  1.0
  O  O35  1  0.06062000  0.52027000  0.69158000  1.0
  O  O36  1  0.93941000  0.47994000  0.30845000  1.0
  O  O37  1  0.83925000  0.17791000  0.58282000  1.0
  O  O38  1  0.16084000  0.82227000  0.41723000  1.0
