# generated using pymatgen
data_NiH32C18(NO)6
_symmetry_space_group_name_H-M   'P 1'
_cell_length_a   9.32966000
_cell_length_b   14.82770000
_cell_length_c   16.37660000
_cell_angle_alpha   90.48460000
_cell_angle_beta   98.83140000
_cell_angle_gamma   101.03000000
_symmetry_Int_Tables_number   1
_chemical_formula_structural   NiH32C18(NO)6
_chemical_formula_sum   'Ni3 H96 C54 N18 O18'
_cell_volume   2195.61124673
_cell_formula_units_Z   3
loop_
 _symmetry_equiv_pos_site_id
 _symmetry_equiv_pos_as_xyz
  1  'x, y, z'
loop_
 _atom_site_type_symbol
 _atom_site_label
 _atom_site_symmetry_multiplicity
 _atom_site_fract_x
 _atom_site_fract_y
 _atom_site_fract_z
 _atom_site_occupancy
  Ni  Ni0  1  0.00000000  0.00000000  0.00000000  1.0
  Ni  Ni1  1  0.50001000  0.00000000  0.50001000  1.0
  Ni  Ni2  1  0.50000000  0.50001000  0.00000000  1.0
  H  H3  1  0.93231000  0.10841000  0.09815000  1.0
  H  H4  1  0.06771000  0.89158000  0.90184000  1.0
  H  H5  1  0.27811000  0.02432000  0.04895000  1.0
  H  H6  1  0.72190000  0.97567000  0.95105000  1.0
  H  H7  1  0.95599000  0.25891000  0.02820000  1.0
  H  H8  1  0.04403000  0.74108000  0.97180000  1.0
  H  H9  1  0.03277000  0.20436000  0.95160000  1.0
  H  H10  1  0.96724000  0.79563000  0.04840000  1.0
  H  H11  1  0.15925000  0.21188000  0.14818000  1.0
  H  H12  1  0.84074000  0.78811000  0.85182000  1.0
  H  H13  1  0.22878000  0.18110000  0.05811000  1.0
  H  H14  1  0.77124000  0.81890000  0.94188000  1.0
  H  H15  1  0.30916000  0.09212000  0.18337000  1.0
  H  H16  1  0.69086000  0.90787000  0.81662000  1.0
  H  H17  1  0.11865000  0.04644000  0.18560000  1.0
  H  H18  1  0.88137000  0.95355000  0.81440000  1.0
  H  H19  1  0.31550000  0.91316000  0.15366000  1.0
  H  H20  1  0.68452000  0.08684000  0.84634000  1.0
  H  H21  1  0.11969000  0.88820000  0.15073000  1.0
  H  H22  1  0.88034000  0.11179000  0.84927000  1.0
  H  H23  1  0.71104000  0.07494000  0.04279000  1.0
  H  H24  1  0.28897000  0.92506000  0.95720000  1.0
  H  H25  1  0.72571000  0.19461000  0.05629000  1.0
  H  H26  1  0.27430000  0.80538000  0.94370000  1.0
  H  H27  1  0.50040000  0.07154000  0.92585000  1.0
  H  H28  1  0.49960000  0.92844000  0.07415000  1.0
  H  H29  1  0.52166000  0.19288000  0.93800000  1.0
  H  H30  1  0.47833000  0.80711000  0.06200000  1.0
  H  H31  1  0.50099000  0.15242000  0.08255000  1.0
  H  H32  1  0.49903000  0.84758000  0.91744000  1.0
  H  H33  1  0.56765000  0.17071000  0.49178000  1.0
  H  H34  1  0.43237000  0.82930000  0.50823000  1.0
  H  H35  1  0.25503000  0.04094000  0.45271000  1.0
  H  H36  1  0.74497000  0.95905000  0.54729000  1.0
  H  H37  1  0.82939000  0.19960000  0.48101000  1.0
  H  H38  1  0.17063000  0.80039000  0.51901000  1.0
  H  H39  1  0.80443000  0.08325000  0.44403000  1.0
  H  H40  1  0.19556000  0.91673000  0.55598000  1.0
  H  H41  1  0.61465000  0.20296000  0.34910000  1.0
  H  H42  1  0.38537000  0.79702000  0.65090000  1.0
  H  H43  1  0.60942000  0.08291000  0.33506000  1.0
  H  H44  1  0.39059000  0.91706000  0.66496000  1.0
  H  H45  1  0.38467000  0.97908000  0.31465000  1.0
  H  H46  1  0.61534000  0.02090000  0.68537000  1.0
  H  H47  1  0.21576000  0.02180000  0.30057000  1.0
  H  H48  1  0.78424000  0.97818000  0.69944000  1.0
  H  H49  1  0.25493000  0.85585000  0.38641000  1.0
  H  H50  1  0.74509000  0.14414000  0.61361000  1.0
  H  H51  1  0.09492000  0.89833000  0.40272000  1.0
  H  H52  1  0.90509000  0.10165000  0.59728000  1.0
  H  H53  1  0.35315000  0.21177000  0.42749000  1.0
  H  H54  1  0.64685000  0.78821000  0.57251000  1.0
  H  H55  1  0.20946000  0.16298000  0.34615000  1.0
  H  H56  1  0.79055000  0.83701000  0.65385000  1.0
  H  H57  1  0.47527000  0.31502000  0.32911000  1.0
  H  H58  1  0.52475000  0.68497000  0.67090000  1.0
  H  H59  1  0.35394000  0.25227000  0.24429000  1.0
  H  H60  1  0.64607000  0.74773000  0.75572000  1.0
  H  H61  1  0.16388000  0.30961000  0.30540000  1.0
  H  H62  1  0.83614000  0.69039000  0.69462000  1.0
  H  H63  1  0.48985000  0.45914000  0.14688000  1.0
  H  H64  1  0.51014000  0.54086000  0.85312000  1.0
  H  H65  1  0.23466000  0.47960000  0.93845000  1.0
  H  H66  1  0.76531000  0.52039000  0.06156000  1.0
  H  H67  1  0.47063000  0.28804000  0.14656000  1.0
  H  H68  1  0.52934000  0.71196000  0.85341000  1.0
  H  H69  1  0.45290000  0.29334000  0.03607000  1.0
  H  H70  1  0.54707000  0.70666000  0.96390000  1.0
  H  H71  1  0.24001000  0.37621000  0.14418000  1.0
  H  H72  1  0.76000000  0.62380000  0.85584000  1.0
  H  H73  1  0.23245000  0.34781000  0.03706000  1.0
  H  H74  1  0.76752000  0.65220000  0.96295000  1.0
  H  H75  1  0.10711000  0.47982000  0.05693000  1.0
  H  H76  1  0.89290000  0.52021000  0.94310000  1.0
  H  H77  1  0.27576000  0.54314000  0.11301000  1.0
  H  H78  1  0.72430000  0.45687000  0.88700000  1.0
  H  H79  1  0.15664000  0.62694000  0.95911000  1.0
  H  H80  1  0.84333000  0.37304000  0.04087000  1.0
  H  H81  1  0.33038000  0.66171000  0.02423000  1.0
  H  H82  1  0.66959000  0.33830000  0.97575000  1.0
  H  H83  1  0.80176000  0.44683000  0.18903000  1.0
  H  H84  1  0.19818000  0.55319000  0.81095000  1.0
  H  H85  1  0.67502000  0.36368000  0.23006000  1.0
  H  H86  1  0.32493000  0.63632000  0.76992000  1.0
  H  H87  1  0.93917000  0.31940000  0.15613000  1.0
  H  H88  1  0.06080000  0.68061000  0.84386000  1.0
  H  H89  1  0.81415000  0.24102000  0.20558000  1.0
  H  H90  1  0.18580000  0.75899000  0.79440000  1.0
  H  H91  1  0.99602000  0.40231000  0.28823000  1.0
  H  H92  1  0.00395000  0.59770000  0.71177000  1.0
  H  H93  1  0.74653000  0.77426000  0.10236000  1.0
  H  H94  1  0.25331000  0.22576000  0.89760000  1.0
  H  H95  1  0.53509000  0.68044000  0.31067000  1.0
  H  H96  1  0.46488000  0.31960000  0.68933000  1.0
  H  H97  1  0.72581000  0.96704000  0.29492000  1.0
  H  H98  1  0.27425000  0.03298000  0.70510000  1.0
  C  C99  1  0.95459000  0.19258000  0.99596000  1.0
  C  C100  1  0.04542000  0.80741000  0.00403000  1.0
  C  C101  1  0.15342000  0.15603000  0.10198000  1.0
  C  C102  1  0.84659000  0.84396000  0.89802000  1.0
  C  C103  1  0.19916000  0.07276000  0.14488000  1.0
  C  C104  1  0.80085000  0.92723000  0.85512000  1.0
  C  C105  1  0.20773000  0.90940000  0.11343000  1.0
  C  C106  1  0.79229000  0.09060000  0.88656000  1.0
  C  C107  1  0.70029000  0.13809000  0.00893000  1.0
  C  C108  1  0.29972000  0.86191000  0.99107000  1.0
  C  C109  1  0.53989000  0.13019000  0.97027000  1.0
  C  C110  1  0.46011000  0.86980000  0.02973000  1.0
  C  C111  1  0.76469000  0.12950000  0.48461000  1.0
  C  C112  1  0.23532000  0.87049000  0.51540000  1.0
  C  C113  1  0.56403000  0.13386000  0.36713000  1.0
  C  C114  1  0.43598000  0.86612000  0.63288000  1.0
  C  C115  1  0.32404000  0.02655000  0.34013000  1.0
  C  C116  1  0.67597000  0.97343000  0.65989000  1.0
  C  C117  1  0.21334000  0.90169000  0.42633000  1.0
  C  C118  1  0.78668000  0.09830000  0.57368000  1.0
  C  C119  1  0.32910000  0.19137000  0.36096000  1.0
  C  C120  1  0.67092000  0.80861000  0.63905000  1.0
  C  C121  1  0.36195000  0.27644000  0.30928000  1.0
  C  C122  1  0.63807000  0.72355000  0.69073000  1.0
  C  C123  1  0.50240000  0.33112000  0.09488000  1.0
  C  C124  1  0.49758000  0.66888000  0.90510000  1.0
  C  C125  1  0.27999000  0.40057000  0.08659000  1.0
  C  C126  1  0.72000000  0.59944000  0.91342000  1.0
  C  C127  1  0.22905000  0.49033000  0.06350000  1.0
  C  C128  1  0.77096000  0.50969000  0.93651000  1.0
  C  C129  1  0.27374000  0.61967000  0.96883000  1.0
  C  C130  1  0.72625000  0.38033000  0.03116000  1.0
  C  C131  1  0.74927000  0.37289000  0.18352000  1.0
  C  C132  1  0.25069000  0.62712000  0.81646000  1.0
  C  C133  1  0.86709000  0.31379000  0.20431000  1.0
  C  C134  1  0.13288000  0.68623000  0.79568000  1.0
  C  C135  1  0.82936000  0.95506000  0.14942000  1.0
  C  C136  1  0.17065000  0.04496000  0.85057000  1.0
  C  C137  1  0.56930000  0.84690000  0.39003000  1.0
  C  C138  1  0.43074000  0.15312000  0.60999000  1.0
  C  C139  1  0.59470000  0.62094000  0.16339000  1.0
  C  C140  1  0.40527000  0.37908000  0.83662000  1.0
  C  C141  1  0.74893000  0.87834000  0.19516000  1.0
  C  C142  1  0.25105000  0.12169000  0.80483000  1.0
  C  C143  1  0.71472000  0.78821000  0.16169000  1.0
  C  C144  1  0.28520000  0.21181000  0.83828000  1.0
  C  C145  1  0.63725000  0.71675000  0.20232000  1.0
  C  C146  1  0.36271000  0.28328000  0.79767000  1.0
  C  C147  1  0.59446000  0.73564000  0.27802000  1.0
  C  C148  1  0.40551000  0.26439000  0.72198000  1.0
  C  C149  1  0.62467000  0.82589000  0.31128000  1.0
  C  C150  1  0.37533000  0.17413000  0.68873000  1.0
  C  C151  1  0.70212000  0.89669000  0.26960000  1.0
  C  C152  1  0.29791000  0.10334000  0.73041000  1.0
  N  N153  1  0.00405000  0.12679000  0.05559000  1.0
  N  N154  1  0.99597000  0.87320000  0.94440000  1.0
  N  N155  1  0.19337000  0.00077000  0.08144000  1.0
  N  N156  1  0.80665000  0.99922000  0.91855000  1.0
  N  N157  1  0.80645000  0.16034000  0.95166000  1.0
  N  N158  1  0.19356000  0.83966000  0.04834000  1.0
  N  N159  1  0.60545000  0.12346000  0.45678000  1.0
  N  N160  1  0.39456000  0.87654000  0.54323000  1.0
  N  N161  1  0.30188000  0.99511000  0.42375000  1.0
  N  N162  1  0.69813000  0.00488000  0.57627000  1.0
  N  N163  1  0.40595000  0.11913000  0.33915000  1.0
  N  N164  1  0.59406000  0.88085000  0.66086000  1.0
  N  N165  1  0.44186000  0.41588000  0.09464000  1.0
  N  N166  1  0.55813000  0.58413000  0.90536000  1.0
  N  N167  1  0.28526000  0.52336000  0.98762000  1.0
  N  N168  1  0.71474000  0.47664000  0.01238000  1.0
  N  N169  1  0.66160000  0.34610000  0.10193000  1.0
  N  N170  1  0.33837000  0.65389000  0.89805000  1.0
  O  O171  1  0.45068000  0.11297000  0.03478000  1.0
  O  O172  1  0.54934000  0.88702000  0.96522000  1.0
  O  O173  1  0.26828000  0.34026000  0.31673000  1.0
  O  O174  1  0.73174000  0.65972000  0.68329000  1.0
  O  O175  1  0.95448000  0.33659000  0.28441000  1.0
  O  O176  1  0.04549000  0.66341000  0.71558000  1.0
  O  O177  1  0.87499000  0.92904000  0.08458000  1.0
  O  O178  1  0.12500000  0.07098000  0.91542000  1.0
  O  O179  1  0.84547000  0.03731000  0.17637000  1.0
  O  O180  1  0.15459000  0.96272000  0.82363000  1.0
  O  O181  1  0.59247000  0.93290000  0.41195000  1.0
  O  O182  1  0.40760000  0.06712000  0.58807000  1.0
  O  O183  1  0.50362000  0.78126000  0.42729000  1.0
  O  O184  1  0.49644000  0.21876000  0.57272000  1.0
  O  O185  1  0.58923000  0.61563000  0.08395000  1.0
  O  O186  1  0.41082000  0.38438000  0.91606000  1.0
  O  O187  1  0.56549000  0.55405000  0.20913000  1.0
  O  O188  1  0.43443000  0.44598000  0.79087000  1.0
