# generated using pymatgen
data_Sm2H14C14N4O15
_symmetry_space_group_name_H-M   'P 1'
_cell_length_a   10.22340000
_cell_length_b   11.35200000
_cell_length_c   22.09900000
_cell_angle_alpha   89.99980000
_cell_angle_beta   97.39830000
_cell_angle_gamma   90.00000000
_symmetry_Int_Tables_number   1
_chemical_formula_structural   Sm2H14C14N4O15
_chemical_formula_sum   'Sm8 H56 C56 N16 O60'
_cell_volume   2543.37100100
_cell_formula_units_Z   4
loop_
 _symmetry_equiv_pos_site_id
 _symmetry_equiv_pos_as_xyz
  1  'x, y, z'
loop_
 _atom_site_type_symbol
 _atom_site_label
 _atom_site_symmetry_multiplicity
 _atom_site_fract_x
 _atom_site_fract_y
 _atom_site_fract_z
 _atom_site_occupancy
  Sm  Sm0  1  0.61162000  0.18535000  0.22979000  1.0
  Sm  Sm1  1  0.88838000  0.68536000  0.27021000  1.0
  Sm  Sm2  1  0.38838000  0.81464000  0.77021000  1.0
  Sm  Sm3  1  0.11162000  0.31465000  0.72979000  1.0
  Sm  Sm4  1  0.23733000  0.42544000  0.43711000  1.0
  Sm  Sm5  1  0.26267000  0.92544000  0.06289000  1.0
  Sm  Sm6  1  0.76267000  0.57456000  0.56289000  1.0
  Sm  Sm7  1  0.73733000  0.07456000  0.93711000  1.0
  H  H8  1  0.94804000  0.41197000  0.37245000  1.0
  H  H9  1  0.55196000  0.91197000  0.12755000  1.0
  H  H10  1  0.05196000  0.58803000  0.62755000  1.0
  H  H11  1  0.44804000  0.08803000  0.87245000  1.0
  H  H12  1  0.97802000  0.28626000  0.40301000  1.0
  H  H13  1  0.52198000  0.78626000  0.09699000  1.0
  H  H14  1  0.02198000  0.71374000  0.59699000  1.0
  H  H15  1  0.47802000  0.21374000  0.90301000  1.0
  H  H16  1  0.26208000  0.17753000  0.48358000  1.0
  H  H17  1  0.23792000  0.67752000  0.01642000  1.0
  H  H18  1  0.73792000  0.82247000  0.51642000  1.0
  H  H19  1  0.76208000  0.32247000  0.98358000  1.0
  H  H20  1  0.29692000  0.19841000  0.41728000  1.0
  H  H21  1  0.20308000  0.69840000  0.08272000  1.0
  H  H22  1  0.70308000  0.80160000  0.58272000  1.0
  H  H23  1  0.79692000  0.30159000  0.91728000  1.0
  H  H24  1  0.07027000  0.59350000  0.50511000  1.0
  H  H25  1  0.42973000  0.09350000  0.99489000  1.0
  H  H26  1  0.92973000  0.40650000  0.49489000  1.0
  H  H27  1  0.57027000  0.90650000  0.00511000  1.0
  H  H28  1  0.03665000  0.62664000  0.43555000  1.0
  H  H29  1  0.46334000  0.12664000  0.06446000  1.0
  H  H30  1  0.96334000  0.37337000  0.56445000  1.0
  H  H31  1  0.53665000  0.87336000  0.93555000  1.0
  H  H32  1  0.15212000  0.48475000  0.16195000  1.0
  H  H33  1  0.34789000  0.98475000  0.33804000  1.0
  H  H34  1  0.84789000  0.51525000  0.83804000  1.0
  H  H35  1  0.65212000  0.01525000  0.66195000  1.0
  H  H36  1  0.13155000  0.11176000  0.16004000  1.0
  H  H37  1  0.36845000  0.61176000  0.33996000  1.0
  H  H38  1  0.86845000  0.88824000  0.83996000  1.0
  H  H39  1  0.63155000  0.38824000  0.66004000  1.0
  H  H40  1  0.42700000  0.35129000  0.08984000  1.0
  H  H41  1  0.07300000  0.85130000  0.41016000  1.0
  H  H42  1  0.57300000  0.64870000  0.91016000  1.0
  H  H43  1  0.92700000  0.14871000  0.58983000  1.0
  H  H44  1  0.27091000  0.42199000  0.07068000  1.0
  H  H45  1  0.22909000  0.92199000  0.42932000  1.0
  H  H46  1  0.72909000  0.57801000  0.92932000  1.0
  H  H47  1  0.77091000  0.07801000  0.57068000  1.0
  H  H48  1  0.28090000  0.26555000  0.07878000  1.0
  H  H49  1  0.21911000  0.76556000  0.42122000  1.0
  H  H50  1  0.71911000  0.73444000  0.92122000  1.0
  H  H51  1  0.78090000  0.23445000  0.57878000  1.0
  H  H52  1  0.97097000  0.20657000  0.29767000  1.0
  H  H53  1  0.52903000  0.70657000  0.20233000  1.0
  H  H54  1  0.02904000  0.79343000  0.70233000  1.0
  H  H55  1  0.47097000  0.29343000  0.79767000  1.0
  H  H56  1  0.12903000  0.17043000  0.27556000  1.0
  H  H57  1  0.37096000  0.67043000  0.22444000  1.0
  H  H58  1  0.87097000  0.82957000  0.72444000  1.0
  H  H59  1  0.62903000  0.32957000  0.77556000  1.0
  H  H60  1  0.01639000  0.05747000  0.29154000  1.0
  H  H61  1  0.48361000  0.55747000  0.20846000  1.0
  H  H62  1  0.98361000  0.94253000  0.70846000  1.0
  H  H63  1  0.51639000  0.44253000  0.79154000  1.0
  C  C64  1  0.16144000  0.50630000  0.28223000  1.0
  C  C65  1  0.33856000  0.00630000  0.21776000  1.0
  C  C66  1  0.83855000  0.49370000  0.71776000  1.0
  C  C67  1  0.66144000  0.99370000  0.78224000  1.0
  C  C68  1  0.23979000  0.42648000  0.24812000  1.0
  C  C69  1  0.26021000  0.92648000  0.25187000  1.0
  C  C70  1  0.76021000  0.57352000  0.75188000  1.0
  C  C71  1  0.73979000  0.07352000  0.74812000  1.0
  C  C72  1  0.34372000  0.34801000  0.26194000  1.0
  C  C73  1  0.15628000  0.84801000  0.23806000  1.0
  C  C74  1  0.65628000  0.65199000  0.73806000  1.0
  C  C75  1  0.84372000  0.15199000  0.76194000  1.0
  C  C76  1  0.40799000  0.30132000  0.32107000  1.0
  C  C77  1  0.09201000  0.80132000  0.17893000  1.0
  C  C78  1  0.59201000  0.69868000  0.67894000  1.0
  C  C79  1  0.90799000  0.19869000  0.82107000  1.0
  C  C80  1  0.31222000  0.36223000  0.16259000  1.0
  C  C81  1  0.18778000  0.86224000  0.33741000  1.0
  C  C82  1  0.68778000  0.63776000  0.83741000  1.0
  C  C83  1  0.81223000  0.13777000  0.66259000  1.0
  C  C84  1  0.32266000  0.34978000  0.09668000  1.0
  C  C85  1  0.17734000  0.84979000  0.40332000  1.0
  C  C86  1  0.67734000  0.65021000  0.90332000  1.0
  C  C87  1  0.82266000  0.15022000  0.59668000  1.0
  C  C88  1  0.69022000  0.15294000  0.08821000  1.0
  C  C89  1  0.80978000  0.65294000  0.41178000  1.0
  C  C90  1  0.30979000  0.84706000  0.91179000  1.0
  C  C91  1  0.19022000  0.34706000  0.58821000  1.0
  C  C92  1  0.82359000  0.15250000  0.12343000  1.0
  C  C93  1  0.67641000  0.65250000  0.37657000  1.0
  C  C94  1  0.17641000  0.84750000  0.87657000  1.0
  C  C95  1  0.32359000  0.34750000  0.62343000  1.0
  C  C96  1  0.94769000  0.13475000  0.10524000  1.0
  C  C97  1  0.55231000  0.63476000  0.39476000  1.0
  C  C98  1  0.05231000  0.86525000  0.89476000  1.0
  C  C99  1  0.44769000  0.36525000  0.60524000  1.0
  C  C100  1  0.00151000  0.12043000  0.04662000  1.0
  C  C101  1  0.49849000  0.62042000  0.45337000  1.0
  C  C102  1  0.99849000  0.87957000  0.95337000  1.0
  C  C103  1  0.50151000  0.37957000  0.54662000  1.0
  C  C104  1  0.96387000  0.14668000  0.20682000  1.0
  C  C105  1  0.53613000  0.64668000  0.29318000  1.0
  C  C106  1  0.03613000  0.85332000  0.79318000  1.0
  C  C107  1  0.46387000  0.35332000  0.70682000  1.0
  C  C108  1  0.02464000  0.14545000  0.27151000  1.0
  C  C109  1  0.47536000  0.64545000  0.22849000  1.0
  C  C110  1  0.97536000  0.85455000  0.72849000  1.0
  C  C111  1  0.52464000  0.35455000  0.77151000  1.0
  C  C112  1  0.76650000  0.94951000  0.28200000  1.0
  C  C113  1  0.73350000  0.44951000  0.21800000  1.0
  C  C114  1  0.23350000  0.05049000  0.71800000  1.0
  C  C115  1  0.26650000  0.55049000  0.78200000  1.0
  C  C116  1  0.70160000  0.90484000  0.21885000  1.0
  C  C117  1  0.79840000  0.40484000  0.28115000  1.0
  C  C118  1  0.29840000  0.09516000  0.78115000  1.0
  C  C119  1  0.20160000  0.59516000  0.71885000  1.0
  N  N120  1  0.22194000  0.43216000  0.18524000  1.0
  N  N121  1  0.27806000  0.93217000  0.31476000  1.0
  N  N122  1  0.77806000  0.56784000  0.81476000  1.0
  N  N123  1  0.72195000  0.06784000  0.68524000  1.0
  N  N124  1  0.38746000  0.30958000  0.20876000  1.0
  N  N125  1  0.11254000  0.80959000  0.29124000  1.0
  N  N126  1  0.61254000  0.69041000  0.79124000  1.0
  N  N127  1  0.88747000  0.19041000  0.70876000  1.0
  N  N128  1  0.83602000  0.16052000  0.18618000  1.0
  N  N129  1  0.66398000  0.66053000  0.31382000  1.0
  N  N130  1  0.16398000  0.83948000  0.81383000  1.0
  N  N131  1  0.33602000  0.33948000  0.68618000  1.0
  N  N132  1  0.03301000  0.13104000  0.15880000  1.0
  N  N133  1  0.46699000  0.63103000  0.34120000  1.0
  N  N134  1  0.96699000  0.86897000  0.84120000  1.0
  N  N135  1  0.53301000  0.36897000  0.65880000  1.0
  O  O136  1  0.07001000  0.55996000  0.24944000  1.0
  O  O137  1  0.42999000  0.05996000  0.25056000  1.0
  O  O138  1  0.92999000  0.44004000  0.75056000  1.0
  O  O139  1  0.57001000  0.94004000  0.74944000  1.0
  O  O140  1  0.19284000  0.52157000  0.33968000  1.0
  O  O141  1  0.30716000  0.02158000  0.16032000  1.0
  O  O142  1  0.80716000  0.47842000  0.66032000  1.0
  O  O143  1  0.69284000  0.97843000  0.83968000  1.0
  O  O144  1  0.34595000  0.31093000  0.36779000  1.0
  O  O145  1  0.15405000  0.81093000  0.13221000  1.0
  O  O146  1  0.65405000  0.68907000  0.63221000  1.0
  O  O147  1  0.84595000  0.18907000  0.86779000  1.0
  O  O148  1  0.51773000  0.25131000  0.32126000  1.0
  O  O149  1  0.98228000  0.75131000  0.17874000  1.0
  O  O150  1  0.48227000  0.74869000  0.67874000  1.0
  O  O151  1  0.01773000  0.24869000  0.82126000  1.0
  O  O152  1  0.59216000  0.17564000  0.11685000  1.0
  O  O153  1  0.90783000  0.67564000  0.38315000  1.0
  O  O154  1  0.40783000  0.82436000  0.88315000  1.0
  O  O155  1  0.09216000  0.32436000  0.61685000  1.0
  O  O156  1  0.67595000  0.12741000  0.03186000  1.0
  O  O157  1  0.82405000  0.62742000  0.46814000  1.0
  O  O158  1  0.32405000  0.87259000  0.96814000  1.0
  O  O159  1  0.17595000  0.37259000  0.53186000  1.0
  O  O160  1  0.93118000  0.14414000  0.99685000  1.0
  O  O161  1  0.56882000  0.64414000  0.50314000  1.0
  O  O162  1  0.06882000  0.85586000  0.00314000  1.0
  O  O163  1  0.43118000  0.35585000  0.49686000  1.0
  O  O164  1  0.12150000  0.08711000  0.05119000  1.0
  O  O165  1  0.37850000  0.58712000  0.44881000  1.0
  O  O166  1  0.87849000  0.91287000  0.94881000  1.0
  O  O167  1  0.62151000  0.41287000  0.55119000  1.0
  O  O168  1  0.73229000  0.04974000  0.29926000  1.0
  O  O169  1  0.76770000  0.54974000  0.20074000  1.0
  O  O170  1  0.26770000  0.95026000  0.70074000  1.0
  O  O171  1  0.23229000  0.45026000  0.79926000  1.0
  O  O172  1  0.84960000  0.88084000  0.31096000  1.0
  O  O173  1  0.65039000  0.38083000  0.18904000  1.0
  O  O174  1  0.15039000  0.11917000  0.68904000  1.0
  O  O175  1  0.34960000  0.61916000  0.81096000  1.0
  O  O176  1  0.62719000  0.97705000  0.18630000  1.0
  O  O177  1  0.87281000  0.47706000  0.31370000  1.0
  O  O178  1  0.37281000  0.02294000  0.81370000  1.0
  O  O179  1  0.12719000  0.52295000  0.68630000  1.0
  O  O180  1  0.72489000  0.80068000  0.20384000  1.0
  O  O181  1  0.77510000  0.30067000  0.29615000  1.0
  O  O182  1  0.27510000  0.19933000  0.79616000  1.0
  O  O183  1  0.22489000  0.69932000  0.70384000  1.0
  O  O184  1  0.00223000  0.36903000  0.40789000  1.0
  O  O185  1  0.49777000  0.86903000  0.09211000  1.0
  O  O186  1  0.99776000  0.63097000  0.59211000  1.0
  O  O187  1  0.50223000  0.13097000  0.90789000  1.0
  O  O188  1  0.22259000  0.19319000  0.44186000  1.0
  O  O189  1  0.27741000  0.69319000  0.05814000  1.0
  O  O190  1  0.77741000  0.80681000  0.55814000  1.0
  O  O191  1  0.72259000  0.30681000  0.94186000  1.0
  O  O192  1  0.10641000  0.59137000  0.46612000  1.0
  O  O193  1  0.39359000  0.09137000  0.03389000  1.0
  O  O194  1  0.89359000  0.40864000  0.53389000  1.0
  O  O195  1  0.60641000  0.90863000  0.96612000  1.0
