# generated using pymatgen
data_AgH8C8N5O2
_symmetry_space_group_name_H-M   'P 1'
_cell_length_a   8.11888000
_cell_length_b   9.98843000
_cell_length_c   12.56200000
_cell_angle_alpha   82.43830000
_cell_angle_beta   89.98550000
_cell_angle_gamma   74.00580000
_symmetry_Int_Tables_number   1
_chemical_formula_structural   AgH8C8N5O2
_chemical_formula_sum   'Ag4 H32 C32 N20 O8'
_cell_volume   970.06956855
_cell_formula_units_Z   4
loop_
 _symmetry_equiv_pos_site_id
 _symmetry_equiv_pos_as_xyz
  1  'x, y, z'
loop_
 _atom_site_type_symbol
 _atom_site_label
 _atom_site_symmetry_multiplicity
 _atom_site_fract_x
 _atom_site_fract_y
 _atom_site_fract_z
 _atom_site_occupancy
  Ag  Ag0  1  0.48703000  0.00428000  0.75830000  1.0
  Ag  Ag1  1  0.51297000  0.99572000  0.24170000  1.0
  Ag  Ag2  1  0.53415000  0.55759000  0.39298000  1.0
  Ag  Ag3  1  0.46585000  0.44243000  0.60702000  1.0
  H  H4  1  0.07758000  0.86786000  0.23245000  1.0
  H  H5  1  0.92241000  0.13214000  0.76755000  1.0
  H  H6  1  0.22405000  0.70206000  0.28291000  1.0
  H  H7  1  0.77595000  0.29794000  0.71709000  1.0
  H  H8  1  0.56716000  0.25171000  0.90252000  1.0
  H  H9  1  0.43284000  0.74829000  0.09748000  1.0
  H  H10  1  0.95241000  0.12645000  0.26198000  1.0
  H  H11  1  0.04758000  0.87355000  0.73803000  1.0
  H  H12  1  0.81346000  0.29495000  0.20963000  1.0
  H  H13  1  0.18654000  0.70506000  0.79037000  1.0
  H  H14  1  0.98423000  0.71477000  0.15832000  1.0
  H  H15  1  0.01577000  0.28523000  0.84168000  1.0
  H  H16  1  0.07073000  0.65058000  0.03940000  1.0
  H  H17  1  0.92927000  0.34942000  0.96060000  1.0
  H  H18  1  0.96594000  0.46612000  0.12804000  1.0
  H  H19  1  0.03407000  0.53388000  0.87197000  1.0
  H  H20  1  0.79867000  0.55106000  0.03377000  1.0
  H  H21  1  0.20133000  0.44894000  0.96623000  1.0
  H  H22  1  0.74424000  0.72428000  0.89290000  1.0
  H  H23  1  0.25576000  0.27573000  0.10710000  1.0
  H  H24  1  0.98529000  0.45352000  0.30780000  1.0
  H  H25  1  0.01472000  0.54646000  0.69219000  1.0
  H  H26  1  0.14734000  0.29925000  0.29425000  1.0
  H  H27  1  0.85268000  0.70073000  0.70575000  1.0
  H  H28  1  0.48909000  0.75080000  0.58065000  1.0
  H  H29  1  0.51091000  0.24920000  0.41935000  1.0
  H  H30  1  0.94419000  0.36520000  0.49701000  1.0
  H  H31  1  0.05581000  0.63480000  0.50299000  1.0
  H  H32  1  0.90166000  0.25917000  0.40493000  1.0
  H  H33  1  0.09834000  0.74084000  0.59507000  1.0
  H  H34  1  0.19174000  0.25520000  0.63883000  1.0
  H  H35  1  0.80826000  0.74480000  0.36117000  1.0
  C  C36  1  0.81313000  0.94702000  0.04203000  1.0
  C  C37  1  0.18686000  0.05298000  0.95797000  1.0
  C  C38  1  0.30941000  0.96016000  0.54451000  1.0
  C  C39  1  0.69058000  0.03983000  0.45549000  1.0
  C  C40  1  0.18524000  0.04177000  0.46561000  1.0
  C  C41  1  0.81476000  0.95823000  0.53439000  1.0
  C  C42  1  0.21975000  0.86291000  0.36877000  1.0
  C  C43  1  0.78025000  0.13709000  0.63122000  1.0
  C  C44  1  0.69903000  0.03248000  0.95962000  1.0
  C  C45  1  0.30096000  0.96752000  0.04039000  1.0
  C  C46  1  0.82013000  0.13440000  0.12160000  1.0
  C  C47  1  0.17987000  0.86561000  0.87840000  1.0
  C  C48  1  0.65198000  0.17700000  0.96406000  1.0
  C  C49  1  0.34802000  0.82300000  0.03594000  1.0
  C  C50  1  0.95163000  0.68354000  0.08254000  1.0
  C  C51  1  0.04837000  0.31646000  0.91746000  1.0
  C  C52  1  0.86586000  0.56546000  0.10565000  1.0
  C  C53  1  0.13415000  0.43454000  0.89436000  1.0
  C  C54  1  0.73741000  0.58465000  0.19600000  1.0
  C  C55  1  0.26259000  0.41535000  0.80401000  1.0
  C  C56  1  0.74742000  0.81686000  0.92835000  1.0
  C  C57  1  0.25258000  0.18315000  0.07165000  1.0
  C  C58  1  0.22080000  0.43584000  0.39134000  1.0
  C  C59  1  0.77920000  0.56417000  0.60865000  1.0
  C  C60  1  0.08762000  0.36975000  0.35238000  1.0
  C  C61  1  0.91239000  0.63024000  0.64761000  1.0
  C  C62  1  0.39039000  0.82399000  0.52605000  1.0
  C  C63  1  0.60961000  0.17601000  0.47395000  1.0
  C  C64  1  0.00356000  0.29427000  0.43996000  1.0
  C  C65  1  0.99645000  0.70573000  0.56004000  1.0
  C  C66  1  0.21026000  0.16666000  0.59436000  1.0
  C  C67  1  0.78974000  0.83334000  0.40564000  1.0
  N  N68  1  0.87814000  0.99202000  0.12330000  1.0
  N  N69  1  0.12185000  0.00798000  0.87670000  1.0
  N  N70  1  0.13594000  0.99888000  0.37817000  1.0
  N  N71  1  0.86405000  0.00111000  0.62183000  1.0
  N  N72  1  0.17431000  0.80757000  0.28512000  1.0
  N  N73  1  0.82569000  0.19243000  0.71488000  1.0
  N  N74  1  0.34690000  0.77710000  0.43824000  1.0
  N  N75  1  0.65310000  0.22290000  0.56176000  1.0
  N  N76  1  0.71198000  0.22698000  0.04435000  1.0
  N  N77  1  0.28801000  0.77303000  0.95565000  1.0
  N  N78  1  0.84113000  0.81056000  0.02039000  1.0
  N  N79  1  0.15886000  0.18944000  0.97962000  1.0
  N  N80  1  0.32142000  0.04210000  0.62408000  1.0
  N  N81  1  0.67858000  0.95790000  0.37592000  1.0
  N  N82  1  0.12508000  0.17160000  0.49922000  1.0
  N  N83  1  0.87492000  0.82840000  0.50078000  1.0
  N  N84  1  0.66057000  0.94747000  0.88958000  1.0
  N  N85  1  0.33943000  0.05254000  0.11042000  1.0
  N  N86  1  0.87484000  0.19163000  0.20111000  1.0
  N  N87  1  0.12516000  0.80838000  0.79890000  1.0
  O  O88  1  0.24375000  0.42797000  0.49227000  1.0
  O  O89  1  0.75626000  0.57202000  0.50773000  1.0
  O  O90  1  0.67599000  0.70670000  0.22112000  1.0
  O  O91  1  0.32401000  0.29330000  0.77888000  1.0
  O  O92  1  0.70382000  0.47353000  0.24112000  1.0
  O  O93  1  0.29618000  0.52647000  0.75888000  1.0
  O  O94  1  0.29799000  0.49341000  0.31847000  1.0
  O  O95  1  0.70199000  0.50661000  0.68152000  1.0
