# generated using pymatgen
data_Hg2H10C11S2(NCl2)2
_symmetry_space_group_name_H-M   'P 1'
_cell_length_a   7.74631000
_cell_length_b   9.10144234
_cell_length_c   14.16850000
_cell_angle_alpha   85.57354376
_cell_angle_beta   79.60560000
_cell_angle_gamma   64.83836089
_symmetry_Int_Tables_number   1
_chemical_formula_structural   Hg2H10C11S2(NCl2)2
_chemical_formula_sum   'Hg4 H20 C22 S4 N4 Cl8'
_cell_volume   889.29306428
_cell_formula_units_Z   2
loop_
 _symmetry_equiv_pos_site_id
 _symmetry_equiv_pos_as_xyz
  1  'x, y, z'
loop_
 _atom_site_type_symbol
 _atom_site_label
 _atom_site_symmetry_multiplicity
 _atom_site_fract_x
 _atom_site_fract_y
 _atom_site_fract_z
 _atom_site_occupancy
  Hg  Hg0  1  0.03681000  0.93085000  0.12378000  1.0
  Hg  Hg1  1  0.96789000  0.06899000  0.62379000  1.0
  Hg  Hg2  1  0.96319000  0.06914000  0.87622000  1.0
  Hg  Hg3  1  0.03211000  0.93101000  0.37620000  1.0
  H  H4  1  0.21643000  0.33590000  0.25449000  1.0
  H  H5  1  0.55272000  0.66403000  0.75431000  1.0
  H  H6  1  0.78357000  0.66410000  0.74551000  1.0
  H  H7  1  0.44728000  0.33597000  0.24569000  1.0
  H  H8  1  0.03612000  0.34633000  0.13914000  1.0
  H  H9  1  0.38299000  0.65340000  0.63914000  1.0
  H  H10  1  0.96387000  0.65367000  0.86086000  1.0
  H  H11  1  0.61701000  0.34661000  0.36086000  1.0
  H  H12  1  0.69627000  0.43898000  0.11571000  1.0
  H  H13  1  0.13591000  0.56064000  0.61551000  1.0
  H  H14  1  0.30373000  0.56101000  0.88429000  1.0
  H  H15  1  0.86410000  0.43936000  0.38449000  1.0
  H  H16  1  0.49502000  0.73943000  0.09272000  1.0
  H  H17  1  0.23507000  0.26022000  0.59243000  1.0
  H  H18  1  0.50498000  0.26056000  0.90728000  1.0
  H  H19  1  0.76493000  0.73979000  0.40757000  1.0
  H  H20  1  0.64788000  0.93164000  0.09775000  1.0
  H  H21  1  0.57993000  0.06811000  0.59763000  1.0
  H  H22  1  0.35210000  0.06836000  0.90226000  1.0
  H  H23  1  0.42007000  0.93189000  0.40238000  1.0
  C  C24  1  0.29243000  0.41481000  0.25004000  1.0
  C  C25  1  0.70757000  0.58519000  0.74996000  1.0
  C  C26  1  0.02115000  0.58989000  0.13298000  1.0
  C  C27  1  0.61147000  0.40990000  0.63299000  1.0
  C  C28  1  0.97884000  0.41011000  0.86702000  1.0
  C  C29  1  0.38854000  0.59010000  0.36701000  1.0
  C  C30  1  0.94536000  0.47546000  0.13186000  1.0
  C  C31  1  0.42134000  0.52428000  0.63182000  1.0
  C  C32  1  0.05463000  0.52454000  0.86814000  1.0
  C  C33  1  0.57866000  0.47573000  0.36818000  1.0
  C  C34  1  0.75408000  0.52852000  0.11881000  1.0
  C  C35  1  0.28317000  0.47115000  0.61868000  1.0
  C  C36  1  0.24591000  0.47148000  0.88119000  1.0
  C  C37  1  0.71683000  0.52886000  0.38132000  1.0
  C  C38  1  0.64341000  0.69333000  0.10540000  1.0
  C  C39  1  0.33732000  0.30634000  0.60523000  1.0
  C  C40  1  0.35658000  0.30667000  0.89460000  1.0
  C  C41  1  0.66268000  0.69367000  0.39477000  1.0
  C  C42  1  0.72658000  0.80119000  0.10746000  1.0
  C  C43  1  0.52822000  0.19854000  0.60736000  1.0
  C  C44  1  0.27341000  0.19881000  0.89254000  1.0
  C  C45  1  0.47178000  0.80147000  0.39264000  1.0
  S  S46  1  0.26617000  0.53376000  0.14017000  1.0
  S  S47  1  0.80036000  0.46605000  0.64022000  1.0
  S  S48  1  0.73383000  0.46623000  0.85983000  1.0
  S  S49  1  0.19964000  0.53395000  0.35978000  1.0
  N  N50  1  0.91043000  0.74996000  0.12203000  1.0
  N  N51  1  0.66080000  0.24981000  0.62201000  1.0
  N  N52  1  0.08957000  0.25003000  0.87797000  1.0
  N  N53  1  0.33921000  0.75019000  0.37799000  1.0
  Cl  Cl54  1  0.22325000  0.04600000  0.18485000  1.0
  Cl  Cl55  1  0.26941000  0.95375000  0.68486000  1.0
  Cl  Cl56  1  0.77675000  0.95400000  0.81515000  1.0
  Cl  Cl57  1  0.73059000  0.04625000  0.31514000  1.0
  Cl  Cl58  1  0.74263000  0.16996000  0.05430000  1.0
  Cl  Cl59  1  0.91282000  0.82979000  0.55435000  1.0
  Cl  Cl60  1  0.25737000  0.83003000  0.94570000  1.0
  Cl  Cl61  1  0.08719000  0.17021000  0.44565000  1.0
