# generated using pymatgen
data_CuH10(C7N4)2
_symmetry_space_group_name_H-M   'P 1'
_cell_length_a   7.24167000
_cell_length_b   20.30270000
_cell_length_c   20.31830000
_cell_angle_alpha   89.89450000
_cell_angle_beta   89.99810000
_cell_angle_gamma   89.99800000
_symmetry_Int_Tables_number   1
_chemical_formula_structural   CuH10(C7N4)2
_chemical_formula_sum   'Cu8 H80 C112 N64'
_cell_volume   2987.30220439
_cell_formula_units_Z   8
loop_
 _symmetry_equiv_pos_site_id
 _symmetry_equiv_pos_as_xyz
  1  'x, y, z'
loop_
 _atom_site_type_symbol
 _atom_site_label
 _atom_site_symmetry_multiplicity
 _atom_site_fract_x
 _atom_site_fract_y
 _atom_site_fract_z
 _atom_site_occupancy
  Cu  Cu0  1  0.74025000  0.47596000  0.46018000  1.0
  Cu  Cu1  1  0.24033000  0.53980000  0.97579000  1.0
  Cu  Cu2  1  0.24024000  0.96015000  0.52430000  1.0
  Cu  Cu3  1  0.74015000  0.02413000  0.03981000  1.0
  Cu  Cu4  1  0.25980000  0.52408000  0.53977000  1.0
  Cu  Cu5  1  0.75974000  0.46018000  0.02422000  1.0
  Cu  Cu6  1  0.75970000  0.03983000  0.47572000  1.0
  Cu  Cu7  1  0.25984000  0.97587000  0.96021000  1.0
  H  H8  1  0.17303000  0.62049000  0.41433000  1.0
  H  H9  1  0.67340000  0.58559000  0.12030000  1.0
  H  H10  1  0.67353000  0.91443000  0.37972000  1.0
  H  H11  1  0.17293000  0.87958000  0.08571000  1.0
  H  H12  1  0.82700000  0.37953000  0.58561000  1.0
  H  H13  1  0.32660000  0.41440000  0.87968000  1.0
  H  H14  1  0.32644000  0.08557000  0.62028000  1.0
  H  H15  1  0.82707000  0.12041000  0.91431000  1.0
  H  H16  1  0.32125000  0.34816000  0.51256000  1.0
  H  H17  1  0.82139000  0.48737000  0.84829000  1.0
  H  H18  1  0.82125000  0.01267000  0.65176000  1.0
  H  H19  1  0.32139000  0.15176000  0.98741000  1.0
  H  H20  1  0.67875000  0.65187000  0.48743000  1.0
  H  H21  1  0.17864000  0.51261000  0.15169000  1.0
  H  H22  1  0.17866000  0.98733000  0.34827000  1.0
  H  H23  1  0.67857000  0.84824000  0.01258000  1.0
  H  H24  1  0.09670000  0.46081000  0.37387000  1.0
  H  H25  1  0.59707000  0.62608000  0.96046000  1.0
  H  H26  1  0.59691000  0.87388000  0.53968000  1.0
  H  H27  1  0.09663000  0.03932000  0.12610000  1.0
  H  H28  1  0.90330000  0.53921000  0.62606000  1.0
  H  H29  1  0.40298000  0.37391000  0.03954000  1.0
  H  H30  1  0.40305000  0.12612000  0.46033000  1.0
  H  H31  1  0.90335000  0.96068000  0.87392000  1.0
  H  H32  1  0.01493000  0.59745000  0.21297000  1.0
  H  H33  1  0.51501000  0.78700000  0.09653000  1.0
  H  H34  1  0.51554000  0.71313000  0.40339000  1.0
  H  H35  1  0.01475000  0.90272000  0.28703000  1.0
  H  H36  1  0.98514000  0.40261000  0.78700000  1.0
  H  H37  1  0.48501000  0.21299000  0.90348000  1.0
  H  H38  1  0.48449000  0.28689000  0.59660000  1.0
  H  H39  1  0.98527000  0.09727000  0.71298000  1.0
  H  H40  1  0.21781000  0.51356000  0.27100000  1.0
  H  H41  1  0.71811000  0.72900000  0.01296000  1.0
  H  H42  1  0.71824000  0.77106000  0.48712000  1.0
  H  H43  1  0.21770000  0.98656000  0.22898000  1.0
  H  H44  1  0.78224000  0.48646000  0.72895000  1.0
  H  H45  1  0.28191000  0.27101000  0.98704000  1.0
  H  H46  1  0.28177000  0.22896000  0.51287000  1.0
  H  H47  1  0.78229000  0.01344000  0.77104000  1.0
  H  H48  1  0.36695000  0.39062000  0.36740000  1.0
  H  H49  1  0.86751000  0.63312000  0.89009000  1.0
  H  H50  1  0.86742000  0.86699000  0.60989000  1.0
  H  H51  1  0.36700000  0.10978000  0.13259000  1.0
  H  H52  1  0.63305000  0.60939000  0.63258000  1.0
  H  H53  1  0.13249000  0.36687000  0.10991000  1.0
  H  H54  1  0.13252000  0.13299000  0.39012000  1.0
  H  H55  1  0.63297000  0.89021000  0.86741000  1.0
  H  H56  1  0.70099000  0.62103000  0.25891000  1.0
  H  H57  1  0.20073000  0.74118000  0.11994000  1.0
  H  H58  1  0.20133000  0.75894000  0.37987000  1.0
  H  H59  1  0.70073000  0.87919000  0.24113000  1.0
  H  H60  1  0.29912000  0.37904000  0.74108000  1.0
  H  H61  1  0.79931000  0.25880000  0.88006000  1.0
  H  H62  1  0.79868000  0.24105000  0.62013000  1.0
  H  H63  1  0.29931000  0.12078000  0.75888000  1.0
  H  H64  1  0.31092000  0.27604000  0.32625000  1.0
  H  H65  1  0.81108000  0.67377000  0.77529000  1.0
  H  H66  1  0.81110000  0.82608000  0.72463000  1.0
  H  H67  1  0.31145000  0.22438000  0.17372000  1.0
  H  H68  1  0.68908000  0.72396000  0.67377000  1.0
  H  H69  1  0.18892000  0.32620000  0.22470000  1.0
  H  H70  1  0.18881000  0.17391000  0.27539000  1.0
  H  H71  1  0.68848000  0.77561000  0.82628000  1.0
  H  H72  1  0.84307000  0.22273000  0.40740000  1.0
  H  H73  1  0.34261000  0.59204000  0.72234000  1.0
  H  H74  1  0.34275000  0.90768000  0.77763000  1.0
  H  H75  1  0.84373000  0.27740000  0.09245000  1.0
  H  H76  1  0.15694000  0.77729000  0.59262000  1.0
  H  H77  1  0.65744000  0.40795000  0.27767000  1.0
  H  H78  1  0.65717000  0.09231000  0.22239000  1.0
  H  H79  1  0.15622000  0.72260000  0.90759000  1.0
  H  H80  1  0.55740000  0.19042000  0.34529000  1.0
  H  H81  1  0.05683000  0.65409000  0.68975000  1.0
  H  H82  1  0.05695000  0.84558000  0.81016000  1.0
  H  H83  1  0.55819000  0.30989000  0.15462000  1.0
  H  H84  1  0.44262000  0.80959000  0.65475000  1.0
  H  H85  1  0.94320000  0.34588000  0.31025000  1.0
  H  H86  1  0.94295000  0.15442000  0.18985000  1.0
  H  H87  1  0.44177000  0.69011000  0.84540000  1.0
  C  C88  1  0.30567000  0.59631000  0.40901000  1.0
  C  C89  1  0.80592000  0.59094000  0.09604000  1.0
  C  C90  1  0.80603000  0.90907000  0.40398000  1.0
  C  C91  1  0.30556000  0.90377000  0.09104000  1.0
  C  C92  1  0.69436000  0.40372000  0.59094000  1.0
  C  C93  1  0.19408000  0.40905000  0.90395000  1.0
  C  C94  1  0.19394000  0.09092000  0.59603000  1.0
  C  C95  1  0.69444000  0.09621000  0.90899000  1.0
  C  C96  1  0.91955000  0.34700000  0.45184000  1.0
  C  C97  1  0.41969000  0.54815000  0.84689000  1.0
  C  C98  1  0.41966000  0.95180000  0.65317000  1.0
  C  C99  1  0.91966000  0.15309000  0.04809000  1.0
  C  C100  1  0.08048000  0.65303000  0.54813000  1.0
  C  C101  1  0.58034000  0.45184000  0.15312000  1.0
  C  C102  1  0.58029000  0.04816000  0.34684000  1.0
  C  C103  1  0.08032000  0.84691000  0.95192000  1.0
  C  C104  1  0.18251000  0.35776000  0.49478000  1.0
  C  C105  1  0.68266000  0.50518000  0.85782000  1.0
  C  C106  1  0.68254000  0.99484000  0.64223000  1.0
  C  C107  1  0.18258000  0.14221000  0.00517000  1.0
  C  C108  1  0.81751000  0.64228000  0.50520000  1.0
  C  C109  1  0.31738000  0.49481000  0.14216000  1.0
  C  C110  1  0.31739000  0.00515000  0.35779000  1.0
  C  C111  1  0.81738000  0.85779000  0.99483000  1.0
  C  C112  1  0.56333000  0.56493000  0.37375000  1.0
  C  C113  1  0.06337000  0.62625000  0.06439000  1.0
  C  C114  1  0.06350000  0.87376000  0.43562000  1.0
  C  C115  1  0.56318000  0.93520000  0.12627000  1.0
  C  C116  1  0.43672000  0.43511000  0.62621000  1.0
  C  C117  1  0.93664000  0.37373000  0.93561000  1.0
  C  C118  1  0.93645000  0.12623000  0.56439000  1.0
  C  C119  1  0.43682000  0.06477000  0.87374000  1.0
  C  C120  1  0.73726000  0.55378000  0.33993000  1.0
  C  C121  1  0.23730000  0.66009000  0.05309000  1.0
  C  C122  1  0.23744000  0.83993000  0.44691000  1.0
  C  C123  1  0.73709000  0.94640000  0.16008000  1.0
  C  C124  1  0.26283000  0.44627000  0.66003000  1.0
  C  C125  1  0.76273000  0.33990000  0.94692000  1.0
  C  C126  1  0.76253000  0.16006000  0.55310000  1.0
  C  C127  1  0.26292000  0.05358000  0.83993000  1.0
  C  C128  1  0.01427000  0.49609000  0.34612000  1.0
  C  C129  1  0.51452000  0.65385000  0.99560000  1.0
  C  C130  1  0.51449000  0.84615000  0.50449000  1.0
  C  C131  1  0.01413000  0.00405000  0.15387000  1.0
  C  C132  1  0.98577000  0.50393000  0.65382000  1.0
  C  C133  1  0.48552000  0.34614000  0.00441000  1.0
  C  C134  1  0.48548000  0.15386000  0.49552000  1.0
  C  C135  1  0.98587000  0.99594000  0.84615000  1.0
  C  C136  1  0.96823000  0.57192000  0.25717000  1.0
  C  C137  1  0.46830000  0.74284000  0.07108000  1.0
  C  C138  1  0.46866000  0.75726000  0.42888000  1.0
  C  C139  1  0.96805000  0.92825000  0.24284000  1.0
  C  C140  1  0.03187000  0.42813000  0.74279000  1.0
  C  C141  1  0.53172000  0.25715000  0.92893000  1.0
  C  C142  1  0.53133000  0.24275000  0.57112000  1.0
  C  C143  1  0.03198000  0.07173000  0.75717000  1.0
  C  C144  1  0.08055000  0.52609000  0.28911000  1.0
  C  C145  1  0.58081000  0.71087000  0.02545000  1.0
  C  C146  1  0.58094000  0.78917000  0.47459000  1.0
  C  C147  1  0.08042000  0.97406000  0.21089000  1.0
  C  C148  1  0.91951000  0.47395000  0.71085000  1.0
  C  C149  1  0.41923000  0.28912000  0.97455000  1.0
  C  C150  1  0.41907000  0.21084000  0.52541000  1.0
  C  C151  1  0.91959000  0.02594000  0.78912000  1.0
  C  C152  1  0.46935000  0.35181000  0.37489000  1.0
  C  C153  1  0.96971000  0.62537000  0.85131000  1.0
  C  C154  1  0.96966000  0.87462000  0.64867000  1.0
  C  C155  1  0.46951000  0.14854000  0.12506000  1.0
  C  C156  1  0.53065000  0.64821000  0.62509000  1.0
  C  C157  1  0.03031000  0.37461000  0.14870000  1.0
  C  C158  1  0.03026000  0.12536000  0.35134000  1.0
  C  C159  1  0.53045000  0.85145000  0.87495000  1.0
  C  C160  1  0.75368000  0.32352000  0.41826000  1.0
  C  C161  1  0.25381000  0.58173000  0.82324000  1.0
  C  C162  1  0.25380000  0.91818000  0.67678000  1.0
  C  C163  1  0.75389000  0.17667000  0.08165000  1.0
  C  C164  1  0.24632000  0.67651000  0.58172000  1.0
  C  C165  1  0.74621000  0.41826000  0.17677000  1.0
  C  C166  1  0.74613000  0.08179000  0.32323000  1.0
  C  C167  1  0.24609000  0.82334000  0.91836000  1.0
  C  C168  1  0.79331000  0.58571000  0.28236000  1.0
  C  C169  1  0.29326000  0.71768000  0.08481000  1.0
  C  C170  1  0.29363000  0.78241000  0.41510000  1.0
  C  C171  1  0.79312000  0.91449000  0.21766000  1.0
  C  C172  1  0.20680000  0.41435000  0.71760000  1.0
  C  C173  1  0.70678000  0.28229000  0.91519000  1.0
  C  C174  1  0.70636000  0.21759000  0.58491000  1.0
  C  C175  1  0.20691000  0.08549000  0.78235000  1.0
  C  C176  1  0.43926000  0.28814000  0.35145000  1.0
  C  C177  1  0.93935000  0.64852000  0.78751000  1.0
  C  C178  1  0.93938000  0.85134000  0.71243000  1.0
  C  C179  1  0.43971000  0.21223000  0.14849000  1.0
  C  C180  1  0.56075000  0.71187000  0.64855000  1.0
  C  C181  1  0.06067000  0.35146000  0.21249000  1.0
  C  C182  1  0.06053000  0.14865000  0.28759000  1.0
  C  C183  1  0.56023000  0.78776000  0.85153000  1.0
  C  C184  1  0.73456000  0.25826000  0.39692000  1.0
  C  C185  1  0.23436000  0.60275000  0.75785000  1.0
  C  C186  1  0.23444000  0.89702000  0.74213000  1.0
  C  C187  1  0.73505000  0.24195000  0.10296000  1.0
  C  C188  1  0.26546000  0.74176000  0.60309000  1.0
  C  C189  1  0.76568000  0.39723000  0.24216000  1.0
  C  C190  1  0.76548000  0.10296000  0.25789000  1.0
  C  C191  1  0.26491000  0.75805000  0.89706000  1.0
  C  C192  1  0.57527000  0.24074000  0.36271000  1.0
  C  C193  1  0.07504000  0.63693000  0.74016000  1.0
  C  C194  1  0.07512000  0.86282000  0.75978000  1.0
  C  C195  1  0.57589000  0.25956000  0.13719000  1.0
  C  C196  1  0.42474000  0.75927000  0.63731000  1.0
  C  C197  1  0.92499000  0.36304000  0.25984000  1.0
  C  C198  1  0.92478000  0.13717000  0.24024000  1.0
  C  C199  1  0.42406000  0.74044000  0.86283000  1.0
  N  N200  1  0.36851000  0.55181000  0.45318000  1.0
  N  N201  1  0.86855000  0.54677000  0.05165000  1.0
  N  N202  1  0.86862000  0.95324000  0.44837000  1.0
  N  N203  1  0.36841000  0.94825000  0.04683000  1.0
  N  N204  1  0.63152000  0.44823000  0.54677000  1.0
  N  N205  1  0.13149000  0.45321000  0.94835000  1.0
  N  N206  1  0.13132000  0.04675000  0.55164000  1.0
  N  N207  1  0.63157000  0.05174000  0.95319000  1.0
  N  N208  1  0.93863000  0.41098000  0.46949000  1.0
  N  N209  1  0.43877000  0.53056000  0.91091000  1.0
  N  N210  1  0.43868000  0.96945000  0.58916000  1.0
  N  N211  1  0.93851000  0.08910000  0.03045000  1.0
  N  N212  1  0.06142000  0.58906000  0.53047000  1.0
  N  N213  1  0.56127000  0.46943000  0.08910000  1.0
  N  N214  1  0.56127000  0.03053000  0.41085000  1.0
  N  N215  1  0.06146000  0.91090000  0.96957000  1.0
  N  N216  1  0.07209000  0.31162000  0.46719000  1.0
  N  N217  1  0.57222000  0.53273000  0.81159000  1.0
  N  N218  1  0.57220000  0.96723000  0.68846000  1.0
  N  N219  1  0.07233000  0.18841000  0.03275000  1.0
  N  N220  1  0.92792000  0.68841000  0.53280000  1.0
  N  N221  1  0.42780000  0.46726000  0.18841000  1.0
  N  N222  1  0.42774000  0.03274000  0.31156000  1.0
  N  N223  1  0.92763000  0.81160000  0.96725000  1.0
  N  N224  1  0.42322000  0.60617000  0.35857000  1.0
  N  N225  1  0.92351000  0.64142000  0.10566000  1.0
  N  N226  1  0.92364000  0.85860000  0.39436000  1.0
  N  N227  1  0.42309000  0.89396000  0.14149000  1.0
  N  N228  1  0.57681000  0.39386000  0.64138000  1.0
  N  N229  1  0.07648000  0.35858000  0.89431000  1.0
  N  N230  1  0.07633000  0.14139000  0.60565000  1.0
  N  N231  1  0.57691000  0.10602000  0.85853000  1.0
  N  N232  1  0.53351000  0.53180000  0.43039000  1.0
  N  N233  1  0.03345000  0.56960000  0.03146000  1.0
  N  N234  1  0.03351000  0.93040000  0.46854000  1.0
  N  N235  1  0.53339000  0.96829000  0.06961000  1.0
  N  N236  1  0.46653000  0.46824000  0.56957000  1.0
  N  N237  1  0.96660000  0.43038000  0.96854000  1.0
  N  N238  1  0.96642000  0.06957000  0.53148000  1.0
  N  N239  1  0.46660000  0.03170000  0.93041000  1.0
  N  N240  1  0.10751000  0.41836000  0.49705000  1.0
  N  N241  1  0.60767000  0.50298000  0.91840000  1.0
  N  N242  1  0.60751000  0.99707000  0.58166000  1.0
  N  N243  1  0.10739000  0.08164000  0.00289000  1.0
  N  N244  1  0.89254000  0.58167000  0.50291000  1.0
  N  N245  1  0.39237000  0.49700000  0.08159000  1.0
  N  N246  1  0.39243000  0.00292000  0.41835000  1.0
  N  N247  1  0.89258000  0.91836000  0.99712000  1.0
  N  N248  1  0.84779000  0.50971000  0.37103000  1.0
  N  N249  1  0.34796000  0.62894000  0.00922000  1.0
  N  N250  1  0.34792000  0.87103000  0.49085000  1.0
  N  N251  1  0.84764000  0.99044000  0.12896000  1.0
  N  N252  1  0.15227000  0.49032000  0.62892000  1.0
  N  N253  1  0.65209000  0.37105000  0.99080000  1.0
  N  N254  1  0.65204000  0.12897000  0.50917000  1.0
  N  N255  1  0.15236000  0.00954000  0.87106000  1.0
  N  N256  1  0.62212000  0.36956000  0.40716000  1.0
  N  N257  1  0.12248000  0.59310000  0.86923000  1.0
  N  N258  1  0.12241000  0.90692000  0.63079000  1.0
  N  N259  1  0.62215000  0.13069000  0.09276000  1.0
  N  N260  1  0.37790000  0.63047000  0.59281000  1.0
  N  N261  1  0.87755000  0.40689000  0.13077000  1.0
  N  N262  1  0.87752000  0.09306000  0.36922000  1.0
  N  N263  1  0.37781000  0.86931000  0.90725000  1.0
