# generated using pymatgen
data_ZnH12C6(NCl)2
_symmetry_space_group_name_H-M   'P 1'
_cell_length_a   6.48997000
_cell_length_b   11.58430000
_cell_length_c   11.59010000
_cell_angle_alpha   90.00000000
_cell_angle_beta   90.00000000
_cell_angle_gamma   90.00000000
_symmetry_Int_Tables_number   1
_chemical_formula_structural   ZnH12C6(NCl)2
_chemical_formula_sum   'Zn4 H48 C24 N8 Cl8'
_cell_volume   871.36411044
_cell_formula_units_Z   4
loop_
 _symmetry_equiv_pos_site_id
 _symmetry_equiv_pos_as_xyz
  1  'x, y, z'
loop_
 _atom_site_type_symbol
 _atom_site_label
 _atom_site_symmetry_multiplicity
 _atom_site_fract_x
 _atom_site_fract_y
 _atom_site_fract_z
 _atom_site_occupancy
  Zn  Zn0  1  0.02526000  0.22802000  0.25000000  1.0
  Zn  Zn1  1  0.47474000  0.72802000  0.25000000  1.0
  Zn  Zn2  1  0.52526000  0.27198000  0.75000000  1.0
  Zn  Zn3  1  0.97474000  0.77198000  0.75000000  1.0
  H  H4  1  0.81007000  0.07649000  0.43033000  1.0
  H  H5  1  0.81007000  0.07649000  0.06967000  1.0
  H  H6  1  0.68993000  0.57649000  0.43033000  1.0
  H  H7  1  0.31007000  0.42351000  0.93033000  1.0
  H  H8  1  0.18993000  0.92351000  0.56967000  1.0
  H  H9  1  0.18994000  0.92351000  0.93033000  1.0
  H  H10  1  0.31007000  0.42351000  0.56967000  1.0
  H  H11  1  0.68994000  0.57649000  0.06967000  1.0
  H  H12  1  0.60139000  0.14147000  0.35626000  1.0
  H  H13  1  0.60139000  0.14147000  0.14374000  1.0
  H  H14  1  0.89861000  0.64147000  0.35626000  1.0
  H  H15  1  0.10139000  0.35853000  0.85626000  1.0
  H  H16  1  0.39861000  0.85853000  0.64374000  1.0
  H  H17  1  0.39861000  0.85853000  0.85626000  1.0
  H  H18  1  0.10139000  0.35853000  0.64374000  1.0
  H  H19  1  0.89861000  0.64147000  0.14374000  1.0
  H  H20  1  0.42172000  0.96948000  0.35342000  1.0
  H  H21  1  0.42172000  0.96948000  0.14658000  1.0
  H  H22  1  0.07828000  0.46948000  0.35342000  1.0
  H  H23  1  0.92172000  0.53052000  0.85342000  1.0
  H  H24  1  0.57828000  0.03052000  0.64658000  1.0
  H  H25  1  0.57828000  0.03052000  0.85342000  1.0
  H  H26  1  0.92172000  0.53052000  0.64658000  1.0
  H  H27  1  0.07828000  0.46948000  0.14658000  1.0
  H  H28  1  0.62337000  0.90082000  0.43058000  1.0
  H  H29  1  0.62337000  0.90082000  0.06942000  1.0
  H  H30  1  0.87663000  0.40082000  0.43058000  1.0
  H  H31  1  0.12337000  0.59918000  0.93058000  1.0
  H  H32  1  0.37663000  0.09918000  0.56942000  1.0
  H  H33  1  0.37663000  0.09918000  0.93058000  1.0
  H  H34  1  0.12337000  0.59918000  0.56942000  1.0
  H  H35  1  0.87663000  0.40082000  0.06942000  1.0
  H  H36  1  0.90628000  0.81296000  0.32710000  1.0
  H  H37  1  0.90628000  0.81296000  0.17290000  1.0
  H  H38  1  0.59372000  0.31296000  0.32710000  1.0
  H  H39  1  0.40628000  0.68704000  0.82710000  1.0
  H  H40  1  0.09372000  0.18704000  0.67290000  1.0
  H  H41  1  0.09372000  0.18704000  0.82710000  1.0
  H  H42  1  0.40628000  0.68704000  0.67290000  1.0
  H  H43  1  0.59372000  0.31296000  0.17290000  1.0
  H  H44  1  0.08431000  0.98669000  0.17316000  1.0
  H  H45  1  0.08431000  0.98669000  0.32684000  1.0
  H  H46  1  0.41569000  0.48669000  0.17316000  1.0
  H  H47  1  0.58431000  0.51331000  0.67316000  1.0
  H  H48  1  0.91569000  0.01331000  0.82684000  1.0
  H  H49  1  0.91569000  0.01331000  0.67316000  1.0
  H  H50  1  0.58431000  0.51331000  0.82684000  1.0
  H  H51  1  0.41569000  0.48669000  0.32684000  1.0
  C  C52  1  0.70878000  0.06852000  0.35493000  1.0
  C  C53  1  0.70878000  0.06852000  0.14507000  1.0
  C  C54  1  0.79122000  0.56852000  0.35493000  1.0
  C  C55  1  0.20878000  0.43148000  0.85493000  1.0
  C  C56  1  0.29122000  0.93148000  0.64507000  1.0
  C  C57  1  0.29122000  0.93148000  0.85493000  1.0
  C  C58  1  0.20878000  0.43148000  0.64507000  1.0
  C  C59  1  0.79122000  0.56852000  0.14507000  1.0
  C  C60  1  0.58821000  0.95354000  0.35460000  1.0
  C  C61  1  0.58821000  0.95354000  0.14540000  1.0
  C  C62  1  0.91179000  0.45354000  0.35460000  1.0
  C  C63  1  0.08821000  0.54646000  0.85460000  1.0
  C  C64  1  0.41179000  0.04646000  0.64540000  1.0
  C  C65  1  0.41179000  0.04646000  0.85460000  1.0
  C  C66  1  0.08821000  0.54646000  0.64540000  1.0
  C  C67  1  0.91179000  0.45354000  0.14540000  1.0
  C  C68  1  0.86744000  0.86320000  0.25000000  1.0
  C  C69  1  0.63256000  0.36320000  0.25000000  1.0
  C  C70  1  0.36744000  0.63680000  0.75000000  1.0
  C  C71  1  0.13256000  0.13680000  0.75000000  1.0
  C  C72  1  0.98659000  0.97852000  0.25000000  1.0
  C  C73  1  0.51341000  0.47852000  0.25000000  1.0
  C  C74  1  0.48659000  0.52148000  0.75000000  1.0
  C  C75  1  0.01341000  0.02148000  0.75000000  1.0
  N  N76  1  0.84045000  0.07776000  0.25000000  1.0
  N  N77  1  0.65955000  0.57776000  0.25000000  1.0
  N  N78  1  0.34045000  0.42224000  0.75000000  1.0
  N  N79  1  0.15955000  0.92224000  0.75000000  1.0
  N  N80  1  0.64076000  0.88444000  0.25000000  1.0
  N  N81  1  0.85924000  0.38444000  0.25000000  1.0
  N  N82  1  0.14076000  0.61556000  0.75000000  1.0
  N  N83  1  0.35924000  0.11556000  0.75000000  1.0
  Cl  Cl84  1  0.20936000  0.21628000  0.41286000  1.0
  Cl  Cl85  1  0.20936000  0.21628000  0.08714000  1.0
  Cl  Cl86  1  0.29064000  0.71628000  0.41286000  1.0
  Cl  Cl87  1  0.70936000  0.28372000  0.91286000  1.0
  Cl  Cl88  1  0.79064000  0.78372000  0.58714000  1.0
  Cl  Cl89  1  0.79064000  0.78372000  0.91286000  1.0
  Cl  Cl90  1  0.70936000  0.28372000  0.58714000  1.0
  Cl  Cl91  1  0.29064000  0.71628000  0.08714000  1.0
