# generated using pymatgen
data_MgH6C5(NO3)2
_symmetry_space_group_name_H-M   'P 1'
_cell_length_a   7.74083000
_cell_length_b   7.74081000
_cell_length_c   13.60000000
_cell_angle_alpha   89.12800000
_cell_angle_beta   89.12810000
_cell_angle_gamma   76.65790000
_symmetry_Int_Tables_number   1
_chemical_formula_structural   MgH6C5(NO3)2
_chemical_formula_sum   'Mg4 H24 C20 N8 O24'
_cell_volume   792.77186072
_cell_formula_units_Z   4
loop_
 _symmetry_equiv_pos_site_id
 _symmetry_equiv_pos_as_xyz
  1  'x, y, z'
loop_
 _atom_site_type_symbol
 _atom_site_label
 _atom_site_symmetry_multiplicity
 _atom_site_fract_x
 _atom_site_fract_y
 _atom_site_fract_z
 _atom_site_occupancy
  Mg  Mg0  1  0.41070000  0.07036000  0.60689000  1.0
  Mg  Mg1  1  0.92964000  0.58930000  0.89310000  1.0
  Mg  Mg2  1  0.58930000  0.92965000  0.39310000  1.0
  Mg  Mg3  1  0.07036000  0.41070000  0.10690000  1.0
  H  H4  1  0.55869000  0.74411000  0.75581000  1.0
  H  H5  1  0.25589000  0.44131000  0.74419000  1.0
  H  H6  1  0.44133000  0.25590000  0.24419000  1.0
  H  H7  1  0.74412000  0.55868000  0.25581000  1.0
  H  H8  1  0.08837000  0.00542000  0.58421000  1.0
  H  H9  1  0.99457000  0.91162000  0.91579000  1.0
  H  H10  1  0.91163000  0.99458000  0.41579000  1.0
  H  H11  1  0.00542000  0.08837000  0.08421000  1.0
  H  H12  1  0.30638000  0.87256000  0.03543000  1.0
  H  H13  1  0.12744000  0.69362000  0.46457000  1.0
  H  H14  1  0.69361000  0.12743000  0.96456000  1.0
  H  H15  1  0.87256000  0.30639000  0.53544000  1.0
  H  H16  1  0.13202000  0.07914000  0.47748000  1.0
  H  H17  1  0.92085000  0.86798000  0.02252000  1.0
  H  H18  1  0.86798000  0.92086000  0.52253000  1.0
  H  H19  1  0.07914000  0.13202000  0.97748000  1.0
  H  H20  1  0.60021000  0.16667000  0.75152000  1.0
  H  H21  1  0.83332000  0.39979000  0.74848000  1.0
  H  H22  1  0.39979000  0.83333000  0.24848000  1.0
  H  H23  1  0.16668000  0.60020000  0.25152000  1.0
  H  H24  1  0.74805000  0.02451000  0.68837000  1.0
  H  H25  1  0.97550000  0.25194000  0.81163000  1.0
  H  H26  1  0.25194000  0.97549000  0.31163000  1.0
  H  H27  1  0.02451000  0.74806000  0.18837000  1.0
  C  C28  1  0.39881000  0.82044000  0.97671000  1.0
  C  C29  1  0.17957000  0.60121000  0.52329000  1.0
  C  C30  1  0.60121000  0.17957000  0.02329000  1.0
  C  C31  1  0.82044000  0.39880000  0.47671000  1.0
  C  C32  1  0.24547000  0.98397000  0.81738000  1.0
  C  C33  1  0.01602000  0.75452000  0.68261000  1.0
  C  C34  1  0.75451000  0.01603000  0.18262000  1.0
  C  C35  1  0.98398000  0.24548000  0.31738000  1.0
  C  C36  1  0.67844000  0.62703000  0.06971000  1.0
  C  C37  1  0.37297000  0.32157000  0.43028000  1.0
  C  C38  1  0.32156000  0.37296000  0.93028000  1.0
  C  C39  1  0.62703000  0.67844000  0.56972000  1.0
  C  C40  1  0.56753000  0.70545000  0.98480000  1.0
  C  C41  1  0.29454000  0.43247000  0.51519000  1.0
  C  C42  1  0.43248000  0.29454000  0.01519000  1.0
  C  C43  1  0.70547000  0.56753000  0.48481000  1.0
  C  C44  1  0.37886000  0.85823000  0.87603000  1.0
  C  C45  1  0.14176000  0.62114000  0.62396000  1.0
  C  C46  1  0.62113000  0.14176000  0.12397000  1.0
  C  C47  1  0.85824000  0.37887000  0.37603000  1.0
  N  N48  1  0.52968000  0.76576000  0.83082000  1.0
  N  N49  1  0.23423000  0.47031000  0.66918000  1.0
  N  N50  1  0.47031000  0.23424000  0.16918000  1.0
  N  N51  1  0.76577000  0.52969000  0.33082000  1.0
  N  N52  1  0.64351000  0.67422000  0.89456000  1.0
  N  N53  1  0.32577000  0.35649000  0.60544000  1.0
  N  N54  1  0.35649000  0.32578000  0.10544000  1.0
  N  N55  1  0.67423000  0.64352000  0.39456000  1.0
  O  O56  1  0.28296000  0.00847000  0.72875000  1.0
  O  O57  1  0.99153000  0.71702000  0.77125000  1.0
  O  O58  1  0.71704000  0.99152000  0.27126000  1.0
  O  O59  1  0.00848000  0.28297000  0.22875000  1.0
  O  O60  1  0.83756000  0.54168000  0.04502000  1.0
  O  O61  1  0.45832000  0.16244000  0.45498000  1.0
  O  O62  1  0.16244000  0.45831000  0.95498000  1.0
  O  O63  1  0.54168000  0.83756000  0.54502000  1.0
  O  O64  1  0.62373000  0.09862000  0.69101000  1.0
  O  O65  1  0.90138000  0.37626000  0.80898000  1.0
  O  O66  1  0.37627000  0.90139000  0.30899000  1.0
  O  O67  1  0.09862000  0.62374000  0.19101000  1.0
  O  O68  1  0.17036000  0.06348000  0.54686000  1.0
  O  O69  1  0.93652000  0.82964000  0.95314000  1.0
  O  O70  1  0.82964000  0.93653000  0.45315000  1.0
  O  O71  1  0.06347000  0.17036000  0.04685000  1.0
  O  O72  1  0.09972000  0.06299000  0.85971000  1.0
  O  O73  1  0.93700000  0.90028000  0.64030000  1.0
  O  O74  1  0.90026000  0.93703000  0.14029000  1.0
  O  O75  1  0.06299000  0.09972000  0.35970000  1.0
  O  O76  1  0.61858000  0.64855000  0.15600000  1.0
  O  O77  1  0.35147000  0.38143000  0.34399000  1.0
  O  O78  1  0.38142000  0.35144000  0.84400000  1.0
  O  O79  1  0.64854000  0.61858000  0.65601000  1.0
