# generated using pymatgen
data_ZnH16(C8N9)2
_symmetry_space_group_name_H-M   'P 1'
_cell_length_a   8.35956000
_cell_length_b   8.51085000
_cell_length_c   15.40300000
_cell_angle_alpha   92.46010000
_cell_angle_beta   90.00000000
_cell_angle_gamma   90.00000000
_symmetry_Int_Tables_number   1
_chemical_formula_structural   ZnH16(C8N9)2
_chemical_formula_sum   'Zn2 H32 C32 N36'
_cell_volume   1094.86663484
_cell_formula_units_Z   2
loop_
 _symmetry_equiv_pos_site_id
 _symmetry_equiv_pos_as_xyz
  1  'x, y, z'
loop_
 _atom_site_type_symbol
 _atom_site_label
 _atom_site_symmetry_multiplicity
 _atom_site_fract_x
 _atom_site_fract_y
 _atom_site_fract_z
 _atom_site_occupancy
  Zn  Zn0  1  0.00000000  0.50000000  0.50000000  1.0
  Zn  Zn1  1  0.50000000  0.00000000  0.00000000  1.0
  H  H2  1  0.61802000  0.56590000  0.42795000  1.0
  H  H3  1  0.88198000  0.06591000  0.92796000  1.0
  H  H4  1  0.38198000  0.43409000  0.57205000  1.0
  H  H5  1  0.11802000  0.93409000  0.07204000  1.0
  H  H6  1  0.84411000  0.77783000  0.64769000  1.0
  H  H7  1  0.65590000  0.27783000  0.14769000  1.0
  H  H8  1  0.15589000  0.22217000  0.35231000  1.0
  H  H9  1  0.34410000  0.72217000  0.85231000  1.0
  H  H10  1  0.05975000  0.88108000  0.45262000  1.0
  H  H11  1  0.44025000  0.38108000  0.95263000  1.0
  H  H12  1  0.94025000  0.11892000  0.54738000  1.0
  H  H13  1  0.55975000  0.61892000  0.04738000  1.0
  H  H14  1  0.25927000  0.63177000  0.65641000  1.0
  H  H15  1  0.24073000  0.13177000  0.15642000  1.0
  H  H16  1  0.74073000  0.36823000  0.34359000  1.0
  H  H17  1  0.75927000  0.86823000  0.84359000  1.0
  H  H18  1  0.54319000  0.05203000  0.58071000  1.0
  H  H19  1  0.95681000  0.55203000  0.08071000  1.0
  H  H20  1  0.45681000  0.94797000  0.41929000  1.0
  H  H21  1  0.04319000  0.44797000  0.91929000  1.0
  H  H22  1  0.65104000  0.00143000  0.67533000  1.0
  H  H23  1  0.84896000  0.50144000  0.17533000  1.0
  H  H24  1  0.34896000  0.99857000  0.32467000  1.0
  H  H25  1  0.15104000  0.49856000  0.82467000  1.0
  H  H26  1  0.42105000  0.84427000  0.72593000  1.0
  H  H27  1  0.07895000  0.34427000  0.22593000  1.0
  H  H28  1  0.57895000  0.15573000  0.27407000  1.0
  H  H29  1  0.92105000  0.65573000  0.77407000  1.0
  H  H30  1  0.36201000  0.04223000  0.70737000  1.0
  H  H31  1  0.13799000  0.54223000  0.20737000  1.0
  H  H32  1  0.63799000  0.95777000  0.29263000  1.0
  H  H33  1  0.86201000  0.45777000  0.79263000  1.0
  C  C34  1  0.64394000  0.64103000  0.48487000  1.0
  C  C35  1  0.85606000  0.14103000  0.98487000  1.0
  C  C36  1  0.35606000  0.35897000  0.51513000  1.0
  C  C37  1  0.14394000  0.85897000  0.01513000  1.0
  C  C38  1  0.76093000  0.74415000  0.59594000  1.0
  C  C39  1  0.73907000  0.24416000  0.09595000  1.0
  C  C40  1  0.23907000  0.25584000  0.40406000  1.0
  C  C41  1  0.26093000  0.75584000  0.90405000  1.0
  C  C42  1  0.12916000  0.85158000  0.50902000  1.0
  C  C43  1  0.37084000  0.35158000  0.00902000  1.0
  C  C44  1  0.87084000  0.14842000  0.49098000  1.0
  C  C45  1  0.62916000  0.64842000  0.99098000  1.0
  C  C46  1  0.22524000  0.72124000  0.61170000  1.0
  C  C47  1  0.27476000  0.22124000  0.11170000  1.0
  C  C48  1  0.77476000  0.27876000  0.38830000  1.0
  C  C49  1  0.72524000  0.77876000  0.88830000  1.0
  C  C50  1  0.55994000  0.96080000  0.62828000  1.0
  C  C51  1  0.94006000  0.46081000  0.12828000  1.0
  C  C52  1  0.44006000  0.03920000  0.37172000  1.0
  C  C53  1  0.05994000  0.53919000  0.87172000  1.0
  C  C54  1  0.40360000  0.93127000  0.67643000  1.0
  C  C55  1  0.09640000  0.43127000  0.17643000  1.0
  C  C56  1  0.59640000  0.06873000  0.32357000  1.0
  C  C57  1  0.90360000  0.56873000  0.82357000  1.0
  C  C58  1  0.94711000  0.69222000  0.32389000  1.0
  C  C59  1  0.55289000  0.19222000  0.82389000  1.0
  C  C60  1  0.05289000  0.30777000  0.67611000  1.0
  C  C61  1  0.44710000  0.80778000  0.17611000  1.0
  C  C62  1  0.99208000  0.92537000  0.25862000  1.0
  C  C63  1  0.50791000  0.42537000  0.75862000  1.0
  C  C64  1  0.00791000  0.07463000  0.74139000  1.0
  C  C65  1  0.49209000  0.57463000  0.24139000  1.0
  N  N66  1  0.62253000  0.82033000  0.58283000  1.0
  N  N67  1  0.87747000  0.32034000  0.08283000  1.0
  N  N68  1  0.37747000  0.17967000  0.41717000  1.0
  N  N69  1  0.12254000  0.67967000  0.91717000  1.0
  N  N70  1  0.54609000  0.75586000  0.51165000  1.0
  N  N71  1  0.95391000  0.25587000  0.01165000  1.0
  N  N72  1  0.45391000  0.24414000  0.48835000  1.0
  N  N73  1  0.04609000  0.74413000  0.98835000  1.0
  N  N74  1  0.77813000  0.62919000  0.53473000  1.0
  N  N75  1  0.72186000  0.12919000  0.03473000  1.0
  N  N76  1  0.22187000  0.37081000  0.46527000  1.0
  N  N77  1  0.27814000  0.87081000  0.96527000  1.0
  N  N78  1  0.27956000  0.86969000  0.61829000  1.0
  N  N79  1  0.22044000  0.36969000  0.11829000  1.0
  N  N80  1  0.72044000  0.13031000  0.38171000  1.0
  N  N81  1  0.77956000  0.63031000  0.88171000  1.0
  N  N82  1  0.21918000  0.95555000  0.55331000  1.0
  N  N83  1  0.28082000  0.45555000  0.05331000  1.0
  N  N84  1  0.78081000  0.04445000  0.44669000  1.0
  N  N85  1  0.71918000  0.54445000  0.94669000  1.0
  N  N86  1  0.12880000  0.70593000  0.54274000  1.0
  N  N87  1  0.37120000  0.20593000  0.04274000  1.0
  N  N88  1  0.87120000  0.29407000  0.45726000  1.0
  N  N89  1  0.62880000  0.79407000  0.95726000  1.0
  N  N90  1  0.97023000  0.58762000  0.37035000  1.0
  N  N91  1  0.52977000  0.08763000  0.87035000  1.0
  N  N92  1  0.02977000  0.41237000  0.62965000  1.0
  N  N93  1  0.47022000  0.91237000  0.12965000  1.0
  N  N94  1  0.91159000  0.79649000  0.26847000  1.0
  N  N95  1  0.58842000  0.29649000  0.76847000  1.0
  N  N96  1  0.08841000  0.20351000  0.73153000  1.0
  N  N97  1  0.41158000  0.70351000  0.23153000  1.0
  N  N98  1  0.05590000  0.04589000  0.24503000  1.0
  N  N99  1  0.44410000  0.54589000  0.74503000  1.0
  N  N100  1  0.94410000  0.95411000  0.75497000  1.0
  N  N101  1  0.55591000  0.45411000  0.25497000  1.0
