# generated using pymatgen
data_ZnH8C9N3O5
_symmetry_space_group_name_H-M   'P 1'
_cell_length_a   7.19754000
_cell_length_b   10.69950000
_cell_length_c   14.80400000
_cell_angle_alpha   90.00000000
_cell_angle_beta   90.00000000
_cell_angle_gamma   100.90300000
_symmetry_Int_Tables_number   1
_chemical_formula_structural   ZnH8C9N3O5
_chemical_formula_sum   'Zn4 H32 C36 N12 O20'
_cell_volume   1119.47782394
_cell_formula_units_Z   4
loop_
 _symmetry_equiv_pos_site_id
 _symmetry_equiv_pos_as_xyz
  1  'x, y, z'
loop_
 _atom_site_type_symbol
 _atom_site_label
 _atom_site_symmetry_multiplicity
 _atom_site_fract_x
 _atom_site_fract_y
 _atom_site_fract_z
 _atom_site_occupancy
  Zn  Zn0  1  0.51340000  0.96549000  0.69286000  1.0
  Zn  Zn1  1  0.48660000  0.53451000  0.19286000  1.0
  Zn  Zn2  1  0.48660000  0.03451000  0.30714000  1.0
  Zn  Zn3  1  0.51340000  0.46549000  0.80714000  1.0
  H  H4  1  0.63947000  0.85186000  0.56134000  1.0
  H  H5  1  0.36053000  0.64814000  0.06133000  1.0
  H  H6  1  0.36053000  0.14814000  0.43867000  1.0
  H  H7  1  0.63947000  0.35186000  0.93866000  1.0
  H  H8  1  0.55693000  0.73870000  0.63451000  1.0
  H  H9  1  0.44308000  0.76130000  0.13451000  1.0
  H  H10  1  0.44308000  0.26130000  0.36549000  1.0
  H  H11  1  0.55692000  0.23869000  0.86549000  1.0
  H  H12  1  0.89367000  0.28419000  0.43374000  1.0
  H  H13  1  0.10634000  0.21581000  0.93374000  1.0
  H  H14  1  0.10633000  0.71581000  0.56626000  1.0
  H  H15  1  0.89366000  0.78419000  0.06626000  1.0
  H  H16  1  0.00716000  0.53082000  0.66707000  1.0
  H  H17  1  0.99283000  0.96918000  0.16707000  1.0
  H  H18  1  0.99284000  0.46918000  0.33293000  1.0
  H  H19  1  0.00717000  0.03083000  0.83293000  1.0
  H  H20  1  0.62207000  0.20072000  0.55244000  1.0
  H  H21  1  0.37793000  0.29928000  0.05243000  1.0
  H  H22  1  0.37794000  0.79928000  0.44757000  1.0
  H  H23  1  0.62206000  0.70072000  0.94756000  1.0
  H  H24  1  0.10921000  0.30657000  0.71674000  1.0
  H  H25  1  0.89080000  0.19342000  0.21674000  1.0
  H  H26  1  0.89080000  0.69342000  0.28326000  1.0
  H  H27  1  0.10920000  0.80658000  0.78326000  1.0
  H  H28  1  0.92422000  0.91523000  0.58186000  1.0
  H  H29  1  0.07578000  0.58478000  0.08186000  1.0
  H  H30  1  0.07577000  0.08478000  0.41814000  1.0
  H  H31  1  0.92422000  0.41523000  0.91814000  1.0
  H  H32  1  0.43893000  0.85502000  0.98564000  1.0
  H  H33  1  0.56106000  0.64497000  0.48564000  1.0
  H  H34  1  0.56107000  0.14497000  0.01436000  1.0
  H  H35  1  0.43892000  0.35502000  0.51436000  1.0
  C  C36  1  0.94815000  0.39678000  0.55612000  1.0
  C  C37  1  0.05186000  0.10322000  0.05611000  1.0
  C  C38  1  0.05186000  0.60322000  0.44388000  1.0
  C  C39  1  0.94814000  0.89678000  0.94388000  1.0
  C  C40  1  0.93895000  0.37881000  0.46258000  1.0
  C  C41  1  0.06106000  0.12119000  0.96258000  1.0
  C  C42  1  0.06106000  0.62118000  0.53742000  1.0
  C  C43  1  0.93894000  0.87882000  0.03742000  1.0
  C  C44  1  0.00860000  0.51689000  0.59418000  1.0
  C  C45  1  0.99140000  0.98311000  0.09418000  1.0
  C  C46  1  0.99141000  0.48310000  0.40582000  1.0
  C  C47  1  0.00860000  0.01690000  0.90582000  1.0
  C  C48  1  0.72876000  0.20112000  0.60384000  1.0
  C  C49  1  0.27124000  0.29888000  0.10384000  1.0
  C  C50  1  0.27124000  0.79888000  0.39616000  1.0
  C  C51  1  0.72876000  0.70112000  0.89616000  1.0
  C  C52  1  0.97640000  0.25443000  0.69007000  1.0
  C  C53  1  0.02362000  0.24556000  0.19007000  1.0
  C  C54  1  0.02361000  0.74556000  0.30993000  1.0
  C  C55  1  0.97638000  0.75444000  0.80993000  1.0
  C  C56  1  0.02534000  0.97875000  0.53996000  1.0
  C  C57  1  0.97466000  0.52126000  0.03995000  1.0
  C  C58  1  0.97466000  0.02126000  0.46005000  1.0
  C  C59  1  0.02534000  0.47875000  0.96004000  1.0
  C  C60  1  0.22099000  0.01138000  0.57657000  1.0
  C  C61  1  0.77901000  0.48863000  0.07657000  1.0
  C  C62  1  0.77901000  0.98863000  0.42343000  1.0
  C  C63  1  0.22099000  0.51138000  0.92343000  1.0
  C  C64  1  0.47518000  0.95565000  0.96809000  1.0
  C  C65  1  0.52480000  0.54434000  0.46809000  1.0
  C  C66  1  0.52481000  0.04434000  0.03191000  1.0
  C  C67  1  0.47518000  0.45565000  0.53191000  1.0
  C  C68  1  0.47268000  0.98623000  0.87045000  1.0
  C  C69  1  0.52731000  0.51377000  0.37045000  1.0
  C  C70  1  0.52731000  0.01377000  0.12955000  1.0
  C  C71  1  0.47268000  0.48623000  0.62955000  1.0
  N  N72  1  0.71960000  0.11668000  0.66937000  1.0
  N  N73  1  0.28041000  0.38332000  0.16937000  1.0
  N  N74  1  0.28041000  0.88332000  0.33063000  1.0
  N  N75  1  0.71959000  0.61668000  0.83063000  1.0
  N  N76  1  0.87653000  0.14924000  0.72410000  1.0
  N  N77  1  0.12348000  0.35076000  0.22410000  1.0
  N  N78  1  0.12348000  0.85076000  0.27590000  1.0
  N  N79  1  0.87652000  0.64924000  0.77590000  1.0
  N  N80  1  0.88916000  0.28995000  0.61398000  1.0
  N  N81  1  0.11085000  0.21005000  0.11398000  1.0
  N  N82  1  0.11085000  0.71005000  0.38602000  1.0
  N  N83  1  0.88915000  0.78995000  0.88602000  1.0
  O  O84  1  0.25123000  0.94521000  0.64621000  1.0
  O  O85  1  0.74878000  0.55479000  0.14622000  1.0
  O  O86  1  0.74877000  0.05479000  0.35379000  1.0
  O  O87  1  0.25122000  0.44521000  0.85379000  1.0
  O  O88  1  0.34562000  0.09546000  0.54064000  1.0
  O  O89  1  0.65438000  0.40455000  0.04064000  1.0
  O  O90  1  0.65438000  0.90455000  0.45936000  1.0
  O  O91  1  0.34562000  0.59545000  0.95936000  1.0
  O  O92  1  0.48344000  0.89233000  0.81683000  1.0
  O  O93  1  0.51655000  0.60766000  0.31683000  1.0
  O  O94  1  0.51655000  0.10766000  0.18317000  1.0
  O  O95  1  0.48343000  0.39233000  0.68317000  1.0
  O  O96  1  0.46175000  0.09551000  0.84176000  1.0
  O  O97  1  0.53825000  0.40448000  0.34175000  1.0
  O  O98  1  0.53826000  0.90448000  0.15825000  1.0
  O  O99  1  0.46175000  0.59551000  0.65824000  1.0
  O  O100  1  0.62165000  0.83018000  0.62733000  1.0
  O  O101  1  0.37835000  0.66982000  0.12733000  1.0
  O  O102  1  0.37836000  0.16981000  0.37267000  1.0
  O  O103  1  0.62164000  0.33018000  0.87267000  1.0
