# generated using pymatgen
data_Zn2H17C38I4N2O8F
_symmetry_space_group_name_H-M   'P 1'
_cell_length_a   10.79220000
_cell_length_b   11.64510143
_cell_length_c   13.54100000
_cell_angle_alpha   96.26689273
_cell_angle_beta   108.65130000
_cell_angle_gamma   106.14660774
_symmetry_Int_Tables_number   1
_chemical_formula_structural   Zn2H17C38I4N2O8F
_chemical_formula_sum   'Zn2 H17 C38 I4 N2 O8 F1'
_cell_volume   1511.67019055
_cell_formula_units_Z   1
loop_
 _symmetry_equiv_pos_site_id
 _symmetry_equiv_pos_as_xyz
  1  'x, y, z'
loop_
 _atom_site_type_symbol
 _atom_site_label
 _atom_site_symmetry_multiplicity
 _atom_site_fract_x
 _atom_site_fract_y
 _atom_site_fract_z
 _atom_site_occupancy
  Zn  Zn0  1  0.93895000  0.35843000  0.48017000  1.0
  Zn  Zn1  1  0.00188000  0.60414000  0.46948000  1.0
  H  H2  1  0.27413000  0.31861000  0.34548000  1.0
  H  H3  1  0.92563000  0.41505000  0.78882000  1.0
  H  H4  1  0.81613000  0.29736000  0.84932000  1.0
  H  H5  1  0.67264000  0.16322000  0.92684000  1.0
  H  H6  1  0.11779000  0.57484000  0.26413000  1.0
  H  H7  1  0.05930000  0.18271000  0.59559000  1.0
  H  H8  1  0.76446000  0.88481000  0.71518000  1.0
  H  H9  1  0.96667000  0.01409000  0.68006000  1.0
  H  H10  1  0.66816000  0.18850000  0.42925000  1.0
  H  H11  1  0.50212000  0.29025000  0.50886000  1.0
  H  H12  1  0.45786000  0.11848000  0.38851000  1.0
  H  H13  1  0.20779000  0.03998000  0.36045000  1.0
  H  H14  1  0.47647000  0.46476000  0.65684000  1.0
  H  H15  1  0.66777000  0.65340000  0.60896000  1.0
  H  H16  1  0.43955000  0.68124000  0.44616000  1.0
  H  H17  1  0.46616000  0.50633000  0.29787000  1.0
  H  H18  1  0.29135000  0.79285000  0.02802000  1.0
  C  C19  1  0.90980000  0.41561000  0.27068000  1.0
  C  C20  1  0.45513000  0.59492000  0.46050000  1.0
  C  C21  1  0.46673000  0.49750000  0.37767000  1.0
  C  C22  1  0.59191000  0.48162000  0.46884000  1.0
  C  C23  1  0.20884000  0.70951000  0.97750000  1.0
  C  C24  1  0.07271000  0.58261000  0.79834000  1.0
  C  C25  1  0.77945000  0.27526000  0.08709000  1.0
  C  C26  1  0.75620000  0.24577000  0.97758000  1.0
  C  C27  1  0.83790000  0.32205000  0.93457000  1.0
  C  C28  1  0.94655000  0.42982000  0.99846000  1.0
  C  C29  1  0.97325000  0.45667000  0.11013000  1.0
  C  C30  1  0.72484000  0.48390000  0.45739000  1.0
  C  C31  1  0.02890000  0.51503000  0.95422000  1.0
  C  C32  1  0.13858000  0.62268000  0.02291000  1.0
  C  C33  1  0.17064000  0.63679000  0.13581000  1.0
  C  C34  1  0.09146000  0.55946000  0.17804000  1.0
  C  C35  1  0.00350000  0.49763000  0.84415000  1.0
  C  C36  1  0.17340000  0.69094000  0.86844000  1.0
  C  C37  1  0.88584000  0.37969000  0.15393000  1.0
  C  C38  1  0.89671000  0.04990000  0.62469000  1.0
  C  C39  1  0.24203000  0.92219000  0.47426000  1.0
  C  C40  1  0.28289000  0.00985000  0.41689000  1.0
  C  C41  1  0.03712000  0.55289000  0.67958000  1.0
  C  C42  1  0.42248000  0.05306000  0.43352000  1.0
  C  C43  1  0.51758000  0.01110000  0.50631000  1.0
  C  C44  1  0.46297000  0.92478000  0.56167000  1.0
  C  C45  1  0.66495000  0.05256000  0.52842000  1.0
  C  C46  1  0.75262000  0.00493000  0.60316000  1.0
  C  C47  1  0.69504000  0.91848000  0.65712000  1.0
  C  C48  1  0.55606000  0.88139000  0.63910000  1.0
  C  C49  1  0.72773000  0.14396000  0.48334000  1.0
  C  C50  1  0.94857000  0.14166000  0.57786000  1.0
  C  C51  1  0.21655000  0.49187000  0.49265000  1.0
  C  C52  1  0.48755000  0.37695000  0.49428000  1.0
  C  C53  1  0.36370000  0.39240000  0.40391000  1.0
  C  C54  1  0.35153000  0.49143000  0.48706000  1.0
  C  C55  1  0.47540000  0.47417000  0.57708000  1.0
  C  C56  1  0.57874000  0.57923000  0.55077000  1.0
  I  I57  1  0.63961000  0.15594000  0.14021000  1.0
  I  I58  1  0.02528000  0.84492000  0.44377000  1.0
  I  I59  1  0.47532000  0.76486000  0.72616000  1.0
  I  I60  1  0.34721000  0.78126000  0.24194000  1.0
  N  N61  1  0.86468000  0.18889000  0.50871000  1.0
  N  N62  1  0.32561000  0.88240000  0.54352000  1.0
  O  O63  1  0.92933000  0.33609000  0.32595000  1.0
  O  O64  1  0.91017000  0.52190000  0.30395000  1.0
  O  O65  1  0.74369000  0.38284000  0.43416000  1.0
  O  O66  1  0.81214000  0.59045000  0.47242000  1.0
  O  O67  1  0.96494000  0.44188000  0.63265000  1.0
  O  O68  1  0.07961000  0.63787000  0.63472000  1.0
  O  O69  1  0.15127000  0.40538000  0.52621000  1.0
  O  O70  1  0.17428000  0.57813000  0.45950000  1.0
  F  F71  1  0.24182000  0.78117000  0.83052000  1.0
