# generated using pymatgen
data_ZnH20C19N4O5
_symmetry_space_group_name_H-M   'P 1'
_cell_length_a   9.06223000
_cell_length_b   9.33958000
_cell_length_c   12.27710000
_cell_angle_alpha   83.73510000
_cell_angle_beta   84.82080000
_cell_angle_gamma   87.63080000
_symmetry_Int_Tables_number   1
_chemical_formula_structural   ZnH20C19N4O5
_chemical_formula_sum   'Zn2 H40 C38 N8 O10'
_cell_volume   1028.15902325
_cell_formula_units_Z   2
loop_
 _symmetry_equiv_pos_site_id
 _symmetry_equiv_pos_as_xyz
  1  'x, y, z'
loop_
 _atom_site_type_symbol
 _atom_site_label
 _atom_site_symmetry_multiplicity
 _atom_site_fract_x
 _atom_site_fract_y
 _atom_site_fract_z
 _atom_site_occupancy
  Zn  Zn0  1  0.15632000  0.74093000  0.24561000  1.0
  Zn  Zn1  1  0.84367000  0.25909000  0.75439000  1.0
  H  H2  1  0.53039000  0.90138000  0.39806000  1.0
  H  H3  1  0.46963000  0.09861000  0.60193000  1.0
  H  H4  1  0.75295000  0.04001000  0.42061000  1.0
  H  H5  1  0.24707000  0.95997000  0.57936000  1.0
  H  H6  1  0.59995000  0.89233000  0.94042000  1.0
  H  H7  1  0.40005000  0.10768000  0.05957000  1.0
  H  H8  1  0.52212000  0.86190000  0.07826000  1.0
  H  H9  1  0.47787000  0.13811000  0.92173000  1.0
  H  H10  1  0.04242000  0.87715000  0.47727000  1.0
  H  H11  1  0.95756000  0.12287000  0.52272000  1.0
  H  H12  1  0.86834000  0.94803000  0.22738000  1.0
  H  H13  1  0.13164000  0.05199000  0.77262000  1.0
  H  H14  1  0.81345000  0.74949000  0.61543000  1.0
  H  H15  1  0.18656000  0.25050000  0.38457000  1.0
  H  H16  1  0.91151000  0.51302000  0.34007000  1.0
  H  H17  1  0.08850000  0.48699000  0.65993000  1.0
  H  H18  1  0.85531000  0.85140000  0.89924000  1.0
  H  H19  1  0.14469000  0.14860000  0.10075000  1.0
  H  H20  1  0.29176000  0.35968000  0.03238000  1.0
  H  H21  1  0.70822000  0.64030000  0.96764000  1.0
  H  H22  1  0.47372000  0.38375000  0.06670000  1.0
  H  H23  1  0.52626000  0.61624000  0.93332000  1.0
  H  H24  1  0.77643000  0.28996000  0.32631000  1.0
  H  H25  1  0.22359000  0.71003000  0.67368000  1.0
  H  H26  1  0.52458000  0.66173000  0.50148000  1.0
  H  H27  1  0.47543000  0.33826000  0.49853000  1.0
  H  H28  1  0.57494000  0.56213000  0.38830000  1.0
  H  H29  1  0.42507000  0.43786000  0.61171000  1.0
  H  H30  1  0.09480000  0.70201000  0.99233000  1.0
  H  H31  1  0.90520000  0.29800000  0.00768000  1.0
  H  H32  1  0.72387000  0.11286000  0.98957000  1.0
  H  H33  1  0.27612000  0.88715000  0.01043000  1.0
  H  H34  1  0.66471000  0.06291000  0.12926000  1.0
  H  H35  1  0.33528000  0.93710000  0.87073000  1.0
  H  H36  1  0.69291000  0.50336000  0.61745000  1.0
  H  H37  1  0.30711000  0.49663000  0.38256000  1.0
  H  H38  1  0.74037000  0.39870000  0.50690000  1.0
  H  H39  1  0.25965000  0.60129000  0.49310000  1.0
  H  H40  1  0.57768000  0.40047000  0.21532000  1.0
  H  H41  1  0.42231000  0.59953000  0.78469000  1.0
  C  C42  1  0.42570000  0.07238000  0.29942000  1.0
  C  C43  1  0.57431000  0.92762000  0.70058000  1.0
  C  C44  1  0.43925000  0.21472000  0.24710000  1.0
  C  C45  1  0.56075000  0.78528000  0.75291000  1.0
  C  C46  1  0.29417000  0.98275000  0.28866000  1.0
  C  C47  1  0.70584000  0.01724000  0.71135000  1.0
  C  C48  1  0.30335000  0.53208000  0.12866000  1.0
  C  C49  1  0.69664000  0.46793000  0.87134000  1.0
  C  C50  1  0.54060000  0.01208000  0.36029000  1.0
  C  C51  1  0.45941000  0.98791000  0.63971000  1.0
  C  C52  1  0.66562000  0.08952000  0.37208000  1.0
  C  C53  1  0.33440000  0.91047000  0.62790000  1.0
  C  C54  1  0.56250000  0.94580000  0.01369000  1.0
  C  C55  1  0.43750000  0.05421000  0.98630000  1.0
  C  C56  1  0.98083000  0.78222000  0.46987000  1.0
  C  C57  1  0.01916000  0.21780000  0.53012000  1.0
  C  C58  1  0.89750000  0.89798000  0.15237000  1.0
  C  C59  1  0.10250000  0.10203000  0.84763000  1.0
  C  C60  1  0.86583000  0.72094000  0.53748000  1.0
  C  C61  1  0.13416000  0.27906000  0.46252000  1.0
  C  C62  1  0.91576000  0.59650000  0.39444000  1.0
  C  C63  1  0.08424000  0.40350000  0.60556000  1.0
  C  C64  1  0.89247000  0.84573000  0.98125000  1.0
  C  C65  1  0.10753000  0.15427000  0.01875000  1.0
  C  C66  1  0.35653000  0.38321000  0.09961000  1.0
  C  C67  1  0.64345000  0.61679000  0.90040000  1.0
  C  C68  1  0.67773000  0.22956000  0.31978000  1.0
  C  C69  1  0.32228000  0.77043000  0.68021000  1.0
  C  C70  1  0.55978000  0.55387000  0.47880000  1.0
  C  C71  1  0.44023000  0.44612000  0.52122000  1.0
  C  C72  1  0.01014000  0.77298000  0.02742000  1.0
  C  C73  1  0.98986000  0.22703000  0.97258000  1.0
  C  C74  1  0.69276000  0.02094000  0.04967000  1.0
  C  C75  1  0.30722000  0.97907000  0.95032000  1.0
  C  C76  1  0.70515000  0.50716000  0.52747000  1.0
  C  C77  1  0.29487000  0.49282000  0.47254000  1.0
  C  C78  1  0.56576000  0.29227000  0.25746000  1.0
  C  C79  1  0.43424000  0.70773000  0.74254000  1.0
  N  N80  1  0.01275000  0.80728000  0.13401000  1.0
  N  N81  1  0.98724000  0.19274000  0.86599000  1.0
  N  N82  1  0.82220000  0.92348000  0.06182000  1.0
  N  N83  1  0.17779000  0.07653000  0.93818000  1.0
  N  N84  1  0.01124000  0.70314000  0.38122000  1.0
  N  N85  1  0.98875000  0.29687000  0.61878000  1.0
  N  N86  1  0.82598000  0.60373000  0.48816000  1.0
  N  N87  1  0.17403000  0.39626000  0.51184000  1.0
  O  O88  1  0.23094000  0.54048000  0.22339000  1.0
  O  O89  1  0.76906000  0.45954000  0.77662000  1.0
  O  O90  1  0.32786000  0.26704000  0.18469000  1.0
  O  O91  1  0.67213000  0.73296000  0.81533000  1.0
  O  O92  1  0.32860000  0.84990000  0.27126000  1.0
  O  O93  1  0.67140000  0.15009000  0.72875000  1.0
  O  O94  1  0.16474000  0.03474000  0.29722000  1.0
  O  O95  1  0.83526000  0.96526000  0.70277000  1.0
  O  O96  1  0.32854000  0.63521000  0.05622000  1.0
  O  O97  1  0.67143000  0.36477000  0.94377000  1.0
