# generated using pymatgen
data_CdH16C16N2O5
_symmetry_space_group_name_H-M   'P 1'
_cell_length_a   9.07907000
_cell_length_b   9.19251000
_cell_length_c   10.98440000
_cell_angle_alpha   94.52890000
_cell_angle_beta   111.11700000
_cell_angle_gamma   109.76100000
_symmetry_Int_Tables_number   1
_chemical_formula_structural   CdH16C16N2O5
_chemical_formula_sum   'Cd2 H32 C32 N4 O10'
_cell_volume   783.49939985
_cell_formula_units_Z   2
loop_
 _symmetry_equiv_pos_site_id
 _symmetry_equiv_pos_as_xyz
  1  'x, y, z'
loop_
 _atom_site_type_symbol
 _atom_site_label
 _atom_site_symmetry_multiplicity
 _atom_site_fract_x
 _atom_site_fract_y
 _atom_site_fract_z
 _atom_site_occupancy
  Cd  Cd0  1  0.70732000  0.49727000  0.50639000  1.0
  Cd  Cd1  1  0.29267000  0.50272000  0.49361000  1.0
  H  H2  1  0.74983000  0.26195000  0.61103000  1.0
  H  H3  1  0.25018000  0.73805000  0.38896000  1.0
  H  H4  1  0.90339000  0.30980000  0.55790000  1.0
  H  H5  1  0.09661000  0.69020000  0.44210000  1.0
  H  H6  1  0.38436000  0.41640000  0.76883000  1.0
  H  H7  1  0.61564000  0.58360000  0.23117000  1.0
  H  H8  1  0.13499000  0.32010000  0.82873000  1.0
  H  H9  1  0.86501000  0.67990000  0.17127000  1.0
  H  H10  1  0.94388000  0.03041000  0.75678000  1.0
  H  H11  1  0.05611000  0.96958000  0.24322000  1.0
  H  H12  1  0.26084000  0.94249000  0.57196000  1.0
  H  H13  1  0.73916000  0.05749000  0.42804000  1.0
  H  H14  1  0.84433000  0.40397000  0.28994000  1.0
  H  H15  1  0.15567000  0.59603000  0.71006000  1.0
  H  H16  1  0.35167000  0.26414000  0.27876000  1.0
  H  H17  1  0.64833000  0.73587000  0.72124000  1.0
  H  H18  1  0.22033000  0.11560000  0.04025000  1.0
  H  H19  1  0.77968000  0.88440000  0.95974000  1.0
  H  H20  1  0.41363000  0.10526000  0.92676000  1.0
  H  H21  1  0.58638000  0.89476000  0.07324000  1.0
  H  H22  1  0.84192000  0.17359000  0.10293000  1.0
  H  H23  1  0.15808000  0.82642000  0.89707000  1.0
  H  H24  1  0.69684000  0.16354000  0.93988000  1.0
  H  H25  1  0.30316000  0.83646000  0.06012000  1.0
  H  H26  1  0.70539000  0.47235000  0.94302000  1.0
  H  H27  1  0.29461000  0.52766000  0.05697000  1.0
  H  H28  1  0.77994000  0.37999000  0.84211000  1.0
  H  H29  1  0.22006000  0.62002000  0.15788000  1.0
  H  H30  1  0.02131000  0.29382000  0.96077000  1.0
  H  H31  1  0.97869000  0.70619000  0.03923000  1.0
  H  H32  1  0.10573000  0.33457000  0.14008000  1.0
  H  H33  1  0.89427000  0.66544000  0.85992000  1.0
  C  C34  1  0.47880000  0.24786000  0.62021000  1.0
  C  C35  1  0.52118000  0.75212000  0.37977000  1.0
  C  C36  1  0.33588000  0.18606000  0.66493000  1.0
  C  C37  1  0.66412000  0.81393000  0.33508000  1.0
  C  C38  1  0.30181000  0.29092000  0.73961000  1.0
  C  C39  1  0.69821000  0.70908000  0.26039000  1.0
  C  C40  1  0.16327000  0.23602000  0.77483000  1.0
  C  C41  1  0.83672000  0.76397000  0.22519000  1.0
  C  C42  1  0.05708000  0.07511000  0.73514000  1.0
  C  C43  1  0.94292000  0.92488000  0.26486000  1.0
  C  C44  1  0.23259000  0.02366000  0.62887000  1.0
  C  C45  1  0.76742000  0.97632000  0.37113000  1.0
  C  C46  1  0.09125000  0.96785000  0.66209000  1.0
  C  C47  1  0.90875000  0.03215000  0.33793000  1.0
  C  C48  1  0.96830000  0.79768000  0.61277000  1.0
  C  C49  1  0.03171000  0.20231000  0.38722000  1.0
  C  C50  1  0.70684000  0.33538000  0.23292000  1.0
  C  C51  1  0.29317000  0.66463000  0.76708000  1.0
  C  C52  1  0.43157000  0.25958000  0.22572000  1.0
  C  C53  1  0.56843000  0.74042000  0.77427000  1.0
  C  C54  1  0.35939000  0.17559000  0.09350000  1.0
  C  C55  1  0.64062000  0.82442000  0.90650000  1.0
  C  C56  1  0.46700000  0.17031000  0.03057000  1.0
  C  C57  1  0.53301000  0.82970000  0.96943000  1.0
  C  C58  1  0.64468000  0.24888000  0.10158000  1.0
  C  C59  1  0.35533000  0.75113000  0.89842000  1.0
  C  C60  1  0.76925000  0.23749000  0.04387000  1.0
  C  C61  1  0.23075000  0.76251000  0.95613000  1.0
  C  C62  1  0.82029000  0.45975000  0.93957000  1.0
  C  C63  1  0.17970000  0.54025000  0.06043000  1.0
  C  C64  1  0.05019000  0.37918000  0.05206000  1.0
  C  C65  1  0.94981000  0.62083000  0.94794000  1.0
  N  N66  1  0.60312000  0.34008000  0.29367000  1.0
  N  N67  1  0.39688000  0.65992000  0.70633000  1.0
  N  N68  1  0.89330000  0.39157000  0.05085000  1.0
  N  N69  1  0.10670000  0.60844000  0.94915000  1.0
  O  O70  1  0.56252000  0.16545000  0.61507000  1.0
  O  O71  1  0.43749000  0.83455000  0.38493000  1.0
  O  O72  1  0.50650000  0.38688000  0.59116000  1.0
  O  O73  1  0.49349000  0.61310000  0.40884000  1.0
  O  O74  1  0.85285000  0.35077000  0.61254000  1.0
  O  O75  1  0.14715000  0.64924000  0.38746000  1.0
  O  O76  1  0.84889000  0.75006000  0.65378000  1.0
  O  O77  1  0.15111000  0.24994000  0.34622000  1.0
  O  O78  1  0.98055000  0.70329000  0.52849000  1.0
  O  O79  1  0.01945000  0.29670000  0.47152000  1.0
