# generated using pymatgen
data_CdH6C8I2(N2Cl)2
_symmetry_space_group_name_H-M   'P 1'
_cell_length_a   3.95941000
_cell_length_b   10.20880000
_cell_length_c   16.70860000
_cell_angle_alpha   89.99870000
_cell_angle_beta   89.61430000
_cell_angle_gamma   89.99910000
_symmetry_Int_Tables_number   1
_chemical_formula_structural   CdH6C8I2(N2Cl)2
_chemical_formula_sum   'Cd2 H12 C16 I4 N8 Cl4'
_cell_volume   675.36009045
_cell_formula_units_Z   2
loop_
 _symmetry_equiv_pos_site_id
 _symmetry_equiv_pos_as_xyz
  1  'x, y, z'
loop_
 _atom_site_type_symbol
 _atom_site_label
 _atom_site_symmetry_multiplicity
 _atom_site_fract_x
 _atom_site_fract_y
 _atom_site_fract_z
 _atom_site_occupancy
  Cd  Cd0  1  0.50000000  0.50000000  0.50000000  1.0
  Cd  Cd1  1  0.00000000  0.00000000  0.00000000  1.0
  H  H2  1  0.25767000  0.20353000  0.52726000  1.0
  H  H3  1  0.24236000  0.70353000  0.97274000  1.0
  H  H4  1  0.74234000  0.79647000  0.47274000  1.0
  H  H5  1  0.75764000  0.29647000  0.02726000  1.0
  H  H6  1  0.83483000  0.25634000  0.78160000  1.0
  H  H7  1  0.66515000  0.75636000  0.71841000  1.0
  H  H8  1  0.16518000  0.74365000  0.21840000  1.0
  H  H9  1  0.33484000  0.24364000  0.28159000  1.0
  H  H10  1  0.76800000  0.44690000  0.68608000  1.0
  H  H11  1  0.73201000  0.94692000  0.81394000  1.0
  H  H12  1  0.23201000  0.55310000  0.31393000  1.0
  H  H13  1  0.26799000  0.05309000  0.18606000  1.0
  C  C14  1  0.38863000  0.21450000  0.58406000  1.0
  C  C15  1  0.11139000  0.71450000  0.91595000  1.0
  C  C16  1  0.61138000  0.78550000  0.41594000  1.0
  C  C17  1  0.88861000  0.28550000  0.08405000  1.0
  C  C18  1  0.43158000  0.11039000  0.63765000  1.0
  C  C19  1  0.06841000  0.61039000  0.86236000  1.0
  C  C20  1  0.56842000  0.88961000  0.36235000  1.0
  C  C21  1  0.93158000  0.38961000  0.13764000  1.0
  C  C22  1  0.70605000  0.24440000  0.72450000  1.0
  C  C23  1  0.79394000  0.74442000  0.77551000  1.0
  C  C24  1  0.29396000  0.75559000  0.27549000  1.0
  C  C25  1  0.20605000  0.25558000  0.22449000  1.0
  C  C26  1  0.66941000  0.34980000  0.67201000  1.0
  C  C27  1  0.83059000  0.84982000  0.82801000  1.0
  C  C28  1  0.33059000  0.65019000  0.32800000  1.0
  C  C29  1  0.16941000  0.15019000  0.17199000  1.0
  I  I30  1  0.24681000  0.92260000  0.60802000  1.0
  I  I31  1  0.25318000  0.42260000  0.89198000  1.0
  I  I32  1  0.75319000  0.07740000  0.39197000  1.0
  I  I33  1  0.74682000  0.57741000  0.10801000  1.0
  N  N34  1  0.51167000  0.33342000  0.60165000  1.0
  N  N35  1  0.98835000  0.83342000  0.89836000  1.0
  N  N36  1  0.48833000  0.66658000  0.39835000  1.0
  N  N37  1  0.01165000  0.16658000  0.10164000  1.0
  N  N38  1  0.58971000  0.12432000  0.70705000  1.0
  N  N39  1  0.91026000  0.62434000  0.79296000  1.0
  N  N40  1  0.41029000  0.87568000  0.29294000  1.0
  N  N41  1  0.08972000  0.37567000  0.20705000  1.0
  Cl  Cl42  1  0.99369000  0.62515000  0.57488000  1.0
  Cl  Cl43  1  0.50630000  0.12516000  0.92512000  1.0
  Cl  Cl44  1  0.00630000  0.37484000  0.42512000  1.0
  Cl  Cl45  1  0.49370000  0.87485000  0.07488000  1.0
