# generated using pymatgen
data_Cu2H10C18N4Cl3
_symmetry_space_group_name_H-M   'P 1'
_cell_length_a   6.14831000
_cell_length_b   10.07980000
_cell_length_c   13.97840000
_cell_angle_alpha   89.99820000
_cell_angle_beta   89.99910000
_cell_angle_gamma   75.15200000
_symmetry_Int_Tables_number   1
_chemical_formula_structural   Cu2H10C18N4Cl3
_chemical_formula_sum   'Cu4 H20 C36 N8 Cl6'
_cell_volume   837.36728849
_cell_formula_units_Z   2
loop_
 _symmetry_equiv_pos_site_id
 _symmetry_equiv_pos_as_xyz
  1  'x, y, z'
loop_
 _atom_site_type_symbol
 _atom_site_label
 _atom_site_symmetry_multiplicity
 _atom_site_fract_x
 _atom_site_fract_y
 _atom_site_fract_z
 _atom_site_occupancy
  Cu  Cu0  1  0.76266000  0.04097000  0.75001000  1.0
  Cu  Cu1  1  0.23734000  0.95904000  0.25001000  1.0
  Cu  Cu2  1  0.26586000  0.88688000  0.75000000  1.0
  Cu  Cu3  1  0.73415000  0.11313000  0.25001000  1.0
  H  H4  1  0.69589000  0.09001000  0.97188000  1.0
  H  H5  1  0.30414000  0.90999000  0.47188000  1.0
  H  H6  1  0.30411000  0.90998000  0.02813000  1.0
  H  H7  1  0.69588000  0.09001000  0.52813000  1.0
  H  H8  1  0.37274000  0.21165000  0.07484000  1.0
  H  H9  1  0.62730000  0.78836000  0.57483000  1.0
  H  H10  1  0.62724000  0.78835000  0.92517000  1.0
  H  H11  1  0.37273000  0.21164000  0.42517000  1.0
  H  H12  1  0.01231000  0.34133000  0.99523000  1.0
  H  H13  1  0.98772000  0.65867000  0.49523000  1.0
  H  H14  1  0.98767000  0.65866000  0.00477000  1.0
  H  H15  1  0.01230000  0.34133000  0.50477000  1.0
  H  H16  1  0.38086000  0.55906000  0.92960000  1.0
  H  H17  1  0.61915000  0.44095000  0.42959000  1.0
  H  H18  1  0.61912000  0.44094000  0.07039000  1.0
  H  H19  1  0.38085000  0.55904000  0.57040000  1.0
  H  H20  1  0.03440000  0.67721000  0.83774000  1.0
  H  H21  1  0.96560000  0.32279000  0.33773000  1.0
  H  H22  1  0.96559000  0.32279000  0.16225000  1.0
  H  H23  1  0.03439000  0.67720000  0.66225000  1.0
  C  C24  1  0.53754000  0.14748000  0.94029000  1.0
  C  C25  1  0.46248000  0.85252000  0.44029000  1.0
  C  C26  1  0.46245000  0.85251000  0.05972000  1.0
  C  C27  1  0.53754000  0.14748000  0.55972000  1.0
  C  C28  1  0.35634000  0.21658000  0.99721000  1.0
  C  C29  1  0.64368000  0.78342000  0.49721000  1.0
  C  C30  1  0.64362000  0.78342000  0.00280000  1.0
  C  C31  1  0.35634000  0.21658000  0.50279000  1.0
  C  C32  1  0.15808000  0.28751000  0.95372000  1.0
  C  C33  1  0.84194000  0.71249000  0.45371000  1.0
  C  C34  1  0.84191000  0.71248000  0.04629000  1.0
  C  C35  1  0.15807000  0.28751000  0.54629000  1.0
  C  C36  1  0.14361000  0.28961000  0.85349000  1.0
  C  C37  1  0.85641000  0.71040000  0.35348000  1.0
  C  C38  1  0.85638000  0.71039000  0.14651000  1.0
  C  C39  1  0.14361000  0.28960000  0.64652000  1.0
  C  C40  1  0.33408000  0.21822000  0.80173000  1.0
  C  C41  1  0.66593000  0.78179000  0.30173000  1.0
  C  C42  1  0.66591000  0.78179000  0.19828000  1.0
  C  C43  1  0.33408000  0.21821000  0.69828000  1.0
  C  C44  1  0.94194000  0.36129000  0.80155000  1.0
  C  C45  1  0.05807000  0.63872000  0.30155000  1.0
  C  C46  1  0.05806000  0.63872000  0.19844000  1.0
  C  C47  1  0.94192000  0.36129000  0.69845000  1.0
  C  C48  1  0.57631000  0.49164000  0.80172000  1.0
  C  C49  1  0.42370000  0.50836000  0.30170000  1.0
  C  C50  1  0.42370000  0.50835000  0.19827000  1.0
  C  C51  1  0.57630000  0.49164000  0.69828000  1.0
  C  C52  1  0.37837000  0.56014000  0.85155000  1.0
  C  C53  1  0.62163000  0.43985000  0.35154000  1.0
  C  C54  1  0.62162000  0.43985000  0.14844000  1.0
  C  C55  1  0.37837000  0.56013000  0.64844000  1.0
  C  C56  1  0.18894000  0.62547000  0.80091000  1.0
  C  C57  1  0.81105000  0.37453000  0.30090000  1.0
  C  C58  1  0.81105000  0.37452000  0.19907000  1.0
  C  C59  1  0.18893000  0.62546000  0.69908000  1.0
  N  N60  1  0.52632000  0.14807000  0.84495000  1.0
  N  N61  1  0.47368000  0.85195000  0.34495000  1.0
  N  N62  1  0.47366000  0.85195000  0.15506000  1.0
  N  N63  1  0.52632000  0.14806000  0.65505000  1.0
  N  N64  1  0.76146000  0.42627000  0.64855000  1.0
  N  N65  1  0.23853000  0.57373000  0.14854000  1.0
  N  N66  1  0.23857000  0.57372000  0.35145000  1.0
  N  N67  1  0.76144000  0.42628000  0.85146000  1.0
  Cl  Cl68  1  0.03407000  0.96918000  0.87077000  1.0
  Cl  Cl69  1  0.96594000  0.03082000  0.37077000  1.0
  Cl  Cl70  1  0.96592000  0.03082000  0.12924000  1.0
  Cl  Cl71  1  0.03407000  0.96919000  0.62924000  1.0
  Cl  Cl72  1  0.63368000  0.81798000  0.75000000  1.0
  Cl  Cl73  1  0.36634000  0.18202000  0.25000000  1.0
