# generated using pymatgen
data_BaH16C14N4O9
_symmetry_space_group_name_H-M   'P 1'
_cell_length_a   4.44393000
_cell_length_b   12.06900000
_cell_length_c   16.17530000
_cell_angle_alpha   90.00000000
_cell_angle_beta   90.00020000
_cell_angle_gamma   98.35500000
_symmetry_Int_Tables_number   1
_chemical_formula_structural   BaH16C14N4O9
_chemical_formula_sum   'Ba2 H32 C28 N8 O18'
_cell_volume   858.33522484
_cell_formula_units_Z   2
loop_
 _symmetry_equiv_pos_site_id
 _symmetry_equiv_pos_as_xyz
  1  'x, y, z'
loop_
 _atom_site_type_symbol
 _atom_site_label
 _atom_site_symmetry_multiplicity
 _atom_site_fract_x
 _atom_site_fract_y
 _atom_site_fract_z
 _atom_site_occupancy
  Ba  Ba0  1  0.26020000  0.56354000  0.24879000  1.0
  Ba  Ba1  1  0.26019000  0.06354000  0.75121000  1.0
  H  H2  1  0.03976000  0.15646000  0.00452000  1.0
  H  H3  1  0.03976000  0.65646000  0.99548000  1.0
  H  H4  1  0.06084000  0.55013000  0.47924000  1.0
  H  H5  1  0.06084000  0.05013000  0.52076000  1.0
  H  H6  1  0.76412000  0.43640000  0.93986000  1.0
  H  H7  1  0.76413000  0.93640000  0.06014000  1.0
  H  H8  1  0.25507000  0.29324000  0.42626000  1.0
  H  H9  1  0.25507000  0.79324000  0.57374000  1.0
  H  H10  1  0.81682000  0.76693000  0.30899000  1.0
  H  H11  1  0.81682000  0.26693000  0.69101000  1.0
  H  H12  1  0.82576000  0.76004000  0.21120000  1.0
  H  H13  1  0.82576000  0.26004000  0.78880000  1.0
  H  H14  1  0.92618000  0.10853000  0.17493000  1.0
  H  H15  1  0.92617000  0.60853000  0.82507000  1.0
  H  H16  1  0.63397000  0.17115000  0.13015000  1.0
  H  H17  1  0.63397000  0.67115000  0.86985000  1.0
  H  H18  1  0.69453000  0.32188000  0.23833000  1.0
  H  H19  1  0.69453000  0.82188000  0.76167000  1.0
  H  H20  1  0.00781000  0.26637000  0.28181000  1.0
  H  H21  1  0.00780000  0.76637000  0.71819000  1.0
  H  H22  1  0.63541000  0.18885000  0.28585000  1.0
  H  H23  1  0.63541000  0.68885000  0.71415000  1.0
  H  H24  1  0.15549000  0.59628000  0.65557000  1.0
  H  H25  1  0.15549000  0.09629000  0.34443000  1.0
  H  H26  1  0.44300000  0.53008000  0.61276000  1.0
  H  H27  1  0.44300000  0.03008000  0.38724000  1.0
  H  H28  1  0.33428000  0.37368000  0.71999000  1.0
  H  H29  1  0.33428000  0.87368000  0.28001000  1.0
  H  H30  1  0.05273000  0.44548000  0.76434000  1.0
  H  H31  1  0.05273000  0.94548000  0.23566000  1.0
  H  H32  1  0.44007000  0.50669000  0.76516000  1.0
  H  H33  1  0.44007000  0.00669000  0.23484000  1.0
  C  C34  1  0.68396000  0.48279000  0.07090000  1.0
  C  C35  1  0.68395000  0.98279000  0.92910000  1.0
  C  C36  1  0.43857000  0.38516000  0.06656000  1.0
  C  C37  1  0.43857000  0.88516000  0.93344000  1.0
  C  C38  1  0.36478000  0.30828000  0.00249000  1.0
  C  C39  1  0.36478000  0.80827000  0.99751000  1.0
  C  C40  1  0.47064000  0.29958000  0.91725000  1.0
  C  C41  1  0.47065000  0.79958000  0.08275000  1.0
  C  C42  1  0.07694000  0.25976000  0.11228000  1.0
  C  C43  1  0.07694000  0.75975000  0.88772000  1.0
  C  C44  1  0.84766000  0.19017000  0.16527000  1.0
  C  C45  1  0.84766000  0.69017000  0.83473000  1.0
  C  C46  1  0.79443000  0.24499000  0.24763000  1.0
  C  C47  1  0.79443000  0.74499000  0.75237000  1.0
  C  C48  1  0.38036000  0.23393000  0.53634000  1.0
  C  C49  1  0.38036000  0.73393000  0.46366000  1.0
  C  C50  1  0.62134000  0.33184000  0.53944000  1.0
  C  C51  1  0.62134000  0.83184000  0.46056000  1.0
  C  C52  1  0.70995000  0.41064000  0.47745000  1.0
  C  C53  1  0.70995000  0.91064000  0.52255000  1.0
  C  C54  1  0.60275000  0.42729000  0.39251000  1.0
  C  C55  1  0.60275000  0.92729000  0.60748000  1.0
  C  C56  1  0.99587000  0.44921000  0.58946000  1.0
  C  C57  1  0.99587000  0.94921000  0.41054000  1.0
  C  C58  1  0.22447000  0.51325000  0.64574000  1.0
  C  C59  1  0.22447000  0.01325000  0.35427000  1.0
  C  C60  1  0.26396000  0.45625000  0.72823000  1.0
  C  C61  1  0.26395000  0.95626000  0.27177000  1.0
  N  N62  1  0.25535000  0.35436000  0.13387000  1.0
  N  N63  1  0.25535000  0.85435000  0.86613000  1.0
  N  N64  1  0.13744000  0.22983000  0.03351000  1.0
  N  N65  1  0.13744000  0.72983000  0.96649000  1.0
  N  N66  1  0.80392000  0.35668000  0.60781000  1.0
  N  N67  1  0.80392000  0.85668000  0.39219000  1.0
  N  N68  1  0.94585000  0.48248000  0.51062000  1.0
  N  N69  1  0.94584000  0.98248000  0.48939000  1.0
  O  O70  1  0.73790000  0.53090000  0.13947000  1.0
  O  O71  1  0.73790000  0.03089000  0.86053000  1.0
  O  O72  1  0.83343000  0.51225000  0.00385000  1.0
  O  O73  1  0.83343000  0.01225000  0.99615000  1.0
  O  O74  1  0.69875000  0.37452000  0.89171000  1.0
  O  O75  1  0.69875000  0.87452000  0.10829000  1.0
  O  O76  1  0.34667000  0.22372000  0.87172000  1.0
  O  O77  1  0.34668000  0.72372000  0.12828000  1.0
  O  O78  1  0.34667000  0.16106000  0.59140000  1.0
  O  O79  1  0.34667000  0.66106000  0.40860000  1.0
  O  O80  1  0.19858000  0.22508000  0.47161000  1.0
  O  O81  1  0.19858000  0.72507000  0.52838000  1.0
  O  O82  1  0.34437000  0.37223000  0.37046000  1.0
  O  O83  1  0.34437000  0.87224000  0.62954000  1.0
  O  O84  1  0.75950000  0.49639000  0.34596000  1.0
  O  O85  1  0.75950000  0.99639000  0.65403000  1.0
  O  O86  1  0.82348000  0.71405000  0.26093000  1.0
  O  O87  1  0.82348000  0.21406000  0.73907000  1.0
