# generated using pymatgen
data_CdH36C52(N7O2)2
_symmetry_space_group_name_H-M   'P 1'
_cell_length_a   11.02290000
_cell_length_b   16.27110000
_cell_length_c   16.27100000
_cell_angle_alpha   110.44700000
_cell_angle_beta   97.76180000
_cell_angle_gamma   97.76170000
_symmetry_Int_Tables_number   1
_chemical_formula_structural   CdH36C52(N7O2)2
_chemical_formula_sum   'Cd2 H72 C104 N28 O8'
_cell_volume   2656.65816995
_cell_formula_units_Z   2
loop_
 _symmetry_equiv_pos_site_id
 _symmetry_equiv_pos_as_xyz
  1  'x, y, z'
loop_
 _atom_site_type_symbol
 _atom_site_label
 _atom_site_symmetry_multiplicity
 _atom_site_fract_x
 _atom_site_fract_y
 _atom_site_fract_z
 _atom_site_occupancy
  Cd  Cd0  1  0.25000000  0.24096000  0.75904000  1.0
  Cd  Cd1  1  0.75000000  0.75904000  0.24096000  1.0
  H  H2  1  0.49406000  0.34436000  0.69794000  1.0
  H  H3  1  0.00594000  0.30206000  0.65564000  1.0
  H  H4  1  0.50594000  0.65564000  0.30206000  1.0
  H  H5  1  0.99406000  0.69794000  0.34436000  1.0
  H  H6  1  0.32667000  0.47117000  0.91218000  1.0
  H  H7  1  0.17333000  0.08782000  0.52883000  1.0
  H  H8  1  0.67333000  0.52883000  0.08782000  1.0
  H  H9  1  0.82666000  0.91217000  0.47117000  1.0
  H  H10  1  0.92485000  0.16107000  0.75645000  1.0
  H  H11  1  0.57515000  0.24355000  0.83893000  1.0
  H  H12  1  0.07515000  0.83893000  0.24355000  1.0
  H  H13  1  0.42484000  0.75645000  0.16107000  1.0
  H  H14  1  0.22531000  0.02997000  0.76742000  1.0
  H  H15  1  0.27469000  0.23258000  0.97004000  1.0
  H  H16  1  0.77468000  0.97003000  0.23257000  1.0
  H  H17  1  0.72531000  0.76743000  0.02997000  1.0
  H  H18  1  0.68631000  0.38959000  0.69530000  1.0
  H  H19  1  0.81369000  0.30470000  0.61041000  1.0
  H  H20  1  0.31369000  0.61041000  0.30470000  1.0
  H  H21  1  0.18631000  0.69530000  0.38958000  1.0
  H  H22  1  0.87711000  0.45916000  0.66257000  1.0
  H  H23  1  0.62289000  0.33743000  0.54084000  1.0
  H  H24  1  0.12289000  0.54084000  0.33743000  1.0
  H  H25  1  0.37711000  0.66257000  0.45916000  1.0
  H  H26  1  0.85786000  0.71412000  0.85823000  1.0
  H  H27  1  0.64213000  0.14177000  0.28588000  1.0
  H  H28  1  0.14214000  0.28588000  0.14177000  1.0
  H  H29  1  0.35786000  0.85823000  0.71411000  1.0
  H  H30  1  0.66172000  0.64371000  0.88701000  1.0
  H  H31  1  0.83827000  0.11299000  0.35629000  1.0
  H  H32  1  0.33828000  0.35629000  0.11299000  1.0
  H  H33  1  0.16173000  0.88701000  0.64371000  1.0
  H  H34  1  0.83559000  0.85914000  0.67144000  1.0
  H  H35  1  0.66442000  0.32856000  0.14086000  1.0
  H  H36  1  0.16442000  0.14086000  0.32855000  1.0
  H  H37  1  0.33558000  0.67144000  0.85914000  1.0
  H  H38  1  0.81628000  0.70075000  0.66071000  1.0
  H  H39  1  0.68373000  0.33929000  0.29925000  1.0
  H  H40  1  0.18372000  0.29925000  0.33929000  1.0
  H  H41  1  0.31628000  0.66071000  0.70075000  1.0
  H  H42  1  0.17644000  0.76843000  0.83383000  1.0
  H  H43  1  0.32357000  0.16618000  0.23158000  1.0
  H  H44  1  0.82357000  0.23158000  0.16617000  1.0
  H  H45  1  0.67643000  0.83383000  0.76842000  1.0
  H  H46  1  0.19254000  0.92742000  0.84920000  1.0
  H  H47  1  0.30746000  0.15080000  0.07259000  1.0
  H  H48  1  0.80746000  0.07259000  0.15080000  1.0
  H  H49  1  0.69254000  0.84920000  0.92742000  1.0
  H  H50  1  0.09941000  0.51040000  0.77401000  1.0
  H  H51  1  0.40059000  0.22599000  0.48960000  1.0
  H  H52  1  0.90059000  0.48960000  0.22599000  1.0
  H  H53  1  0.59941000  0.77401000  0.51040000  1.0
  H  H54  1  0.23066000  0.42064000  0.68458000  1.0
  H  H55  1  0.26933000  0.31542000  0.57936000  1.0
  H  H56  1  0.76934000  0.57936000  0.31542000  1.0
  H  H57  1  0.73067000  0.68458000  0.42064000  1.0
  H  H58  1  0.17427000  0.54911000  0.49461000  1.0
  H  H59  1  0.32573000  0.50539000  0.45089000  1.0
  H  H60  1  0.82573000  0.45089000  0.50539000  1.0
  H  H61  1  0.67428000  0.49461000  0.54911000  1.0
  H  H62  1  0.05050000  0.64263000  0.58711000  1.0
  H  H63  1  0.44951000  0.41290000  0.35737000  1.0
  H  H64  1  0.94950000  0.35737000  0.41289000  1.0
  H  H65  1  0.55050000  0.58710000  0.64263000  1.0
  H  H66  1  0.65308000  0.14256000  0.58042000  1.0
  H  H67  1  0.84692000  0.41958000  0.85743000  1.0
  H  H68  1  0.34691000  0.85743000  0.41958000  1.0
  H  H69  1  0.15308000  0.58043000  0.14257000  1.0
  H  H70  1  0.29658000  0.98022000  0.54752000  1.0
  H  H71  1  0.20342000  0.45248000  0.01978000  1.0
  H  H72  1  0.70342000  0.01978000  0.45248000  1.0
  H  H73  1  0.79658000  0.54752000  0.98021000  1.0
  C  C74  1  0.47272000  0.39484000  0.75535000  1.0
  C  C75  1  0.02728000  0.24465000  0.60516000  1.0
  C  C76  1  0.52728000  0.60516000  0.24465000  1.0
  C  C77  1  0.97272000  0.75535000  0.39484000  1.0
  C  C78  1  0.39090000  0.46003000  0.86619000  1.0
  C  C79  1  0.10911000  0.13381000  0.53997000  1.0
  C  C80  1  0.60911000  0.53997000  0.13381000  1.0
  C  C81  1  0.89089000  0.86619000  0.46003000  1.0
  C  C82  1  0.97751000  0.10978000  0.75893000  1.0
  C  C83  1  0.52249000  0.24107000  0.89022000  1.0
  C  C84  1  0.02249000  0.89022000  0.24107000  1.0
  C  C85  1  0.47751000  0.75893000  0.10978000  1.0
  C  C86  1  0.13311000  0.04636000  0.76684000  1.0
  C  C87  1  0.36689000  0.23316000  0.95364000  1.0
  C  C88  1  0.86689000  0.95364000  0.23316000  1.0
  C  C89  1  0.63311000  0.76684000  0.04636000  1.0
  C  C90  1  0.65956000  0.51399000  0.79075000  1.0
  C  C91  1  0.84044000  0.20925000  0.48601000  1.0
  C  C92  1  0.34044000  0.48601000  0.20925000  1.0
  C  C93  1  0.15956000  0.79075000  0.51399000  1.0
  C  C94  1  0.72159000  0.46134000  0.72891000  1.0
  C  C95  1  0.77841000  0.27109000  0.53866000  1.0
  C  C96  1  0.27841000  0.53866000  0.27109000  1.0
  C  C97  1  0.22159000  0.72891000  0.46134000  1.0
  C  C98  1  0.83005000  0.50034000  0.71139000  1.0
  C  C99  1  0.66995000  0.28861000  0.49966000  1.0
  C  C100  1  0.16995000  0.49966000  0.28861000  1.0
  C  C101  1  0.33005000  0.71139000  0.50034000  1.0
  C  C102  1  0.88000000  0.59224000  0.75637000  1.0
  C  C103  1  0.62000000  0.24363000  0.40776000  1.0
  C  C104  1  0.12000000  0.40776000  0.24363000  1.0
  C  C105  1  0.38000000  0.75637000  0.59224000  1.0
  C  C106  1  0.81915000  0.64329000  0.82118000  1.0
  C  C107  1  0.68085000  0.17881000  0.35671000  1.0
  C  C108  1  0.18085000  0.35671000  0.17882000  1.0
  C  C109  1  0.31915000  0.82119000  0.64329000  1.0
  C  C110  1  0.70961000  0.60471000  0.83755000  1.0
  C  C111  1  0.79038000  0.16244000  0.39529000  1.0
  C  C112  1  0.29038000  0.39529000  0.16244000  1.0
  C  C113  1  0.20962000  0.83755000  0.60471000  1.0
  C  C114  1  0.01501000  0.90181000  0.76036000  1.0
  C  C115  1  0.48500000  0.23964000  0.09819000  1.0
  C  C116  1  0.98499000  0.09819000  0.23964000  1.0
  C  C117  1  0.51501000  0.76036000  0.90181000  1.0
  C  C118  1  0.90814000  0.83884000  0.70814000  1.0
  C  C119  1  0.59187000  0.29186000  0.16116000  1.0
  C  C120  1  0.09187000  0.16116000  0.29185000  1.0
  C  C121  1  0.40813000  0.70814000  0.83884000  1.0
  C  C122  1  0.89870000  0.75066000  0.70145000  1.0
  C  C123  1  0.60131000  0.29855000  0.24934000  1.0
  C  C124  1  0.10131000  0.24934000  0.29855000  1.0
  C  C125  1  0.39869000  0.70145000  0.75066000  1.0
  C  C126  1  0.99601000  0.72472000  0.74549000  1.0
  C  C127  1  0.50399000  0.25452000  0.27529000  1.0
  C  C128  1  0.00399000  0.27529000  0.25451000  1.0
  C  C129  1  0.49601000  0.74549000  0.72472000  1.0
  C  C130  1  0.10233000  0.78838000  0.79805000  1.0
  C  C131  1  0.39768000  0.20196000  0.21162000  1.0
  C  C132  1  0.89768000  0.21162000  0.20195000  1.0
  C  C133  1  0.60232000  0.79805000  0.78838000  1.0
  C  C134  1  0.11144000  0.87722000  0.80626000  1.0
  C  C135  1  0.38856000  0.19374000  0.12278000  1.0
  C  C136  1  0.88856000  0.12278000  0.19373000  1.0
  C  C137  1  0.61144000  0.80627000  0.87722000  1.0
  C  C138  1  0.06505000  0.58283000  0.68678000  1.0
  C  C139  1  0.43495000  0.31322000  0.41717000  1.0
  C  C140  1  0.93495000  0.41717000  0.31322000  1.0
  C  C141  1  0.56505000  0.68678000  0.58283000  1.0
  C  C142  1  0.11682000  0.51929000  0.71290000  1.0
  C  C143  1  0.38317000  0.28711000  0.48071000  1.0
  C  C144  1  0.88318000  0.48071000  0.28711000  1.0
  C  C145  1  0.61683000  0.71289000  0.51929000  1.0
  C  C146  1  0.18940000  0.46740000  0.66083000  1.0
  C  C147  1  0.31059000  0.33917000  0.53260000  1.0
  C  C148  1  0.81060000  0.53260000  0.33917000  1.0
  C  C149  1  0.68941000  0.66083000  0.46740000  1.0
  C  C150  1  0.21263000  0.47577000  0.58063000  1.0
  C  C151  1  0.28737000  0.41937000  0.52423000  1.0
  C  C152  1  0.78737000  0.52423000  0.41937000  1.0
  C  C153  1  0.71263000  0.58063000  0.47577000  1.0
  C  C154  1  0.16137000  0.54076000  0.55656000  1.0
  C  C155  1  0.33863000  0.44344000  0.45924000  1.0
  C  C156  1  0.83863000  0.45924000  0.44344000  1.0
  C  C157  1  0.66137000  0.55656000  0.54076000  1.0
  C  C158  1  0.08995000  0.59380000  0.60851000  1.0
  C  C159  1  0.41006000  0.39149000  0.40620000  1.0
  C  C160  1  0.91006000  0.40620000  0.39149000  1.0
  C  C161  1  0.58995000  0.60851000  0.59380000  1.0
  C  C162  1  0.44175000  0.14434000  0.64640000  1.0
  C  C163  1  0.05825000  0.35360000  0.85566000  1.0
  C  C164  1  0.55825000  0.85566000  0.35360000  1.0
  C  C165  1  0.94175000  0.64640000  0.14434000  1.0
  C  C166  1  0.47188000  0.06895000  0.57123000  1.0
  C  C167  1  0.02812000  0.42877000  0.93105000  1.0
  C  C168  1  0.52812000  0.93105000  0.42877000  1.0
  C  C169  1  0.97188000  0.57123000  0.06895000  1.0
  C  C170  1  0.58691000  0.07965000  0.54469000  1.0
  C  C171  1  0.91309000  0.45531000  0.92034000  1.0
  C  C172  1  0.41308000  0.92034000  0.45531000  1.0
  C  C173  1  0.08691000  0.54469000  0.07965000  1.0
  C  C174  1  0.38525000  0.98847000  0.52586000  1.0
  C  C175  1  0.11475000  0.47414000  0.01153000  1.0
  C  C176  1  0.61475000  0.01153000  0.47414000  1.0
  C  C177  1  0.88525000  0.52586000  0.98847000  1.0
  N  N178  1  0.37382000  0.38333000  0.79183000  1.0
  N  N179  1  0.12618000  0.20817000  0.61667000  1.0
  N  N180  1  0.62618000  0.61667000  0.20817000  1.0
  N  N181  1  0.87381000  0.79183000  0.38333000  1.0
  N  N182  1  0.54592000  0.47518000  0.80582000  1.0
  N  N183  1  0.95408000  0.19418000  0.52482000  1.0
  N  N184  1  0.45408000  0.52482000  0.19418000  1.0
  N  N185  1  0.04592000  0.80582000  0.47518000  1.0
  N  N186  1  0.49441000  0.51818000  0.87733000  1.0
  N  N187  1  0.00559000  0.12267000  0.48183000  1.0
  N  N188  1  0.50559000  0.48183000  0.12267000  1.0
  N  N189  1  0.99440000  0.87733000  0.51817000  1.0
  N  N190  1  0.10405000  0.12214000  0.76468000  1.0
  N  N191  1  0.39595000  0.23532000  0.87786000  1.0
  N  N192  1  0.89595000  0.87786000  0.23532000  1.0
  N  N193  1  0.60405000  0.76468000  0.12214000  1.0
  N  N194  1  0.02778000  0.99064000  0.76346000  1.0
  N  N195  1  0.47222000  0.23654000  0.00935000  1.0
  N  N196  1  0.97222000  0.00935000  0.23654000  1.0
  N  N197  1  0.52778000  0.76346000  0.99065000  1.0
  N  N198  1  0.92683000  0.03026000  0.75746000  1.0
  N  N199  1  0.57318000  0.24255000  0.96974000  1.0
  N  N200  1  0.07317000  0.96974000  0.24255000  1.0
  N  N201  1  0.42683000  0.75745000  0.03026000  1.0
  N  N202  1  0.98665000  0.63376000  0.73706000  1.0
  N  N203  1  0.51335000  0.26294000  0.36624000  1.0
  N  N204  1  0.01335000  0.36624000  0.26294000  1.0
  N  N205  1  0.48665000  0.73706000  0.63376000  1.0
  O  O206  1  0.33751000  0.12725000  0.67022000  1.0
  O  O207  1  0.16249000  0.32978000  0.87275000  1.0
  O  O208  1  0.66249000  0.87275000  0.32979000  1.0
  O  O209  1  0.83751000  0.67022000  0.12725000  1.0
  O  O210  1  0.51817000  0.21817000  0.67954000  1.0
  O  O211  1  0.98182000  0.32045000  0.78183000  1.0
  O  O212  1  0.48183000  0.78183000  0.32046000  1.0
  O  O213  1  0.01817000  0.67954000  0.21817000  1.0
