# generated using pymatgen
data_ZnH31C26NO8
_symmetry_space_group_name_H-M   'P 1'
_cell_length_a   12.71000000
_cell_length_b   14.06350000
_cell_length_c   16.94290000
_cell_angle_alpha   92.14790000
_cell_angle_beta   90.23820000
_cell_angle_gamma   94.85430000
_symmetry_Int_Tables_number   1
_chemical_formula_structural   ZnH31C26NO8
_chemical_formula_sum   'Zn2 H62 C52 N2 O16'
_cell_volume   3015.42926501
_cell_formula_units_Z   2
loop_
 _symmetry_equiv_pos_site_id
 _symmetry_equiv_pos_as_xyz
  1  'x, y, z'
loop_
 _atom_site_type_symbol
 _atom_site_label
 _atom_site_symmetry_multiplicity
 _atom_site_fract_x
 _atom_site_fract_y
 _atom_site_fract_z
 _atom_site_occupancy
  Zn  Zn0  1  0.40505000  0.49263000  0.48088000  1.0
  Zn  Zn1  1  0.62104000  0.50314000  0.49173000  1.0
  H  H2  1  0.67535000  0.58699000  0.71694000  1.0
  H  H3  1  0.74195000  0.74504000  0.39774000  1.0
  H  H4  1  0.92552000  0.72409000  0.34100000  1.0
  H  H5  1  0.91493000  0.84201000  0.38006000  1.0
  H  H6  1  0.90885000  0.81800000  0.27644000  1.0
  H  H7  1  0.22655000  0.62116000  0.65953000  1.0
  H  H8  1  0.26533000  0.69144000  0.74599000  1.0
  H  H9  1  0.11313000  0.50990000  0.74259000  1.0
  H  H10  1  0.15223000  0.58025000  0.82787000  1.0
  H  H11  1  0.06877000  0.72159000  0.76978000  1.0
  H  H12  1  0.97505000  0.62237000  0.78129000  1.0
  H  H13  1  0.41813000  0.40363000  0.21832000  1.0
  H  H14  1  0.02621000  0.64782000  0.68644000  1.0
  H  H15  1  0.34019000  0.79227000  0.84540000  1.0
  H  H16  1  0.40306000  0.77696000  0.93794000  1.0
  H  H17  1  0.16492000  0.73871000  0.90662000  1.0
  H  H18  1  0.22977000  0.73010000  0.99828000  1.0
  H  H19  1  0.29081000  0.90741000  0.99654000  1.0
  H  H20  1  0.15112000  0.88829000  0.99192000  1.0
  H  H21  1  0.22376000  0.91504000  0.90522000  1.0
  H  H22  1  0.50857000  0.81622000  0.20533000  1.0
  H  H23  1  0.44669000  0.78820000  0.11114000  1.0
  H  H24  1  0.60999000  0.70080000  0.98609000  1.0
  H  H25  1  0.65142000  0.91785000  0.13835000  1.0
  H  H26  1  0.58839000  0.89031000  0.04599000  1.0
  H  H27  1  0.42659000  0.96863000  0.09497000  1.0
  H  H28  1  0.54093000  0.05016000  0.09990000  1.0
  H  H29  1  0.49096000  0.99702000  0.18703000  1.0
  H  H30  1  0.30998000  0.96642000  0.30396000  1.0
  H  H31  1  0.39823000  0.07160000  0.31579000  1.0
  H  H32  1  0.18901000  0.03620000  0.40402000  1.0
  H  H33  1  0.27324000  0.14317000  0.40905000  1.0
  H  H34  1  0.24290000  0.16426000  0.26250000  1.0
  H  H35  1  0.41477000  0.55637000  0.98185000  1.0
  H  H36  1  0.12236000  0.15837000  0.31495000  1.0
  H  H37  1  0.15754000  0.05737000  0.25828000  1.0
  H  H38  1  0.79653000  0.01164000  0.51651000  1.0
  H  H39  1  0.73186000  0.90735000  0.46860000  1.0
  H  H40  1  0.72096000  0.96305000  0.64521000  1.0
  H  H41  1  0.65005000  0.86184000  0.59912000  1.0
  H  H42  1  0.81784000  0.79337000  0.55959000  1.0
  H  H43  1  0.81715000  0.81650000  0.66309000  1.0
  H  H44  1  0.89345000  0.89538000  0.60194000  1.0
  H  H45  1  0.97155000  0.27174000  0.37232000  1.0
  H  H46  1  0.39876000  0.44900000  0.07844000  1.0
  H  H47  1  0.88283000  0.36339000  0.37220000  1.0
  H  H48  1  0.87607000  0.19727000  0.48568000  1.0
  H  H49  1  0.78711000  0.28814000  0.48840000  1.0
  H  H50  1  0.72230000  0.24131000  0.35250000  1.0
  H  H51  1  0.70694000  0.14287000  0.41473000  1.0
  H  H52  1  0.81176000  0.15021000  0.34509000  1.0
  H  H53  1  0.02020000  0.72703000  0.45732000  1.0
  H  H54  1  0.14130000  0.67246000  0.44512000  1.0
  H  H55  1  0.08174000  0.78588000  0.59413000  1.0
  H  H56  1  0.20380000  0.73654000  0.57679000  1.0
  H  H57  1  0.69516000  0.64906000  0.85680000  1.0
  H  H58  1  0.23889000  0.84313000  0.46112000  1.0
  H  H59  1  0.21942000  0.91162000  0.54832000  1.0
  H  H60  1  0.11592000  0.89241000  0.47742000  1.0
  H  H61  1  0.74948000  0.71273000  0.21766000  1.0
  H  H62  1  0.75345000  0.62331000  0.29068000  1.0
  H  H63  1  0.72607000  0.83440000  0.32897000  1.0
  C  C64  1  0.50317000  0.31378000  0.48453000  1.0
  C  C65  1  0.97248000  0.45704000  0.48426000  1.0
  C  C66  1  0.86734000  0.48247000  0.49338000  1.0
  C  C67  1  0.15839000  0.50543000  0.48386000  1.0
  C  C68  1  0.52511000  0.50089000  0.33543000  1.0
  C  C69  1  0.50223000  0.53379000  0.63550000  1.0
  C  C70  1  0.51692000  0.53011000  0.25186000  1.0
  C  C71  1  0.50634000  0.57267000  0.71898000  1.0
  C  C72  1  0.56219000  0.61891000  0.22742000  1.0
  C  C73  1  0.41529000  0.58900000  0.76347000  1.0
  C  C74  1  0.54925000  0.64557000  0.14896000  1.0
  C  C75  1  0.52220000  0.68203000  0.47069000  1.0
  C  C76  1  0.42698000  0.63136000  0.84017000  1.0
  C  C77  1  0.49192000  0.58389000  0.09364000  1.0
  C  C78  1  0.52733000  0.64669000  0.87659000  1.0
  C  C79  1  0.44459000  0.49661000  0.12051000  1.0
  C  C80  1  0.61696000  0.63493000  0.82985000  1.0
  C  C81  1  0.45608000  0.47056000  0.19788000  1.0
  C  C82  1  0.60630000  0.59864000  0.75274000  1.0
  C  C83  1  0.47887000  0.60202000  0.01041000  1.0
  C  C84  1  0.54055000  0.65782000  0.96264000  1.0
  C  C85  1  0.72469000  0.69299000  0.27766000  1.0
  C  C86  1  0.52871000  0.78376000  0.46341000  1.0
  C  C87  1  0.76539000  0.76895000  0.33875000  1.0
  C  C88  1  0.88506000  0.78948000  0.33388000  1.0
  C  C89  1  0.23779000  0.61889000  0.72407000  1.0
  C  C90  1  0.13599000  0.58355000  0.76429000  1.0
  C  C91  1  0.04672000  0.64723000  0.74951000  1.0
  C  C92  1  0.33414000  0.75226000  0.90044000  1.0
  C  C93  1  0.23239000  0.76901000  0.94303000  1.0
  C  C94  1  0.22402000  0.87568000  0.96014000  1.0
  C  C95  1  0.52298000  0.80892000  0.14126000  1.0
  C  C96  1  0.57384000  0.90116000  0.10960000  1.0
  C  C97  1  0.49403000  0.21199000  0.46971000  1.0
  C  C98  1  0.50438000  0.98373000  0.12363000  1.0
  C  C99  1  0.33682000  0.02593000  0.34534000  1.0
  C  C100  1  0.24452000  0.08245000  0.36975000  1.0
  C  C101  1  0.18892000  0.11744000  0.29741000  1.0
  C  C102  1  0.72717000  0.95933000  0.51841000  1.0
  C  C103  1  0.72325000  0.90915000  0.59660000  1.0
  C  C104  1  0.81840000  0.85055000  0.60575000  1.0
  C  C105  1  0.91900000  0.31228000  0.40942000  1.0
  C  C106  1  0.83635000  0.24675000  0.44911000  1.0
  C  C107  1  0.76559000  0.19194000  0.38650000  1.0
  C  C108  1  0.55079000  0.97051000  0.46902000  1.0
  C  C109  1  0.08483000  0.69707000  0.48888000  1.0
  C  C110  1  0.13848000  0.76871000  0.54792000  1.0
  C  C111  1  0.18032000  0.85875000  0.50624000  1.0
  C  C112  1  0.47429000  0.02656000  0.44324000  1.0
  C  C113  1  0.48451000  0.12584000  0.45577000  1.0
  C  C114  1  0.53694000  0.87083000  0.46293000  1.0
  C  C115  1  0.05297000  0.52706000  0.49779000  1.0
  N  N116  1  0.24597000  0.49162000  0.47283000  1.0
  N  N117  1  0.78071000  0.50216000  0.49876000  1.0
  O  O118  1  0.41769000  0.35137000  0.50060000  1.0
  O  O119  1  0.31785000  0.55422000  0.73632000  1.0
  O  O120  1  0.33635000  0.65164000  0.88030000  1.0
  O  O121  1  0.59280000  0.73400000  0.12689000  1.0
  O  O122  1  0.38334000  0.98078000  0.41097000  1.0
  O  O123  1  0.63850000  0.01557000  0.50640000  1.0
  O  O124  1  0.99196000  0.36617000  0.46617000  1.0
  O  O125  1  0.03492000  0.61384000  0.52931000  1.0
  O  O126  1  0.60533000  0.64877000  0.49717000  1.0
  O  O127  1  0.59551000  0.35631000  0.47918000  1.0
  O  O128  1  0.43504000  0.63551000  0.45138000  1.0
  O  O129  1  0.44039000  0.46277000  0.36514000  1.0
  O  O130  1  0.58686000  0.50195000  0.60870000  1.0
  O  O131  1  0.61382000  0.51576000  0.37095000  1.0
  O  O132  1  0.41774000  0.53810000  0.59538000  1.0
  O  O133  1  0.61086000  0.68403000  0.28124000  1.0
