# generated using pymatgen
data_ZnH26C22(N2O3)2
_symmetry_space_group_name_H-M   'P 1'
_cell_length_a   10.79120000
_cell_length_b   11.48960000
_cell_length_c   12.43540000
_cell_angle_alpha   96.81760000
_cell_angle_beta   114.59000000
_cell_angle_gamma   107.48100000
_symmetry_Int_Tables_number   1
_chemical_formula_structural   ZnH26C22(N2O3)2
_chemical_formula_sum   'Zn2 H52 C44 N8 O12'
_cell_volume   1283.36685105
_cell_formula_units_Z   2
loop_
 _symmetry_equiv_pos_site_id
 _symmetry_equiv_pos_as_xyz
  1  'x, y, z'
loop_
 _atom_site_type_symbol
 _atom_site_label
 _atom_site_symmetry_multiplicity
 _atom_site_fract_x
 _atom_site_fract_y
 _atom_site_fract_z
 _atom_site_occupancy
  Zn  Zn0  1  0.55271000  0.97536000  0.71498000  1.0
  Zn  Zn1  1  0.44729000  0.02464000  0.28502000  1.0
  H  H2  1  0.18624000  0.27724000  0.21709000  1.0
  H  H3  1  0.81376000  0.72276000  0.78291000  1.0
  H  H4  1  0.22743000  0.42533000  0.31479000  1.0
  H  H5  1  0.77257000  0.57468000  0.68521000  1.0
  H  H6  1  0.86652000  0.38485000  0.65721000  1.0
  H  H7  1  0.13348000  0.61515000  0.34279000  1.0
  H  H8  1  0.58526000  0.21508000  0.59621000  1.0
  H  H9  1  0.41473000  0.78492000  0.40379000  1.0
  H  H10  1  0.82914000  0.96357000  0.80942000  1.0
  H  H11  1  0.17086000  0.03643000  0.19058000  1.0
  H  H12  1  0.98733000  0.09917000  0.92369000  1.0
  H  H13  1  0.01267000  0.90082000  0.07631000  1.0
  H  H14  1  0.98724000  0.02656000  0.78938000  1.0
  H  H15  1  0.01276000  0.97344000  0.21062000  1.0
  H  H16  1  0.12070000  0.35619000  0.74526000  1.0
  H  H17  1  0.87930000  0.64381000  0.25474000  1.0
  H  H18  1  0.13633000  0.23590000  0.82114000  1.0
  H  H19  1  0.86367000  0.76410000  0.17886000  1.0
  H  H20  1  0.27339000  0.45684000  0.96533000  1.0
  H  H21  1  0.72661000  0.54316000  0.03467000  1.0
  H  H22  1  0.10299000  0.47890000  0.91564000  1.0
  H  H23  1  0.89701000  0.52110000  0.08436000  1.0
  H  H24  1  0.14623000  0.50758000  0.12660000  1.0
  H  H25  1  0.85377000  0.49242000  0.87340000  1.0
  H  H26  1  0.31054000  0.47644000  0.17149000  1.0
  H  H27  1  0.68946000  0.52356000  0.82851000  1.0
  H  H28  1  0.57775000  0.81381000  0.91001000  1.0
  H  H29  1  0.42225000  0.18619000  0.08999000  1.0
  H  H30  1  0.70647000  0.93525000  0.16211000  1.0
  H  H31  1  0.29353000  0.06475000  0.83789000  1.0
  H  H32  1  0.81039000  0.28768000  0.95845000  1.0
  H  H33  1  0.18961000  0.71232000  0.04155000  1.0
  H  H34  1  0.69172000  0.30763000  0.01697000  1.0
  H  H35  1  0.30828000  0.69237000  0.98303000  1.0
  H  H36  1  0.61446000  0.22733000  0.85805000  1.0
  H  H37  1  0.38554000  0.77267000  0.14195000  1.0
  H  H38  1  0.76856000  0.15933000  0.27637000  1.0
  H  H39  1  0.23144000  0.84067000  0.72363000  1.0
  H  H40  1  0.75591000  0.27567000  0.19722000  1.0
  H  H41  1  0.24409000  0.72433000  0.80278000  1.0
  H  H42  1  0.01803000  0.31787000  0.35918000  1.0
  H  H43  1  0.98197000  0.68213000  0.64082000  1.0
  H  H44  1  0.00780000  0.17765000  0.27142000  1.0
  H  H45  1  0.99220000  0.82235000  0.72858000  1.0
  H  H46  1  0.60291000  0.71796000  0.48354000  1.0
  H  H47  1  0.39709000  0.28204000  0.51647000  1.0
  H  H48  1  0.61075000  0.53347000  0.36061000  1.0
  H  H49  1  0.38925000  0.46653000  0.63939000  1.0
  H  H50  1  0.18554000  0.22212000  0.60501000  1.0
  H  H51  1  0.81446000  0.77788000  0.39499000  1.0
  H  H52  1  0.08898000  0.82379000  0.50090000  1.0
  H  H53  1  0.91102000  0.17621000  0.49910000  1.0
  C  C54  1  0.15697000  0.36149000  0.21990000  1.0
  C  C55  1  0.84303000  0.63851000  0.78010000  1.0
  C  C56  1  0.85152000  0.13492000  0.75834000  1.0
  C  C57  1  0.14848000  0.86508000  0.24166000  1.0
  C  C58  1  0.83024000  0.29643000  0.67904000  1.0
  C  C59  1  0.16976000  0.70357000  0.32096000  1.0
  C  C60  1  0.69265000  0.21234000  0.64944000  1.0
  C  C61  1  0.30736000  0.78766000  0.35056000  1.0
  C  C62  1  0.91768000  0.05180000  0.82445000  1.0
  C  C63  1  0.08232000  0.94820000  0.17555000  1.0
  C  C64  1  0.08984000  0.30910000  0.80743000  1.0
  C  C65  1  0.91016000  0.69090000  0.19257000  1.0
  C  C66  1  0.15289000  0.40703000  0.92963000  1.0
  C  C67  1  0.84711000  0.59297000  0.07037000  1.0
  C  C68  1  0.18925000  0.43116000  0.13312000  1.0
  C  C69  1  0.81075000  0.56884000  0.86688000  1.0
  C  C70  1  0.68381000  0.11876000  0.98042000  1.0
  C  C71  1  0.31619000  0.88124000  0.01958000  1.0
  C  C72  1  0.62546000  0.91367000  0.96013000  1.0
  C  C73  1  0.37454000  0.08633000  0.03988000  1.0
  C  C74  1  0.68891000  0.97258000  0.08330000  1.0
  C  C75  1  0.31109000  0.02742000  0.91670000  1.0
  C  C76  1  0.70098000  0.24227000  0.95157000  1.0
  C  C77  1  0.29902000  0.75772000  0.04843000  1.0
  C  C78  1  0.79937000  0.20068000  0.21153000  1.0
  C  C79  1  0.20063000  0.79932000  0.78847000  1.0
  C  C80  1  0.96636000  0.25510000  0.26454000  1.0
  C  C81  1  0.03364000  0.74490000  0.73546000  1.0
  C  C82  1  0.49506000  0.60274000  0.56885000  1.0
  C  C83  1  0.50494000  0.39726000  0.43115000  1.0
  C  C84  1  0.55789000  0.62236000  0.49041000  1.0
  C  C85  1  0.44211000  0.37764000  0.50959000  1.0
  C  C86  1  0.56281000  0.52023000  0.42231000  1.0
  C  C87  1  0.43719000  0.47977000  0.57769000  1.0
  C  C88  1  0.49292000  0.71268000  0.64587000  1.0
  C  C89  1  0.50708000  0.28732000  0.35413000  1.0
  C  C90  1  0.15143000  0.02538000  0.55924000  1.0
  C  C91  1  0.84857000  0.97461000  0.44076000  1.0
  C  C92  1  0.10251000  0.12541000  0.55866000  1.0
  C  C93  1  0.89749000  0.87459000  0.44134000  1.0
  C  C94  1  0.04801000  0.89977000  0.49993000  1.0
  C  C95  1  0.95199000  0.10023000  0.50007000  1.0
  C  C96  1  0.31412000  0.05361000  0.62655000  1.0
  C  C97  1  0.68588000  0.94639000  0.37345000  1.0
  N  N98  1  0.70731000  0.11305000  0.69944000  1.0
  N  N99  1  0.29269000  0.88695000  0.30056000  1.0
  N  N100  1  0.92948000  0.24657000  0.74765000  1.0
  N  N101  1  0.07051000  0.75343000  0.25235000  1.0
  N  N102  1  0.62272000  0.00536000  0.89732000  1.0
  N  N103  1  0.37728000  0.99463000  0.10268000  1.0
  N  N104  1  0.72515000  0.10161000  0.09492000  1.0
  N  N105  1  0.27485000  0.89839000  0.90508000  1.0
  O  O106  1  0.12454000  0.34448000  0.01382000  1.0
  O  O107  1  0.87546000  0.65552000  0.98618000  1.0
  O  O108  1  0.00410000  0.32401000  0.18717000  1.0
  O  O109  1  0.99590000  0.67599000  0.81283000  1.0
  O  O110  1  0.57082000  0.82322000  0.64481000  1.0
  O  O111  1  0.42918000  0.17678000  0.35520000  1.0
  O  O112  1  0.42245000  0.69413000  0.70478000  1.0
  O  O113  1  0.57755000  0.30587000  0.29522000  1.0
  O  O114  1  0.34658000  0.95380000  0.62126000  1.0
  O  O115  1  0.65342000  0.04620000  0.37874000  1.0
  O  O116  1  0.40477000  0.16553000  0.68393000  1.0
  O  O117  1  0.59522000  0.83447000  0.31607000  1.0
