# generated using pymatgen
data_NaCdH22C21S3N3O5
_symmetry_space_group_name_H-M   'P 1'
_cell_length_a   10.35870000
_cell_length_b   11.43790000
_cell_length_c   11.44320000
_cell_angle_alpha   91.24040000
_cell_angle_beta   107.72100000
_cell_angle_gamma   106.61000000
_symmetry_Int_Tables_number   1
_chemical_formula_structural   NaCdH22C21S3N3O5
_chemical_formula_sum   'Na2 Cd2 H44 C42 S6 N6 O10'
_cell_volume   1228.78815680
_cell_formula_units_Z   2
loop_
 _symmetry_equiv_pos_site_id
 _symmetry_equiv_pos_as_xyz
  1  'x, y, z'
loop_
 _atom_site_type_symbol
 _atom_site_label
 _atom_site_symmetry_multiplicity
 _atom_site_fract_x
 _atom_site_fract_y
 _atom_site_fract_z
 _atom_site_occupancy
  Na  Na0  1  0.20982000  0.73317000  0.37276000  1.0
  Na  Na1  1  0.79018000  0.26683000  0.62724000  1.0
  Cd  Cd2  1  0.96815000  0.02359000  0.24556000  1.0
  Cd  Cd3  1  0.03185000  0.97641000  0.75444000  1.0
  H  H4  1  0.77510000  0.35963000  0.25779000  1.0
  H  H5  1  0.22490000  0.64037000  0.74221000  1.0
  H  H6  1  0.53146000  0.25172000  0.11427000  1.0
  H  H7  1  0.46854000  0.74828000  0.88573000  1.0
  H  H8  1  0.34066000  0.23531000  0.91504000  1.0
  H  H9  1  0.65933000  0.76469000  0.08496000  1.0
  H  H10  1  0.38447000  0.37592000  0.75977000  1.0
  H  H11  1  0.61553000  0.62408000  0.24023000  1.0
  H  H12  1  0.62315000  0.53042000  0.79896000  1.0
  H  H13  1  0.37685000  0.46958000  0.20104000  1.0
  H  H14  1  0.86756000  0.63051000  0.93670000  1.0
  H  H15  1  0.13244000  0.36949000  0.06330000  1.0
  H  H16  1  0.10867000  0.70057000  0.97977000  1.0
  H  H17  1  0.89133000  0.29943000  0.02023000  1.0
  H  H18  1  0.05237000  0.80895000  0.05267000  1.0
  H  H19  1  0.94763000  0.19105000  0.94733000  1.0
  H  H20  1  0.30848000  0.89166000  0.06625000  1.0
  H  H21  1  0.69152000  0.10835000  0.93375000  1.0
  H  H22  1  0.34348000  0.76414000  0.14302000  1.0
  H  H23  1  0.65652000  0.23586000  0.85698000  1.0
  H  H24  1  0.47494000  0.02343000  0.24732000  1.0
  H  H25  1  0.52506000  0.97657000  0.75268000  1.0
  H  H26  1  0.42160000  0.02132000  0.38159000  1.0
  H  H27  1  0.57840000  0.97868000  0.61842000  1.0
  H  H28  1  0.63477000  0.95204000  0.42088000  1.0
  H  H29  1  0.36523000  0.04796000  0.57912000  1.0
  H  H30  1  0.54608000  0.83403000  0.29366000  1.0
  H  H31  1  0.45392000  0.16597000  0.70634000  1.0
  H  H32  1  0.55507000  0.67561000  0.41005000  1.0
  H  H33  1  0.44493000  0.32439000  0.58995000  1.0
  H  H34  1  0.64142000  0.76722000  0.55726000  1.0
  H  H35  1  0.35858000  0.23278000  0.44274000  1.0
  H  H36  1  0.41694000  0.67455000  0.61302000  1.0
  H  H37  1  0.58306000  0.32544000  0.38698000  1.0
  H  H38  1  0.50147000  0.56454000  0.58619000  1.0
  H  H39  1  0.49854000  0.43546000  0.41381000  1.0
  H  H40  1  0.24814000  0.40291000  0.52124000  1.0
  H  H41  1  0.75185000  0.59709000  0.47876000  1.0
  H  H42  1  0.18609000  0.52663000  0.55380000  1.0
  H  H43  1  0.81391000  0.47337000  0.44620000  1.0
  H  H44  1  0.99758000  0.36040000  0.39732000  1.0
  H  H45  1  0.00242000  0.63960000  0.60268000  1.0
  H  H46  1  0.10479000  0.38333000  0.29754000  1.0
  H  H47  1  0.89521000  0.61667000  0.70246000  1.0
  C  C48  1  0.92481000  0.50608000  0.21112000  1.0
  C  C49  1  0.07518000  0.49392000  0.78888000  1.0
  C  C50  1  0.79524000  0.41755000  0.18697000  1.0
  C  C51  1  0.20476000  0.58245000  0.81303000  1.0
  C  C52  1  0.68625000  0.40193000  0.07168000  1.0
  C  C53  1  0.31375000  0.59807000  0.92832000  1.0
  C  C54  1  0.55089000  0.31243000  0.04498000  1.0
  C  C55  1  0.44911000  0.68757000  0.95502000  1.0
  C  C56  1  0.44497000  0.30313000  0.93418000  1.0
  C  C57  1  0.55503000  0.69687000  0.06582000  1.0
  C  C58  1  0.47091000  0.38270000  0.84534000  1.0
  C  C59  1  0.52909000  0.61730000  0.15466000  1.0
  C  C60  1  0.60253000  0.46888000  0.86730000  1.0
  C  C61  1  0.39748000  0.53112000  0.13270000  1.0
  C  C62  1  0.71321000  0.48127000  0.98068000  1.0
  C  C63  1  0.28679000  0.51873000  0.01932000  1.0
  C  C64  1  0.84850000  0.57106000  0.00679000  1.0
  C  C65  1  0.15150000  0.42894000  0.99321000  1.0
  C  C66  1  0.95301000  0.58298000  0.11904000  1.0
  C  C67  1  0.04699000  0.41702000  0.88096000  1.0
  C  C68  1  0.12216000  0.75023000  0.06834000  1.0
  C  C69  1  0.87784000  0.24977000  0.93166000  1.0
  C  C70  1  0.27587000  0.82496000  0.12801000  1.0
  C  C71  1  0.72413000  0.17504000  0.87199000  1.0
  C  C72  1  0.43078000  0.96328000  0.30881000  1.0
  C  C73  1  0.56922000  0.03672000  0.69119000  1.0
  C  C74  1  0.52974000  0.88902000  0.36524000  1.0
  C  C75  1  0.47026000  0.11098000  0.63476000  1.0
  C  C76  1  0.53719000  0.72164000  0.48691000  1.0
  C  C77  1  0.46281000  0.27836000  0.51309000  1.0
  C  C78  1  0.44405000  0.62834000  0.54223000  1.0
  C  C79  1  0.55595000  0.37165000  0.45777000  1.0
  C  C80  1  0.21105000  0.47953000  0.48217000  1.0
  C  C81  1  0.78895000  0.52047000  0.51783000  1.0
  C  C82  1  0.07989000  0.42800000  0.37063000  1.0
  C  C83  1  0.92011000  0.57200000  0.62937000  1.0
  C  C84  1  0.92510000  0.84595000  0.45713000  1.0
  C  C85  1  0.07490000  0.15405000  0.54287000  1.0
  C  C86  1  0.76035000  0.15627000  0.32764000  1.0
  C  C87  1  0.23965000  0.84373000  0.67236000  1.0
  C  C88  1  0.15922000  0.11340000  0.06092000  1.0
  C  C89  1  0.84078000  0.88660000  0.93908000  1.0
  S  S90  1  0.92445000  0.80405000  0.31912000  1.0
  S  S91  1  0.07555000  0.19595000  0.68088000  1.0
  S  S92  1  0.73525000  0.08178000  0.19428000  1.0
  S  S93  1  0.26475000  0.91822000  0.80572000  1.0
  S  S94  1  0.19018000  0.17028000  0.20261000  1.0
  S  S95  1  0.80982000  0.82972000  0.79739000  1.0
  N  N96  1  0.92004000  0.87252000  0.55564000  1.0
  N  N97  1  0.07996000  0.12748000  0.44436000  1.0
  N  N98  1  0.77535000  0.21146000  0.42177000  1.0
  N  N99  1  0.22465000  0.78854000  0.57823000  1.0
  N  N100  1  0.13709000  0.07398000  0.95818000  1.0
  N  N101  1  0.86291000  0.92602000  0.04183000  1.0
  O  O102  1  0.03147000  0.53021000  0.32424000  1.0
  O  O103  1  0.96853000  0.46979000  0.67576000  1.0
  O  O104  1  0.08710000  0.66487000  0.15318000  1.0
  O  O105  1  0.91291000  0.33514000  0.84682000  1.0
  O  O106  1  0.28843000  0.88754000  0.24290000  1.0
  O  O107  1  0.71157000  0.11246000  0.75710000  1.0
  O  O108  1  0.46585000  0.80943000  0.44089000  1.0
  O  O109  1  0.53415000  0.19057000  0.55911000  1.0
  O  O110  1  0.31710000  0.56401000  0.44332000  1.0
  O  O111  1  0.68290000  0.43599000  0.55667000  1.0
