# generated using pymatgen
data_AlH7C14O5F
_symmetry_space_group_name_H-M   'P 1'
_cell_length_a   6.70168000
_cell_length_b   11.07876768
_cell_length_c   17.59550000
_cell_angle_alpha   92.84726366
_cell_angle_beta   96.69580000
_cell_angle_gamma   107.09572194
_symmetry_Int_Tables_number   1
_chemical_formula_structural   AlH7C14O5F
_chemical_formula_sum   'Al2 H14 C28 O10 F2'
_cell_volume   1235.30247573
_cell_formula_units_Z   2
loop_
 _symmetry_equiv_pos_site_id
 _symmetry_equiv_pos_as_xyz
  1  'x, y, z'
loop_
 _atom_site_type_symbol
 _atom_site_label
 _atom_site_symmetry_multiplicity
 _atom_site_fract_x
 _atom_site_fract_y
 _atom_site_fract_z
 _atom_site_occupancy
  Al  Al0  1  0.00482000  0.50178000  0.50324000  1.0
  Al  Al1  1  0.50551000  0.50218000  0.50291000  1.0
  H  H2  1  0.34397000  0.63878000  0.56930000  1.0
  H  H3  1  0.66275000  0.34975000  0.45756000  1.0
  H  H4  1  0.86684000  0.51835000  0.28574000  1.0
  H  H5  1  0.77483000  0.52008000  0.14475000  1.0
  H  H6  1  0.39151000  0.49280000  0.11336000  1.0
  H  H7  1  0.61193000  0.51055000  0.89204000  1.0
  H  H8  1  0.13985000  0.48311000  0.72157000  1.0
  H  H9  1  0.22824000  0.48061000  0.86263000  1.0
  H  H10  1  0.54375000  0.75660000  0.40030000  1.0
  H  H11  1  0.32710000  0.86710000  0.32635000  1.0
  H  H12  1  0.79730000  0.22589000  0.39671000  1.0
  H  H13  1  0.45594000  0.10285000  0.32374000  1.0
  H  H14  1  0.35190000  0.12385000  0.55221000  1.0
  H  H15  1  0.23420000  0.88704000  0.54762000  1.0
  C  C16  1  0.86668000  0.72734000  0.49310000  1.0
  C  C17  1  0.79347000  0.50292000  0.64152000  1.0
  C  C18  1  0.13729000  0.27397000  0.49914000  1.0
  C  C19  1  0.21660000  0.50142000  0.36465000  1.0
  C  C20  1  0.17737000  0.50648000  0.27974000  1.0
  C  C21  1  0.98017000  0.51412000  0.24694000  1.0
  C  C22  1  0.92902000  0.51469000  0.16843000  1.0
  C  C23  1  0.07579000  0.50643000  0.11848000  1.0
  C  C24  1  0.27489000  0.49984000  0.15017000  1.0
  C  C25  1  0.32156000  0.50030000  0.22906000  1.0
  C  C26  1  0.02385000  0.50292000  0.03798000  1.0
  C  C27  1  0.97772000  0.49861000  0.96849000  1.0
  C  C28  1  0.92730000  0.49562000  0.88795000  1.0
  C  C29  1  0.72949000  0.50343000  0.85566000  1.0
  C  C30  1  0.68528000  0.50413000  0.77674000  1.0
  C  C31  1  0.83042000  0.49749000  0.72652000  1.0
  C  C32  1  0.02598000  0.48825000  0.75994000  1.0
  C  C33  1  0.07500000  0.48695000  0.83850000  1.0
  C  C34  1  0.93107000  0.86656000  0.48517000  1.0
  C  C35  1  0.79482000  0.92771000  0.44496000  1.0
  C  C36  1  0.13090000  0.93649000  0.52002000  1.0
  C  C37  1  0.59802000  0.85938000  0.40119000  1.0
  C  C38  1  0.47745000  0.92146000  0.35952000  1.0
  C  C39  1  0.06558000  0.13272000  0.48823000  1.0
  C  C40  1  0.19758000  0.06925000  0.52216000  1.0
  C  C41  1  0.86562000  0.06384000  0.44549000  1.0
  C  C42  1  0.73926000  0.12392000  0.40011000  1.0
  C  C43  1  0.54936000  0.05457000  0.35839000  1.0
  O  O44  1  0.00809000  0.67239000  0.48945000  1.0
  O  O45  1  0.60813000  0.49218000  0.60953000  1.0
  O  O46  1  0.33140000  0.32915000  0.49538000  1.0
  O  O47  1  0.05371000  0.48253000  0.39873000  1.0
  O  O48  1  0.00117000  0.32908000  0.51241000  1.0
  O  O49  1  0.40307000  0.51462000  0.39639000  1.0
  O  O50  1  0.67875000  0.67405000  0.50573000  1.0
  O  O51  1  0.95692000  0.51927000  0.60781000  1.0
  O  O52  1  0.29422000  0.56032000  0.53639000  1.0
  O  O53  1  0.71476000  0.44092000  0.46993000  1.0
  F  F54  1  0.51441000  0.49115000  0.25582000  1.0
  F  F55  1  0.49361000  0.51475000  0.74957000  1.0
