# generated using pymatgen
data_Cd2H20C31(N2O3)3
_symmetry_space_group_name_H-M   'P 1'
_cell_length_a   13.71910000
_cell_length_b   13.74640000
_cell_length_c   21.16170000
_cell_angle_alpha   89.99970000
_cell_angle_beta   76.60600000
_cell_angle_gamma   89.99990000
_symmetry_Int_Tables_number   1
_chemical_formula_structural   Cd2H20C31(N2O3)3
_chemical_formula_sum   'Cd8 H80 C124 N24 O36'
_cell_volume   3882.29718646
_cell_formula_units_Z   4
loop_
 _symmetry_equiv_pos_site_id
 _symmetry_equiv_pos_as_xyz
  1  'x, y, z'
loop_
 _atom_site_type_symbol
 _atom_site_label
 _atom_site_symmetry_multiplicity
 _atom_site_fract_x
 _atom_site_fract_y
 _atom_site_fract_z
 _atom_site_occupancy
  Cd  Cd0  1  0.32772000  0.52763000  0.64769000  1.0
  Cd  Cd1  1  0.67230000  0.02762000  0.85230000  1.0
  Cd  Cd2  1  0.67229000  0.47237000  0.35230000  1.0
  Cd  Cd3  1  0.32771000  0.97236000  0.14770000  1.0
  Cd  Cd4  1  0.02667000  0.67969000  0.28231000  1.0
  Cd  Cd5  1  0.97334000  0.17969000  0.21769000  1.0
  Cd  Cd6  1  0.97333000  0.32033000  0.71770000  1.0
  Cd  Cd7  1  0.02667000  0.82032000  0.78230000  1.0
  H  H8  1  0.94307000  0.57278000  0.21141000  1.0
  H  H9  1  0.05694000  0.07278000  0.28859000  1.0
  H  H10  1  0.05694000  0.42722000  0.78860000  1.0
  H  H11  1  0.94307000  0.92723000  0.71140000  1.0
  H  H12  1  0.93075000  0.50221000  0.27486000  1.0
  H  H13  1  0.06925000  0.00221000  0.22514000  1.0
  H  H14  1  0.06925000  0.49779000  0.72514000  1.0
  H  H15  1  0.93076000  0.99780000  0.77486000  1.0
  H  H16  1  0.16600000  0.60493000  0.47557000  1.0
  H  H17  1  0.83399000  0.10493000  0.02442000  1.0
  H  H18  1  0.83399000  0.39506000  0.52443000  1.0
  H  H19  1  0.16600000  0.89506000  0.97557000  1.0
  H  H20  1  0.85236000  0.66410000  0.49862000  1.0
  H  H21  1  0.14763000  0.16410000  0.00139000  1.0
  H  H22  1  0.14763000  0.33592000  0.50139000  1.0
  H  H23  1  0.85236000  0.83592000  0.99861000  1.0
  H  H24  1  0.96819000  0.59143000  0.66588000  1.0
  H  H25  1  0.03181000  0.09143000  0.83412000  1.0
  H  H26  1  0.03180000  0.40857000  0.33413000  1.0
  H  H27  1  0.96819000  0.90857000  0.16587000  1.0
  H  H28  1  0.68952000  0.74694000  0.77865000  1.0
  H  H29  1  0.31048000  0.24694000  0.72135000  1.0
  H  H30  1  0.31047000  0.25308000  0.22135000  1.0
  H  H31  1  0.68953000  0.75305000  0.27865000  1.0
  H  H32  1  0.53502000  0.68398000  0.74883000  1.0
  H  H33  1  0.46498000  0.18397000  0.75117000  1.0
  H  H34  1  0.46498000  0.31603000  0.25117000  1.0
  H  H35  1  0.53502000  0.81601000  0.24883000  1.0
  H  H36  1  0.71456000  0.56710000  0.57189000  1.0
  H  H37  1  0.28544000  0.06709000  0.92811000  1.0
  H  H38  1  0.28544000  0.43290000  0.42812000  1.0
  H  H39  1  0.71455000  0.93290000  0.07189000  1.0
  H  H40  1  0.47204000  0.39837000  0.52461000  1.0
  H  H41  1  0.52797000  0.89836000  0.97539000  1.0
  H  H42  1  0.52797000  0.60163000  0.47538000  1.0
  H  H43  1  0.47202000  0.10161000  0.02461000  1.0
  H  H44  1  0.20890000  0.30489000  0.65752000  1.0
  H  H45  1  0.79110000  0.80487000  0.84248000  1.0
  H  H46  1  0.79111000  0.69510000  0.34247000  1.0
  H  H47  1  0.20890000  0.19510000  0.15753000  1.0
  H  H48  1  0.26177000  0.16565000  0.56230000  1.0
  H  H49  1  0.73823000  0.66563000  0.93770000  1.0
  H  H50  1  0.73826000  0.83434000  0.43769000  1.0
  H  H51  1  0.26175000  0.33434000  0.06230000  1.0
  H  H52  1  0.58177000  0.27048000  0.47421000  1.0
  H  H53  1  0.41823000  0.77047000  0.02579000  1.0
  H  H54  1  0.41824000  0.72953000  0.52578000  1.0
  H  H55  1  0.58175000  0.22950000  0.97421000  1.0
  H  H56  1  0.56861000  0.08654000  0.31091000  1.0
  H  H57  1  0.43139000  0.58654000  0.18909000  1.0
  H  H58  1  0.43140000  0.91347000  0.68908000  1.0
  H  H59  1  0.56860000  0.41346000  0.81092000  1.0
  H  H60  1  0.29613000  0.16914000  0.44763000  1.0
  H  H61  1  0.70387000  0.66912000  0.05237000  1.0
  H  H62  1  0.70388000  0.83087000  0.55237000  1.0
  H  H63  1  0.29611000  0.33086000  0.94762000  1.0
  H  H64  1  0.73584000  0.18850000  0.45934000  1.0
  H  H65  1  0.26416000  0.68850000  0.04066000  1.0
  H  H66  1  0.26416000  0.81151000  0.54065000  1.0
  H  H67  1  0.73583000  0.31149000  0.95935000  1.0
  H  H68  1  0.92585000  0.19549000  0.37633000  1.0
  H  H69  1  0.07416000  0.69549000  0.12367000  1.0
  H  H70  1  0.07416000  0.80452000  0.62366000  1.0
  H  H71  1  0.92584000  0.30451000  0.87634000  1.0
  H  H72  1  0.70929000  0.19532000  0.26340000  1.0
  H  H73  1  0.29071000  0.69532000  0.23660000  1.0
  H  H74  1  0.29072000  0.80469000  0.73659000  1.0
  H  H75  1  0.70928000  0.30467000  0.76340000  1.0
  H  H76  1  0.44489000  0.10653000  0.24157000  1.0
  H  H77  1  0.55510000  0.60653000  0.25843000  1.0
  H  H78  1  0.55512000  0.89346000  0.75843000  1.0
  H  H79  1  0.44489000  0.39346000  0.74157000  1.0
  H  H80  1  0.18044000  0.94520000  0.31132000  1.0
  H  H81  1  0.81955000  0.44519000  0.18869000  1.0
  H  H82  1  0.81955000  0.05482000  0.68868000  1.0
  H  H83  1  0.18046000  0.55481000  0.81131000  1.0
  H  H84  1  0.25208000  0.00903000  0.41661000  1.0
  H  H85  1  0.74792000  0.50902000  0.08340000  1.0
  H  H86  1  0.74792000  0.99099000  0.58339000  1.0
  H  H87  1  0.25209000  0.49098000  0.91660000  1.0
  C  C88  1  0.07574000  0.59540000  0.57385000  1.0
  C  C89  1  0.92426000  0.09540000  0.92615000  1.0
  C  C90  1  0.92425000  0.40459000  0.42616000  1.0
  C  C91  1  0.07574000  0.90459000  0.07384000  1.0
  C  C92  1  0.09109000  0.61110000  0.50681000  1.0
  C  C93  1  0.90890000  0.11110000  0.99319000  1.0
  C  C94  1  0.90891000  0.38890000  0.49319000  1.0
  C  C95  1  0.09109000  0.88890000  0.00681000  1.0
  C  C96  1  0.01019000  0.63498000  0.48011000  1.0
  C  C97  1  0.98980000  0.13498000  0.01989000  1.0
  C  C98  1  0.98980000  0.36502000  0.51990000  1.0
  C  C99  1  0.01019000  0.86503000  0.98011000  1.0
  C  C100  1  0.91394000  0.64392000  0.52061000  1.0
  C  C101  1  0.08605000  0.14391000  0.97940000  1.0
  C  C102  1  0.08605000  0.35609000  0.47940000  1.0
  C  C103  1  0.91394000  0.85609000  0.02060000  1.0
  C  C104  1  0.89759000  0.63011000  0.58782000  1.0
  C  C105  1  0.10241000  0.13010000  0.91219000  1.0
  C  C106  1  0.10241000  0.36990000  0.41219000  1.0
  C  C107  1  0.89758000  0.86990000  0.08781000  1.0
  C  C108  1  0.97933000  0.60402000  0.61382000  1.0
  C  C109  1  0.02067000  0.10402000  0.88618000  1.0
  C  C110  1  0.02067000  0.39598000  0.38618000  1.0
  C  C111  1  0.97933000  0.89598000  0.11382000  1.0
  C  C112  1  0.79738000  0.64601000  0.63137000  1.0
  C  C113  1  0.20262000  0.14601000  0.86863000  1.0
  C  C114  1  0.20262000  0.35400000  0.36864000  1.0
  C  C115  1  0.79738000  0.85399000  0.13137000  1.0
  C  C116  1  0.78844000  0.69921000  0.68964000  1.0
  C  C117  1  0.21156000  0.19921000  0.81036000  1.0
  C  C118  1  0.21156000  0.30080000  0.31036000  1.0
  C  C119  1  0.78844000  0.80079000  0.18964000  1.0
  C  C120  1  0.69481000  0.70880000  0.73286000  1.0
  C  C121  1  0.30519000  0.20880000  0.76714000  1.0
  C  C122  1  0.30519000  0.29122000  0.26714000  1.0
  C  C123  1  0.69481000  0.79120000  0.23286000  1.0
  C  C124  1  0.60884000  0.67366000  0.71671000  1.0
  C  C125  1  0.39116000  0.17365000  0.78329000  1.0
  C  C126  1  0.39116000  0.32635000  0.28329000  1.0
  C  C127  1  0.60884000  0.82633000  0.21671000  1.0
  C  C128  1  0.61563000  0.62541000  0.65749000  1.0
  C  C129  1  0.38437000  0.12539000  0.84251000  1.0
  C  C130  1  0.38437000  0.37460000  0.34251000  1.0
  C  C131  1  0.61563000  0.87459000  0.15750000  1.0
  C  C132  1  0.71001000  0.60918000  0.61626000  1.0
  C  C133  1  0.28999000  0.10916000  0.88375000  1.0
  C  C134  1  0.28999000  0.39084000  0.38375000  1.0
  C  C135  1  0.71000000  0.89083000  0.11626000  1.0
  C  C136  1  0.16370000  0.57454000  0.60210000  1.0
  C  C137  1  0.83630000  0.07454000  0.89790000  1.0
  C  C138  1  0.83630000  0.42545000  0.39790000  1.0
  C  C139  1  0.16370000  0.92545000  0.10210000  1.0
  C  C140  1  0.02549000  0.65356000  0.40875000  1.0
  C  C141  1  0.97449000  0.15356000  0.09125000  1.0
  C  C142  1  0.97451000  0.34645000  0.59126000  1.0
  C  C143  1  0.02548000  0.84645000  0.90875000  1.0
  C  C144  1  0.87439000  0.75597000  0.70506000  1.0
  C  C145  1  0.12561000  0.25597000  0.79494000  1.0
  C  C146  1  0.12561000  0.24405000  0.29494000  1.0
  C  C147  1  0.87439000  0.74404000  0.20506000  1.0
  C  C148  1  0.52095000  0.59316000  0.64003000  1.0
  C  C149  1  0.47905000  0.09315000  0.85997000  1.0
  C  C150  1  0.47905000  0.40684000  0.35997000  1.0
  C  C151  1  0.52095000  0.90684000  0.14003000  1.0
  C  C152  1  0.40981000  0.35357000  0.54951000  1.0
  C  C153  1  0.59020000  0.85356000  0.95049000  1.0
  C  C154  1  0.59020000  0.64643000  0.45048000  1.0
  C  C155  1  0.40980000  0.14642000  0.04951000  1.0
  C  C156  1  0.27262000  0.30352000  0.61629000  1.0
  C  C157  1  0.72738000  0.80350000  0.88371000  1.0
  C  C158  1  0.72739000  0.69648000  0.38371000  1.0
  C  C159  1  0.27261000  0.19647000  0.11629000  1.0
  C  C160  1  0.29677000  0.23423000  0.56893000  1.0
  C  C161  1  0.70323000  0.73422000  0.93107000  1.0
  C  C162  1  0.70325000  0.76576000  0.43107000  1.0
  C  C163  1  0.29675000  0.26576000  0.06893000  1.0
  C  C164  1  0.43444000  0.21894000  0.46911000  1.0
  C  C165  1  0.56556000  0.71893000  0.03089000  1.0
  C  C166  1  0.56557000  0.78106000  0.53089000  1.0
  C  C167  1  0.43442000  0.28104000  0.96911000  1.0
  C  C168  1  0.53829000  0.22679000  0.44767000  1.0
  C  C169  1  0.46171000  0.72678000  0.05233000  1.0
  C  C170  1  0.46172000  0.77321000  0.55233000  1.0
  C  C171  1  0.53827000  0.27319000  0.94767000  1.0
  C  C172  1  0.58509000  0.18090000  0.38975000  1.0
  C  C173  1  0.41491000  0.68089000  0.11025000  1.0
  C  C174  1  0.41492000  0.81911000  0.61025000  1.0
  C  C175  1  0.58508000  0.31909000  0.88975000  1.0
  C  C176  1  0.53050000  0.12630000  0.35411000  1.0
  C  C177  1  0.46950000  0.62630000  0.14589000  1.0
  C  C178  1  0.46951000  0.87370000  0.64588000  1.0
  C  C179  1  0.53049000  0.37369000  0.85412000  1.0
  C  C180  1  0.42642000  0.12148000  0.37616000  1.0
  C  C181  1  0.57358000  0.62147000  0.12384000  1.0
  C  C182  1  0.57359000  0.87853000  0.62383000  1.0
  C  C183  1  0.42641000  0.37852000  0.87616000  1.0
  C  C184  1  0.37760000  0.16779000  0.43334000  1.0
  C  C185  1  0.62240000  0.66778000  0.06666000  1.0
  C  C186  1  0.62241000  0.83222000  0.56665000  1.0
  C  C187  1  0.37759000  0.33220000  0.93334000  1.0
  C  C188  1  0.75930000  0.18964000  0.40687000  1.0
  C  C189  1  0.24071000  0.68964000  0.09313000  1.0
  C  C190  1  0.24071000  0.81037000  0.59312000  1.0
  C  C191  1  0.75928000  0.31035000  0.90688000  1.0
  C  C192  1  0.85213000  0.19415000  0.36572000  1.0
  C  C193  1  0.14788000  0.69416000  0.13429000  1.0
  C  C194  1  0.14788000  0.80585000  0.63428000  1.0
  C  C195  1  0.85212000  0.30584000  0.86572000  1.0
  C  C196  1  0.74367000  0.19264000  0.30461000  1.0
  C  C197  1  0.25634000  0.69264000  0.19539000  1.0
  C  C198  1  0.25634000  0.80737000  0.69538000  1.0
  C  C199  1  0.74366000  0.30735000  0.80462000  1.0
  C  C200  1  0.38285000  0.06966000  0.27370000  1.0
  C  C201  1  0.61714000  0.56965000  0.22630000  1.0
  C  C202  1  0.61715000  0.93034000  0.72629000  1.0
  C  C203  1  0.38286000  0.43034000  0.77370000  1.0
  C  C204  1  0.24646000  0.98800000  0.31230000  1.0
  C  C205  1  0.75354000  0.48800000  0.18771000  1.0
  C  C206  1  0.75354000  0.01201000  0.68770000  1.0
  C  C207  1  0.24646000  0.51200000  0.81229000  1.0
  C  C208  1  0.28059000  0.01880000  0.36486000  1.0
  C  C209  1  0.71941000  0.51879000  0.13515000  1.0
  C  C210  1  0.71942000  0.98122000  0.63514000  1.0
  C  C211  1  0.28059000  0.48121000  0.86485000  1.0
  N  N212  1  0.34355000  0.37677000  0.60365000  1.0
  N  N213  1  0.65646000  0.87676000  0.89635000  1.0
  N  N214  1  0.65646000  0.62323000  0.39635000  1.0
  N  N215  1  0.34354000  0.12322000  0.10365000  1.0
  N  N216  1  0.38424000  0.26641000  0.52669000  1.0
  N  N217  1  0.61576000  0.76640000  0.97331000  1.0
  N  N218  1  0.61577000  0.73359000  0.47330000  1.0
  N  N219  1  0.38422000  0.23358000  0.02669000  1.0
  N  N220  1  0.69064000  0.18795000  0.36779000  1.0
  N  N221  1  0.30937000  0.68794000  0.13221000  1.0
  N  N222  1  0.30937000  0.81206000  0.63220000  1.0
  N  N223  1  0.69063000  0.31205000  0.86779000  1.0
  N  N224  1  0.84101000  0.19657000  0.30232000  1.0
  N  N225  1  0.15900000  0.69657000  0.19769000  1.0
  N  N226  1  0.15900000  0.80344000  0.69768000  1.0
  N  N227  1  0.84100000  0.30343000  0.80232000  1.0
  N  N228  1  0.36808000  0.07044000  0.33984000  1.0
  N  N229  1  0.63191000  0.57043000  0.16016000  1.0
  N  N230  1  0.63192000  0.92957000  0.66015000  1.0
  N  N231  1  0.36808000  0.42956000  0.83984000  1.0
  N  N232  1  0.31031000  0.02096000  0.25600000  1.0
  N  N233  1  0.68968000  0.52096000  0.24401000  1.0
  N  N234  1  0.68969000  0.97904000  0.74400000  1.0
  N  N235  1  0.31032000  0.47904000  0.75599000  1.0
  O  O236  1  0.15066000  0.55251000  0.66266000  1.0
  O  O237  1  0.84935000  0.05251000  0.83734000  1.0
  O  O238  1  0.84934000  0.44749000  0.33734000  1.0
  O  O239  1  0.15066000  0.94749000  0.16266000  1.0
  O  O240  1  0.25156000  0.58154000  0.56569000  1.0
  O  O241  1  0.74844000  0.08153000  0.93431000  1.0
  O  O242  1  0.74844000  0.41845000  0.43431000  1.0
  O  O243  1  0.25156000  0.91845000  0.06569000  1.0
  O  O244  1  0.11216000  0.64807000  0.37100000  1.0
  O  O245  1  0.88783000  0.14807000  0.12900000  1.0
  O  O246  1  0.88784000  0.35193000  0.62901000  1.0
  O  O247  1  0.11215000  0.85192000  0.87100000  1.0
  O  O248  1  0.94709000  0.67522000  0.38802000  1.0
  O  O249  1  0.05290000  0.17521000  0.11198000  1.0
  O  O250  1  0.05291000  0.32481000  0.61199000  1.0
  O  O251  1  0.94707000  0.82484000  0.88802000  1.0
  O  O252  1  0.90658000  0.82793000  0.66917000  1.0
  O  O253  1  0.09342000  0.32793000  0.83084000  1.0
  O  O254  1  0.09342000  0.17208000  0.33083000  1.0
  O  O255  1  0.90658000  0.67207000  0.16917000  1.0
  O  O256  1  0.90387000  0.72940000  0.75574000  1.0
  O  O257  1  0.09613000  0.22940000  0.74427000  1.0
  O  O258  1  0.09613000  0.27062000  0.24426000  1.0
  O  O259  1  0.90387000  0.77061000  0.25574000  1.0
  O  O260  1  0.52264000  0.53414000  0.59401000  1.0
  O  O261  1  0.47736000  0.03411000  0.90599000  1.0
  O  O262  1  0.47736000  0.46587000  0.40600000  1.0
  O  O263  1  0.52264000  0.96587000  0.09401000  1.0
  O  O264  1  0.43886000  0.62887000  0.67531000  1.0
  O  O265  1  0.56115000  0.12886000  0.82469000  1.0
  O  O266  1  0.56114000  0.37113000  0.32469000  1.0
  O  O267  1  0.43885000  0.87113000  0.17531000  1.0
  O  O268  1  0.97959000  0.53714000  0.23995000  1.0
  O  O269  1  0.02041000  0.03713000  0.26005000  1.0
  O  O270  1  0.02041000  0.46287000  0.76006000  1.0
  O  O271  1  0.97960000  0.96288000  0.73994000  1.0
