# generated using pymatgen
data_CdH18C23(NO3)2
_symmetry_space_group_name_H-M   'P 1'
_cell_length_a   6.57987000
_cell_length_b   12.32610000
_cell_length_c   13.85790000
_cell_angle_alpha   111.57100000
_cell_angle_beta   93.89390000
_cell_angle_gamma   102.16600000
_symmetry_Int_Tables_number   1
_chemical_formula_structural   CdH18C23(NO3)2
_chemical_formula_sum   'Cd2 H36 C46 N4 O12'
_cell_volume   1008.58961601
_cell_formula_units_Z   2
loop_
 _symmetry_equiv_pos_site_id
 _symmetry_equiv_pos_as_xyz
  1  'x, y, z'
loop_
 _atom_site_type_symbol
 _atom_site_label
 _atom_site_symmetry_multiplicity
 _atom_site_fract_x
 _atom_site_fract_y
 _atom_site_fract_z
 _atom_site_occupancy
  Cd  Cd0  1  0.69308000  0.63981000  0.10090000  1.0
  Cd  Cd1  1  0.30692000  0.36020000  0.89910000  1.0
  H  H2  1  0.51797000  0.81658000  0.28599000  1.0
  H  H3  1  0.48205000  0.18342000  0.71400000  1.0
  H  H4  1  0.05308000  0.48447000  0.08023000  1.0
  H  H5  1  0.94693000  0.51554000  0.91978000  1.0
  H  H6  1  0.34305000  0.46625000  0.19216000  1.0
  H  H7  1  0.65695000  0.53375000  0.80785000  1.0
  H  H8  1  0.91476000  0.18221000  0.24290000  1.0
  H  H9  1  0.08523000  0.81780000  0.75711000  1.0
  H  H10  1  0.62506000  0.19777000  0.12581000  1.0
  H  H11  1  0.37494000  0.80224000  0.87420000  1.0
  H  H12  1  0.59198000  0.26500000  0.38728000  1.0
  H  H13  1  0.40802000  0.73500000  0.61272000  1.0
  H  H14  1  0.60465000  0.29139000  0.57489000  1.0
  H  H15  1  0.39535000  0.70861000  0.42511000  1.0
  H  H16  1  0.04334000  0.41877000  0.58846000  1.0
  H  H17  1  0.95666000  0.58122000  0.41154000  1.0
  H  H18  1  0.03530000  0.40024000  0.40290000  1.0
  H  H19  1  0.96469000  0.59975000  0.59710000  1.0
  H  H20  1  0.83180000  0.86819000  0.04820000  1.0
  H  H21  1  0.16821000  0.13181000  0.95179000  1.0
  H  H22  1  0.14136000  0.04675000  0.08693000  1.0
  H  H23  1  0.85864000  0.95324000  0.91306000  1.0
  H  H24  1  0.47325000  0.06419000  0.19799000  1.0
  H  H25  1  0.52676000  0.93580000  0.80200000  1.0
  H  H26  1  0.16463000  0.72957000  0.21919000  1.0
  H  H27  1  0.83536000  0.27042000  0.78080000  1.0
  H  H28  1  0.83898000  0.86812000  0.36710000  1.0
  H  H29  1  0.16101000  0.13188000  0.63290000  1.0
  H  H30  1  0.11854000  0.02189000  0.33960000  1.0
  H  H31  1  0.88145000  0.97811000  0.66039000  1.0
  H  H32  1  0.07202000  0.13508000  0.45089000  1.0
  H  H33  1  0.92797000  0.86492000  0.54911000  1.0
  H  H34  1  0.22616000  0.91567000  0.45059000  1.0
  H  H35  1  0.77384000  0.08433000  0.54940000  1.0
  H  H36  1  0.38213000  0.06607000  0.49429000  1.0
  H  H37  1  0.61786000  0.93393000  0.50570000  1.0
  C  C38  1  0.64657000  0.35173000  0.02827000  1.0
  C  C39  1  0.35343000  0.64827000  0.97173000  1.0
  C  C40  1  0.82014000  0.34141000  0.09550000  1.0
  C  C41  1  0.17986000  0.65859000  0.90450000  1.0
  C  C42  1  0.02262000  0.41694000  0.11413000  1.0
  C  C43  1  0.97738000  0.58305000  0.88588000  1.0
  C  C44  1  0.18640000  0.40674000  0.17620000  1.0
  C  C45  1  0.81361000  0.59326000  0.82381000  1.0
  C  C46  1  0.14621000  0.32226000  0.22174000  1.0
  C  C47  1  0.85379000  0.67774000  0.77826000  1.0
  C  C48  1  0.94523000  0.24592000  0.20478000  1.0
  C  C49  1  0.05477000  0.75409000  0.79523000  1.0
  C  C50  1  0.78340000  0.25572000  0.14083000  1.0
  C  C51  1  0.21661000  0.74428000  0.85918000  1.0
  C  C52  1  0.31234000  0.33009000  0.38414000  1.0
  C  C53  1  0.68767000  0.66991000  0.61586000  1.0
  C  C54  1  0.47513000  0.30109000  0.43247000  1.0
  C  C55  1  0.52489000  0.69892000  0.56753000  1.0
  C  C56  1  0.47999000  0.31463000  0.53662000  1.0
  C  C57  1  0.52002000  0.68537000  0.46338000  1.0
  C  C58  1  0.32235000  0.35516000  0.59295000  1.0
  C  C59  1  0.67765000  0.64484000  0.40705000  1.0
  C  C60  1  0.16411000  0.38682000  0.54392000  1.0
  C  C61  1  0.83589000  0.61317000  0.45608000  1.0
  C  C62  1  0.15901000  0.37581000  0.44036000  1.0
  C  C63  1  0.84099000  0.62419000  0.55964000  1.0
  C  C64  1  0.31367000  0.35866000  0.70047000  1.0
  C  C65  1  0.68632000  0.64134000  0.29952000  1.0
  C  C66  1  0.98075000  0.87977000  0.09484000  1.0
  C  C67  1  0.01925000  0.12023000  0.90515000  1.0
  C  C68  1  0.15282000  0.97750000  0.11672000  1.0
  C  C69  1  0.84718000  0.02250000  0.88328000  1.0
  C  C70  1  0.33805000  0.98775000  0.17787000  1.0
  C  C71  1  0.66195000  0.01225000  0.82212000  1.0
  C  C72  1  0.34671000  0.89781000  0.21635000  1.0
  C  C73  1  0.65329000  0.10219000  0.78364000  1.0
  C  C74  1  0.16703000  0.80110000  0.19026000  1.0
  C  C75  1  0.83297000  0.19890000  0.80973000  1.0
  C  C76  1  0.69172000  0.99286000  0.33456000  1.0
  C  C77  1  0.30829000  0.00715000  0.66543000  1.0
  C  C78  1  0.84403000  0.96473000  0.40405000  1.0
  C  C79  1  0.15597000  0.03527000  0.59595000  1.0
  C  C80  1  0.06899000  0.03887000  0.41668000  1.0
  C  C81  1  0.93099000  0.96113000  0.58332000  1.0
  C  C82  1  0.22247000  0.01121000  0.48678000  1.0
  C  C83  1  0.77752000  0.98879000  0.51322000  1.0
  N  N84  1  0.98980000  0.79331000  0.13152000  1.0
  N  N85  1  0.01020000  0.20669000  0.86848000  1.0
  N  N86  1  0.52024000  0.89808000  0.27987000  1.0
  N  N87  1  0.47977000  0.10192000  0.72012000  1.0
  O  O88  1  0.67368000  0.44237000  0.99975000  1.0
  O  O89  1  0.32632000  0.55763000  0.00026000  1.0
  O  O90  1  0.47359000  0.27101000  0.99657000  1.0
  O  O91  1  0.52640000  0.72901000  0.00345000  1.0
  O  O92  1  0.46411000  0.33248000  0.74632000  1.0
  O  O93  1  0.53588000  0.66752000  0.25368000  1.0
  O  O94  1  0.15940000  0.38508000  0.74625000  1.0
  O  O95  1  0.84061000  0.61493000  0.25375000  1.0
  O  O96  1  0.31730000  0.31343000  0.28052000  1.0
  O  O97  1  0.68271000  0.68657000  0.71948000  1.0
  O  O98  1  0.71770000  0.09344000  0.33040000  1.0
  O  O99  1  0.28230000  0.90656000  0.66960000  1.0
