# generated using pymatgen
data_CdH21C24(NO)4
_symmetry_space_group_name_H-M   'P 1'
_cell_length_a   9.54446000
_cell_length_b   11.03850000
_cell_length_c   11.16100000
_cell_angle_alpha   77.40310000
_cell_angle_beta   78.10520000
_cell_angle_gamma   85.09250000
_symmetry_Int_Tables_number   1
_chemical_formula_structural   CdH21C24(NO)4
_chemical_formula_sum   'Cd2 H42 C48 N8 O8'
_cell_volume   1121.92268279
_cell_formula_units_Z   2
loop_
 _symmetry_equiv_pos_site_id
 _symmetry_equiv_pos_as_xyz
  1  'x, y, z'
loop_
 _atom_site_type_symbol
 _atom_site_label
 _atom_site_symmetry_multiplicity
 _atom_site_fract_x
 _atom_site_fract_y
 _atom_site_fract_z
 _atom_site_occupancy
  Cd  Cd0  1  0.94573000  0.20093000  0.15415000  1.0
  Cd  Cd1  1  0.05427000  0.79907000  0.84585000  1.0
  H  H2  1  0.85534000  0.57641000  0.88904000  1.0
  H  H3  1  0.14466000  0.42359000  0.11096000  1.0
  H  H4  1  0.86606000  0.41463000  0.88554000  1.0
  H  H5  1  0.13394000  0.58537000  0.11446000  1.0
  H  H6  1  0.88618000  0.52820000  0.74380000  1.0
  H  H7  1  0.11382000  0.47180000  0.25620000  1.0
  H  H8  1  0.39254000  0.71702000  0.85158000  1.0
  H  H9  1  0.60746000  0.28298000  0.14842000  1.0
  H  H10  1  0.62847000  0.60156000  0.83243000  1.0
  H  H11  1  0.37153000  0.39844000  0.16757000  1.0
  H  H12  1  0.65066000  0.38366000  0.80005000  1.0
  H  H13  1  0.34934000  0.61634000  0.19995000  1.0
  H  H14  1  0.43848000  0.27782000  0.78535000  1.0
  H  H15  1  0.56152000  0.72218000  0.21465000  1.0
  H  H16  1  0.22072000  0.19391000  0.27513000  1.0
  H  H17  1  0.77928000  0.80609000  0.72487000  1.0
  H  H18  1  0.26703000  0.10128000  0.41469000  1.0
  H  H19  1  0.73297000  0.89872000  0.58531000  1.0
  H  H20  1  0.24085000  0.26468000  0.39920000  1.0
  H  H21  1  0.75915000  0.73532000  0.60080000  1.0
  H  H22  1  0.76392000  0.12915000  0.77407000  1.0
  H  H23  1  0.23608000  0.87086000  0.22593000  1.0
  H  H24  1  0.51528000  0.09903000  0.74917000  1.0
  H  H25  1  0.48472000  0.90097000  0.25083000  1.0
  H  H26  1  0.46032000  0.10611000  0.54153000  1.0
  H  H27  1  0.53968000  0.89389000  0.45847000  1.0
  H  H28  1  0.65272000  0.13350000  0.34919000  1.0
  H  H29  1  0.34728000  0.86650000  0.65081000  1.0
  H  H30  1  0.17492000  0.10759000  0.63551000  1.0
  H  H31  1  0.82508000  0.89241000  0.36449000  1.0
  H  H32  1  0.01070000  0.10353000  0.74219000  1.0
  H  H33  1  0.98930000  0.89647000  0.25781000  1.0
  H  H34  1  0.02729000  0.25200000  0.87083000  1.0
  H  H35  1  0.97271000  0.74800000  0.12916000  1.0
  H  H36  1  0.21079000  0.21943000  0.81615000  1.0
  H  H37  1  0.78922000  0.78057000  0.18385000  1.0
  H  H38  1  0.98906000  0.34498000  0.65913000  1.0
  H  H39  1  0.01095000  0.65502000  0.34087000  1.0
  H  H40  1  0.17528000  0.33491000  0.59632000  1.0
  H  H41  1  0.82472000  0.66508000  0.40368000  1.0
  H  H42  1  0.46630000  0.19967000  0.07073000  1.0
  H  H43  1  0.53370000  0.80033000  0.92927000  1.0
  C  C44  1  0.91007000  0.50541000  0.83892000  1.0
  C  C45  1  0.08993000  0.49459000  0.16108000  1.0
  C  C46  1  0.06658000  0.50468000  0.83390000  1.0
  C  C47  1  0.93342000  0.49532000  0.16610000  1.0
  C  C48  1  0.28185000  0.56155000  0.83199000  1.0
  C  C49  1  0.71815000  0.43845000  0.16802000  1.0
  C  C50  1  0.40247000  0.62235000  0.83695000  1.0
  C  C51  1  0.59753000  0.37765000  0.16305000  1.0
  C  C52  1  0.53413000  0.55688000  0.82490000  1.0
  C  C53  1  0.46586000  0.44313000  0.17511000  1.0
  C  C54  1  0.54688000  0.43382000  0.80653000  1.0
  C  C55  1  0.45312000  0.56618000  0.19347000  1.0
  C  C56  1  0.42793000  0.37283000  0.79944000  1.0
  C  C57  1  0.57207000  0.62717000  0.20056000  1.0
  C  C58  1  0.29612000  0.43839000  0.81299000  1.0
  C  C59  1  0.70388000  0.56161000  0.18701000  1.0
  C  C60  1  0.20236000  0.18257000  0.37703000  1.0
  C  C61  1  0.79764000  0.81743000  0.62297000  1.0
  C  C62  1  0.04779000  0.16682000  0.43080000  1.0
  C  C63  1  0.95221000  0.83318000  0.56920000  1.0
  C  C64  1  0.84580000  0.14440000  0.57444000  1.0
  C  C65  1  0.15420000  0.85560000  0.42556000  1.0
  C  C66  1  0.73976000  0.13010000  0.68258000  1.0
  C  C67  1  0.26024000  0.86990000  0.31742000  1.0
  C  C68  1  0.60119000  0.11589000  0.66713000  1.0
  C  C69  1  0.39882000  0.88411000  0.33287000  1.0
  C  C70  1  0.57015000  0.11864000  0.54851000  1.0
  C  C71  1  0.42985000  0.88136000  0.45149000  1.0
  C  C72  1  0.67642000  0.13427000  0.44049000  1.0
  C  C73  1  0.32358000  0.86573000  0.55951000  1.0
  C  C74  1  0.81654000  0.14714000  0.45461000  1.0
  C  C75  1  0.18346000  0.85286000  0.54539000  1.0
  C  C76  1  0.07089000  0.15738000  0.65484000  1.0
  C  C77  1  0.92911000  0.84262000  0.34516000  1.0
  C  C78  1  0.12082000  0.28540000  0.79904000  1.0
  C  C79  1  0.87919000  0.71460000  0.20095000  1.0
  C  C80  1  0.08892000  0.28960000  0.66956000  1.0
  C  C81  1  0.91108000  0.71040000  0.33044000  1.0
  C  C82  1  0.21763000  0.11646000  0.06136000  1.0
  C  C83  1  0.78237000  0.88354000  0.93864000  1.0
  C  C84  1  0.48316000  0.11196000  0.03924000  1.0
  C  C85  1  0.51684000  0.88804000  0.96076000  1.0
  C  C86  1  0.36268000  0.05726000  0.02426000  1.0
  C  C87  1  0.63732000  0.94274000  0.97574000  1.0
  C  C88  1  0.37977000  0.94384000  0.98359000  1.0
  C  C89  1  0.62023000  0.05616000  0.01641000  1.0
  C  C90  1  0.25877000  0.88400000  0.95350000  1.0
  C  C91  1  0.74122000  0.11600000  0.04650000  1.0
  N  N92  1  0.94464000  0.16152000  0.36737000  1.0
  N  N93  1  0.05536000  0.83848000  0.63263000  1.0
  N  N94  1  0.99285000  0.15561000  0.55610000  1.0
  N  N95  1  0.00715000  0.84439000  0.44390000  1.0
  N  N96  1  0.15833000  0.40525000  0.81495000  1.0
  N  N97  1  0.84167000  0.59475000  0.18505000  1.0
  N  N98  1  0.13757000  0.59989000  0.84487000  1.0
  N  N99  1  0.86243000  0.40011000  0.15513000  1.0
  O  O100  1  0.10856000  0.05038000  0.08187000  1.0
  O  O101  1  0.89144000  0.94962000  0.91813000  1.0
  O  O102  1  0.20742000  0.22860000  0.07629000  1.0
  O  O103  1  0.79258000  0.77141000  0.92371000  1.0
  O  O104  1  0.19760000  0.79314000  0.02934000  1.0
  O  O105  1  0.80240000  0.20686000  0.97066000  1.0
  O  O106  1  0.23488000  0.92554000  0.84235000  1.0
  O  O107  1  0.76511000  0.07446000  0.15765000  1.0
