# generated using pymatgen
data_ZnH4C22Br2N(ClO)4
_symmetry_space_group_name_H-M   'P 1'
_cell_length_a   14.41310000
_cell_length_b   15.48700000
_cell_length_c   15.84080000
_cell_angle_alpha   79.15590000
_cell_angle_beta   87.20370000
_cell_angle_gamma   73.95700000
_symmetry_Int_Tables_number   1
_chemical_formula_structural   ZnH4C22Br2N(ClO)4
_chemical_formula_sum   'Zn2 H8 C44 Br4 N2 Cl8 O8'
_cell_volume   3337.50521572
_cell_formula_units_Z   2
loop_
 _symmetry_equiv_pos_site_id
 _symmetry_equiv_pos_as_xyz
  1  'x, y, z'
loop_
 _atom_site_type_symbol
 _atom_site_label
 _atom_site_symmetry_multiplicity
 _atom_site_fract_x
 _atom_site_fract_y
 _atom_site_fract_z
 _atom_site_occupancy
  Zn  Zn0  1  0.47403000  0.59847000  0.51228000  1.0
  Zn  Zn1  1  0.52596000  0.40154000  0.48772000  1.0
  H  H2  1  0.48967000  0.73902000  0.94476000  1.0
  H  H3  1  0.51027000  0.26099000  0.05523000  1.0
  H  H4  1  0.66177000  0.85259000  0.50372000  1.0
  H  H5  1  0.33820000  0.14740000  0.49630000  1.0
  H  H6  1  0.49980000  0.27254000  0.75210000  1.0
  H  H7  1  0.50019000  0.72747000  0.24790000  1.0
  H  H8  1  0.48745000  0.63145000  0.85173000  1.0
  H  H9  1  0.51251000  0.36855000  0.14828000  1.0
  C  C10  1  0.47781000  0.57356000  0.34007000  1.0
  C  C11  1  0.50618000  0.39274000  0.07945000  1.0
  C  C12  1  0.49289000  0.66839000  0.97264000  1.0
  C  C13  1  0.50706000  0.33161000  0.02735000  1.0
  C  C14  1  0.66584000  0.15109000  0.38566000  1.0
  C  C15  1  0.33415000  0.84889000  0.61434000  1.0
  C  C16  1  0.62273000  0.24218000  0.39183000  1.0
  C  C17  1  0.37727000  0.75781000  0.60817000  1.0
  C  C18  1  0.50943000  0.20309000  0.48880000  1.0
  C  C19  1  0.49055000  0.79690000  0.51118000  1.0
  C  C20  1  0.53551000  0.11120000  0.47429000  1.0
  C  C21  1  0.52219000  0.42644000  0.65993000  1.0
  C  C22  1  0.46446000  0.88879000  0.52570000  1.0
  C  C23  1  0.62807000  0.08189000  0.43518000  1.0
  C  C24  1  0.37191000  0.91810000  0.56480000  1.0
  C  C25  1  0.68342000  0.48595000  0.49715000  1.0
  C  C26  1  0.31656000  0.51409000  0.50286000  1.0
  C  C27  1  0.47840000  0.04716000  0.49904000  1.0
  C  C28  1  0.52157000  0.95284000  0.50093000  1.0
  C  C29  1  0.62264000  0.92416000  0.48613000  1.0
  C  C30  1  0.37734000  0.07583000  0.51386000  1.0
  C  C31  1  0.67364000  0.98529000  0.45238000  1.0
  C  C32  1  0.48286000  0.55435000  0.10092000  1.0
  C  C33  1  0.32634000  0.01469000  0.54762000  1.0
  C  C34  1  0.78357000  0.48650000  0.49765000  1.0
  C  C35  1  0.21642000  0.51354000  0.50235000  1.0
  C  C36  1  0.86711000  0.49131000  0.49847000  1.0
  C  C37  1  0.13288000  0.50872000  0.50154000  1.0
  C  C38  1  0.95822000  0.49701000  0.49949000  1.0
  C  C39  1  0.04178000  0.50300000  0.50053000  1.0
  C  C40  1  0.47504000  0.59775000  0.24350000  1.0
  C  C41  1  0.52495000  0.40225000  0.75650000  1.0
  C  C42  1  0.49742000  0.70530000  0.11800000  1.0
  C  C43  1  0.51712000  0.44565000  0.89909000  1.0
  C  C44  1  0.50255000  0.29471000  0.88199000  1.0
  C  C45  1  0.49317000  0.68141000  0.20599000  1.0
  C  C46  1  0.50681000  0.31860000  0.79401000  1.0
  C  C47  1  0.46141000  0.53925000  0.19069000  1.0
  C  C48  1  0.53857000  0.46075000  0.80931000  1.0
  C  C49  1  0.49314000  0.64330000  0.06363000  1.0
  C  C50  1  0.50682000  0.35670000  0.93637000  1.0
  C  C51  1  0.49587000  0.48700000  0.04537000  1.0
  C  C52  1  0.50409000  0.51301000  0.95463000  1.0
  C  C53  1  0.49379000  0.60726000  0.92055000  1.0
  Br  Br54  1  0.80940000  0.93608000  0.44576000  1.0
  Br  Br55  1  0.19058000  0.06390000  0.55427000  1.0
  Br  Br56  1  0.57937000  0.76396000  0.42315000  1.0
  Br  Br57  1  0.42059000  0.23603000  0.57683000  1.0
  N  N58  1  0.55198000  0.26622000  0.45017000  1.0
  N  N59  1  0.44801000  0.73377000  0.54983000  1.0
  Cl  Cl60  1  0.59692000  0.54280000  0.76477000  1.0
  Cl  Cl61  1  0.40308000  0.45720000  0.23524000  1.0
  Cl  Cl62  1  0.50989000  0.81293000  0.07418000  1.0
  Cl  Cl63  1  0.49008000  0.18708000  0.92581000  1.0
  Cl  Cl64  1  0.34048000  0.67316000  0.67302000  1.0
  Cl  Cl65  1  0.65954000  0.32682000  0.32700000  1.0
  Cl  Cl66  1  0.75595000  0.12687000  0.31237000  1.0
  Cl  Cl67  1  0.24404000  0.87311000  0.68763000  1.0
  O  O68  1  0.45663000  0.63921000  0.38177000  1.0
  O  O69  1  0.54334000  0.36078000  0.61823000  1.0
  O  O70  1  0.50755000  0.48938000  0.37215000  1.0
  O  O71  1  0.49248000  0.51061000  0.62784000  1.0
  O  O72  1  0.62290000  0.56127000  0.50552000  1.0
  O  O73  1  0.37709000  0.43877000  0.49446000  1.0
  O  O74  1  0.66639000  0.41190000  0.48832000  1.0
  O  O75  1  0.33359000  0.58814000  0.51171000  1.0
