# generated using pymatgen
data_Al2H7C19(NO5)2
_symmetry_space_group_name_H-M   'P 1'
_cell_length_a   6.71634000
_cell_length_b   19.53670000
_cell_length_c   21.37100000
_cell_angle_alpha   86.70370000
_cell_angle_beta   89.21990000
_cell_angle_gamma   89.74000000
_symmetry_Int_Tables_number   1
_chemical_formula_structural   Al2H7C19(NO5)2
_chemical_formula_sum   'Al4 H14 C38 N4 O20'
_cell_volume   2799.27957907
_cell_formula_units_Z   2
loop_
 _symmetry_equiv_pos_site_id
 _symmetry_equiv_pos_as_xyz
  1  'x, y, z'
loop_
 _atom_site_type_symbol
 _atom_site_label
 _atom_site_symmetry_multiplicity
 _atom_site_fract_x
 _atom_site_fract_y
 _atom_site_fract_z
 _atom_site_occupancy
  Al  Al0  1  0.75377000  0.26490000  0.26210000  1.0
  Al  Al1  1  0.24623000  0.73510000  0.73789000  1.0
  Al  Al2  1  0.25236000  0.26472000  0.26226000  1.0
  Al  Al3  1  0.74764000  0.73528000  0.73774000  1.0
  H  H4  1  0.24219000  0.09112000  0.97128000  1.0
  H  H5  1  0.75780000  0.90888000  0.02872000  1.0
  H  H6  1  0.83931000  0.11355000  0.88998000  1.0
  H  H7  1  0.96070000  0.05544000  0.85022000  1.0
  H  H8  1  0.16068000  0.88645000  0.11002000  1.0
  H  H9  1  0.03929000  0.94455000  0.14978000  1.0
  H  H10  1  0.46698000  0.94654000  0.01633000  1.0
  H  H11  1  0.36133000  0.89156000  0.96919000  1.0
  H  H12  1  0.53301000  0.05345000  0.98367000  1.0
  H  H13  1  0.63866000  0.10844000  0.03081000  1.0
  H  H14  1  0.50454000  0.17681000  0.25330000  1.0
  H  H15  1  0.49547000  0.82319000  0.74670000  1.0
  H  H16  1  0.00155000  0.35201000  0.27712000  1.0
  H  H17  1  0.99846000  0.64799000  0.72288000  1.0
  C  C18  1  0.50564000  0.34871000  0.17463000  1.0
  C  C19  1  0.49436000  0.65129000  0.82537000  1.0
  C  C20  1  0.49871000  0.34532000  0.34410000  1.0
  C  C21  1  0.50130000  0.65468000  0.65589000  1.0
  C  C22  1  0.00017000  0.17817000  0.34793000  1.0
  C  C23  1  0.99984000  0.82184000  0.65207000  1.0
  C  C24  1  0.00738000  0.18402000  0.18107000  1.0
  C  C25  1  0.99263000  0.81598000  0.81893000  1.0
  C  C26  1  0.94525000  0.03335000  0.94464000  1.0
  C  C27  1  0.05474000  0.96665000  0.05536000  1.0
  C  C28  1  0.13600000  0.05005000  0.98339000  1.0
  C  C29  1  0.86399000  0.94995000  0.01661000  1.0
  C  C30  1  0.00914000  0.13571000  0.13302000  1.0
  C  C31  1  0.99086000  0.86428000  0.86698000  1.0
  C  C32  1  0.81598000  0.02847000  0.00739000  1.0
  C  C33  1  0.18402000  0.97153000  0.99261000  1.0
  C  C34  1  0.00614000  0.04629000  0.04572000  1.0
  C  C35  1  0.99385000  0.95371000  0.95428000  1.0
  C  C36  1  0.00999000  0.09398000  0.09271000  1.0
  C  C37  1  0.99001000  0.90602000  0.90729000  1.0
  C  C38  1  0.00158000  0.87536000  0.60278000  1.0
  C  C39  1  0.99842000  0.12465000  0.39723000  1.0
  C  C40  1  0.00171000  0.92318000  0.56299000  1.0
  C  C41  1  0.99829000  0.07682000  0.43700000  1.0
  C  C42  1  0.00082000  0.97570000  0.51974000  1.0
  C  C43  1  0.99918000  0.02431000  0.48026000  1.0
  C  C44  1  0.50664000  0.39533000  0.11985000  1.0
  C  C45  1  0.49336000  0.60467000  0.88015000  1.0
  C  C46  1  0.50468000  0.43551000  0.07359000  1.0
  C  C47  1  0.49533000  0.56449000  0.92641000  1.0
  C  C48  1  0.50169000  0.47961000  0.02313000  1.0
  C  C49  1  0.49831000  0.52039000  0.97687000  1.0
  C  C50  1  0.49667000  0.39287000  0.39318000  1.0
  C  C51  1  0.50334000  0.60713000  0.60682000  1.0
  C  C52  1  0.49734000  0.43414000  0.43431000  1.0
  C  C53  1  0.50266000  0.56586000  0.56568000  1.0
  C  C54  1  0.49885000  0.47926000  0.47930000  1.0
  C  C55  1  0.50112000  0.52075000  0.52070000  1.0
  N  N56  1  0.86903000  0.06248000  0.88779000  1.0
  N  N57  1  0.13096000  0.93752000  0.11221000  1.0
  N  N58  1  0.37110000  0.94150000  0.98030000  1.0
  N  N59  1  0.62889000  0.05850000  0.01970000  1.0
  O  O60  1  0.32987000  0.32712000  0.32457000  1.0
  O  O61  1  0.67014000  0.67288000  0.67543000  1.0
  O  O62  1  0.67520000  0.33118000  0.19625000  1.0
  O  O63  1  0.32481000  0.66882000  0.80375000  1.0
  O  O64  1  0.83670000  0.20361000  0.20032000  1.0
  O  O65  1  0.16330000  0.79639000  0.79968000  1.0
  O  O66  1  0.66968000  0.32692000  0.32464000  1.0
  O  O67  1  0.33033000  0.67308000  0.67536000  1.0
  O  O68  1  0.83065000  0.19831000  0.32804000  1.0
  O  O69  1  0.16935000  0.80169000  0.67196000  1.0
  O  O70  1  0.33480000  0.33065000  0.19602000  1.0
  O  O71  1  0.66521000  0.66935000  0.80398000  1.0
  O  O72  1  0.50351000  0.22461000  0.26320000  1.0
  O  O73  1  0.49650000  0.77539000  0.73680000  1.0
  O  O74  1  0.17121000  0.19862000  0.32865000  1.0
  O  O75  1  0.82879000  0.80138000  0.67135000  1.0
  O  O76  1  0.17578000  0.20270000  0.20100000  1.0
  O  O77  1  0.82422000  0.79730000  0.79900000  1.0
  O  O78  1  0.00268000  0.30608000  0.26222000  1.0
  O  O79  1  0.99732000  0.69392000  0.73778000  1.0
