# generated using pymatgen
data_ZnH16C18(N7O)2
_symmetry_space_group_name_H-M   'P 1'
_cell_length_a   7.39019000
_cell_length_b   7.59983000
_cell_length_c   9.39630000
_cell_angle_alpha   99.28200000
_cell_angle_beta   97.15180000
_cell_angle_gamma   110.42700000
_symmetry_Int_Tables_number   1
_chemical_formula_structural   ZnH16C18(N7O)2
_chemical_formula_sum   'Zn1 H16 C18 N14 O2'
_cell_volume   478.65844306
_cell_formula_units_Z   1
loop_
 _symmetry_equiv_pos_site_id
 _symmetry_equiv_pos_as_xyz
  1  'x, y, z'
loop_
 _atom_site_type_symbol
 _atom_site_label
 _atom_site_symmetry_multiplicity
 _atom_site_fract_x
 _atom_site_fract_y
 _atom_site_fract_z
 _atom_site_occupancy
  Zn  Zn0  1  0.50000000  0.50000000  0.50000000  1.0
  H  H1  1  0.73260000  0.88134000  0.47003000  1.0
  H  H2  1  0.26740000  0.11866000  0.52997000  1.0
  H  H3  1  0.81488000  0.73386000  0.38612000  1.0
  H  H4  1  0.18512000  0.26614000  0.61388000  1.0
  H  H5  1  0.38128000  0.04795000  0.28073000  1.0
  H  H6  1  0.61871000  0.95205000  0.71927000  1.0
  H  H7  1  0.46746000  0.58260000  0.17488000  1.0
  H  H8  1  0.53254000  0.41741000  0.82513000  1.0
  H  H9  1  0.10236000  0.08876000  0.81672000  1.0
  H  H10  1  0.89764000  0.91124000  0.18328000  1.0
  H  H11  1  0.92242000  0.78187000  0.63367000  1.0
  H  H12  1  0.07758000  0.21813000  0.36633000  1.0
  H  H13  1  0.15567000  0.48118000  0.91128000  1.0
  H  H14  1  0.84433000  0.51882000  0.08872000  1.0
  H  H15  1  0.33718000  0.78770000  0.09415000  1.0
  H  H16  1  0.66283000  0.21230000  0.90585000  1.0
  C  C17  1  0.38457000  0.15894000  0.22072000  1.0
  C  C18  1  0.61543000  0.84106000  0.77928000  1.0
  C  C19  1  0.42306000  0.42871000  0.16390000  1.0
  C  C20  1  0.57695000  0.57129000  0.83610000  1.0
  C  C21  1  0.22691000  0.95554000  0.96735000  1.0
  C  C22  1  0.77309000  0.04446000  0.03265000  1.0
  C  C23  1  0.11349000  0.95541000  0.83675000  1.0
  C  C24  1  0.88651000  0.04459000  0.16325000  1.0
  C  C25  1  0.01237000  0.78294000  0.73481000  1.0
  C  C26  1  0.98763000  0.21707000  0.26519000  1.0
  C  C27  1  0.02247000  0.60979000  0.76100000  1.0
  C  C28  1  0.97753000  0.39021000  0.23900000  1.0
  C  C29  1  0.14324000  0.61390000  0.89060000  1.0
  C  C30  1  0.85676000  0.38610000  0.10940000  1.0
  C  C31  1  0.24468000  0.78576000  0.99372000  1.0
  C  C32  1  0.75532000  0.21424000  0.00628000  1.0
  C  C33  1  0.90482000  0.42674000  0.65820000  1.0
  C  C34  1  0.09518000  0.57326000  0.34180000  1.0
  N  N35  1  0.44932000  0.34680000  0.28001000  1.0
  N  N36  1  0.55068000  0.65320000  0.72000000  1.0
  N  N37  1  0.34465000  0.30272000  0.03686000  1.0
  N  N38  1  0.65535000  0.69728000  0.96314000  1.0
  N  N39  1  0.32053000  0.13053000  0.07451000  1.0
  N  N40  1  0.67947000  0.86947000  0.92549000  1.0
  N  N41  1  0.73307000  0.38744000  0.56467000  1.0
  N  N42  1  0.26693000  0.61256000  0.43533000  1.0
  N  N43  1  0.67059000  0.20043000  0.49821000  1.0
  N  N44  1  0.32941000  0.79957000  0.50179000  1.0
  N  N45  1  0.79809000  0.12950000  0.54780000  1.0
  N  N46  1  0.20191000  0.87050000  0.45220000  1.0
  N  N47  1  0.94791000  0.26723000  0.64838000  1.0
  N  N48  1  0.05209000  0.73277000  0.35162000  1.0
  O  O49  1  0.69679000  0.74237000  0.42293000  1.0
  O  O50  1  0.30321000  0.25762000  0.57707000  1.0
