# generated using pymatgen
data_SmCdH12C15S(NO6)2
_symmetry_space_group_name_H-M   'P 1'
_cell_length_a   8.67983000
_cell_length_b   8.91967000
_cell_length_c   13.30930000
_cell_angle_alpha   92.13730000
_cell_angle_beta   90.03430000
_cell_angle_gamma   104.42480000
_symmetry_Int_Tables_number   1
_chemical_formula_structural   SmCdH12C15S(NO6)2
_chemical_formula_sum   'Sm2 Cd2 H24 C30 S2 N4 O24'
_cell_volume   997.19231212
_cell_formula_units_Z   2
loop_
 _symmetry_equiv_pos_site_id
 _symmetry_equiv_pos_as_xyz
  1  'x, y, z'
loop_
 _atom_site_type_symbol
 _atom_site_label
 _atom_site_symmetry_multiplicity
 _atom_site_fract_x
 _atom_site_fract_y
 _atom_site_fract_z
 _atom_site_occupancy
  Sm  Sm0  1  0.78456000  0.81337000  0.49595000  1.0
  Sm  Sm1  1  0.21545000  0.18664000  0.50405000  1.0
  Cd  Cd2  1  0.63871000  0.34661000  0.72408000  1.0
  Cd  Cd3  1  0.36130000  0.65338000  0.27592000  1.0
  H  H4  1  0.92762000  0.65866000  0.64980000  1.0
  H  H5  1  0.07238000  0.34134000  0.35021000  1.0
  H  H6  1  0.03207000  0.82783000  0.67765000  1.0
  H  H7  1  0.96794000  0.17218000  0.32235000  1.0
  H  H8  1  0.47750000  0.88210000  0.59076000  1.0
  H  H9  1  0.52251000  0.11790000  0.40923000  1.0
  H  H10  1  0.63557000  0.97669000  0.63426000  1.0
  H  H11  1  0.36444000  0.02330000  0.36574000  1.0
  H  H12  1  0.78778000  0.07244000  0.81100000  1.0
  H  H13  1  0.21222000  0.92756000  0.18900000  1.0
  H  H14  1  0.89995000  0.00587000  0.97082000  1.0
  H  H15  1  0.10004000  0.99414000  0.02918000  1.0
  H  H16  1  0.93119000  0.19218000  0.12029000  1.0
  H  H17  1  0.06879000  0.80782000  0.87971000  1.0
  H  H18  1  0.89050000  0.44295000  0.19538000  1.0
  H  H19  1  0.10948000  0.55706000  0.80462000  1.0
  H  H20  1  0.78369000  0.67325000  0.17845000  1.0
  H  H21  1  0.21630000  0.32675000  0.82155000  1.0
  H  H22  1  0.64175000  0.82632000  0.07422000  1.0
  H  H23  1  0.35824000  0.17368000  0.92578000  1.0
  H  H24  1  0.53349000  0.86915000  0.90417000  1.0
  H  H25  1  0.46650000  0.13085000  0.09582000  1.0
  H  H26  1  0.54741000  0.68511000  0.76112000  1.0
  H  H27  1  0.45259000  0.31489000  0.23888000  1.0
  C  C28  1  0.80259000  0.15082000  0.87712000  1.0
  C  C29  1  0.19741000  0.84918000  0.12288000  1.0
  C  C30  1  0.86768000  0.11557000  0.96693000  1.0
  C  C31  1  0.13231000  0.88443000  0.03307000  1.0
  C  C32  1  0.88484000  0.21839000  0.04881000  1.0
  C  C33  1  0.11515000  0.78161000  0.95119000  1.0
  C  C34  1  0.83275000  0.35562000  0.04133000  1.0
  C  C35  1  0.16723000  0.64438000  0.95867000  1.0
  C  C36  1  0.83929000  0.46445000  0.12406000  1.0
  C  C37  1  0.16069000  0.53555000  0.87595000  1.0
  C  C38  1  0.78003000  0.59168000  0.11465000  1.0
  C  C39  1  0.21995000  0.40832000  0.88535000  1.0
  C  C40  1  0.71185000  0.62065000  0.02132000  1.0
  C  C41  1  0.28814000  0.37935000  0.97867000  1.0
  C  C42  1  0.64555000  0.74864000  0.00935000  1.0
  C  C43  1  0.35444000  0.25136000  0.99064000  1.0
  C  C44  1  0.58493000  0.77160000  0.91660000  1.0
  C  C45  1  0.41506000  0.22840000  0.08340000  1.0
  C  C46  1  0.58944000  0.66657000  0.83587000  1.0
  C  C47  1  0.41055000  0.33343000  0.16412000  1.0
  C  C48  1  0.70715000  0.51751000  0.93665000  1.0
  C  C49  1  0.29284000  0.48249000  0.06335000  1.0
  C  C50  1  0.76695000  0.38135000  0.94760000  1.0
  C  C51  1  0.23303000  0.61865000  0.05240000  1.0
  C  C52  1  0.53511000  0.48080000  0.54904000  1.0
  C  C53  1  0.46493000  0.51922000  0.45096000  1.0
  C  C54  1  0.02907000  0.63802000  0.38805000  1.0
  C  C55  1  0.97093000  0.36198000  0.61195000  1.0
  C  C56  1  0.12994000  0.80925000  0.39886000  1.0
  C  C57  1  0.87007000  0.19074000  0.60114000  1.0
  S  S58  1  0.70831000  0.95178000  0.29866000  1.0
  S  S59  1  0.29170000  0.04822000  0.70134000  1.0
  N  N60  1  0.75457000  0.27986000  0.86820000  1.0
  N  N61  1  0.24542000  0.72014000  0.13180000  1.0
  N  N62  1  0.64624000  0.54214000  0.84627000  1.0
  N  N63  1  0.35375000  0.45786000  0.15373000  1.0
  O  O64  1  0.89489000  0.60759000  0.42993000  1.0
  O  O65  1  0.10512000  0.39241000  0.57006000  1.0
  O  O66  1  0.93016000  0.76998000  0.64463000  1.0
  O  O67  1  0.06985000  0.23002000  0.35538000  1.0
  O  O68  1  0.07150000  0.90716000  0.44771000  1.0
  O  O69  1  0.92852000  0.09283000  0.55229000  1.0
  O  O70  1  0.58204000  0.86756000  0.61175000  1.0
  O  O71  1  0.41796000  0.13243000  0.38825000  1.0
  O  O72  1  0.26449000  0.84301000  0.35757000  1.0
  O  O73  1  0.73553000  0.15697000  0.64244000  1.0
  O  O74  1  0.08997000  0.54499000  0.33730000  1.0
  O  O75  1  0.91004000  0.45500000  0.66270000  1.0
  O  O76  1  0.46659000  0.35199000  0.58691000  1.0
  O  O77  1  0.53343000  0.64801000  0.41309000  1.0
  O  O78  1  0.65417000  0.57558000  0.58675000  1.0
  O  O79  1  0.34584000  0.42441000  0.41324000  1.0
  O  O80  1  0.80643000  0.83698000  0.31283000  1.0
  O  O81  1  0.19358000  0.16303000  0.68717000  1.0
  O  O82  1  0.66086000  0.98903000  0.40457000  1.0
  O  O83  1  0.33915000  0.01097000  0.59543000  1.0
  O  O84  1  0.56557000  0.88116000  0.23525000  1.0
  O  O85  1  0.43444000  0.11884000  0.76475000  1.0
  O  O86  1  0.80210000  0.09316000  0.25311000  1.0
  O  O87  1  0.19791000  0.90685000  0.74689000  1.0
