# generated using pymatgen
data_Cd3Cu2H46C52S2(N2O5)4
_symmetry_space_group_name_H-M   'P 1'
_cell_length_a   9.62840000
_cell_length_b   12.24580000
_cell_length_c   13.08560000
_cell_angle_alpha   70.97120000
_cell_angle_beta   75.63290000
_cell_angle_gamma   67.22150000
_symmetry_Int_Tables_number   1
_chemical_formula_structural   Cd3Cu2H46C52S2(N2O5)4
_chemical_formula_sum   'Cd3 Cu2 H46 C52 S2 N8 O20'
_cell_volume   1331.60506736
_cell_formula_units_Z   1
loop_
 _symmetry_equiv_pos_site_id
 _symmetry_equiv_pos_as_xyz
  1  'x, y, z'
loop_
 _atom_site_type_symbol
 _atom_site_label
 _atom_site_symmetry_multiplicity
 _atom_site_fract_x
 _atom_site_fract_y
 _atom_site_fract_z
 _atom_site_occupancy
  Cd  Cd0  1  0.76069000  0.76368000  0.86987000  1.0
  Cd  Cd1  1  0.23932000  0.23632000  0.13013000  1.0
  Cd  Cd2  1  0.00000000  0.50000000  0.00000000  1.0
  Cu  Cu3  1  0.78499000  0.79877000  0.42463000  1.0
  Cu  Cu4  1  0.21501000  0.20124000  0.57537000  1.0
  H  H5  1  0.91820000  0.90652000  0.85559000  1.0
  H  H6  1  0.08180000  0.09348000  0.14441000  1.0
  H  H7  1  0.74849000  0.00751000  0.84021000  1.0
  H  H8  1  0.25151000  0.99248000  0.15979000  1.0
  H  H9  1  0.09998000  0.58579000  0.76831000  1.0
  H  H10  1  0.90002000  0.41421000  0.23169000  1.0
  H  H11  1  0.22811000  0.46031000  0.81899000  1.0
  H  H12  1  0.77188000  0.53969000  0.18102000  1.0
  H  H13  1  0.41182000  0.77404000  0.73091000  1.0
  H  H14  1  0.58818000  0.22596000  0.26909000  1.0
  H  H15  1  0.14790000  0.80126000  0.72772000  1.0
  H  H16  1  0.85210000  0.19875000  0.27227000  1.0
  H  H17  1  0.04085000  0.88524000  0.55119000  1.0
  H  H18  1  0.95915000  0.11477000  0.44881000  1.0
  H  H19  1  0.20992000  0.93678000  0.37760000  1.0
  H  H20  1  0.79008000  0.06322000  0.62240000  1.0
  H  H21  1  0.42010000  0.95663000  0.28368000  1.0
  H  H22  1  0.57990000  0.04336000  0.71632000  1.0
  H  H23  1  0.66814000  0.04886000  0.20030000  1.0
  H  H24  1  0.33186000  0.95114000  0.79969000  1.0
  H  H25  1  0.59096000  0.96397000  0.15743000  1.0
  H  H26  1  0.40903000  0.03603000  0.84257000  1.0
  H  H27  1  0.85053000  0.93849000  0.06906000  1.0
  H  H28  1  0.14947000  0.06151000  0.93094000  1.0
  H  H29  1  0.84700000  0.79573000  0.15747000  1.0
  H  H30  1  0.15300000  0.20427000  0.84253000  1.0
  H  H31  1  0.06732000  0.87208000  0.15735000  1.0
  H  H32  1  0.93268000  0.12792000  0.84265000  1.0
  H  H33  1  0.92558000  0.98098000  0.22359000  1.0
  H  H34  1  0.07442000  0.01902000  0.77641000  1.0
  H  H35  1  0.20026000  0.73288000  0.26151000  1.0
  H  H36  1  0.79974000  0.26712000  0.73848000  1.0
  H  H37  1  0.37876000  0.56055000  0.33634000  1.0
  H  H38  1  0.62124000  0.43945000  0.66366000  1.0
  H  H39  1  0.47814000  0.38348000  0.49083000  1.0
  H  H40  1  0.52185000  0.61652000  0.50917000  1.0
  H  H41  1  0.30421000  0.34603000  0.66584000  1.0
  H  H42  1  0.69578000  0.65397000  0.33416000  1.0
  H  H43  1  0.03873000  0.48592000  0.68574000  1.0
  H  H44  1  0.96127000  0.51408000  0.31425000  1.0
  H  H45  1  0.25835000  0.82070000  0.99884000  1.0
  H  H46  1  0.74166000  0.17930000  0.00115000  1.0
  H  H47  1  0.43626000  0.37457000  0.16374000  1.0
  H  H48  1  0.56373000  0.62543000  0.83627000  1.0
  H  H49  1  0.57794000  0.49931000  0.17730000  1.0
  H  H50  1  0.42206000  0.50069000  0.82271000  1.0
  C  C51  1  0.85458000  0.72426000  0.63380000  1.0
  C  C52  1  0.14542000  0.27575000  0.36620000  1.0
  C  C53  1  0.68308000  0.79121000  0.64329000  1.0
  C  C54  1  0.31691000  0.20879000  0.35670000  1.0
  C  C55  1  0.46798000  0.83613000  0.55615000  1.0
  C  C56  1  0.53202000  0.16388000  0.44385000  1.0
  C  C57  1  0.36933000  0.80888000  0.65307000  1.0
  C  C58  1  0.63067000  0.19112000  0.34693000  1.0
  C  C59  1  0.21893000  0.82491000  0.65089000  1.0
  C  C60  1  0.78107000  0.17510000  0.34911000  1.0
  C  C61  1  0.15917000  0.87157000  0.55223000  1.0
  C  C62  1  0.84083000  0.12843000  0.44777000  1.0
  C  C63  1  0.25340000  0.89978000  0.45593000  1.0
  C  C64  1  0.74660000  0.10022000  0.54407000  1.0
  C  C65  1  0.40784000  0.88109000  0.45566000  1.0
  C  C66  1  0.59217000  0.11891000  0.54434000  1.0
  C  C67  1  0.49135000  0.91305000  0.34904000  1.0
  C  C68  1  0.50865000  0.08695000  0.65096000  1.0
  C  C69  1  0.67629000  0.95522000  0.20465000  1.0
  C  C70  1  0.32371000  0.04478000  0.79535000  1.0
  C  C71  1  0.83462000  0.88943000  0.15555000  1.0
  C  C72  1  0.16538000  0.11057000  0.84445000  1.0
  C  C73  1  0.95670000  0.89000000  0.20999000  1.0
  C  C74  1  0.04330000  0.11000000  0.79000000  1.0
  C  C75  1  0.10871000  0.72409000  0.32993000  1.0
  C  C76  1  0.89129000  0.27591000  0.67006000  1.0
  C  C77  1  0.15594000  0.62614000  0.42500000  1.0
  C  C78  1  0.84406000  0.37387000  0.57500000  1.0
  C  C79  1  0.30628000  0.54423000  0.41426000  1.0
  C  C80  1  0.69372000  0.45577000  0.58574000  1.0
  C  C81  1  0.36112000  0.44480000  0.49981000  1.0
  C  C82  1  0.63887000  0.55520000  0.50019000  1.0
  C  C83  1  0.26329000  0.42344000  0.59743000  1.0
  C  C84  1  0.73670000  0.57657000  0.40257000  1.0
  C  C85  1  0.11478000  0.50370000  0.61012000  1.0
  C  C86  1  0.88521000  0.49630000  0.38988000  1.0
  C  C87  1  0.06052000  0.60874000  0.52622000  1.0
  C  C88  1  0.93948000  0.39126000  0.47378000  1.0
  C  C89  1  0.42438000  0.66991000  0.09080000  1.0
  C  C90  1  0.57563000  0.33009000  0.90920000  1.0
  C  C91  1  0.29693000  0.72261000  0.03719000  1.0
  C  C92  1  0.70307000  0.27739000  0.96281000  1.0
  C  C93  1  0.21225000  0.65490000  0.02994000  1.0
  C  C94  1  0.78776000  0.34510000  0.97006000  1.0
  C  C95  1  0.26500000  0.52417000  0.07789000  1.0
  C  C96  1  0.73500000  0.47583000  0.92211000  1.0
  C  C97  1  0.39690000  0.47361000  0.13031000  1.0
  C  C98  1  0.60310000  0.52639000  0.86970000  1.0
  C  C99  1  0.47592000  0.54315000  0.13759000  1.0
  C  C100  1  0.52408000  0.45685000  0.86241000  1.0
  C  C101  1  0.07546000  0.73201000  0.97116000  1.0
  C  C102  1  0.92455000  0.26798000  0.02884000  1.0
  S  S103  1  0.51169000  0.76726000  0.10306000  1.0
  S  S104  1  0.48832000  0.23274000  0.89694000  1.0
  N  N105  1  0.91496000  0.69234000  0.54011000  1.0
  N  N106  1  0.08504000  0.30767000  0.45989000  1.0
  N  N107  1  0.62202000  0.81189000  0.55449000  1.0
  N  N108  1  0.37798000  0.18811000  0.44551000  1.0
  N  N109  1  0.63517000  0.89738000  0.32040000  1.0
  N  N110  1  0.36483000  0.10262000  0.67959000  1.0
  N  N111  1  0.97261000  0.79960000  0.31574000  1.0
  N  N112  1  0.02740000  0.20040000  0.68425000  1.0
  O  O113  1  0.92222000  0.70086000  0.71392000  1.0
  O  O114  1  0.07777000  0.29914000  0.28608000  1.0
  O  O115  1  0.61369000  0.81524000  0.73312000  1.0
  O  O116  1  0.38630000  0.18476000  0.26688000  1.0
  O  O117  1  0.55768000  0.83460000  0.99010000  1.0
  O  O118  1  0.44232000  0.16540000  0.00990000  1.0
  O  O119  1  0.39382000  0.85332000  0.16188000  1.0
  O  O120  1  0.60618000  0.14668000  0.83812000  1.0
  O  O121  1  0.64148000  0.69021000  0.16256000  1.0
  O  O122  1  0.35852000  0.30979000  0.83744000  1.0
  O  O123  1  0.07217000  0.83727000  0.91141000  1.0
  O  O124  1  0.92783000  0.16273000  0.08860000  1.0
  O  O125  1  0.96137000  0.69414000  0.98628000  1.0
  O  O126  1  0.03863000  0.30585000  0.01373000  1.0
  O  O127  1  0.20282000  0.44659000  0.07465000  1.0
  O  O128  1  0.79719000  0.55341000  0.92535000  1.0
  O  O129  1  0.82652000  0.93603000  0.81616000  1.0
  O  O130  1  0.17348000  0.06396000  0.18385000  1.0
  O  O131  1  0.16074000  0.54188000  0.82886000  1.0
  O  O132  1  0.83925000  0.45812000  0.17115000  1.0
