# generated using pymatgen
data_Na2H6C6S2O9
_symmetry_space_group_name_H-M   'P 1'
_cell_length_a   6.78522000
_cell_length_b   9.62768000
_cell_length_c   16.12550000
_cell_angle_alpha   89.99960000
_cell_angle_beta   89.99990000
_cell_angle_gamma   86.69650000
_symmetry_Int_Tables_number   1
_chemical_formula_structural   Na2H6C6S2O9
_chemical_formula_sum   'Na8 H24 C24 S8 O36'
_cell_volume   1051.66277554
_cell_formula_units_Z   4
loop_
 _symmetry_equiv_pos_site_id
 _symmetry_equiv_pos_as_xyz
  1  'x, y, z'
loop_
 _atom_site_type_symbol
 _atom_site_label
 _atom_site_symmetry_multiplicity
 _atom_site_fract_x
 _atom_site_fract_y
 _atom_site_fract_z
 _atom_site_occupancy
  Na  Na0  1  0.52268000  0.44516000  0.15887000  1.0
  Na  Na1  1  0.97732000  0.05484000  0.65887000  1.0
  Na  Na2  1  0.47732000  0.55485000  0.84113000  1.0
  Na  Na3  1  0.02268000  0.94516000  0.34113000  1.0
  Na  Na4  1  0.53515000  0.92903000  0.35925000  1.0
  Na  Na5  1  0.96486000  0.57098000  0.85925000  1.0
  Na  Na6  1  0.46485000  0.07097000  0.64075000  1.0
  Na  Na7  1  0.03514000  0.42902000  0.14075000  1.0
  H  H8  1  0.85698000  0.82614000  0.49963000  1.0
  H  H9  1  0.64302000  0.67386000  0.99963000  1.0
  H  H10  1  0.14302000  0.17386000  0.50037000  1.0
  H  H11  1  0.35698000  0.32613000  0.00037000  1.0
  H  H12  1  0.62067000  0.74501000  0.59674000  1.0
  H  H13  1  0.87933000  0.75498000  0.09674000  1.0
  H  H14  1  0.37933000  0.25498000  0.40326000  1.0
  H  H15  1  0.12067000  0.24502000  0.90326000  1.0
  H  H16  1  0.25509000  0.44468000  0.29062000  1.0
  H  H17  1  0.24491000  0.05532000  0.79062000  1.0
  H  H18  1  0.74491000  0.55532000  0.70938000  1.0
  H  H19  1  0.75509000  0.94468000  0.20938000  1.0
  H  H20  1  0.18029000  0.59438000  0.26011000  1.0
  H  H21  1  0.31971000  0.90563000  0.76011000  1.0
  H  H22  1  0.81971000  0.40562000  0.73989000  1.0
  H  H23  1  0.68029000  0.09438000  0.23989000  1.0
  H  H24  1  0.71185000  0.39502000  0.60122000  1.0
  H  H25  1  0.78816000  0.10497000  0.10122000  1.0
  H  H26  1  0.28815000  0.60498000  0.39878000  1.0
  H  H27  1  0.21184000  0.89502000  0.89878000  1.0
  H  H28  1  0.78494000  0.35835000  0.33577000  1.0
  H  H29  1  0.71506000  0.14165000  0.83577000  1.0
  H  H30  1  0.21506000  0.64164000  0.66423000  1.0
  H  H31  1  0.28494000  0.85835000  0.16423000  1.0
  C  C32  1  0.76882000  0.65009000  0.45740000  1.0
  C  C33  1  0.73119000  0.84992000  0.95740000  1.0
  C  C34  1  0.23118000  0.34991000  0.54260000  1.0
  C  C35  1  0.26882000  0.15008000  0.04260000  1.0
  C  C36  1  0.73934000  0.58730000  0.53523000  1.0
  C  C37  1  0.76065000  0.91270000  0.03523000  1.0
  C  C38  1  0.26064000  0.41271000  0.46477000  1.0
  C  C39  1  0.23935000  0.08729000  0.96477000  1.0
  C  C40  1  0.73513000  0.44288000  0.54113000  1.0
  C  C41  1  0.76488000  0.05712000  0.04113000  1.0
  C  C42  1  0.26487000  0.55712000  0.45887000  1.0
  C  C43  1  0.23511000  0.94287000  0.95887000  1.0
  C  C44  1  0.75475000  0.36169000  0.46979000  1.0
  C  C45  1  0.74525000  0.13831000  0.96979000  1.0
  C  C46  1  0.24525000  0.63831000  0.53021000  1.0
  C  C47  1  0.25474000  0.86169000  0.03021000  1.0
  C  C48  1  0.77267000  0.42179000  0.39162000  1.0
  C  C49  1  0.72734000  0.07822000  0.89161000  1.0
  C  C50  1  0.22733000  0.57821000  0.60838000  1.0
  C  C51  1  0.27266000  0.92178000  0.10839000  1.0
  C  C52  1  0.77772000  0.56582000  0.38594000  1.0
  C  C53  1  0.72227000  0.93418000  0.88594000  1.0
  C  C54  1  0.22228000  0.43418000  0.61406000  1.0
  C  C55  1  0.27772000  0.06582000  0.11406000  1.0
  S  S56  1  0.75094000  0.17854000  0.47670000  1.0
  S  S57  1  0.74907000  0.32146000  0.97670000  1.0
  S  S58  1  0.24906000  0.82145000  0.52330000  1.0
  S  S59  1  0.25093000  0.67853000  0.02330000  1.0
  S  S60  1  0.78757000  0.64430000  0.28611000  1.0
  S  S61  1  0.71242000  0.85572000  0.78612000  1.0
  S  S62  1  0.21243000  0.35570000  0.71389000  1.0
  S  S63  1  0.28758000  0.14428000  0.21389000  1.0
  O  O64  1  0.78336000  0.79104000  0.45073000  1.0
  O  O65  1  0.71663000  0.70897000  0.95073000  1.0
  O  O66  1  0.21664000  0.20896000  0.54927000  1.0
  O  O67  1  0.28336000  0.29103000  0.04927000  1.0
  O  O68  1  0.71952000  0.66559000  0.60588000  1.0
  O  O69  1  0.78048000  0.83441000  0.10588000  1.0
  O  O70  1  0.28048000  0.33441000  0.39412000  1.0
  O  O71  1  0.21952000  0.16559000  0.89412000  1.0
  O  O72  1  0.93908000  0.12144000  0.44088000  1.0
  O  O73  1  0.56092000  0.37856000  0.94088000  1.0
  O  O74  1  0.06093000  0.87856000  0.55912000  1.0
  O  O75  1  0.43908000  0.62144000  0.05912000  1.0
  O  O76  1  0.58037000  0.13842000  0.42698000  1.0
  O  O77  1  0.91963000  0.36159000  0.92698000  1.0
  O  O78  1  0.41962000  0.86158000  0.57302000  1.0
  O  O79  1  0.08037000  0.63841000  0.07302000  1.0
  O  O80  1  0.73185000  0.14469000  0.56504000  1.0
  O  O81  1  0.76816000  0.35531000  0.06505000  1.0
  O  O82  1  0.26815000  0.85531000  0.43496000  1.0
  O  O83  1  0.23184000  0.64469000  0.93495000  1.0
  O  O84  1  0.79146000  0.52885000  0.22631000  1.0
  O  O85  1  0.70852000  0.97115000  0.72632000  1.0
  O  O86  1  0.20854000  0.47115000  0.77369000  1.0
  O  O87  1  0.29147000  0.02884000  0.27368000  1.0
  O  O88  1  0.97223000  0.71898000  0.28346000  1.0
  O  O89  1  0.52777000  0.78104000  0.78346000  1.0
  O  O90  1  0.02777000  0.28102000  0.71654000  1.0
  O  O91  1  0.47224000  0.21896000  0.21654000  1.0
  O  O92  1  0.60888000  0.73544000  0.28026000  1.0
  O  O93  1  0.89111000  0.76456000  0.78026000  1.0
  O  O94  1  0.39113000  0.26455000  0.71974000  1.0
  O  O95  1  0.10888000  0.23544000  0.21974000  1.0
  O  O96  1  0.26286000  0.51081000  0.24451000  1.0
  O  O97  1  0.23713000  0.98919000  0.74451000  1.0
  O  O98  1  0.73714000  0.48919000  0.75549000  1.0
  O  O99  1  0.76287000  0.01081000  0.25549000  1.0
