# generated using pymatgen
data_ZnH13C11N5Cl2O
_symmetry_space_group_name_H-M   'P 1'
_cell_length_a   7.21464000
_cell_length_b   8.96862000
_cell_length_c   22.87100000
_cell_angle_alpha   90.00000000
_cell_angle_beta   90.00000000
_cell_angle_gamma   96.46280000
_symmetry_Int_Tables_number   1
_chemical_formula_structural   ZnH13C11N5Cl2O
_chemical_formula_sum   'Zn4 H52 C44 N20 Cl8 O4'
_cell_volume   1470.47199358
_cell_formula_units_Z   4
loop_
 _symmetry_equiv_pos_site_id
 _symmetry_equiv_pos_as_xyz
  1  'x, y, z'
loop_
 _atom_site_type_symbol
 _atom_site_label
 _atom_site_symmetry_multiplicity
 _atom_site_fract_x
 _atom_site_fract_y
 _atom_site_fract_z
 _atom_site_occupancy
  Zn  Zn0  1  0.18797000  0.40270000  0.74199000  1.0
  Zn  Zn1  1  0.31203000  0.59730000  0.24199000  1.0
  Zn  Zn2  1  0.81203000  0.59730000  0.25801000  1.0
  Zn  Zn3  1  0.68796000  0.40270000  0.75801000  1.0
  H  H4  1  0.20609000  0.12845000  0.00219000  1.0
  H  H5  1  0.29391000  0.87155000  0.50219000  1.0
  H  H6  1  0.79391000  0.87155000  0.99782000  1.0
  H  H7  1  0.70609000  0.12845000  0.49781000  1.0
  H  H8  1  0.26943000  0.87532000  0.84472000  1.0
  H  H9  1  0.23057000  0.12468000  0.34472000  1.0
  H  H10  1  0.73057000  0.12467000  0.15528000  1.0
  H  H11  1  0.76943000  0.87532000  0.65528000  1.0
  H  H12  1  0.23677000  0.96614000  0.75572000  1.0
  H  H13  1  0.26324000  0.03386000  0.25572000  1.0
  H  H14  1  0.76323000  0.03386000  0.24428000  1.0
  H  H15  1  0.73677000  0.96614000  0.74428000  1.0
  H  H16  1  0.11555000  0.03159000  0.65817000  1.0
  H  H17  1  0.38445000  0.96841000  0.15817000  1.0
  H  H18  1  0.88445000  0.96841000  0.34183000  1.0
  H  H19  1  0.61555000  0.03159000  0.84183000  1.0
  H  H20  1  0.35116000  0.11229000  0.65985000  1.0
  H  H21  1  0.14884000  0.88772000  0.15985000  1.0
  H  H22  1  0.64884000  0.88771000  0.34015000  1.0
  H  H23  1  0.85116000  0.11229000  0.84015000  1.0
  H  H24  1  0.19788000  0.23861000  0.58294000  1.0
  H  H25  1  0.30213000  0.76139000  0.08294000  1.0
  H  H26  1  0.80212000  0.76139000  0.41706000  1.0
  H  H27  1  0.69788000  0.23861000  0.91706000  1.0
  H  H28  1  0.00554000  0.26546000  0.62844000  1.0
  H  H29  1  0.49446000  0.73454000  0.12844000  1.0
  H  H30  1  0.99446000  0.73454000  0.37156000  1.0
  H  H31  1  0.50554000  0.26546000  0.87156000  1.0
  H  H32  1  0.04222000  0.54281000  0.61992000  1.0
  H  H33  1  0.45778000  0.45719000  0.11992000  1.0
  H  H34  1  0.95778000  0.45719000  0.38008000  1.0
  H  H35  1  0.54222000  0.54281000  0.88008000  1.0
  H  H36  1  0.20406000  0.50337000  0.56542000  1.0
  H  H37  1  0.29594000  0.49664000  0.06542000  1.0
  H  H38  1  0.79594000  0.49664000  0.43458000  1.0
  H  H39  1  0.70406000  0.50336000  0.93458000  1.0
  H  H40  1  0.29826000  0.71660000  0.66978000  1.0
  H  H41  1  0.20174000  0.28340000  0.16978000  1.0
  H  H42  1  0.70173000  0.28340000  0.33022000  1.0
  H  H43  1  0.79826000  0.71660000  0.83022000  1.0
  H  H44  1  0.26937000  0.76811000  0.59606000  1.0
  H  H45  1  0.23063000  0.23189000  0.09606000  1.0
  H  H46  1  0.73062000  0.23189000  0.40394000  1.0
  H  H47  1  0.76937000  0.76811000  0.90394000  1.0
  H  H48  1  0.45925000  0.66836000  0.61573000  1.0
  H  H49  1  0.04074000  0.33165000  0.11573000  1.0
  H  H50  1  0.54074000  0.33165000  0.38427000  1.0
  H  H51  1  0.95926000  0.66836000  0.88427000  1.0
  H  H52  1  0.38815000  0.40964000  0.64749000  1.0
  H  H53  1  0.11185000  0.59036000  0.14749000  1.0
  H  H54  1  0.61185000  0.59036000  0.35251000  1.0
  H  H55  1  0.88815000  0.40964000  0.85251000  1.0
  C  C56  1  0.20239000  0.10161000  0.83165000  1.0
  C  C57  1  0.29762000  0.89839000  0.33165000  1.0
  C  C58  1  0.79762000  0.89839000  0.16835000  1.0
  C  C59  1  0.70239000  0.10161000  0.66835000  1.0
  C  C60  1  0.16622000  0.24067000  0.85839000  1.0
  C  C61  1  0.33378000  0.75933000  0.35839000  1.0
  C  C62  1  0.83379000  0.75933000  0.14162000  1.0
  C  C63  1  0.66621000  0.24067000  0.64161000  1.0
  C  C64  1  0.16802000  0.24252000  0.92115000  1.0
  C  C65  1  0.33198000  0.75748000  0.42115000  1.0
  C  C66  1  0.83199000  0.75748000  0.07885000  1.0
  C  C67  1  0.66802000  0.24251000  0.57885000  1.0
  C  C68  1  0.20432000  0.12049000  0.95470000  1.0
  C  C69  1  0.29568000  0.87951000  0.45469000  1.0
  C  C70  1  0.79568000  0.87951000  0.04530000  1.0
  C  C71  1  0.70433000  0.12048000  0.54531000  1.0
  C  C72  1  0.24101000  0.98761000  0.92669000  1.0
  C  C73  1  0.25899000  0.01239000  0.42669000  1.0
  C  C74  1  0.75899000  0.01239000  0.07331000  1.0
  C  C75  1  0.74101000  0.98761000  0.57331000  1.0
  C  C76  1  0.23838000  0.97776000  0.86642000  1.0
  C  C77  1  0.26162000  0.02224000  0.36642000  1.0
  C  C78  1  0.76162000  0.02224000  0.13358000  1.0
  C  C79  1  0.73838000  0.97776000  0.63358000  1.0
  C  C80  1  0.20914000  0.07907000  0.76925000  1.0
  C  C81  1  0.29086000  0.92093000  0.26925000  1.0
  C  C82  1  0.79086000  0.92093000  0.23075000  1.0
  C  C83  1  0.70914000  0.07907000  0.73075000  1.0
  C  C84  1  0.20679000  0.13531000  0.66788000  1.0
  C  C85  1  0.29321000  0.86469000  0.16788000  1.0
  C  C86  1  0.79321000  0.86469000  0.33213000  1.0
  C  C87  1  0.70679000  0.13531000  0.83212000  1.0
  C  C88  1  0.15701000  0.26136000  0.62820000  1.0
  C  C89  1  0.34299000  0.73864000  0.12820000  1.0
  C  C90  1  0.84299000  0.73864000  0.37180000  1.0
  C  C91  1  0.65701000  0.26136000  0.87180000  1.0
  C  C92  1  0.19071000  0.53241000  0.61202000  1.0
  C  C93  1  0.30929000  0.46760000  0.11202000  1.0
  C  C94  1  0.80929000  0.46759000  0.38798000  1.0
  C  C95  1  0.69071000  0.53240000  0.88798000  1.0
  C  C96  1  0.31153000  0.67910000  0.62444000  1.0
  C  C97  1  0.18847000  0.32090000  0.12444000  1.0
  C  C98  1  0.68847000  0.32090000  0.37556000  1.0
  C  C99  1  0.81153000  0.67910000  0.87556000  1.0
  N  N100  1  0.18786000  0.17797000  0.72923000  1.0
  N  N101  1  0.31214000  0.82203000  0.22923000  1.0
  N  N102  1  0.81213000  0.82203000  0.27077000  1.0
  N  N103  1  0.68787000  0.17797000  0.77077000  1.0
  N  N104  1  0.24467000  0.40853000  0.64859000  1.0
  N  N105  1  0.25533000  0.59147000  0.14859000  1.0
  N  N106  1  0.75533000  0.59147000  0.35141000  1.0
  N  N107  1  0.74467000  0.40853000  0.85141000  1.0
  N  N108  1  0.95346000  0.51728000  0.73893000  1.0
  N  N109  1  0.54654000  0.48272000  0.23893000  1.0
  N  N110  1  0.04654000  0.48272000  0.26107000  1.0
  N  N111  1  0.45346000  0.51728000  0.76107000  1.0
  N  N112  1  0.96390000  0.65130000  0.73024000  1.0
  N  N113  1  0.53610000  0.34871000  0.23024000  1.0
  N  N114  1  0.03610000  0.34870000  0.26976000  1.0
  N  N115  1  0.46390000  0.65130000  0.76976000  1.0
  N  N116  1  0.97171000  0.77978000  0.72234000  1.0
  N  N117  1  0.52829000  0.22021000  0.22234000  1.0
  N  N118  1  0.02829000  0.22021000  0.27766000  1.0
  N  N119  1  0.47171000  0.77979000  0.77766000  1.0
  Cl  Cl120  1  0.12771000  0.40799000  0.95506000  1.0
  Cl  Cl121  1  0.37229000  0.59201000  0.45506000  1.0
  Cl  Cl122  1  0.87229000  0.59201000  0.04494000  1.0
  Cl  Cl123  1  0.62772000  0.40798000  0.54493000  1.0
  Cl  Cl124  1  0.29350000  0.83548000  0.96812000  1.0
  Cl  Cl125  1  0.20651000  0.16452000  0.46812000  1.0
  Cl  Cl126  1  0.70649000  0.16452000  0.03188000  1.0
  Cl  Cl127  1  0.79350000  0.83547000  0.53188000  1.0
  O  O128  1  0.13033000  0.35884000  0.82959000  1.0
  O  O129  1  0.36966000  0.64116000  0.32958000  1.0
  O  O130  1  0.86967000  0.64116000  0.17042000  1.0
  O  O131  1  0.63034000  0.35884000  0.67041000  1.0
