# generated using pymatgen
data_CdH28C26S2(N4Cl)2
_symmetry_space_group_name_H-M   'P 1'
_cell_length_a   7.90966000
_cell_length_b   9.04884000
_cell_length_c   12.14320000
_cell_angle_alpha   68.15120000
_cell_angle_beta   82.61740000
_cell_angle_gamma   69.91420000
_symmetry_Int_Tables_number   1
_chemical_formula_structural   CdH28C26S2(N4Cl)2
_chemical_formula_sum   'Cd1 H28 C26 S2 N8 Cl2'
_cell_volume   757.63397504
_cell_formula_units_Z   1
loop_
 _symmetry_equiv_pos_site_id
 _symmetry_equiv_pos_as_xyz
  1  'x, y, z'
loop_
 _atom_site_type_symbol
 _atom_site_label
 _atom_site_symmetry_multiplicity
 _atom_site_fract_x
 _atom_site_fract_y
 _atom_site_fract_z
 _atom_site_occupancy
  Cd  Cd0  1  0.50000000  0.00000000  0.00000000  1.0
  H  H1  1  0.68585000  0.68810000  0.21795000  1.0
  H  H2  1  0.31376000  0.09404000  0.21845000  1.0
  H  H3  1  0.31415000  0.31190000  0.78205000  1.0
  H  H4  1  0.68623000  0.90597000  0.78156000  1.0
  H  H5  1  0.63700000  0.45703000  0.39880000  1.0
  H  H6  1  0.36281000  0.14426000  0.39929000  1.0
  H  H7  1  0.36299000  0.54297000  0.60120000  1.0
  H  H8  1  0.63720000  0.85575000  0.60071000  1.0
  H  H9  1  0.32504000  0.42669000  0.43377000  1.0
  H  H10  1  0.67485000  0.13977000  0.43387000  1.0
  H  H11  1  0.67496000  0.57330000  0.56623000  1.0
  H  H12  1  0.32516000  0.86023000  0.56614000  1.0
  H  H13  1  0.15882000  0.84750000  0.10852000  1.0
  H  H14  1  0.84067000  0.04440000  0.10824000  1.0
  H  H15  1  0.84118000  0.15249000  0.89149000  1.0
  H  H16  1  0.15932000  0.95560000  0.89176000  1.0
  H  H17  1  0.99799000  0.57715000  0.38372000  1.0
  H  H18  1  0.00219000  0.03897000  0.38331000  1.0
  H  H19  1  0.00201000  0.42284000  0.61628000  1.0
  H  H20  1  0.99781000  0.96103000  0.61669000  1.0
  H  H21  1  0.93398000  0.74210000  0.24338000  1.0
  H  H22  1  0.06563000  0.01481000  0.24270000  1.0
  H  H23  1  0.06602000  0.25790000  0.75662000  1.0
  H  H24  1  0.93436000  0.98519000  0.75729000  1.0
  H  H25  1  0.99190000  0.54861000  0.15071000  1.0
  H  H26  1  0.00774000  0.30081000  0.15052000  1.0
  H  H27  1  0.00810000  0.45139000  0.84929000  1.0
  H  H28  1  0.99226000  0.69919000  0.84948000  1.0
  C  C29  1  0.55491000  0.66918000  0.23704000  1.0
  C  C30  1  0.44471000  0.09396000  0.23736000  1.0
  C  C31  1  0.44508000  0.33082000  0.76296000  1.0
  C  C32  1  0.55528000  0.90604000  0.76264000  1.0
  C  C33  1  0.52600000  0.54097000  0.33736000  1.0
  C  C34  1  0.47373000  0.12187000  0.33767000  1.0
  C  C35  1  0.47399000  0.45904000  0.66264000  1.0
  C  C36  1  0.52627000  0.87813000  0.66233000  1.0
  C  C37  1  0.35517000  0.52380000  0.35584000  1.0
  C  C38  1  0.64461000  0.12063000  0.35595000  1.0
  C  C39  1  0.64483000  0.47620000  0.64416000  1.0
  C  C40  1  0.35539000  0.87937000  0.64405000  1.0
  C  C41  1  0.21885000  0.63382000  0.27323000  1.0
  C  C42  1  0.78089000  0.09313000  0.27316000  1.0
  C  C43  1  0.78114000  0.36617000  0.72677000  1.0
  C  C44  1  0.21911000  0.90687000  0.72684000  1.0
  C  C45  1  0.26090000  0.75801000  0.17507000  1.0
  C  C46  1  0.73871000  0.06710000  0.17502000  1.0
  C  C47  1  0.73910000  0.24199000  0.82493000  1.0
  C  C48  1  0.26128000  0.93290000  0.82498000  1.0
  C  C49  1  0.03226000  0.61894000  0.28896000  1.0
  C  C50  1  0.96758000  0.09214000  0.28862000  1.0
  C  C51  1  0.96774000  0.38106000  0.71104000  1.0
  C  C52  1  0.03242000  0.90786000  0.71138000  1.0
  C  C53  1  0.00003000  0.34721000  0.30531000  1.0
  C  C54  1  0.99996000  0.65279000  0.69468000  1.0
  S  S55  1  0.00030000  0.27191000  0.45551000  1.0
  S  S56  1  0.99969000  0.72809000  0.54449000  1.0
  N  N57  1  0.42501000  0.77625000  0.15727000  1.0
  N  N58  1  0.57453000  0.06673000  0.15738000  1.0
  N  N59  1  0.57499000  0.22376000  0.84273000  1.0
  N  N60  1  0.42547000  0.93327000  0.84263000  1.0
  N  N61  1  0.01641000  0.50006000  0.24019000  1.0
  N  N62  1  0.98346000  0.25972000  0.24004000  1.0
  N  N63  1  0.98359000  0.49994000  0.75980000  1.0
  N  N64  1  0.01654000  0.74028000  0.75995000  1.0
  Cl  Cl65  1  0.84647000  0.80586000  0.00011000  1.0
  Cl  Cl66  1  0.15352000  0.19414000  0.99989000  1.0
