# generated using pymatgen
data_Gd2MnH32C36N6(ClO8)2
_symmetry_space_group_name_H-M   'P 1'
_cell_length_a   9.38360000
_cell_length_b   15.56660000
_cell_length_c   18.27690000
_cell_angle_alpha   89.99990000
_cell_angle_beta   90.87340000
_cell_angle_gamma   89.99990000
_symmetry_Int_Tables_number   1
_chemical_formula_structural   Gd2MnH32C36N6(ClO8)2
_chemical_formula_sum   'Gd4 Mn2 H64 C72 N12 Cl4 O32'
_cell_volume   2669.41027351
_cell_formula_units_Z   2
loop_
 _symmetry_equiv_pos_site_id
 _symmetry_equiv_pos_as_xyz
  1  'x, y, z'
loop_
 _atom_site_type_symbol
 _atom_site_label
 _atom_site_symmetry_multiplicity
 _atom_site_fract_x
 _atom_site_fract_y
 _atom_site_fract_z
 _atom_site_occupancy
  Gd  Gd0  1  0.20116000  0.42083000  0.50334000  1.0
  Gd  Gd1  1  0.29884000  0.92083000  0.99666000  1.0
  Gd  Gd2  1  0.79884000  0.57917000  0.49667000  1.0
  Gd  Gd3  1  0.70116000  0.07917000  0.00334000  1.0
  Mn  Mn4  1  0.00000000  0.50000000  0.00001000  1.0
  Mn  Mn5  1  0.50000000  0.00000000  0.50000000  1.0
  H  H6  1  0.06196000  0.16512000  0.02203000  1.0
  H  H7  1  0.43803000  0.66511000  0.47797000  1.0
  H  H8  1  0.93804000  0.83489000  0.97797000  1.0
  H  H9  1  0.56196000  0.33489000  0.52203000  1.0
  H  H10  1  0.47958000  0.47763000  0.41784000  1.0
  H  H11  1  0.02041000  0.97764000  0.08216000  1.0
  H  H12  1  0.52041000  0.52236000  0.58216000  1.0
  H  H13  1  0.97958000  0.02237000  0.91784000  1.0
  H  H14  1  0.42928000  0.38117000  0.39981000  1.0
  H  H15  1  0.07072000  0.88117000  0.10019000  1.0
  H  H16  1  0.57072000  0.61882000  0.60019000  1.0
  H  H17  1  0.92928000  0.11883000  0.89981000  1.0
  H  H18  1  0.46035000  0.29297000  0.98354000  1.0
  H  H19  1  0.03965000  0.79296000  0.51646000  1.0
  H  H20  1  0.53965000  0.70704000  0.01645000  1.0
  H  H21  1  0.96035000  0.20704000  0.48354000  1.0
  H  H22  1  0.25215000  0.23219000  0.46167000  1.0
  H  H23  1  0.24784000  0.73220000  0.03833000  1.0
  H  H24  1  0.74783000  0.76779000  0.53833000  1.0
  H  H25  1  0.75216000  0.26780000  0.96167000  1.0
  H  H26  1  0.16627000  0.26919000  0.39419000  1.0
  H  H27  1  0.33373000  0.76919000  0.10581000  1.0
  H  H28  1  0.83372000  0.73081000  0.60582000  1.0
  H  H29  1  0.66628000  0.23081000  0.89419000  1.0
  H  H30  1  0.32606000  0.43356000  0.98329000  1.0
  H  H31  1  0.17394000  0.93356000  0.51671000  1.0
  H  H32  1  0.67394000  0.56644000  0.01671000  1.0
  H  H33  1  0.82607000  0.06644000  0.48329000  1.0
  H  H34  1  0.58279000  0.44377000  0.71136000  1.0
  H  H35  1  0.91721000  0.94377000  0.78864000  1.0
  H  H36  1  0.41721000  0.55623000  0.28864000  1.0
  H  H37  1  0.08279000  0.05623000  0.21135000  1.0
  H  H38  1  0.94431000  0.31145000  0.02473000  1.0
  H  H39  1  0.55569000  0.81144000  0.47527000  1.0
  H  H40  1  0.05569000  0.68856000  0.97527000  1.0
  H  H41  1  0.44432000  0.18855000  0.52473000  1.0
  H  H42  1  0.22006000  0.46017000  0.26396000  1.0
  H  H43  1  0.27994000  0.96017000  0.23604000  1.0
  H  H44  1  0.77995000  0.53983000  0.73604000  1.0
  H  H45  1  0.72006000  0.03983000  0.76396000  1.0
  H  H46  1  0.20674000  0.46398000  0.12562000  1.0
  H  H47  1  0.29326000  0.96398000  0.37439000  1.0
  H  H48  1  0.79326000  0.53602000  0.87439000  1.0
  H  H49  1  0.70675000  0.03602000  0.62561000  1.0
  H  H50  1  0.77275000  0.51949000  0.26540000  1.0
  H  H51  1  0.72725000  0.01949000  0.23460000  1.0
  H  H52  1  0.22726000  0.48051000  0.73460000  1.0
  H  H53  1  0.27275000  0.98051000  0.76540000  1.0
  H  H54  1  0.77300000  0.50975000  0.12714000  1.0
  H  H55  1  0.72700000  0.00975000  0.37286000  1.0
  H  H56  1  0.22700000  0.49025000  0.87286000  1.0
  H  H57  1  0.27301000  0.99025000  0.62714000  1.0
  H  H58  1  0.31944000  0.21800000  0.69477000  1.0
  H  H59  1  0.18056000  0.71800000  0.80523000  1.0
  H  H60  1  0.68056000  0.78200000  0.30524000  1.0
  H  H61  1  0.81944000  0.28200000  0.19476000  1.0
  H  H62  1  0.68662000  0.38268000  0.82904000  1.0
  H  H63  1  0.81337000  0.88268000  0.67096000  1.0
  H  H64  1  0.31337000  0.61733000  0.17096000  1.0
  H  H65  1  0.18663000  0.11732000  0.32903000  1.0
  H  H66  1  0.43083000  0.16737000  0.81381000  1.0
  H  H67  1  0.06917000  0.66737000  0.68619000  1.0
  H  H68  1  0.56918000  0.83263000  0.18619000  1.0
  H  H69  1  0.93083000  0.33263000  0.31381000  1.0
  C  C70  1  0.12251000  0.22387000  0.01419000  1.0
  C  C71  1  0.37749000  0.72386000  0.48580000  1.0
  C  C72  1  0.87749000  0.77614000  0.98581000  1.0
  C  C73  1  0.62252000  0.27613000  0.51419000  1.0
  C  C74  1  0.34557000  0.29472000  0.99161000  1.0
  C  C75  1  0.15443000  0.79472000  0.50839000  1.0
  C  C76  1  0.65443000  0.70529000  0.00839000  1.0
  C  C77  1  0.84557000  0.20528000  0.49161000  1.0
  C  C78  1  0.27180000  0.37224000  0.99107000  1.0
  C  C79  1  0.22820000  0.87224000  0.50893000  1.0
  C  C80  1  0.72820000  0.62776000  0.00893000  1.0
  C  C81  1  0.77181000  0.12776000  0.49107000  1.0
  C  C82  1  0.33972000  0.13277000  0.00286000  1.0
  C  C83  1  0.16028000  0.63277000  0.49714000  1.0
  C  C84  1  0.66028000  0.86724000  0.99714000  1.0
  C  C85  1  0.83972000  0.36723000  0.50286000  1.0
  C  C86  1  0.26884000  0.21899000  0.00267000  1.0
  C  C87  1  0.23115000  0.71899000  0.49733000  1.0
  C  C88  1  0.73116000  0.78102000  0.99733000  1.0
  C  C89  1  0.76885000  0.28102000  0.50267000  1.0
  C  C90  1  0.44338000  0.33472000  0.69446000  1.0
  C  C91  1  0.05662000  0.83472000  0.80554000  1.0
  C  C92  1  0.55662000  0.66528000  0.30554000  1.0
  C  C93  1  0.94338000  0.16528000  0.19446000  1.0
  C  C94  1  0.54719000  0.38212000  0.73254000  1.0
  C  C95  1  0.95281000  0.88212000  0.76746000  1.0
  C  C96  1  0.45281000  0.61788000  0.26745000  1.0
  C  C97  1  0.04719000  0.11788000  0.23254000  1.0
  C  C98  1  0.99789000  0.49195000  0.27424000  1.0
  C  C99  1  0.50210000  0.99195000  0.22576000  1.0
  C  C100  1  0.00211000  0.50805000  0.72577000  1.0
  C  C101  1  0.49790000  0.00805000  0.77424000  1.0
  C  C102  1  0.00358000  0.49222000  0.35669000  1.0
  C  C103  1  0.49642000  0.99223000  0.14331000  1.0
  C  C104  1  0.99643000  0.50777000  0.64331000  1.0
  C  C105  1  0.50357000  0.00777000  0.85669000  1.0
  C  C106  1  0.37654000  0.36618000  0.62412000  1.0
  C  C107  1  0.12346000  0.86619000  0.87588000  1.0
  C  C108  1  0.62346000  0.63381000  0.37588000  1.0
  C  C109  1  0.87654000  0.13381000  0.12412000  1.0
  C  C110  1  0.05777000  0.30394000  0.01457000  1.0
  C  C111  1  0.44224000  0.80394000  0.48543000  1.0
  C  C112  1  0.94224000  0.69606000  0.98543000  1.0
  C  C113  1  0.55777000  0.19606000  0.51457000  1.0
  C  C114  1  0.12075000  0.47414000  0.23478000  1.0
  C  C115  1  0.37924000  0.97414000  0.26522000  1.0
  C  C116  1  0.87925000  0.52586000  0.76523000  1.0
  C  C117  1  0.62076000  0.02586000  0.73478000  1.0
  C  C118  1  0.11288000  0.47428000  0.15891000  1.0
  C  C119  1  0.38712000  0.97428000  0.34110000  1.0
  C  C120  1  0.88712000  0.52572000  0.84110000  1.0
  C  C121  1  0.61289000  0.02572000  0.65890000  1.0
  C  C122  1  0.87028000  0.50648000  0.23578000  1.0
  C  C123  1  0.62972000  0.00649000  0.26423000  1.0
  C  C124  1  0.12973000  0.49352000  0.76423000  1.0
  C  C125  1  0.37028000  0.99352000  0.73577000  1.0
  C  C126  1  0.87061000  0.50226000  0.15971000  1.0
  C  C127  1  0.62939000  0.00227000  0.34030000  1.0
  C  C128  1  0.12939000  0.49774000  0.84030000  1.0
  C  C129  1  0.37062000  0.99774000  0.65970000  1.0
  C  C130  1  0.40008000  0.25594000  0.72359000  1.0
  C  C131  1  0.09992000  0.75594000  0.77641000  1.0
  C  C132  1  0.59993000  0.74406000  0.27641000  1.0
  C  C133  1  0.90008000  0.24406000  0.22359000  1.0
  C  C134  1  0.60513000  0.34840000  0.79718000  1.0
  C  C135  1  0.89487000  0.84840000  0.70282000  1.0
  C  C136  1  0.39487000  0.65160000  0.20282000  1.0
  C  C137  1  0.10513000  0.15160000  0.29718000  1.0
  C  C138  1  0.46243000  0.22793000  0.78893000  1.0
  C  C139  1  0.03757000  0.72793000  0.71107000  1.0
  C  C140  1  0.53758000  0.77207000  0.21107000  1.0
  C  C141  1  0.96243000  0.27207000  0.28892000  1.0
  N  N142  1  0.13016000  0.37712000  0.00209000  1.0
  N  N143  1  0.36984000  0.87711000  0.49791000  1.0
  N  N144  1  0.86984000  0.62289000  0.99791000  1.0
  N  N145  1  0.63016000  0.12288000  0.50208000  1.0
  N  N146  1  0.98998000  0.48793000  0.12174000  1.0
  N  N147  1  0.51001000  0.98793000  0.37826000  1.0
  N  N148  1  0.01002000  0.51207000  0.87826000  1.0
  N  N149  1  0.48999000  0.01207000  0.62174000  1.0
  N  N150  1  0.56427000  0.27239000  0.82483000  1.0
  N  N151  1  0.93573000  0.77239000  0.67517000  1.0
  N  N152  1  0.43573000  0.72761000  0.17517000  1.0
  N  N153  1  0.06427000  0.22761000  0.32482000  1.0
  Cl  Cl154  1  0.76412000  0.41498000  0.98543000  1.0
  Cl  Cl155  1  0.73586000  0.91498000  0.51457000  1.0
  Cl  Cl156  1  0.23586000  0.58502000  0.01458000  1.0
  Cl  Cl157  1  0.26412000  0.08502000  0.48543000  1.0
  O  O158  1  0.11202000  0.45695000  0.38602000  1.0
  O  O159  1  0.38798000  0.95695000  0.11398000  1.0
  O  O160  1  0.88799000  0.54304000  0.61398000  1.0
  O  O161  1  0.61202000  0.04304000  0.88602000  1.0
  O  O162  1  0.25873000  0.06764000  0.00388000  1.0
  O  O163  1  0.24126000  0.56764000  0.49612000  1.0
  O  O164  1  0.74127000  0.93236000  0.99612000  1.0
  O  O165  1  0.75873000  0.43236000  0.50388000  1.0
  O  O166  1  0.41587000  0.42969000  0.43239000  1.0
  O  O167  1  0.08413000  0.92970000  0.06761000  1.0
  O  O168  1  0.58413000  0.57030000  0.56761000  1.0
  O  O169  1  0.91587000  0.07030000  0.93239000  1.0
  O  O170  1  0.89950000  0.52621000  0.38900000  1.0
  O  O171  1  0.60049000  0.02622000  0.11101000  1.0
  O  O172  1  0.10052000  0.47379000  0.61102000  1.0
  O  O173  1  0.39949000  0.97379000  0.88899000  1.0
  O  O174  1  0.40427000  0.44128000  0.60002000  1.0
  O  O175  1  0.09573000  0.94129000  0.89998000  1.0
  O  O176  1  0.59574000  0.55871000  0.39998000  1.0
  O  O177  1  0.90426000  0.05871000  0.10001000  1.0
  O  O178  1  0.23515000  0.28655000  0.43513000  1.0
  O  O179  1  0.26484000  0.78655000  0.06487000  1.0
  O  O180  1  0.76484000  0.71345000  0.56488000  1.0
  O  O181  1  0.73516000  0.21345000  0.93513000  1.0
  O  O182  1  0.29026000  0.31626000  0.59041000  1.0
  O  O183  1  0.20974000  0.81627000  0.90959000  1.0
  O  O184  1  0.70974000  0.68373000  0.40960000  1.0
  O  O185  1  0.79026000  0.18374000  0.09040000  1.0
  O  O186  1  0.47465000  0.13160000  0.00184000  1.0
  O  O187  1  0.02535000  0.63161000  0.49815000  1.0
  O  O188  1  0.52536000  0.86840000  0.99815000  1.0
  O  O189  1  0.97465000  0.36840000  0.50186000  1.0
