# generated using pymatgen
data_BaH16C14SO10
_symmetry_space_group_name_H-M   'P 1'
_cell_length_a   6.00796000
_cell_length_b   13.76550000
_cell_length_c   14.21920000
_cell_angle_alpha   66.05100000
_cell_angle_beta   88.85920000
_cell_angle_gamma   86.59410000
_symmetry_Int_Tables_number   1
_chemical_formula_structural   BaH16C14SO10
_chemical_formula_sum   'Ba2 H32 C28 S2 O20'
_cell_volume   1072.81262153
_cell_formula_units_Z   2
loop_
 _symmetry_equiv_pos_site_id
 _symmetry_equiv_pos_as_xyz
  1  'x, y, z'
loop_
 _atom_site_type_symbol
 _atom_site_label
 _atom_site_symmetry_multiplicity
 _atom_site_fract_x
 _atom_site_fract_y
 _atom_site_fract_z
 _atom_site_occupancy
  Ba  Ba0  1  0.25989000  0.01340000  0.37164000  1.0
  Ba  Ba1  1  0.74011000  0.98660000  0.62837000  1.0
  H  H2  1  0.77036000  0.27355000  0.64420000  1.0
  H  H3  1  0.22963000  0.72644000  0.35580000  1.0
  H  H4  1  0.88670000  0.46047000  0.56293000  1.0
  H  H5  1  0.11328000  0.53953000  0.43706000  1.0
  H  H6  1  0.27608000  0.56909000  0.66145000  1.0
  H  H7  1  0.72395000  0.43090000  0.33856000  1.0
  H  H8  1  0.15760000  0.38156000  0.74413000  1.0
  H  H9  1  0.84241000  0.61844000  0.25587000  1.0
  H  H10  1  0.19778000  0.21852000  0.94159000  1.0
  H  H11  1  0.80222000  0.78149000  0.05841000  1.0
  H  H12  1  0.34776000  0.18511000  0.11347000  1.0
  H  H13  1  0.65222000  0.81490000  0.88652000  1.0
  H  H14  1  0.96533000  0.05638000  0.04134000  1.0
  H  H15  1  0.03466000  0.94363000  0.95867000  1.0
  H  H16  1  0.81317000  0.08706000  0.86768000  1.0
  H  H17  1  0.18684000  0.91294000  0.13232000  1.0
  H  H18  1  0.76089000  0.89733000  0.44301000  1.0
  H  H19  1  0.23911000  0.10267000  0.55699000  1.0
  H  H20  1  0.59292000  0.82662000  0.52325000  1.0
  H  H21  1  0.40708000  0.17338000  0.47675000  1.0
  H  H22  1  0.77179000  0.11658000  0.35587000  1.0
  H  H23  1  0.22819000  0.88342000  0.64413000  1.0
  H  H24  1  0.86360000  0.18825000  0.40786000  1.0
  H  H25  1  0.13639000  0.81175000  0.59214000  1.0
  H  H26  1  0.94273000  0.76934000  0.44967000  1.0
  H  H27  1  0.05728000  0.23066000  0.55033000  1.0
  H  H28  1  0.94810000  0.84617000  0.33176000  1.0
  H  H29  1  0.05191000  0.15384000  0.66824000  1.0
  H  H30  1  0.33357000  0.27066000  0.31505000  1.0
  H  H31  1  0.66644000  0.72934000  0.68496000  1.0
  H  H32  1  0.42415000  0.22283000  0.23997000  1.0
  H  H33  1  0.57585000  0.77717000  0.76004000  1.0
  C  C34  1  0.66553000  0.33838000  0.64931000  1.0
  C  C35  1  0.33448000  0.66162000  0.35067000  1.0
  C  C36  1  0.72910000  0.44298000  0.60377000  1.0
  C  C37  1  0.27090000  0.55702000  0.39622000  1.0
  C  C38  1  0.59159000  0.52560000  0.61046000  1.0
  C  C39  1  0.40842000  0.47440000  0.38953000  1.0
  C  C40  1  0.38436000  0.50354000  0.65977000  1.0
  C  C41  1  0.61564000  0.49646000  0.34022000  1.0
  C  C42  1  0.31820000  0.39942000  0.70573000  1.0
  C  C43  1  0.68182000  0.60058000  0.29428000  1.0
  C  C44  1  0.46229000  0.31776000  0.70107000  1.0
  C  C45  1  0.53771000  0.68225000  0.29892000  1.0
  C  C46  1  0.49800000  0.15447000  0.89590000  1.0
  C  C47  1  0.50199000  0.84553000  0.10410000  1.0
  C  C48  1  0.36580000  0.18294000  0.96379000  1.0
  C  C49  1  0.63419000  0.81706000  0.03621000  1.0
  C  C50  1  0.45186000  0.16412000  0.06025000  1.0
  C  C51  1  0.54814000  0.83589000  0.93975000  1.0
  C  C52  1  0.66881000  0.11855000  0.08808000  1.0
  C  C53  1  0.33119000  0.88145000  0.91192000  1.0
  C  C54  1  0.79757000  0.09124000  0.01832000  1.0
  C  C55  1  0.20243000  0.90877000  0.98168000  1.0
  C  C56  1  0.71360000  0.10837000  0.92203000  1.0
  C  C57  1  0.28639000  0.89163000  0.07797000  1.0
  C  C58  1  0.66704000  0.63787000  0.56614000  1.0
  C  C59  1  0.33298000  0.36212000  0.43385000  1.0
  C  C60  1  0.76854000  0.09721000  0.19174000  1.0
  C  C61  1  0.23145000  0.90279000  0.80826000  1.0
  S  S62  1  0.39702000  0.18360000  0.77054000  1.0
  S  S63  1  0.60302000  0.81641000  0.22945000  1.0
  O  O64  1  0.63123000  0.90434000  0.48489000  1.0
  O  O65  1  0.36877000  0.09566000  0.51511000  1.0
  O  O66  1  0.85145000  0.65527000  0.51911000  1.0
  O  O67  1  0.14857000  0.34472000  0.48090000  1.0
  O  O68  1  0.85917000  0.11426000  0.41714000  1.0
  O  O69  1  0.14082000  0.88574000  0.58287000  1.0
  O  O70  1  0.53842000  0.70732000  0.58244000  1.0
  O  O71  1  0.46160000  0.29267000  0.41757000  1.0
  O  O72  1  0.63903000  0.11463000  0.25751000  1.0
  O  O73  1  0.36097000  0.88538000  0.74249000  1.0
  O  O74  1  0.98968000  0.84254000  0.39987000  1.0
  O  O75  1  0.01033000  0.15746000  0.60013000  1.0
  O  O76  1  0.96919000  0.06361000  0.20873000  1.0
  O  O77  1  0.03080000  0.93639000  0.79127000  1.0
  O  O78  1  0.28285000  0.24125000  0.26673000  1.0
  O  O79  1  0.71715000  0.75876000  0.73327000  1.0
  O  O80  1  0.52563000  0.11703000  0.72919000  1.0
  O  O81  1  0.47435000  0.88297000  0.27082000  1.0
  O  O82  1  0.15477000  0.17814000  0.77636000  1.0
  O  O83  1  0.84524000  0.82186000  0.22364000  1.0
