# generated using pymatgen
data_CdPH21C19(NO3)2
_symmetry_space_group_name_H-M   'P 1'
_cell_length_a   5.50252000
_cell_length_b   11.89890814
_cell_length_c   15.41050000
_cell_angle_alpha   89.41338711
_cell_angle_beta   87.55970000
_cell_angle_gamma   76.66742298
_symmetry_Int_Tables_number   1
_chemical_formula_structural   CdPH21C19(NO3)2
_chemical_formula_sum   'Cd2 P2 H42 C38 N4 O12'
_cell_volume   980.90202072
_cell_formula_units_Z   2
loop_
 _symmetry_equiv_pos_site_id
 _symmetry_equiv_pos_as_xyz
  1  'x, y, z'
loop_
 _atom_site_type_symbol
 _atom_site_label
 _atom_site_symmetry_multiplicity
 _atom_site_fract_x
 _atom_site_fract_y
 _atom_site_fract_z
 _atom_site_occupancy
  Cd  Cd0  1  0.99835000  0.34966000  0.34500000  1.0
  Cd  Cd1  1  0.34714000  0.65031000  0.84489000  1.0
  P  P2  1  0.19145000  0.27693000  0.55180000  1.0
  P  P3  1  0.46718000  0.72271000  0.05166000  1.0
  H  H4  1  0.08125000  0.05697000  0.52131000  1.0
  H  H5  1  0.13547000  0.94200000  0.02142000  1.0
  H  H6  1  0.31067000  0.85331000  0.54670000  1.0
  H  H7  1  0.15978000  0.14594000  0.04629000  1.0
  H  H8  1  0.71893000  0.81406000  0.61805000  1.0
  H  H9  1  0.52831000  0.18632000  0.11727000  1.0
  H  H10  1  0.89129000  0.97641000  0.66739000  1.0
  H  H11  1  0.86481000  0.02465000  0.16631000  1.0
  H  H12  1  0.66992000  0.17861000  0.63987000  1.0
  H  H13  1  0.84786000  0.82212000  0.13884000  1.0
  H  H14  1  0.25348000  0.36381000  0.68779000  1.0
  H  H15  1  0.61565000  0.63596000  0.18782000  1.0
  H  H16  1  0.49711000  0.37075000  0.61032000  1.0
  H  H17  1  0.86624000  0.62953000  0.11044000  1.0
  H  H18  1  0.19573000  0.51875000  0.52477000  1.0
  H  H19  1  0.71414000  0.48123000  0.02480000  1.0
  H  H20  1  0.95038000  0.51185000  0.60314000  1.0
  H  H21  1  0.46196000  0.48753000  0.10314000  1.0
  H  H22  1  0.62783000  0.17714000  0.40563000  1.0
  H  H23  1  0.80401000  0.82284000  0.90539000  1.0
  H  H24  1  0.62879000  0.97138000  0.41555000  1.0
  H  H25  1  0.59949000  0.02865000  0.91527000  1.0
  H  H26  1  0.35197000  0.89973000  0.27720000  1.0
  H  H27  1  0.25271000  0.10061000  0.77810000  1.0
  H  H28  1  0.32152000  0.10990000  0.27566000  1.0
  H  H29  1  0.43142000  0.89042000  0.77617000  1.0
  H  H30  1  0.65897000  0.80012000  0.43114000  1.0
  H  H31  1  0.46037000  0.19999000  0.93198000  1.0
  H  H32  1  0.68631000  0.58902000  0.42924000  1.0
  H  H33  1  0.27597000  0.41089000  0.92949000  1.0
  H  H34  1  0.34143000  0.52796000  0.27609000  1.0
  H  H35  1  0.86887000  0.47226000  0.77578000  1.0
  H  H36  1  0.33925000  0.73508000  0.26932000  1.0
  H  H37  1  0.07389000  0.26513000  0.76927000  1.0
  H  H38  1  0.48413000  0.34141000  0.24246000  1.0
  H  H39  1  0.82483000  0.65879000  0.74253000  1.0
  H  H40  1  0.24051000  0.32483000  0.19301000  1.0
  H  H41  1  0.56481000  0.67557000  0.69303000  1.0
  H  H42  1  0.51013000  0.36537000  0.44034000  1.0
  H  H43  1  0.87470000  0.63392000  0.94005000  1.0
  H  H44  1  0.74686000  0.36174000  0.49590000  1.0
  H  H45  1  0.10767000  0.63740000  0.99560000  1.0
  C  C46  1  0.35863000  0.13158000  0.57926000  1.0
  C  C47  1  0.48861000  0.86821000  0.07882000  1.0
  C  C48  1  0.26042000  0.03902000  0.55239000  1.0
  C  C49  1  0.29680000  0.96041000  0.05219000  1.0
  C  C50  1  0.38906000  0.92514000  0.56621000  1.0
  C  C51  1  0.31053000  0.07448000  0.06579000  1.0
  C  C52  1  0.61784000  0.90265000  0.60691000  1.0
  C  C53  1  0.51662000  0.09758000  0.10623000  1.0
  C  C54  1  0.71390000  0.99400000  0.63519000  1.0
  C  C55  1  0.70515000  0.00658000  0.13431000  1.0
  C  C56  1  0.58621000  0.10830000  0.62124000  1.0
  C  C57  1  0.69305000  0.89207000  0.12039000  1.0
  C  C58  1  0.29413000  0.38026000  0.61901000  1.0
  C  C59  1  0.67294000  0.61964000  0.11907000  1.0
  C  C60  1  0.15297000  0.50290000  0.59330000  1.0
  C  C61  1  0.65543000  0.49691000  0.09329000  1.0
  C  C62  1  0.24171000  0.58828000  0.64926000  1.0
  C  C63  1  0.83003000  0.41176000  0.14929000  1.0
  C  C64  1  0.78644000  0.11297000  0.37822000  1.0
  C  C65  1  0.89876000  0.88708000  0.87818000  1.0
  C  C66  1  0.78818000  0.99602000  0.38313000  1.0
  C  C67  1  0.78383000  0.00409000  0.88314000  1.0
  C  C68  1  0.99150000  0.91374000  0.34705000  1.0
  C  C69  1  0.90547000  0.08640000  0.84742000  1.0
  C  C70  1  0.18712000  0.95639000  0.30755000  1.0
  C  C71  1  0.14397000  0.04389000  0.80815000  1.0
  C  C72  1  0.17246000  0.07461000  0.30589000  1.0
  C  C73  1  0.24700000  0.92562000  0.80631000  1.0
  C  C74  1  0.99800000  0.78857000  0.34960000  1.0
  C  C75  1  0.78685000  0.21164000  0.84992000  1.0
  C  C76  1  0.81296000  0.74417000  0.39465000  1.0
  C  C77  1  0.55793000  0.25591000  0.89514000  1.0
  C  C78  1  0.82631000  0.62598000  0.39428000  1.0
  C  C79  1  0.45277000  0.37407000  0.89451000  1.0
  C  C80  1  0.19119000  0.59109000  0.30912000  1.0
  C  C81  1  0.78200000  0.40911000  0.80898000  1.0
  C  C82  1  0.19018000  0.70794000  0.30634000  1.0
  C  C83  1  0.89789000  0.29227000  0.80637000  1.0
  N  N84  1  0.97564000  0.15225000  0.34047000  1.0
  N  N85  1  0.12736000  0.84794000  0.84058000  1.0
  N  N86  1  0.01194000  0.54995000  0.35195000  1.0
  N  N87  1  0.56184000  0.45013000  0.85187000  1.0
  O  O88  1  0.27121000  0.29960000  0.45697000  1.0
  O  O89  1  0.57021000  0.69996000  0.95690000  1.0
  O  O90  1  0.91300000  0.28795000  0.56870000  1.0
  O  O91  1  0.19974000  0.71153000  0.06838000  1.0
  O  O92  1  0.41578000  0.63252000  0.61991000  1.0
  O  O93  1  0.04831000  0.36779000  0.11982000  1.0
  O  O94  1  0.13949000  0.60459000  0.72674000  1.0
  O  O95  1  0.74472000  0.39539000  0.22682000  1.0
  O  O96  1  0.34027000  0.30376000  0.24734000  1.0
  O  O97  1  0.64350000  0.69650000  0.74742000  1.0
  O  O98  1  0.65944000  0.39949000  0.44290000  1.0
  O  O99  1  0.05803000  0.59979000  0.94255000  1.0
