# generated using pymatgen
data_CdH16C12N2O9
_symmetry_space_group_name_H-M   'P 1'
_cell_length_a   5.00402000
_cell_length_b   5.00397000
_cell_length_c   30.91870000
_cell_angle_alpha   88.21070000
_cell_angle_beta   88.21150000
_cell_angle_gamma   86.55720000
_symmetry_Int_Tables_number   1
_chemical_formula_structural   CdH16C12N2O9
_chemical_formula_sum   'Cd2 H32 C24 N4 O18'
_cell_volume   772.09518084
_cell_formula_units_Z   2
loop_
 _symmetry_equiv_pos_site_id
 _symmetry_equiv_pos_as_xyz
  1  'x, y, z'
loop_
 _atom_site_type_symbol
 _atom_site_label
 _atom_site_symmetry_multiplicity
 _atom_site_fract_x
 _atom_site_fract_y
 _atom_site_fract_z
 _atom_site_occupancy
  Cd  Cd0  1  0.25494000  0.74507000  0.25000000  1.0
  Cd  Cd1  1  0.74506000  0.25494000  0.75000000  1.0
  H  H2  1  0.61107000  0.63930000  0.14132000  1.0
  H  H3  1  0.36073000  0.38896000  0.35868000  1.0
  H  H4  1  0.38895000  0.36072000  0.85868000  1.0
  H  H5  1  0.63926000  0.61103000  0.64132000  1.0
  H  H6  1  0.87173000  0.81413000  0.11513000  1.0
  H  H7  1  0.18588000  0.12830000  0.38486000  1.0
  H  H8  1  0.12830000  0.18587000  0.88486000  1.0
  H  H9  1  0.81411000  0.87170000  0.61514000  1.0
  H  H10  1  0.65336000  0.99923000  0.05922000  1.0
  H  H11  1  0.00077000  0.34664000  0.44078000  1.0
  H  H12  1  0.34663000  0.00076000  0.94078000  1.0
  H  H13  1  0.99923000  0.65337000  0.55922000  1.0
  H  H14  1  0.36835000  0.30992000  0.00053000  1.0
  H  H15  1  0.69007000  0.63165000  0.49947000  1.0
  H  H16  1  0.63163000  0.69006000  0.99947000  1.0
  H  H17  1  0.30993000  0.36837000  0.50053000  1.0
  H  H18  1  0.41863000  0.10782000  0.18180000  1.0
  H  H19  1  0.89220000  0.58138000  0.31819000  1.0
  H  H20  1  0.58138000  0.89219000  0.81820000  1.0
  H  H21  1  0.10780000  0.41863000  0.68181000  1.0
  H  H22  1  0.70293000  0.92352000  0.19473000  1.0
  H  H23  1  0.07649000  0.29708000  0.30527000  1.0
  H  H24  1  0.29707000  0.07648000  0.80527000  1.0
  H  H25  1  0.92351000  0.70293000  0.69473000  1.0
  H  H26  1  0.73958000  0.43250000  0.26662000  1.0
  H  H27  1  0.56751000  0.26043000  0.23338000  1.0
  H  H28  1  0.26042000  0.56751000  0.73338000  1.0
  H  H29  1  0.43250000  0.73958000  0.76662000  1.0
  H  H30  1  0.64073000  0.37864000  0.08492000  1.0
  H  H31  1  0.62136000  0.35928000  0.41507000  1.0
  H  H32  1  0.35927000  0.62135000  0.91508000  1.0
  H  H33  1  0.37864000  0.64072000  0.58493000  1.0
  C  C34  1  0.00086000  0.55979000  0.16714000  1.0
  C  C35  1  0.44021000  0.99915000  0.33286000  1.0
  C  C36  1  0.99915000  0.44020000  0.83286000  1.0
  C  C37  1  0.55977000  0.00086000  0.66714000  1.0
  C  C38  1  0.81875000  0.61723000  0.12870000  1.0
  C  C39  1  0.38278000  0.18128000  0.37130000  1.0
  C  C40  1  0.18128000  0.38277000  0.87130000  1.0
  C  C41  1  0.61721000  0.81872000  0.62870000  1.0
  C  C42  1  0.04629000  0.36701000  0.07005000  1.0
  C  C43  1  0.63299000  0.95372000  0.42995000  1.0
  C  C44  1  0.95371000  0.63297000  0.92995000  1.0
  C  C45  1  0.36700000  0.04629000  0.57005000  1.0
  C  C46  1  0.01533000  0.17750000  0.03423000  1.0
  C  C47  1  0.82249000  0.98467000  0.46577000  1.0
  C  C48  1  0.98466000  0.82249000  0.96577000  1.0
  C  C49  1  0.17750000  0.01534000  0.53423000  1.0
  C  C50  1  0.80703000  0.00218000  0.03347000  1.0
  C  C51  1  0.99782000  0.19298000  0.46653000  1.0
  C  C52  1  0.19297000  0.99781000  0.96653000  1.0
  C  C53  1  0.00218000  0.80703000  0.53347000  1.0
  C  C54  1  0.20719000  0.17320000  0.00026000  1.0
  C  C55  1  0.82679000  0.79281000  0.49974000  1.0
  C  C56  1  0.79281000  0.82678000  0.99973000  1.0
  C  C57  1  0.17321000  0.20719000  0.50027000  1.0
  N  N58  1  0.82554000  0.41971000  0.09563000  1.0
  N  N59  1  0.58030000  0.17448000  0.40437000  1.0
  N  N60  1  0.17447000  0.58029000  0.90437000  1.0
  N  N61  1  0.41970000  0.82552000  0.59563000  1.0
  O  O62  1  0.98033000  0.75584000  0.19421000  1.0
  O  O63  1  0.24417000  0.01967000  0.30579000  1.0
  O  O64  1  0.01967000  0.24415000  0.80579000  1.0
  O  O65  1  0.75582000  0.98033000  0.69421000  1.0
  O  O66  1  0.14910000  0.35370000  0.17129000  1.0
  O  O67  1  0.64630000  0.85091000  0.32871000  1.0
  O  O68  1  0.85091000  0.64629000  0.82871000  1.0
  O  O69  1  0.35368000  0.14909000  0.67129000  1.0
  O  O70  1  0.26403000  0.46910000  0.07569000  1.0
  O  O71  1  0.53087000  0.73600000  0.42431000  1.0
  O  O72  1  0.73598000  0.53087000  0.92431000  1.0
  O  O73  1  0.46912000  0.26402000  0.57569000  1.0
  O  O74  1  0.52266000  0.01003000  0.20450000  1.0
  O  O75  1  0.98998000  0.47735000  0.29550000  1.0
  O  O76  1  0.47735000  0.98997000  0.79550000  1.0
  O  O77  1  0.01002000  0.52266000  0.70450000  1.0
  O  O78  1  0.57200000  0.42799000  0.25000000  1.0
  O  O79  1  0.42799000  0.57201000  0.75000000  1.0
