# generated using pymatgen
data_H5PbC8NO5
_symmetry_space_group_name_H-M   'P 1'
_cell_length_a   7.37373000
_cell_length_b   10.64400000
_cell_length_c   11.29070000
_cell_angle_alpha   90.00040000
_cell_angle_beta   90.00060000
_cell_angle_gamma   81.77330000
_symmetry_Int_Tables_number   1
_chemical_formula_structural   H5PbC8NO5
_chemical_formula_sum   'H20 Pb4 C32 N4 O20'
_cell_volume   877.04277147
_cell_formula_units_Z   4
loop_
 _symmetry_equiv_pos_site_id
 _symmetry_equiv_pos_as_xyz
  1  'x, y, z'
loop_
 _atom_site_type_symbol
 _atom_site_label
 _atom_site_symmetry_multiplicity
 _atom_site_fract_x
 _atom_site_fract_y
 _atom_site_fract_z
 _atom_site_occupancy
  H  H0  1  0.36611000  0.44056000  0.94506000  1.0
  H  H1  1  0.13388000  0.55944000  0.44506000  1.0
  H  H2  1  0.63389000  0.55944000  0.05495000  1.0
  H  H3  1  0.86611000  0.44056000  0.55494000  1.0
  H  H4  1  0.22547000  0.16727000  0.71380000  1.0
  H  H5  1  0.27453000  0.83273000  0.21380000  1.0
  H  H6  1  0.77453000  0.83273000  0.28621000  1.0
  H  H7  1  0.72546000  0.16726000  0.78620000  1.0
  H  H8  1  0.94899000  0.01612000  0.86756000  1.0
  H  H9  1  0.55102000  0.98389000  0.36755000  1.0
  H  H10  1  0.05104000  0.98390000  0.13245000  1.0
  H  H11  1  0.44898000  0.01610000  0.63245000  1.0
  H  H12  1  0.39811000  0.50985000  0.56933000  1.0
  H  H13  1  0.10189000  0.49014000  0.06932000  1.0
  H  H14  1  0.60188000  0.49014000  0.43068000  1.0
  H  H15  1  0.89811000  0.50986000  0.93067000  1.0
  H  H16  1  0.29657000  0.29458000  0.53555000  1.0
  H  H17  1  0.20344000  0.70540000  0.03555000  1.0
  H  H18  1  0.70342000  0.70541000  0.46446000  1.0
  H  H19  1  0.79658000  0.29459000  0.96445000  1.0
  Pb  Pb20  1  0.62651000  0.83745000  0.88008000  1.0
  Pb  Pb21  1  0.87350000  0.16254000  0.38007000  1.0
  Pb  Pb22  1  0.37349000  0.16254000  0.11993000  1.0
  Pb  Pb23  1  0.12652000  0.83745000  0.61992000  1.0
  C  C24  1  0.34899000  0.41561000  0.85289000  1.0
  C  C25  1  0.15100000  0.58439000  0.35289000  1.0
  C  C26  1  0.65101000  0.58440000  0.14710000  1.0
  C  C27  1  0.84898000  0.41560000  0.64711000  1.0
  C  C28  1  0.23227000  0.94963000  0.92249000  1.0
  C  C29  1  0.26773000  0.05038000  0.42249000  1.0
  C  C30  1  0.76774000  0.05039000  0.07752000  1.0
  C  C31  1  0.73226000  0.94961000  0.57751000  1.0
  C  C32  1  0.38850000  0.49095000  0.75845000  1.0
  C  C33  1  0.11150000  0.50906000  0.25846000  1.0
  C  C34  1  0.61150000  0.50905000  0.24155000  1.0
  C  C35  1  0.88850000  0.49095000  0.74154000  1.0
  C  C36  1  0.45327000  0.61619000  0.78348000  1.0
  C  C37  1  0.04672000  0.38381000  0.28347000  1.0
  C  C38  1  0.54673000  0.38381000  0.21652000  1.0
  C  C39  1  0.95328000  0.61619000  0.71652000  1.0
  C  C40  1  0.27322000  0.25900000  0.72024000  1.0
  C  C41  1  0.22677000  0.74100000  0.22024000  1.0
  C  C42  1  0.72678000  0.74100000  0.27976000  1.0
  C  C43  1  0.77322000  0.25900000  0.77976000  1.0
  C  C44  1  0.03541000  0.99385000  0.94524000  1.0
  C  C45  1  0.46460000  0.00616000  0.44525000  1.0
  C  C46  1  0.96462000  0.00617000  0.05476000  1.0
  C  C47  1  0.53539000  0.99383000  0.55474000  1.0
  C  C48  1  0.36890000  0.44930000  0.64246000  1.0
  C  C49  1  0.13110000  0.55069000  0.14246000  1.0
  C  C50  1  0.63109000  0.55069000  0.35753000  1.0
  C  C51  1  0.86890000  0.44930000  0.85754000  1.0
  C  C52  1  0.31302000  0.33115000  0.62423000  1.0
  C  C53  1  0.18699000  0.66885000  0.12423000  1.0
  C  C54  1  0.68698000  0.66885000  0.37578000  1.0
  C  C55  1  0.81301000  0.33114000  0.87577000  1.0
  N  N56  1  0.28885000  0.30245000  0.83326000  1.0
  N  N57  1  0.21114000  0.69755000  0.33326000  1.0
  N  N58  1  0.71114000  0.69755000  0.16674000  1.0
  N  N59  1  0.78885000  0.30244000  0.66674000  1.0
  O  O60  1  0.34180000  0.92420000  0.01016000  1.0
  O  O61  1  0.15821000  0.07580000  0.51016000  1.0
  O  O62  1  0.65822000  0.07580000  0.98984000  1.0
  O  O63  1  0.84179000  0.92419000  0.48984000  1.0
  O  O64  1  0.48752000  0.63975000  0.89187000  1.0
  O  O65  1  0.01247000  0.36026000  0.39187000  1.0
  O  O66  1  0.51247000  0.36025000  0.10813000  1.0
  O  O67  1  0.98753000  0.63975000  0.60813000  1.0
  O  O68  1  0.23754000  0.23555000  0.92203000  1.0
  O  O69  1  0.26245000  0.76445000  0.42202000  1.0
  O  O70  1  0.76246000  0.76445000  0.07799000  1.0
  O  O71  1  0.73753000  0.23555000  0.57798000  1.0
  O  O72  1  0.28612000  0.93791000  0.81492000  1.0
  O  O73  1  0.21388000  0.06211000  0.31492000  1.0
  O  O74  1  0.71390000  0.06210000  0.18509000  1.0
  O  O75  1  0.78611000  0.93790000  0.68508000  1.0
  O  O76  1  0.47279000  0.68986000  0.69776000  1.0
  O  O77  1  0.02719000  0.31013000  0.19776000  1.0
  O  O78  1  0.52721000  0.31013000  0.30224000  1.0
  O  O79  1  0.97281000  0.68986000  0.80224000  1.0
