# generated using pymatgen
data_Zr6H29C50ClO52
_symmetry_space_group_name_H-M   'P 1'
_cell_length_a   14.84500000
_cell_length_b   14.84388174
_cell_length_c   14.85620000
_cell_angle_alpha   60.04034701
_cell_angle_beta   60.03550000
_cell_angle_gamma   90.14492749
_symmetry_Int_Tables_number   1
_chemical_formula_structural   Zr6H29C50ClO52
_chemical_formula_sum   'Zr6 H29 C50 Cl1 O52'
_cell_volume   2314.55407565
_cell_formula_units_Z   1
loop_
 _symmetry_equiv_pos_site_id
 _symmetry_equiv_pos_as_xyz
  1  'x, y, z'
loop_
 _atom_site_type_symbol
 _atom_site_label
 _atom_site_symmetry_multiplicity
 _atom_site_fract_x
 _atom_site_fract_y
 _atom_site_fract_z
 _atom_site_occupancy
  Zr  Zr0  1  0.11802000  0.61813000  0.50102000  1.0
  Zr  Zr1  1  0.88043000  0.38062000  0.50072000  1.0
  Zr  Zr2  1  0.11873000  0.61874000  0.26324000  1.0
  Zr  Zr3  1  0.87942000  0.37943000  0.73881000  1.0
  Zr  Zr4  1  0.11756000  0.38118000  0.50085000  1.0
  Zr  Zr5  1  0.88111000  0.61767000  0.50075000  1.0
  H  H6  1  0.28040000  0.59359000  0.31359000  1.0
  H  H7  1  0.90517000  0.21831000  0.68775000  1.0
  H  H8  1  0.90603000  0.59319000  0.31326000  1.0
  H  H9  1  0.90551000  0.59280000  0.68840000  1.0
  H  H10  1  0.40761000  0.91440000  0.94635000  1.0
  H  H11  1  0.37795000  0.96524000  0.29368000  1.0
  H  H12  1  0.46277000  0.88020000  0.29135000  1.0
  H  H13  1  0.63143000  0.04900000  0.11632000  1.0
  H  H14  1  0.54633000  0.13384000  0.11842000  1.0
  H  H15  1  0.64642000  0.34100000  0.51224000  1.0
  H  H16  1  0.34686000  0.65296000  0.49878000  1.0
  H  H17  1  0.34342000  0.34328000  0.50688000  1.0
  H  H18  1  0.65143000  0.65275000  0.50191000  1.0
  H  H19  1  0.84652000  0.15228000  0.50067000  1.0
  H  H20  1  0.15842000  0.85268000  0.48718000  1.0
  H  H21  1  0.84833000  0.84881000  0.49609000  1.0
  H  H22  1  0.15737000  0.15668000  0.49168000  1.0
  H  H23  1  0.84681000  0.84737000  0.30634000  1.0
  H  H24  1  0.15713000  0.15641000  0.69510000  1.0
  H  H25  1  0.84673000  0.15201000  0.99929000  1.0
  H  H26  1  0.15855000  0.85281000  0.00159000  1.0
  H  H27  1  0.34239000  0.34162000  0.30634000  1.0
  H  H28  1  0.65106000  0.65175000  0.69501000  1.0
  H  H29  1  0.64616000  0.34071000  0.99897000  1.0
  H  H30  1  0.34701000  0.65253000  0.00155000  1.0
  H  H31  1  0.15538000  0.65022000  0.00003000  1.0
  H  H32  1  0.84831000  0.34286000  0.00166000  1.0
  H  H33  1  0.15480000  0.64935000  0.69516000  1.0
  H  H34  1  0.84876000  0.34345000  0.30674000  1.0
  C  C35  1  0.30307000  0.49666000  0.50579000  1.0
  C  C36  1  0.00298000  0.19618000  0.49456000  1.0
  C  C37  1  0.69065000  0.49788000  0.50550000  1.0
  C  C38  1  0.00220000  0.80890000  0.49418000  1.0
  C  C39  1  0.29817000  0.80502000  0.20049000  1.0
  C  C40  1  0.00156000  0.49593000  0.80754000  1.0
  C  C41  1  0.69373000  0.19988000  0.80162000  1.0
  C  C42  1  0.00241000  0.49665000  0.19431000  1.0
  C  C43  1  0.30323000  0.49646000  0.19479000  1.0
  C  C44  1  0.00227000  0.80898000  0.19479000  1.0
  C  C45  1  0.68954000  0.49635000  0.80655000  1.0
  C  C46  1  0.00242000  0.19553000  0.80665000  1.0
  C  C47  1  0.59266000  0.49812000  0.50483000  1.0
  C  C48  1  0.40235000  0.49800000  0.50373000  1.0
  C  C49  1  0.54382000  0.41386000  0.50641000  1.0
  C  C50  1  0.45228000  0.58328000  0.50008000  1.0
  C  C51  1  0.44959000  0.41396000  0.50560000  1.0
  C  C52  1  0.54610000  0.58300000  0.50137000  1.0
  C  C53  1  0.00311000  0.09815000  0.49397000  1.0
  C  C54  1  0.00322000  0.90796000  0.49259000  1.0
  C  C55  1  0.91851000  0.04890000  0.49631000  1.0
  C  C56  1  0.08812000  0.95750000  0.48974000  1.0
  C  C57  1  0.91862000  0.95463000  0.49556000  1.0
  C  C58  1  0.08764000  0.05120000  0.49129000  1.0
  C  C59  1  0.00229000  0.90708000  0.09637000  1.0
  C  C60  1  0.00195000  0.09698000  0.90508000  1.0
  C  C61  1  0.91689000  0.95311000  0.13108000  1.0
  C  C62  1  0.08674000  0.05043000  0.87033000  1.0
  C  C63  1  0.91659000  0.04691000  0.03637000  1.0
  C  C64  1  0.08714000  0.95652000  0.96513000  1.0
  C  C65  1  0.40141000  0.49651000  0.09636000  1.0
  C  C66  1  0.59126000  0.49613000  0.90501000  1.0
  C  C67  1  0.44802000  0.41164000  0.13106000  1.0
  C  C68  1  0.54526000  0.58143000  0.87026000  1.0
  C  C69  1  0.54164000  0.41117000  0.03632000  1.0
  C  C70  1  0.45123000  0.58169000  0.96509000  1.0
  C  C71  1  0.39797000  0.90521000  0.10089000  1.0
  C  C72  1  0.59385000  0.09979000  0.89943000  1.0
  C  C73  1  0.45071000  0.95648000  0.12740000  1.0
  C  C74  1  0.54026000  0.04569000  0.87326000  1.0
  C  C75  1  0.54514000  0.05055000  0.02919000  1.0
  C  C76  1  0.44535000  0.95213000  0.97159000  1.0
  C  C77  1  0.44983000  0.95306000  0.23153000  1.0
  C  C78  1  0.55627000  0.05946000  0.12097000  1.0
  C  C79  1  0.00216000  0.49654000  0.09623000  1.0
  C  C80  1  0.00175000  0.49614000  0.90559000  1.0
  C  C81  1  0.08518000  0.58011000  0.96467000  1.0
  C  C82  1  0.91827000  0.41304000  0.03714000  1.0
  C  C83  1  0.08502000  0.57991000  0.87032000  1.0
  C  C84  1  0.91842000  0.41324000  0.13151000  1.0
  Cl  Cl85  1  0.58578000  0.08718000  0.72215000  1.0
  O  O86  1  0.25990000  0.57229000  0.50649000  1.0
  O  O87  1  0.92660000  0.23850000  0.49541000  1.0
  O  O88  1  0.73358000  0.42224000  0.50493000  1.0
  O  O89  1  0.07734000  0.76534000  0.49587000  1.0
  O  O90  1  0.25798000  0.76407000  0.16466000  1.0
  O  O91  1  0.92482000  0.42003000  0.84090000  1.0
  O  O92  1  0.73325000  0.23762000  0.84060000  1.0
  O  O93  1  0.07841000  0.57329000  0.16096000  1.0
  O  O94  1  0.26063000  0.42051000  0.31368000  1.0
  O  O95  1  0.92561000  0.76569000  0.31371000  1.0
  O  O96  1  0.73310000  0.57327000  0.68769000  1.0
  O  O97  1  0.07853000  0.23830000  0.68778000  1.0
  O  O98  1  0.07810000  0.76602000  0.16164000  1.0
  O  O99  1  0.73233000  0.42035000  0.83978000  1.0
  O  O100  1  0.92610000  0.23801000  0.83987000  1.0
  O  O101  1  0.26096000  0.57304000  0.16161000  1.0
  O  O102  1  0.25878000  0.76410000  0.31704000  1.0
  O  O103  1  0.92584000  0.42074000  0.31331000  1.0
  O  O104  1  0.73670000  0.24354000  0.68389000  1.0
  O  O105  1  0.07752000  0.57250000  0.68853000  1.0
  O  O106  1  0.92524000  0.76526000  0.49560000  1.0
  O  O107  1  0.26024000  0.42041000  0.50572000  1.0
  O  O108  1  0.07878000  0.23857000  0.49559000  1.0
  O  O109  1  0.73381000  0.57437000  0.50514000  1.0
  O  O110  1  0.93195000  0.56606000  0.63516000  1.0
  O  O111  1  0.93271000  0.56668000  0.36655000  1.0
  O  O112  1  0.93286000  0.29839000  0.63443000  1.0
  O  O113  1  0.20032000  0.56610000  0.36732000  1.0
  O  O114  1  0.04899000  0.45027000  0.40190000  1.0
  O  O115  1  0.04821000  0.44976000  0.59980000  1.0
  O  O116  1  0.85171000  0.45023000  0.59914000  1.0
  O  O117  1  0.04872000  0.64732000  0.40244000  1.0
  O  O118  1  0.58228000  0.33092000  0.50931000  1.0
  O  O119  1  0.41440000  0.66743000  0.49465000  1.0
  O  O120  1  0.40876000  0.33139000  0.50725000  1.0
  O  O121  1  0.58760000  0.66612000  0.49864000  1.0
  O  O122  1  0.83518000  0.08700000  0.49999000  1.0
  O  O123  1  0.17182000  0.91919000  0.48528000  1.0
  O  O124  1  0.83556000  0.91323000  0.49826000  1.0
  O  O125  1  0.17011000  0.09209000  0.48985000  1.0
  O  O126  1  0.83326000  0.91104000  0.25271000  1.0
  O  O127  1  0.16963000  0.09166000  0.74882000  1.0
  O  O128  1  0.83226000  0.08457000  0.07713000  1.0
  O  O129  1  0.17084000  0.91856000  0.92405000  1.0
  O  O130  1  0.40689000  0.32885000  0.25268000  1.0
  O  O131  1  0.58711000  0.66496000  0.74878000  1.0
  O  O132  1  0.57985000  0.32733000  0.07699000  1.0
  O  O133  1  0.41364000  0.66571000  0.92402000  1.0
  O  O134  1  0.16665000  0.66231000  0.92287000  1.0
  O  O135  1  0.83617000  0.33146000  0.07891000  1.0
  O  O136  1  0.16640000  0.66187000  0.74857000  1.0
  O  O137  1  0.83643000  0.33190000  0.25319000  1.0
