# generated using pymatgen
data_AlH24C24(N5O2)3
_symmetry_space_group_name_H-M   'P 1'
_cell_length_a   3.86073000
_cell_length_b   15.86500000
_cell_length_c   15.87300750
_cell_angle_alpha   119.38453929
_cell_angle_beta   90.66520503
_cell_angle_gamma   91.68580000
_symmetry_Int_Tables_number   1
_chemical_formula_structural   AlH24C24(N5O2)3
_chemical_formula_sum   'Al1 H24 C24 N15 O6'
_cell_volume   846.40305987
_cell_formula_units_Z   1
loop_
 _symmetry_equiv_pos_site_id
 _symmetry_equiv_pos_as_xyz
  1  'x, y, z'
loop_
 _atom_site_type_symbol
 _atom_site_label
 _atom_site_symmetry_multiplicity
 _atom_site_fract_x
 _atom_site_fract_y
 _atom_site_fract_z
 _atom_site_occupancy
  Al  Al0  1  0.02929000  0.00301000  0.49936000  1.0
  H  H1  1  0.67089000  0.25011000  0.43947000  1.0
  H  H2  1  0.97585000  0.20727000  0.48221000  1.0
  H  H3  1  0.46829000  0.23230000  0.79904000  1.0
  H  H4  1  0.13205000  0.19823000  0.72106000  1.0
  H  H5  1  0.87921000  0.53291000  0.62649000  1.0
  H  H6  1  0.98078000  0.41705000  0.53476000  1.0
  H  H7  1  0.30652000  0.52265000  0.90909000  1.0
  H  H8  1  0.18275000  0.40254000  0.88349000  1.0
  H  H9  1  0.59799000  0.69800000  0.26191000  1.0
  H  H10  1  0.91149000  0.78502000  0.30681000  1.0
  H  H11  1  0.75677000  0.59648000  0.98029000  1.0
  H  H12  1  0.88771000  0.62331000  0.09824000  1.0
  H  H13  1  0.31077000  0.04953000  0.30848000  1.0
  H  H14  1  0.01120000  0.01629000  0.22235000  1.0
  H  H15  1  0.27816000  0.88269000  0.97003000  1.0
  H  H16  1  0.23282000  0.98505000  0.08268000  1.0
  H  H17  1  0.72954000  0.89056000  0.91353000  1.0
  H  H18  1  0.75897000  0.99330000  0.90355000  1.0
  H  H19  1  0.77606000  0.04893000  0.73044000  1.0
  H  H20  1  0.02098000  0.02633000  0.80202000  1.0
  H  H21  1  0.41629000  0.58565000  0.60902000  1.0
  H  H22  1  0.32751000  0.59830000  0.50965000  1.0
  H  H23  1  0.28452000  0.76842000  0.45426000  1.0
  H  H24  1  0.03600000  0.69888000  0.48049000  1.0
  C  C25  1  0.52445000  0.92674000  0.57484000  1.0
  C  C26  1  0.55058000  0.15468000  0.57623000  1.0
  C  C27  1  0.51546000  0.92821000  0.34843000  1.0
  C  C28  1  0.50455000  0.71608000  0.93109000  1.0
  C  C29  1  0.55692000  0.57189000  0.78737000  1.0
  C  C30  1  0.54486000  0.71704000  0.78629000  1.0
  C  C31  1  0.43553000  0.30782000  0.72491000  1.0
  C  C32  1  0.44129000  0.41038000  0.77808000  1.0
  C  C33  1  0.56741000  0.46647000  0.73501000  1.0
  C  C34  1  0.69657000  0.41598000  0.63864000  1.0
  C  C35  1  0.69649000  0.31362000  0.58775000  1.0
  C  C36  1  0.56228000  0.26251000  0.63163000  1.0
  C  C37  1  0.61322000  0.72564000  0.09223000  1.0
  C  C38  1  0.62981000  0.78005000  0.19444000  1.0
  C  C39  1  0.51186000  0.87414000  0.24071000  1.0
  C  C40  1  0.38678000  0.91843000  0.18960000  1.0
  C  C41  1  0.37469000  0.86588000  0.08743000  1.0
  C  C42  1  0.48875000  0.76842000  0.03673000  1.0
  C  C43  1  0.65644000  0.87006000  0.77799000  1.0
  C  C44  1  0.65444000  0.92049000  0.72553000  1.0
  C  C45  1  0.52734000  0.87308000  0.62967000  1.0
  C  C46  1  0.41084000  0.77588000  0.58319000  1.0
  C  C47  1  0.43071000  0.72299000  0.63301000  1.0
  C  C48  1  0.54635000  0.77030000  0.73215000  1.0
  N  N49  1  0.52300000  0.61851000  0.88469000  1.0
  N  N50  1  0.57783000  0.62029000  0.73704000  1.0
  N  N51  1  0.50601000  0.76675000  0.88293000  1.0
  N  N52  1  0.84783000  0.26744000  0.49447000  1.0
  N  N53  1  0.28543000  0.25584000  0.76915000  1.0
  N  N54  1  0.82581000  0.46033000  0.58970000  1.0
  N  N55  1  0.31810000  0.44953000  0.86887000  1.0
  N  N56  1  0.77788000  0.73592000  0.24558000  1.0
  N  N57  1  0.72555000  0.63320000  0.05303000  1.0
  N  N58  1  0.27116000  0.01516000  0.23539000  1.0
  N  N59  1  0.23162000  0.91176000  0.04189000  1.0
  N  N60  1  0.79395000  0.92084000  0.87176000  1.0
  N  N61  1  0.77382000  0.01916000  0.77450000  1.0
  N  N62  1  0.31315000  0.62695000  0.58259000  1.0
  N  N63  1  0.28477000  0.72559000  0.48544000  1.0
  O  O64  1  0.75597000  0.99292000  0.39328000  1.0
  O  O65  1  0.75168000  0.90735000  0.51043000  1.0
  O  O66  1  0.78183000  0.10967000  0.59504000  1.0
  O  O67  1  0.27623000  0.90848000  0.39193000  1.0
  O  O68  1  0.30826000  0.11116000  0.51212000  1.0
  O  O69  1  0.29698000  0.99023000  0.59421000  1.0
