# generated using pymatgen
data_Co3H24C42N2O15
_symmetry_space_group_name_H-M   'P 1'
_cell_length_a   10.20880000
_cell_length_b   17.69670000
_cell_length_c   23.14260000
_cell_angle_alpha   89.99840000
_cell_angle_beta   89.99900000
_cell_angle_gamma   90.93660000
_symmetry_Int_Tables_number   1
_chemical_formula_structural   Co3H24C42N2O15
_chemical_formula_sum   'Co12 H96 C168 N8 O60'
_cell_volume   4180.43143907
_cell_formula_units_Z   4
loop_
 _symmetry_equiv_pos_site_id
 _symmetry_equiv_pos_as_xyz
  1  'x, y, z'
loop_
 _atom_site_type_symbol
 _atom_site_label
 _atom_site_symmetry_multiplicity
 _atom_site_fract_x
 _atom_site_fract_y
 _atom_site_fract_z
 _atom_site_occupancy
  Co  Co0  1  0.51263000  0.74508000  0.62634000  1.0
  Co  Co1  1  0.98739000  0.75493000  0.12637000  1.0
  Co  Co2  1  0.48739000  0.25492000  0.37366000  1.0
  Co  Co3  1  0.01261000  0.24507000  0.87362000  1.0
  Co  Co4  1  0.33380000  0.75102000  0.74022000  1.0
  Co  Co5  1  0.16622000  0.74900000  0.24025000  1.0
  Co  Co6  1  0.66620000  0.24898000  0.25977000  1.0
  Co  Co7  1  0.83378000  0.25101000  0.75976000  1.0
  Co  Co8  1  0.98328000  0.14823000  0.65023000  1.0
  Co  Co9  1  0.51672000  0.35177000  0.15024000  1.0
  Co  Co10  1  0.01671000  0.85177000  0.34978000  1.0
  Co  Co11  1  0.48328000  0.64824000  0.84975000  1.0
  H  H12  1  0.66615000  0.96129000  0.65441000  1.0
  H  H13  1  0.83383000  0.53870000  0.15445000  1.0
  H  H14  1  0.33385000  0.03871000  0.34560000  1.0
  H  H15  1  0.16616000  0.46130000  0.84555000  1.0
  H  H16  1  0.57703000  0.16064000  0.75431000  1.0
  H  H17  1  0.92296000  0.33934000  0.25436000  1.0
  H  H18  1  0.42297000  0.83935000  0.24570000  1.0
  H  H19  1  0.07703000  0.66066000  0.74564000  1.0
  H  H20  1  0.28940000  0.98173000  0.73540000  1.0
  H  H21  1  0.21059000  0.51825000  0.23544000  1.0
  H  H22  1  0.71060000  0.01826000  0.26461000  1.0
  H  H23  1  0.78940000  0.48175000  0.76457000  1.0
  H  H24  1  0.42040000  0.01558000  0.85777000  1.0
  H  H25  1  0.07961000  0.48440000  0.35782000  1.0
  H  H26  1  0.57960000  0.98442000  0.14223000  1.0
  H  H27  1  0.92039000  0.51561000  0.64219000  1.0
  H  H28  1  0.27680000  0.95342000  0.93109000  1.0
  H  H29  1  0.22322000  0.54655000  0.43113000  1.0
  H  H30  1  0.72319000  0.04657000  0.06891000  1.0
  H  H31  1  0.77679000  0.45345000  0.56887000  1.0
  H  H32  1  0.03945000  0.98740000  0.93730000  1.0
  H  H33  1  0.46055000  0.51256000  0.43733000  1.0
  H  H34  1  0.96054000  0.01259000  0.06270000  1.0
  H  H35  1  0.53945000  0.48744000  0.56268000  1.0
  H  H36  1  0.94932000  0.08010000  0.86757000  1.0
  H  H37  1  0.55068000  0.41988000  0.36759000  1.0
  H  H38  1  0.05067000  0.91989000  0.13243000  1.0
  H  H39  1  0.44932000  0.58013000  0.63241000  1.0
  H  H40  1  0.97377000  0.73878000  0.65277000  1.0
  H  H41  1  0.52625000  0.76126000  0.15280000  1.0
  H  H42  1  0.02624000  0.26121000  0.34723000  1.0
  H  H43  1  0.47375000  0.23874000  0.84720000  1.0
  H  H44  1  0.21861000  0.65737000  0.51483000  1.0
  H  H45  1  0.28143000  0.84264000  0.01483000  1.0
  H  H46  1  0.78140000  0.34263000  0.48518000  1.0
  H  H47  1  0.71857000  0.15736000  0.98516000  1.0
  H  H48  1  0.80050000  0.67224000  0.49060000  1.0
  H  H49  1  0.69954000  0.82780000  0.99062000  1.0
  H  H50  1  0.19951000  0.32777000  0.50941000  1.0
  H  H51  1  0.30046000  0.17219000  0.00938000  1.0
  H  H52  1  0.87971000  0.51519000  0.48020000  1.0
  H  H53  1  0.62034000  0.98480000  0.98019000  1.0
  H  H54  1  0.12029000  0.48482000  0.51980000  1.0
  H  H55  1  0.37966000  0.01519000  0.01980000  1.0
  H  H56  1  0.72454000  0.44384000  0.41682000  1.0
  H  H57  1  0.77548000  0.05616000  0.91680000  1.0
  H  H58  1  0.27546000  0.55617000  0.58318000  1.0
  H  H59  1  0.22452000  0.94384000  0.08320000  1.0
  H  H60  1  0.69927000  0.48042000  0.31311000  1.0
  H  H61  1  0.80069000  0.01960000  0.81308000  1.0
  H  H62  1  0.30073000  0.51959000  0.68690000  1.0
  H  H63  1  0.19932000  0.98040000  0.18692000  1.0
  H  H64  1  0.82393000  0.59133000  0.27438000  1.0
  H  H65  1  0.67598000  0.90871000  0.77435000  1.0
  H  H66  1  0.17607000  0.40868000  0.72563000  1.0
  H  H67  1  0.32403000  0.09129000  0.22564000  1.0
  H  H68  1  0.27633000  0.09797000  0.64849000  1.0
  H  H69  1  0.22366000  0.40202000  0.14849000  1.0
  H  H70  1  0.72368000  0.90202000  0.35151000  1.0
  H  H71  1  0.77632000  0.59798000  0.85150000  1.0
  H  H72  1  0.43327000  0.05830000  0.57159000  1.0
  H  H73  1  0.06672000  0.44170000  0.07159000  1.0
  H  H74  1  0.56673000  0.94170000  0.42841000  1.0
  H  H75  1  0.93327000  0.55830000  0.92839000  1.0
  H  H76  1  0.35345000  0.04668000  0.46880000  1.0
  H  H77  1  0.14655000  0.45331000  0.96880000  1.0
  H  H78  1  0.64655000  0.95332000  0.53119000  1.0
  H  H79  1  0.85345000  0.54669000  0.03118000  1.0
  H  H80  1  0.15923000  0.05178000  0.39910000  1.0
  H  H81  1  0.34077000  0.44819000  0.89910000  1.0
  H  H82  1  0.84076000  0.94821000  0.60090000  1.0
  H  H83  1  0.65924000  0.55182000  0.10089000  1.0
  H  H84  1  0.92856000  0.08271000  0.38183000  1.0
  H  H85  1  0.57145000  0.41725000  0.88182000  1.0
  H  H86  1  0.07144000  0.91728000  0.61818000  1.0
  H  H87  1  0.42856000  0.58276000  0.11817000  1.0
  H  H88  1  0.71213000  0.13169000  0.42061000  1.0
  H  H89  1  0.78786000  0.36828000  0.92061000  1.0
  H  H90  1  0.28786000  0.86831000  0.57939000  1.0
  H  H91  1  0.21214000  0.63172000  0.07938000  1.0
  H  H92  1  0.58656000  0.18165000  0.50483000  1.0
  H  H93  1  0.91343000  0.31833000  0.00484000  1.0
  H  H94  1  0.41345000  0.81835000  0.49517000  1.0
  H  H95  1  0.08657000  0.68167000  0.99515000  1.0
  H  H96  1  0.69825000  0.19232000  0.60135000  1.0
  H  H97  1  0.80175000  0.30768000  0.10136000  1.0
  H  H98  1  0.30175000  0.80768000  0.39865000  1.0
  H  H99  1  0.19824000  0.69232000  0.89863000  1.0
  H  H100  1  0.18984000  0.83806000  0.80873000  1.0
  H  H101  1  0.31017000  0.66197000  0.30876000  1.0
  H  H102  1  0.81015000  0.16193000  0.19128000  1.0
  H  H103  1  0.68982000  0.33803000  0.69125000  1.0
  H  H104  1  0.18424000  0.85439000  0.74320000  1.0
  H  H105  1  0.31577000  0.64562000  0.24324000  1.0
  H  H106  1  0.81574000  0.14561000  0.25680000  1.0
  H  H107  1  0.68424000  0.35439000  0.75677000  1.0
  C  C108  1  0.43479000  0.88766000  0.66978000  1.0
  C  C109  1  0.06520000  0.61233000  0.16983000  1.0
  C  C110  1  0.56524000  0.11233000  0.33022000  1.0
  C  C111  1  0.93480000  0.38767000  0.83017000  1.0
  C  C112  1  0.47234000  0.96481000  0.69076000  1.0
  C  C113  1  0.02765000  0.53519000  0.19080000  1.0
  C  C114  1  0.52767000  0.03518000  0.30925000  1.0
  C  C115  1  0.97234000  0.46481000  0.80920000  1.0
  C  C116  1  0.59760000  0.99438000  0.67944000  1.0
  C  C117  1  0.90238000  0.50561000  0.17949000  1.0
  C  C118  1  0.40241000  0.00561000  0.32057000  1.0
  C  C119  1  0.09761000  0.49440000  0.82052000  1.0
  C  C120  1  0.63546000  0.06484000  0.70213000  1.0
  C  C121  1  0.86454000  0.43514000  0.20216000  1.0
  C  C122  1  0.36455000  0.93515000  0.29789000  1.0
  C  C123  1  0.13546000  0.56486000  0.79784000  1.0
  C  C124  1  0.76984000  0.09443000  0.69090000  1.0
  C  C125  1  0.73018000  0.40553000  0.19093000  1.0
  C  C126  1  0.23018000  0.90556000  0.30912000  1.0
  C  C127  1  0.26983000  0.59446000  0.80908000  1.0
  C  C128  1  0.54830000  0.10638000  0.73573000  1.0
  C  C129  1  0.95169000  0.39361000  0.23578000  1.0
  C  C130  1  0.45170000  0.89362000  0.26428000  1.0
  C  C131  1  0.04830000  0.60640000  0.76423000  1.0
  C  C132  1  0.42531000  0.07509000  0.74782000  1.0
  C  C133  1  0.07467000  0.42490000  0.24786000  1.0
  C  C134  1  0.57468000  0.92490000  0.25219000  1.0
  C  C135  1  0.92532000  0.57511000  0.75214000  1.0
  C  C136  1  0.38610000  0.00506000  0.72556000  1.0
  C  C137  1  0.11388000  0.49493000  0.22560000  1.0
  C  C138  1  0.61390000  0.99493000  0.27445000  1.0
  C  C139  1  0.88611000  0.50507000  0.77440000  1.0
  C  C140  1  0.26304000  0.07805000  0.81990000  1.0
  C  C141  1  0.23695000  0.42194000  0.31994000  1.0
  C  C142  1  0.73695000  0.92195000  0.18010000  1.0
  C  C143  1  0.76305000  0.57807000  0.68006000  1.0
  C  C144  1  0.31610000  0.02752000  0.85949000  1.0
  C  C145  1  0.18390000  0.47245000  0.35953000  1.0
  C  C146  1  0.68390000  0.97247000  0.14052000  1.0
  C  C147  1  0.81610000  0.52755000  0.64047000  1.0
  C  C148  1  0.23501000  0.99386000  0.90103000  1.0
  C  C149  1  0.26499000  0.50611000  0.40107000  1.0
  C  C150  1  0.76498000  0.00613000  0.09897000  1.0
  C  C151  1  0.73501000  0.49389000  0.59893000  1.0
  C  C152  1  0.10273000  0.01268000  0.90437000  1.0
  C  C153  1  0.39727000  0.48729000  0.40440000  1.0
  C  C154  1  0.89726000  0.98731000  0.09563000  1.0
  C  C155  1  0.60273000  0.51272000  0.59560000  1.0
  C  C156  1  0.05166000  0.06423000  0.86522000  1.0
  C  C157  1  0.44834000  0.43576000  0.36525000  1.0
  C  C158  1  0.94834000  0.93577000  0.13478000  1.0
  C  C159  1  0.55166000  0.56426000  0.63475000  1.0
  C  C160  1  0.13009000  0.09567000  0.82139000  1.0
  C  C161  1  0.36990000  0.40432000  0.32141000  1.0
  C  C162  1  0.86990000  0.90432000  0.17862000  1.0
  C  C163  1  0.63010000  0.59570000  0.67859000  1.0
  C  C164  1  0.06915000  0.14361000  0.77600000  1.0
  C  C165  1  0.43084000  0.35639000  0.27602000  1.0
  C  C166  1  0.93084000  0.85638000  0.22400000  1.0
  C  C167  1  0.56917000  0.64363000  0.72397000  1.0
  C  C168  1  0.74446000  0.72999000  0.59627000  1.0
  C  C169  1  0.75556000  0.77006000  0.09630000  1.0
  C  C170  1  0.25554000  0.27000000  0.40373000  1.0
  C  C171  1  0.24444000  0.22994000  0.90369000  1.0
  C  C172  1  0.87546000  0.70910000  0.57336000  1.0
  C  C173  1  0.62457000  0.79095000  0.07338000  1.0
  C  C174  1  0.12455000  0.29090000  0.42664000  1.0
  C  C175  1  0.37543000  0.20904000  0.92661000  1.0
  C  C176  1  0.98547000  0.71734000  0.60906000  1.0
  C  C177  1  0.51455000  0.78270000  0.10908000  1.0
  C  C178  1  0.01453000  0.28266000  0.39094000  1.0
  C  C179  1  0.48545000  0.21730000  0.89091000  1.0
  C  C180  1  0.10906000  0.69855000  0.58794000  1.0
  C  C181  1  0.39096000  0.80147000  0.08795000  1.0
  C  C182  1  0.89095000  0.30145000  0.41207000  1.0
  C  C183  1  0.60904000  0.19853000  0.91205000  1.0
  C  C184  1  0.22868000  0.70857000  0.62446000  1.0
  C  C185  1  0.27133000  0.79144000  0.12448000  1.0
  C  C186  1  0.77132000  0.29142000  0.37554000  1.0
  C  C187  1  0.72867000  0.20857000  0.87552000  1.0
  C  C188  1  0.12214000  0.67071000  0.53176000  1.0
  C  C189  1  0.37788000  0.82931000  0.03177000  1.0
  C  C190  1  0.87786000  0.32930000  0.46824000  1.0
  C  C191  1  0.62212000  0.17068000  0.96822000  1.0
  C  C192  1  0.01112000  0.65940000  0.49768000  1.0
  C  C193  1  0.48891000  0.84062000  0.99770000  1.0
  C  C194  1  0.98889000  0.34061000  0.50232000  1.0
  C  C195  1  0.51109000  0.15937000  0.00230000  1.0
  C  C196  1  0.88731000  0.67946000  0.51749000  1.0
  C  C197  1  0.61272000  0.82058000  0.01751000  1.0
  C  C198  1  0.11269000  0.32055000  0.48251000  1.0
  C  C199  1  0.38728000  0.17941000  0.98248000  1.0
  C  C200  1  0.93462000  0.59376000  0.41285000  1.0
  C  C201  1  0.56536000  0.90625000  0.91284000  1.0
  C  C202  1  0.06537000  0.40625000  0.58715000  1.0
  C  C203  1  0.43463000  0.09375000  0.08715000  1.0
  C  C204  1  0.86520000  0.53201000  0.43538000  1.0
  C  C205  1  0.63482000  0.96799000  0.93537000  1.0
  C  C206  1  0.13480000  0.46800000  0.56462000  1.0
  C  C207  1  0.36518000  0.03200000  0.06463000  1.0
  C  C208  1  0.77897000  0.49212000  0.39936000  1.0
  C  C209  1  0.72104000  0.00788000  0.89933000  1.0
  C  C210  1  0.22104000  0.50789000  0.60065000  1.0
  C  C211  1  0.27896000  0.99211000  0.10066000  1.0
  C  C212  1  0.76484000  0.51250000  0.34137000  1.0
  C  C213  1  0.73513000  0.98751000  0.84134000  1.0
  C  C214  1  0.23516000  0.48751000  0.65864000  1.0
  C  C215  1  0.26488000  0.01248000  0.15865000  1.0
  C  C216  1  0.83481000  0.57436000  0.31935000  1.0
  C  C217  1  0.66512000  0.92567000  0.81932000  1.0
  C  C218  1  0.16518000  0.42566000  0.68066000  1.0
  C  C219  1  0.33488000  0.07433000  0.18067000  1.0
  C  C220  1  0.91833000  0.61630000  0.35539000  1.0
  C  C221  1  0.58163000  0.88372000  0.85537000  1.0
  C  C222  1  0.08166000  0.38371000  0.64462000  1.0
  C  C223  1  0.41838000  0.11628000  0.14462000  1.0
  C  C224  1  0.98707000  0.68641000  0.33472000  1.0
  C  C225  1  0.51289000  0.81362000  0.83469000  1.0
  C  C226  1  0.01292000  0.31361000  0.66530000  1.0
  C  C227  1  0.48711000  0.18639000  0.16530000  1.0
  C  C228  1  0.24517000  0.09284000  0.60361000  1.0
  C  C229  1  0.25483000  0.40715000  0.10361000  1.0
  C  C230  1  0.75484000  0.90715000  0.39639000  1.0
  C  C231  1  0.74516000  0.59285000  0.89637000  1.0
  C  C232  1  0.33229000  0.07051000  0.56003000  1.0
  C  C233  1  0.16771000  0.42949000  0.06003000  1.0
  C  C234  1  0.66771000  0.92948000  0.43997000  1.0
  C  C235  1  0.83228000  0.57052000  0.93995000  1.0
  C  C236  1  0.28813000  0.06374000  0.50361000  1.0
  C  C237  1  0.21187000  0.43625000  0.00361000  1.0
  C  C238  1  0.71187000  0.93625000  0.49639000  1.0
  C  C239  1  0.78812000  0.56375000  0.99638000  1.0
  C  C240  1  0.15607000  0.07979000  0.49086000  1.0
  C  C241  1  0.34393000  0.42019000  0.99085000  1.0
  C  C242  1  0.84393000  0.92019000  0.50915000  1.0
  C  C243  1  0.65606000  0.57981000  0.00913000  1.0
  C  C244  1  0.09924000  0.07247000  0.43445000  1.0
  C  C245  1  0.40076000  0.42750000  0.93444000  1.0
  C  C246  1  0.90076000  0.92751000  0.56555000  1.0
  C  C247  1  0.59924000  0.57250000  0.06554000  1.0
  C  C248  1  0.97081000  0.08912000  0.42485000  1.0
  C  C249  1  0.52918000  0.41085000  0.92485000  1.0
  C  C250  1  0.02918000  0.91086000  0.57515000  1.0
  C  C251  1  0.47082000  0.58916000  0.07514000  1.0
  C  C252  1  0.88918000  0.11595000  0.47054000  1.0
  C  C253  1  0.61081000  0.38402000  0.97054000  1.0
  C  C254  1  0.11081000  0.88403000  0.52946000  1.0
  C  C255  1  0.38919000  0.61598000  0.02944000  1.0
  C  C256  1  0.75712000  0.13608000  0.46317000  1.0
  C  C257  1  0.74288000  0.36389000  0.96317000  1.0
  C  C258  1  0.24288000  0.86391000  0.53683000  1.0
  C  C259  1  0.25712000  0.63611000  0.03682000  1.0
  C  C260  1  0.68754000  0.16361000  0.50981000  1.0
  C  C261  1  0.81246000  0.33637000  0.00981000  1.0
  C  C262  1  0.31246000  0.83638000  0.49019000  1.0
  C  C263  1  0.18754000  0.66364000  0.99018000  1.0
  C  C264  1  0.74968000  0.17032000  0.56375000  1.0
  C  C265  1  0.75032000  0.32967000  0.06376000  1.0
  C  C266  1  0.25031000  0.82967000  0.43625000  1.0
  C  C267  1  0.24968000  0.67034000  0.93623000  1.0
  C  C268  1  0.94304000  0.12393000  0.52678000  1.0
  C  C269  1  0.55695000  0.37605000  0.02678000  1.0
  C  C270  1  0.05695000  0.87605000  0.47323000  1.0
  C  C271  1  0.44305000  0.62395000  0.97321000  1.0
  C  C272  1  0.07628000  0.10373000  0.53737000  1.0
  C  C273  1  0.42371000  0.39625000  0.03737000  1.0
  C  C274  1  0.92371000  0.89625000  0.46263000  1.0
  C  C275  1  0.57628000  0.60375000  0.96261000  1.0
  N  N276  1  0.12020000  0.10888000  0.59282000  1.0
  N  N277  1  0.37980000  0.39111000  0.09282000  1.0
  N  N278  1  0.87980000  0.89110000  0.40718000  1.0
  N  N279  1  0.62020000  0.60890000  0.90716000  1.0
  N  N280  1  0.87377000  0.15057000  0.57224000  1.0
  N  N281  1  0.62622000  0.34943000  0.07225000  1.0
  N  N282  1  0.12621000  0.84942000  0.42776000  1.0
  N  N283  1  0.37378000  0.65058000  0.92774000  1.0
  O  O284  1  0.51490000  0.85610000  0.63517000  1.0
  O  O285  1  0.98507000  0.64391000  0.13524000  1.0
  O  O286  1  0.48514000  0.14390000  0.36484000  1.0
  O  O287  1  0.01493000  0.35609000  0.86477000  1.0
  O  O288  1  0.32913000  0.85638000  0.68796000  1.0
  O  O289  1  0.17088000  0.64361000  0.18799000  1.0
  O  O290  1  0.67088000  0.14361000  0.31204000  1.0
  O  O291  1  0.82912000  0.35639000  0.81201000  1.0
  O  O292  1  0.85430000  0.05284000  0.66715000  1.0
  O  O293  1  0.64570000  0.44711000  0.16716000  1.0
  O  O294  1  0.14570000  0.94715000  0.33287000  1.0
  O  O295  1  0.35428000  0.55287000  0.83285000  1.0
  O  O296  1  0.79989000  0.16456000  0.70162000  1.0
  O  O297  1  0.70014000  0.33540000  0.20164000  1.0
  O  O298  1  0.20010000  0.83544000  0.29841000  1.0
  O  O299  1  0.29990000  0.66458000  0.79836000  1.0
  O  O300  1  0.34205000  0.11711000  0.78125000  1.0
  O  O301  1  0.15793000  0.38288000  0.28130000  1.0
  O  O302  1  0.65794000  0.88289000  0.21875000  1.0
  O  O303  1  0.84206000  0.61713000  0.71871000  1.0
  O  O304  1  0.08668000  0.12720000  0.72365000  1.0
  O  O305  1  0.41332000  0.37281000  0.22367000  1.0
  O  O306  1  0.91331000  0.87279000  0.27635000  1.0
  O  O307  1  0.58670000  0.62721000  0.77632000  1.0
  O  O308  1  0.99509000  0.19749000  0.79430000  1.0
  O  O309  1  0.50489000  0.30250000  0.29432000  1.0
  O  O310  1  0.00490000  0.80251000  0.20570000  1.0
  O  O311  1  0.49514000  0.69752000  0.70568000  1.0
  O  O312  1  0.64033000  0.71553000  0.56550000  1.0
  O  O313  1  0.85970000  0.78450000  0.06553000  1.0
  O  O314  1  0.35968000  0.28447000  0.43449000  1.0
  O  O315  1  0.14030000  0.21549000  0.93447000  1.0
  O  O316  1  0.73258000  0.75887000  0.64580000  1.0
  O  O317  1  0.76743000  0.74119000  0.14584000  1.0
  O  O318  1  0.26743000  0.24112000  0.35420000  1.0
  O  O319  1  0.23257000  0.25881000  0.85415000  1.0
  O  O320  1  0.21267000  0.71109000  0.67904000  1.0
  O  O321  1  0.28733000  0.78892000  0.17906000  1.0
  O  O322  1  0.78733000  0.28889000  0.32096000  1.0
  O  O323  1  0.71267000  0.21109000  0.82094000  1.0
  O  O324  1  0.33821000  0.71414000  0.59767000  1.0
  O  O325  1  0.16182000  0.78585000  0.09768000  1.0
  O  O326  1  0.66180000  0.28585000  0.40233000  1.0
  O  O327  1  0.83818000  0.21416000  0.90232000  1.0
  O  O328  1  0.03402000  0.63017000  0.44345000  1.0
  O  O329  1  0.46600000  0.86983000  0.94345000  1.0
  O  O330  1  0.96598000  0.36984000  0.55655000  1.0
  O  O331  1  0.53400000  0.13016000  0.05654000  1.0
  O  O332  1  0.06363000  0.68075000  0.29176000  1.0
  O  O333  1  0.43639000  0.81929000  0.79172000  1.0
  O  O334  1  0.93638000  0.31927000  0.70826000  1.0
  O  O335  1  0.56360000  0.18071000  0.20828000  1.0
  O  O336  1  0.96143000  0.74614000  0.36279000  1.0
  O  O337  1  0.53851000  0.75388000  0.86276000  1.0
  O  O338  1  0.03857000  0.25386000  0.63722000  1.0
  O  O339  1  0.46151000  0.24612000  0.13721000  1.0
  O  O340  1  0.16088000  0.81584000  0.77225000  1.0
  O  O341  1  0.33911000  0.68418000  0.27228000  1.0
  O  O342  1  0.83909000  0.18416000  0.22775000  1.0
  O  O343  1  0.66089000  0.31582000  0.72774000  1.0
