# generated using pymatgen
data_Al6H62C84O37
_symmetry_space_group_name_H-M   'P 1'
_cell_length_a   13.34516238
_cell_length_b   13.43340000
_cell_length_c   27.48840000
_cell_angle_alpha   90.19840000
_cell_angle_beta   90.66544517
_cell_angle_gamma   61.25017634
_symmetry_Int_Tables_number   1
_chemical_formula_structural   Al6H62C84O37
_chemical_formula_sum   'Al6 H62 C84 O37'
_cell_volume   4320.09900149
_cell_formula_units_Z   1
loop_
 _symmetry_equiv_pos_site_id
 _symmetry_equiv_pos_as_xyz
  1  'x, y, z'
loop_
 _atom_site_type_symbol
 _atom_site_label
 _atom_site_symmetry_multiplicity
 _atom_site_fract_x
 _atom_site_fract_y
 _atom_site_fract_z
 _atom_site_occupancy
  Al  Al0  1  0.43105000  0.41407000  0.49570000  1.0
  Al  Al1  1  0.40960000  0.18652000  0.49725000  1.0
  Al  Al2  1  0.19332000  0.40889000  0.49855000  1.0
  Al  Al3  1  0.92633000  0.90822000  0.98717000  1.0
  Al  Al4  1  0.92802000  0.14697000  0.98320000  1.0
  Al  Al5  1  0.15362000  0.93362000  0.98550000  1.0
  H  H6  1  0.03759000  0.33597000  0.20340000  1.0
  H  H7  1  0.07008000  0.38438000  0.62677000  1.0
  H  H8  1  0.39413000  0.54557000  0.62937000  1.0
  H  H9  1  0.57190000  0.04224000  0.62475000  1.0
  H  H10  1  0.33297000  0.03823000  0.78049000  1.0
  H  H11  1  0.04856000  0.63470000  0.78216000  1.0
  H  H12  1  0.66965000  0.30927000  0.77082000  1.0
  H  H13  1  0.30368000  0.00980000  0.86735000  1.0
  H  H14  1  0.02292000  0.69632000  0.86891000  1.0
  H  H15  1  0.72066000  0.28871000  0.85906000  1.0
  H  H16  1  0.04234000  0.35434000  0.71355000  1.0
  H  H17  1  0.34457000  0.63284000  0.20127000  1.0
  H  H18  1  0.36447000  0.61234000  0.71529000  1.0
  H  H19  1  0.64378000  0.01199000  0.71043000  1.0
  H  H20  1  0.97403000  0.27819000  0.76562000  1.0
  H  H21  1  0.28545000  0.76416000  0.76429000  1.0
  H  H22  1  0.79518000  0.94810000  0.76143000  1.0
  H  H23  1  0.94791000  0.25483000  0.85326000  1.0
  H  H24  1  0.26478000  0.81791000  0.85177000  1.0
  H  H25  1  0.83790000  0.93036000  0.85041000  1.0
  H  H26  1  0.30538000  0.00492000  0.70246000  1.0
  H  H27  1  0.01048000  0.69454000  0.70319000  1.0
  H  H28  1  0.64800000  0.03860000  0.18458000  1.0
  H  H29  1  0.73495000  0.27733000  0.69331000  1.0
  H  H30  1  0.09664000  0.35547000  0.28251000  1.0
  H  H31  1  0.33686000  0.63982000  0.28735000  1.0
  H  H32  1  0.64392000  0.01834000  0.27018000  1.0
  H  H33  1  0.33653000  0.03840000  0.61646000  1.0
  H  H34  1  0.04328000  0.62247000  0.61806000  1.0
  H  H35  1  0.65673000  0.31027000  0.60832000  1.0
  H  H36  1  0.07459000  0.08647000  0.30160000  1.0
  H  H37  1  0.02791000  0.84511000  0.29538000  1.0
  H  H38  1  0.82901000  0.15046000  0.29755000  1.0
  H  H39  1  0.24189000  0.28291000  0.26749000  1.0
  H  H40  1  0.99272000  0.23395000  0.29106000  1.0
  H  H41  1  0.16458000  0.82593000  0.31208000  1.0
  H  H42  1  0.82476000  0.02156000  0.30394000  1.0
  H  H43  1  0.97765000  0.18859000  0.20997000  1.0
  H  H44  1  0.21268000  0.83651000  0.23029000  1.0
  H  H45  1  0.84225000  0.98591000  0.21935000  1.0
  H  H46  1  0.08426000  0.04544000  0.21834000  1.0
  H  H47  1  0.06389000  0.89861000  0.21931000  1.0
  H  H48  1  0.89385000  0.08451000  0.21868000  1.0
  H  H49  1  0.27594000  0.99081000  0.28224000  1.0
  H  H50  1  0.32469000  0.51525000  0.28197000  1.0
  H  H51  1  0.99862000  0.67695000  0.28226000  1.0
  H  H52  1  0.64252000  0.33668000  0.29070000  1.0
  H  H53  1  0.37127000  0.90571000  0.20640000  1.0
  H  H54  1  0.89839000  0.76730000  0.21078000  1.0
  H  H55  1  0.73749000  0.37366000  0.23188000  1.0
  H  H56  1  0.41687000  0.08190000  0.26096000  1.0
  H  H57  1  0.11931000  0.49752000  0.23069000  1.0
  H  H58  1  0.47351000  0.38154000  0.23192000  1.0
  H  H59  1  0.35270000  0.09636000  0.16018000  1.0
  H  H60  1  0.06802000  0.63043000  0.14614000  1.0
  H  H61  1  0.51398000  0.14870000  0.26728000  1.0
  H  H62  1  0.61197000  0.34038000  0.15124000  1.0
  H  H63  1  0.17736000  0.30331000  0.18630000  1.0
  H  H64  1  0.28430000  0.54112000  0.19774000  1.0
  H  H65  1  0.54144000  0.18267000  0.18669000  1.0
  H  H66  1  0.48999000  0.54805000  0.51625000  1.0
  H  H67  1  0.80161000  0.83894000  0.96411000  1.0
  C  C68  1  0.21653000  0.54622000  0.43168000  1.0
  C  C69  1  0.13666000  0.14799000  0.14431000  1.0
  C  C70  1  0.15652000  0.74533000  0.14948000  1.0
  C  C71  1  0.74266000  0.14780000  0.14562000  1.0
  C  C72  1  0.18936000  0.18402000  0.34236000  1.0
  C  C73  1  0.16921000  0.63850000  0.34402000  1.0
  C  C74  1  0.62734000  0.17636000  0.33895000  1.0
  C  C75  1  0.20083000  0.19999000  0.38516000  1.0
  C  C76  1  0.18296000  0.60557000  0.38593000  1.0
  C  C77  1  0.59549000  0.18869000  0.38079000  1.0
  C  C78  1  0.80345000  0.11373000  0.05337000  1.0
  C  C79  1  0.54080000  0.22129000  0.42724000  1.0
  C  C80  1  0.10482000  0.11270000  0.05233000  1.0
  C  C81  1  0.12374000  0.80379000  0.05658000  1.0
  C  C82  1  0.20438000  0.21315000  0.61620000  1.0
  C  C83  1  0.22068000  0.57998000  0.61873000  1.0
  C  C84  1  0.60984000  0.17841000  0.61190000  1.0
  C  C85  1  0.12026000  0.30135000  0.64368000  1.0
  C  C86  1  0.31045000  0.57916000  0.64609000  1.0
  C  C87  1  0.60879000  0.09235000  0.64019000  1.0
  C  C88  1  0.10480000  0.28365000  0.69216000  1.0
  C  C89  1  0.29296000  0.61726000  0.69384000  1.0
  C  C90  1  0.23030000  0.22677000  0.43191000  1.0
  C  C91  1  0.64978000  0.07543000  0.68781000  1.0
  C  C92  1  0.17166000  0.17734000  0.71459000  1.0
  C  C93  1  0.18534000  0.65800000  0.71559000  1.0
  C  C94  1  0.69337000  0.14328000  0.70814000  1.0
  C  C95  1  0.24445000  0.53055000  0.56894000  1.0
  C  C96  1  0.55284000  0.20741000  0.56338000  1.0
  C  C97  1  0.22854000  0.23673000  0.56616000  1.0
  C  C98  1  0.25437000  0.08888000  0.68634000  1.0
  C  C99  1  0.09533000  0.66035000  0.68748000  1.0
  C  C100  1  0.69797000  0.22648000  0.67868000  1.0
  C  C101  1  0.27316000  0.06820000  0.21299000  1.0
  C  C102  1  0.27126000  0.10656000  0.63798000  1.0
  C  C103  1  0.11275000  0.62130000  0.63975000  1.0
  C  C104  1  0.65604000  0.24449000  0.63122000  1.0
  C  C105  1  0.24784000  0.08474000  0.79600000  1.0
  C  C106  1  0.09459000  0.67681000  0.79699000  1.0
  C  C107  1  0.70883000  0.22561000  0.78791000  1.0
  C  C108  1  0.23241000  0.06967000  0.84483000  1.0
  C  C109  1  0.08108000  0.70937000  0.84554000  1.0
  C  C110  1  0.73550000  0.21496000  0.83730000  1.0
  C  C111  1  0.03210000  0.20882000  0.83698000  1.0
  C  C112  1  0.06416000  0.68782000  0.21172000  1.0
  C  C113  1  0.21848000  0.77700000  0.83614000  1.0
  C  C114  1  0.80040000  0.01286000  0.83243000  1.0
  C  C115  1  0.04755000  0.22186000  0.78800000  1.0
  C  C116  1  0.23011000  0.74618000  0.78735000  1.0
  C  C117  1  0.77578000  0.02355000  0.78291000  1.0
  C  C118  1  0.15572000  0.16081000  0.76648000  1.0
  C  C119  1  0.16927000  0.69462000  0.76690000  1.0
  C  C120  1  0.72775000  0.13031000  0.75986000  1.0
  C  C121  1  0.12438000  0.13226000  0.86589000  1.0
  C  C122  1  0.14366000  0.75899000  0.86562000  1.0
  C  C123  1  0.67019000  0.27749000  0.21575000  1.0
  C  C124  1  0.77984000  0.10870000  0.86007000  1.0
  C  C125  1  0.81216000  0.09398000  0.91236000  1.0
  C  C126  1  0.10365000  0.11094000  0.91667000  1.0
  C  C127  1  0.12307000  0.80042000  0.91660000  1.0
  C  C128  1  0.16146000  0.27967000  0.26409000  1.0
  C  C129  1  0.28479000  0.60469000  0.27131000  1.0
  C  C130  1  0.60494000  0.10743000  0.25848000  1.0
  C  C131  1  0.06958000  0.15693000  0.27958000  1.0
  C  C132  1  0.11912000  0.79860000  0.28635000  1.0
  C  C133  1  0.79112000  0.10011000  0.28246000  1.0
  C  C134  1  0.28150000  0.06594000  0.26984000  1.0
  C  C135  1  0.06370000  0.13374000  0.22471000  1.0
  C  C136  1  0.13841000  0.82257000  0.23332000  1.0
  C  C137  1  0.82038000  0.07366000  0.22819000  1.0
  C  C138  1  0.12633000  0.13922000  0.10069000  1.0
  C  C139  1  0.15116000  0.76245000  0.10585000  1.0
  C  C140  1  0.76063000  0.14087000  0.10214000  1.0
  C  C141  1  0.17546000  0.17230000  0.29062000  1.0
  C  C142  1  0.16351000  0.66960000  0.29319000  1.0
  C  C143  1  0.65967000  0.16712000  0.28836000  1.0
  C  C144  1  0.12872000  0.27753000  0.21026000  1.0
  C  C145  1  0.08272000  0.63693000  0.26422000  1.0
  C  C146  1  0.27647000  0.61788000  0.21556000  1.0
  C  C147  1  0.62132000  0.11899000  0.20386000  1.0
  C  C148  1  0.15006000  0.15687000  0.19634000  1.0
  C  C149  1  0.15957000  0.71995000  0.20082000  1.0
  C  C150  1  0.71543000  0.15413000  0.19671000  1.0
  C  C151  1  0.61458000  0.28842000  0.26652000  1.0
  O  O152  1  0.51459000  0.32029000  0.44152000  1.0
  O  O153  1  0.53576000  0.29902000  0.54374000  1.0
  O  O154  1  0.32036000  0.16323000  0.54606000  1.0
  O  O155  1  0.16551000  0.51684000  0.54750000  1.0
  O  O156  1  0.34201000  0.50206000  0.55167000  1.0
  O  O157  1  0.52000000  0.13812000  0.54569000  1.0
  O  O158  1  0.15809000  0.33281000  0.54719000  1.0
  O  O159  1  0.34353000  0.33578000  0.49743000  1.0
  O  O160  1  0.00340000  0.99744000  0.98547000  1.0
  O  O161  1  0.82903000  0.01591000  0.03819000  1.0
  O  O162  1  0.00960000  0.18130000  0.03213000  1.0
  O  O163  1  0.32691000  0.15387000  0.45020000  1.0
  O  O164  1  0.19670000  0.82343000  0.03408000  1.0
  O  O165  1  0.03409000  0.81124000  0.93701000  1.0
  O  O166  1  0.82176000  0.17519000  0.93343000  1.0
  O  O167  1  0.17970000  0.02127000  0.93801000  1.0
  O  O168  1  0.83236000  0.00170000  0.93267000  1.0
  O  O169  1  0.00759000  0.18054000  0.93551000  1.0
  O  O170  1  0.19572000  0.82707000  0.93614000  1.0
  O  O171  1  0.29617000  0.96120000  0.19397000  1.0
  O  O172  1  0.95785000  0.78926000  0.20758000  1.0
  O  O173  1  0.76566000  0.29703000  0.21917000  1.0
  O  O174  1  0.14435000  0.52008000  0.45125000  1.0
  O  O175  1  0.38749000  0.05300000  0.28662000  1.0
  O  O176  1  0.12942000  0.51741000  0.26398000  1.0
  O  O177  1  0.49359000  0.34314000  0.26354000  1.0
  O  O178  1  0.35506000  0.09873000  0.19568000  1.0
  O  O179  1  0.06627000  0.60467000  0.17929000  1.0
  O  O180  1  0.58474000  0.35928000  0.18471000  1.0
  O  O181  1  0.02796000  0.82082000  0.04033000  1.0
  O  O182  1  0.81613000  0.19047000  0.03020000  1.0
  O  O183  1  0.18052000  0.01890000  0.03415000  1.0
  O  O184  1  0.31462000  0.52053000  0.44812000  1.0
  O  O185  1  0.52024000  0.14887000  0.44948000  1.0
  O  O186  1  0.16207000  0.32246000  0.45082000  1.0
  O  O187  1  0.51264000  0.48470000  0.49429000  1.0
  O  O188  1  0.85480000  0.82781000  0.99036000  1.0
