# generated using pymatgen
data_Zn3H38C60(N3O7)2
_symmetry_space_group_name_H-M   'P 1'
_cell_length_a   14.61400000
_cell_length_b   16.21050000
_cell_length_c   16.59350000
_cell_angle_alpha   116.47400000
_cell_angle_beta   90.00520000
_cell_angle_gamma   116.77800000
_symmetry_Int_Tables_number   1
_chemical_formula_structural   Zn3H38C60(N3O7)2
_chemical_formula_sum   'Zn6 H76 C120 N12 O28'
_cell_volume   3040.50344864
_cell_formula_units_Z   2
loop_
 _symmetry_equiv_pos_site_id
 _symmetry_equiv_pos_as_xyz
  1  'x, y, z'
loop_
 _atom_site_type_symbol
 _atom_site_label
 _atom_site_symmetry_multiplicity
 _atom_site_fract_x
 _atom_site_fract_y
 _atom_site_fract_z
 _atom_site_occupancy
  Zn  Zn0  1  0.44292000  0.27841000  0.31497000  1.0
  Zn  Zn1  1  0.16459000  0.72184000  0.18498000  1.0
  Zn  Zn2  1  0.55708000  0.72159000  0.68503000  1.0
  Zn  Zn3  1  0.83542000  0.27816000  0.81502000  1.0
  Zn  Zn4  1  0.21946000  0.00013000  0.74999000  1.0
  Zn  Zn5  1  0.78054000  0.99987000  0.25001000  1.0
  H  H6  1  0.49125000  0.29768000  0.80117000  1.0
  H  H7  1  0.19371000  0.70246000  0.69868000  1.0
  H  H8  1  0.50876000  0.70233000  0.19884000  1.0
  H  H9  1  0.80626000  0.29752000  0.30131000  1.0
  H  H10  1  0.61678000  0.44959000  0.77794000  1.0
  H  H11  1  0.16718000  0.55047000  0.72191000  1.0
  H  H12  1  0.38322000  0.55041000  0.22205000  1.0
  H  H13  1  0.83280000  0.44952000  0.27808000  1.0
  H  H14  1  0.35449000  0.10096000  0.50723000  1.0
  H  H15  1  0.25324000  0.89907000  0.99258000  1.0
  H  H16  1  0.64550000  0.89904000  0.49277000  1.0
  H  H17  1  0.74676000  0.10093000  0.00742000  1.0
  H  H18  1  0.77807000  0.39805000  0.61862000  1.0
  H  H19  1  0.38004000  0.60198000  0.88116000  1.0
  H  H20  1  0.22193000  0.60195000  0.38138000  1.0
  H  H21  1  0.61995000  0.39802000  0.11884000  1.0
  H  H22  1  0.96013000  0.52602000  0.72440000  1.0
  H  H23  1  0.43399000  0.47394000  0.77525000  1.0
  H  H24  1  0.03986000  0.47397000  0.27560000  1.0
  H  H25  1  0.56601000  0.52607000  0.22476000  1.0
  H  H26  1  0.00863000  0.71322000  0.83929000  1.0
  H  H27  1  0.29528000  0.28682000  0.66030000  1.0
  H  H28  1  0.99137000  0.28677000  0.16070000  1.0
  H  H29  1  0.70474000  0.71319000  0.33970000  1.0
  H  H30  1  0.87390000  0.76922000  0.85038000  1.0
  H  H31  1  0.10460000  0.23079000  0.64964000  1.0
  H  H32  1  0.12610000  0.23077000  0.14962000  1.0
  H  H33  1  0.89541000  0.76921000  0.35036000  1.0
  H  H34  1  0.66436000  0.33676000  0.34805000  1.0
  H  H35  1  0.32779000  0.66320000  0.15200000  1.0
  H  H36  1  0.33564000  0.66324000  0.65195000  1.0
  H  H37  1  0.67221000  0.33680000  0.84800000  1.0
  H  H38  1  0.84060000  0.50022000  0.44104000  1.0
  H  H39  1  0.34017000  0.49946000  0.05890000  1.0
  H  H40  1  0.15940000  0.49978000  0.55896000  1.0
  H  H41  1  0.65984000  0.50054000  0.94110000  1.0
  H  H42  1  0.67982000  0.68254000  0.51641000  1.0
  H  H43  1  0.99715000  0.31779000  0.98426000  1.0
  H  H44  1  0.32018000  0.31746000  0.48358000  1.0
  H  H45  1  0.00285000  0.68222000  0.01574000  1.0
  H  H46  1  0.51236000  0.51302000  0.41772000  1.0
  H  H47  1  0.99960000  0.48759000  0.08294000  1.0
  H  H48  1  0.48763000  0.48698000  0.58228000  1.0
  H  H49  1  0.00041000  0.51242000  0.91707000  1.0
  H  H50  1  0.96916000  0.67315000  0.44180000  1.0
  H  H51  1  0.29556000  0.32663000  0.05830000  1.0
  H  H52  1  0.03084000  0.32686000  0.55821000  1.0
  H  H53  1  0.70444000  0.67337000  0.94170000  1.0
  H  H54  1  0.13680000  0.84258000  0.54825000  1.0
  H  H55  1  0.29393000  0.15730000  0.95172000  1.0
  H  H56  1  0.86320000  0.15742000  0.45175000  1.0
  H  H57  1  0.70606000  0.84270000  0.04828000  1.0
  H  H58  1  0.99071000  0.92076000  0.76119000  1.0
  H  H59  1  0.06972000  0.07934000  0.73887000  1.0
  H  H60  1  0.00928000  0.07925000  0.23881000  1.0
  H  H61  1  0.93028000  0.92066000  0.26113000  1.0
  H  H62  1  0.81377000  0.76060000  0.66212000  1.0
  H  H63  1  0.05285000  0.23945000  0.83801000  1.0
  H  H64  1  0.18623000  0.23940000  0.33788000  1.0
  H  H65  1  0.94715000  0.76055000  0.16198000  1.0
  H  H66  1  0.48232000  0.10121000  0.26663000  1.0
  H  H67  1  0.38098000  0.89912000  0.23350000  1.0
  H  H68  1  0.51768000  0.89879000  0.73337000  1.0
  H  H69  1  0.61903000  0.10089000  0.76650000  1.0
  H  H70  1  0.50547000  0.97108000  0.12809000  1.0
  H  H71  1  0.53438000  0.02892000  0.37193000  1.0
  H  H72  1  0.49453000  0.02892000  0.87191000  1.0
  H  H73  1  0.46562000  0.97108000  0.62808000  1.0
  H  H74  1  0.47556000  0.12786000  0.98360000  1.0
  H  H75  1  0.34781000  0.87206000  0.51634000  1.0
  H  H76  1  0.52445000  0.87214000  0.01640000  1.0
  H  H77  1  0.65219000  0.12793000  0.48366000  1.0
  H  H78  1  0.44524000  0.24525000  0.12680000  1.0
  H  H79  1  0.20004000  0.75475000  0.37317000  1.0
  H  H80  1  0.55476000  0.75475000  0.87320000  1.0
  H  H81  1  0.79996000  0.24524000  0.62683000  1.0
  C  C82  1  0.33997000  0.10053000  0.66830000  1.0
  C  C83  1  0.23953000  0.89957000  0.83150000  1.0
  C  C84  1  0.66004000  0.89948000  0.33171000  1.0
  C  C85  1  0.76046000  0.10042000  0.16850000  1.0
  C  C86  1  0.41687000  0.19006000  0.65531000  1.0
  C  C87  1  0.22676000  0.81000000  0.84452000  1.0
  C  C88  1  0.58314000  0.80994000  0.34469000  1.0
  C  C89  1  0.77324000  0.18999000  0.15547000  1.0
  C  C90  1  0.49111000  0.28815000  0.73186000  1.0
  C  C91  1  0.20299000  0.71194000  0.76798000  1.0
  C  C92  1  0.50890000  0.71186000  0.26815000  1.0
  C  C93  1  0.79699000  0.28805000  0.23201000  1.0
  C  C94  1  0.56092000  0.37177000  0.71914000  1.0
  C  C95  1  0.18908000  0.62829000  0.78070000  1.0
  C  C96  1  0.43909000  0.62824000  0.28086000  1.0
  C  C97  1  0.81091000  0.37171000  0.21930000  1.0
  C  C98  1  0.55868000  0.35701000  0.62938000  1.0
  C  C99  1  0.20158000  0.64306000  0.87047000  1.0
  C  C100  1  0.44133000  0.64299000  0.37062000  1.0
  C  C101  1  0.79842000  0.35693000  0.12953000  1.0
  C  C102  1  0.48536000  0.25915000  0.55165000  1.0
  C  C103  1  0.22600000  0.74089000  0.94820000  1.0
  C  C104  1  0.51464000  0.74085000  0.44835000  1.0
  C  C105  1  0.77400000  0.25910000  0.05180000  1.0
  C  C106  1  0.41355000  0.17727000  0.56600000  1.0
  C  C107  1  0.23608000  0.82278000  0.93384000  1.0
  C  C108  1  0.58645000  0.82273000  0.43401000  1.0
  C  C109  1  0.76392000  0.17722000  0.06616000  1.0
  C  C110  1  0.48743000  0.24073000  0.45458000  1.0
  C  C111  1  0.24637000  0.75920000  0.04525000  1.0
  C  C112  1  0.51257000  0.75926000  0.54541000  1.0
  C  C113  1  0.75364000  0.24080000  0.95475000  1.0
  C  C114  1  0.72581000  0.51205000  0.67684000  1.0
  C  C115  1  0.21375000  0.48801000  0.82310000  1.0
  C  C116  1  0.27418000  0.48794000  0.32316000  1.0
  C  C117  1  0.78625000  0.51199000  0.17691000  1.0
  C  C118  1  0.80060000  0.47969000  0.67012000  1.0
  C  C119  1  0.32087000  0.52034000  0.82971000  1.0
  C  C120  1  0.19940000  0.52031000  0.32988000  1.0
  C  C121  1  0.67913000  0.47966000  0.17030000  1.0
  C  C122  1  0.90231000  0.55193000  0.72895000  1.0
  C  C123  1  0.35028000  0.44805000  0.77079000  1.0
  C  C124  1  0.09768000  0.44806000  0.27105000  1.0
  C  C125  1  0.64973000  0.55196000  0.22922000  1.0
  C  C126  1  0.92897000  0.65641000  0.79362000  1.0
  C  C127  1  0.27245000  0.34359000  0.70613000  1.0
  C  C128  1  0.07103000  0.34358000  0.20637000  1.0
  C  C129  1  0.72755000  0.65642000  0.29388000  1.0
  C  C130  1  0.85360000  0.68790000  0.79980000  1.0
  C  C131  1  0.16563000  0.31211000  0.70016000  1.0
  C  C132  1  0.14640000  0.31209000  0.20019000  1.0
  C  C133  1  0.83438000  0.68789000  0.29984000  1.0
  C  C134  1  0.75062000  0.61566000  0.74192000  1.0
  C  C135  1  0.13493000  0.38436000  0.75816000  1.0
  C  C136  1  0.24937000  0.38433000  0.25808000  1.0
  C  C137  1  0.86507000  0.61564000  0.24184000  1.0
  C  C138  1  0.66867000  0.64912000  0.75041000  1.0
  C  C139  1  0.01953000  0.35091000  0.74986000  1.0
  C  C140  1  0.33133000  0.35087000  0.24958000  1.0
  C  C141  1  0.98047000  0.64908000  0.25014000  1.0
  C  C142  1  0.67241000  0.41542000  0.38488000  1.0
  C  C143  1  0.25709000  0.58464000  0.11526000  1.0
  C  C144  1  0.32759000  0.58459000  0.61513000  1.0
  C  C145  1  0.74291000  0.41536000  0.88474000  1.0
  C  C146  1  0.76986000  0.50661000  0.43677000  1.0
  C  C147  1  0.26315000  0.49330000  0.06334000  1.0
  C  C148  1  0.23014000  0.49339000  0.56323000  1.0
  C  C149  1  0.73685000  0.50670000  0.93665000  1.0
  C  C150  1  0.77530000  0.60545000  0.48598000  1.0
  C  C151  1  0.16965000  0.39456000  0.01427000  1.0
  C  C152  1  0.22470000  0.39455000  0.51402000  1.0
  C  C153  1  0.83036000  0.60544000  0.98573000  1.0
  C  C154  1  0.68115000  0.60825000  0.47977000  1.0
  C  C155  1  0.07283000  0.39200000  0.02071000  1.0
  C  C156  1  0.31885000  0.39175000  0.52023000  1.0
  C  C157  1  0.92717000  0.60800000  0.97929000  1.0
  C  C158  1  0.58695000  0.51380000  0.42521000  1.0
  C  C159  1  0.07328000  0.48657000  0.07529000  1.0
  C  C160  1  0.41305000  0.48620000  0.57479000  1.0
  C  C161  1  0.92673000  0.51344000  0.92471000  1.0
  C  C162  1  0.87720000  0.70350000  0.54406000  1.0
  C  C163  1  0.17328000  0.29637000  0.95607000  1.0
  C  C164  1  0.12280000  0.29650000  0.45594000  1.0
  C  C165  1  0.82672000  0.70363000  0.04393000  1.0
  C  C166  1  0.96962000  0.72566000  0.51203000  1.0
  C  C167  1  0.24347000  0.27412000  0.98806000  1.0
  C  C168  1  0.03038000  0.27434000  0.48797000  1.0
  C  C169  1  0.75653000  0.72588000  0.01194000  1.0
  C  C170  1  0.06344000  0.81908000  0.57038000  1.0
  C  C171  1  0.24399000  0.18077000  0.92966000  1.0
  C  C172  1  0.93656000  0.18093000  0.42962000  1.0
  C  C173  1  0.75600000  0.81923000  0.07034000  1.0
  C  C174  1  0.98151000  0.86515000  0.68911000  1.0
  C  C175  1  0.11607000  0.13487000  0.81094000  1.0
  C  C176  1  0.01849000  0.13485000  0.31089000  1.0
  C  C177  1  0.88393000  0.86513000  0.18906000  1.0
  C  C178  1  0.88364000  0.77614000  0.63430000  1.0
  C  C179  1  0.10710000  0.22381000  0.86582000  1.0
  C  C180  1  0.11636000  0.22386000  0.36570000  1.0
  C  C181  1  0.89290000  0.77619000  0.13418000  1.0
  C  C182  1  0.47801000  0.10065000  0.20081000  1.0
  C  C183  1  0.37732000  0.89953000  0.29927000  1.0
  C  C184  1  0.52200000  0.89936000  0.79919000  1.0
  C  C185  1  0.62268000  0.10047000  0.70074000  1.0
  C  C186  1  0.49302000  0.03026000  0.12344000  1.0
  C  C187  1  0.46277000  0.96980000  0.37658000  1.0
  C  C188  1  0.50698000  0.96975000  0.87655000  1.0
  C  C189  1  0.53723000  0.03020000  0.62342000  1.0
  C  C190  1  0.49215000  0.03691000  0.04192000  1.0
  C  C191  1  0.45526000  0.96310000  0.45808000  1.0
  C  C192  1  0.50786000  0.96310000  0.95808000  1.0
  C  C193  1  0.54474000  0.03690000  0.54193000  1.0
  C  C194  1  0.47594000  0.11661000  0.04341000  1.0
  C  C195  1  0.35940000  0.88337000  0.45655000  1.0
  C  C196  1  0.52406000  0.88339000  0.95658000  1.0
  C  C197  1  0.64060000  0.11663000  0.54345000  1.0
  C  C198  1  0.45985000  0.18331000  0.12282000  1.0
  C  C199  1  0.27659000  0.81672000  0.37718000  1.0
  C  C200  1  0.54015000  0.81670000  0.87718000  1.0
  C  C201  1  0.72342000  0.18327000  0.62282000  1.0
  N  N202  1  0.58239000  0.41880000  0.37907000  1.0
  N  N203  1  0.16380000  0.58149000  0.12121000  1.0
  N  N204  1  0.41761000  0.58120000  0.62093000  1.0
  N  N205  1  0.83621000  0.41852000  0.87880000  1.0
  N  N206  1  0.46088000  0.17561000  0.20047000  1.0
  N  N207  1  0.28524000  0.82460000  0.29960000  1.0
  N  N208  1  0.53912000  0.82439000  0.79952000  1.0
  N  N209  1  0.71477000  0.17540000  0.70040000  1.0
  N  N210  1  0.06983000  0.88739000  0.65786000  1.0
  N  N211  1  0.18217000  0.11257000  0.84213000  1.0
  N  N212  1  0.93016000  0.11262000  0.34214000  1.0
  N  N213  1  0.81783000  0.88743000  0.15787000  1.0
  O  O214  1  0.26646000  0.01663000  0.60081000  1.0
  O  O215  1  0.24979000  0.98347000  0.89892000  1.0
  O  O216  1  0.73355000  0.98338000  0.39920000  1.0
  O  O217  1  0.75020000  0.01652000  0.10108000  1.0
  O  O218  1  0.35284000  0.11583000  0.75224000  1.0
  O  O219  1  0.23738000  0.88440000  0.74762000  1.0
  O  O220  1  0.64717000  0.88418000  0.24777000  1.0
  O  O221  1  0.76261000  0.11560000  0.25238000  1.0
  O  O222  1  0.67126000  0.69491000  0.70247000  1.0
  O  O223  1  0.97650000  0.30530000  0.79795000  1.0
  O  O224  1  0.32874000  0.30508000  0.29752000  1.0
  O  O225  1  0.02350000  0.69471000  0.20206000  1.0
  O  O226  1  0.60694000  0.63311000  0.80055000  1.0
  O  O227  1  0.97368000  0.36681000  0.69969000  1.0
  O  O228  1  0.39306000  0.36689000  0.19944000  1.0
  O  O229  1  0.02633000  0.63319000  0.30031000  1.0
  O  O230  1  0.62508000  0.43996000  0.61483000  1.0
  O  O231  1  0.18514000  0.56016000  0.88506000  1.0
  O  O232  1  0.37491000  0.56003000  0.38516000  1.0
  O  O233  1  0.81485000  0.43984000  0.11494000  1.0
  O  O234  1  0.41144000  0.24040000  0.41332000  1.0
  O  O235  1  0.17089000  0.75993000  0.08663000  1.0
  O  O236  1  0.58856000  0.75960000  0.58668000  1.0
  O  O237  1  0.82911000  0.24007000  0.91336000  1.0
  O  O238  1  0.55864000  0.22688000  0.42023000  1.0
  O  O239  1  0.33121000  0.77254000  0.07945000  1.0
  O  O240  1  0.44136000  0.77311000  0.57977000  1.0
  O  O241  1  0.66879000  0.22746000  0.92055000  1.0
