# generated using pymatgen
data_AgH8C14N5
_symmetry_space_group_name_H-M   'P 1'
_cell_length_a   7.27414000
_cell_length_b   9.23775373
_cell_length_c   10.00140000
_cell_angle_alpha   86.62670202
_cell_angle_beta   81.35810000
_cell_angle_gamma   66.85882985
_symmetry_Int_Tables_number   1
_chemical_formula_structural   AgH8C14N5
_chemical_formula_sum   'Ag2 H16 C28 N10'
_cell_volume   610.97056230
_cell_formula_units_Z   2
loop_
 _symmetry_equiv_pos_site_id
 _symmetry_equiv_pos_as_xyz
  1  'x, y, z'
loop_
 _atom_site_type_symbol
 _atom_site_label
 _atom_site_symmetry_multiplicity
 _atom_site_fract_x
 _atom_site_fract_y
 _atom_site_fract_z
 _atom_site_occupancy
  Ag  Ag0  1  0.07704000  0.84657000  0.74983000  1.0
  Ag  Ag1  1  0.92294000  0.15344000  0.25018000  1.0
  H  H2  1  0.44590000  0.61502000  0.57453000  1.0
  H  H3  1  0.06065000  0.38499000  0.07513000  1.0
  H  H4  1  0.55409000  0.38498000  0.42547000  1.0
  H  H5  1  0.93935000  0.61500000  0.92487000  1.0
  H  H6  1  0.66974000  0.60459000  0.35945000  1.0
  H  H7  1  0.27476000  0.39534000  0.86031000  1.0
  H  H8  1  0.33025000  0.39541000  0.64056000  1.0
  H  H9  1  0.72525000  0.60465000  0.13970000  1.0
  H  H10  1  0.32140000  0.10406000  0.31719000  1.0
  H  H11  1  0.42527000  0.89577000  0.81785000  1.0
  H  H12  1  0.67862000  0.89593000  0.68281000  1.0
  H  H13  1  0.57474000  0.10422000  0.18215000  1.0
  H  H14  1  0.12159000  0.09402000  0.53731000  1.0
  H  H15  1  0.21511000  0.90583000  0.03779000  1.0
  H  H16  1  0.87841000  0.90599000  0.46269000  1.0
  H  H17  1  0.78490000  0.09416000  0.96220000  1.0
  C  C18  1  0.87941000  0.55961000  0.68807000  1.0
  C  C19  1  0.43697000  0.44067000  0.18900000  1.0
  C  C20  1  0.12058000  0.44039000  0.31191000  1.0
  C  C21  1  0.56303000  0.55935000  0.81100000  1.0
  C  C22  1  0.84454000  0.31289000  0.74954000  1.0
  C  C23  1  0.15547000  0.68711000  0.25047000  1.0
  C  C24  1  0.76196000  0.47809000  0.74961000  1.0
  C  C25  1  0.23804000  0.52193000  0.25038000  1.0
  C  C26  1  0.42425000  0.72060000  0.51371000  1.0
  C  C27  1  0.14466000  0.27941000  0.01433000  1.0
  C  C28  1  0.57574000  0.27940000  0.48629000  1.0
  C  C29  1  0.85534000  0.72059000  0.98567000  1.0
  C  C30  1  0.54695000  0.71558000  0.39215000  1.0
  C  C31  1  0.26273000  0.28435000  0.89294000  1.0
  C  C32  1  0.45305000  0.28442000  0.60786000  1.0
  C  C33  1  0.73728000  0.71565000  0.10706000  1.0
  C  C34  1  0.51272000  0.85397000  0.31569000  1.0
  C  C35  1  0.36661000  0.14599000  0.81641000  1.0
  C  C36  1  0.48729000  0.14602000  0.68432000  1.0
  C  C37  1  0.63339000  0.85401000  0.18359000  1.0
  C  C38  1  0.35797000  0.99228000  0.37030000  1.0
  C  C39  1  0.34990000  0.00764000  0.87086000  1.0
  C  C40  1  0.64204000  0.00772000  0.62971000  1.0
  C  C41  1  0.65010000  0.99235000  0.12914000  1.0
  C  C42  1  0.24336000  0.98798000  0.49353000  1.0
  C  C43  1  0.23080000  0.01196000  0.99402000  1.0
  C  C44  1  0.75664000  0.01203000  0.50648000  1.0
  C  C45  1  0.76919000  0.98803000  0.00598000  1.0
  N  N46  1  0.97976000  0.62738000  0.63816000  1.0
  N  N47  1  0.60506000  0.37300000  0.13920000  1.0
  N  N48  1  0.02024000  0.37263000  0.36182000  1.0
  N  N49  1  0.39494000  0.62699000  0.86078000  1.0
  N  N50  1  0.91334000  0.17477000  0.74968000  1.0
  N  N51  1  0.08664000  0.82525000  0.25032000  1.0
  N  N52  1  0.27390000  0.85387000  0.56435000  1.0
  N  N53  1  0.12725000  0.14611000  0.06481000  1.0
  N  N54  1  0.72609000  0.14614000  0.43565000  1.0
  N  N55  1  0.87275000  0.85388000  0.93519000  1.0
