# generated using pymatgen
data_ZnH14C10(NO3)2
_symmetry_space_group_name_H-M   'P 1'
_cell_length_a   9.30286000
_cell_length_b   9.30286000
_cell_length_c   14.77970000
_cell_angle_alpha   90.00000000
_cell_angle_beta   90.00000000
_cell_angle_gamma   90.00000000
_symmetry_Int_Tables_number   1
_chemical_formula_structural   ZnH14C10(NO3)2
_chemical_formula_sum   'Zn4 H56 C40 N8 O24'
_cell_volume   1279.08259481
_cell_formula_units_Z   4
loop_
 _symmetry_equiv_pos_site_id
 _symmetry_equiv_pos_as_xyz
  1  'x, y, z'
loop_
 _atom_site_type_symbol
 _atom_site_label
 _atom_site_symmetry_multiplicity
 _atom_site_fract_x
 _atom_site_fract_y
 _atom_site_fract_z
 _atom_site_occupancy
  Zn  Zn0  1  0.60451000  0.07548000  0.00664000  1.0
  Zn  Zn1  1  0.39549000  0.92452000  0.50664000  1.0
  Zn  Zn2  1  0.92452000  0.60451000  0.75664000  1.0
  Zn  Zn3  1  0.07548000  0.39549000  0.25664000  1.0
  H  H4  1  0.60828000  0.77511000  0.07399000  1.0
  H  H5  1  0.39173000  0.22489000  0.57399000  1.0
  H  H6  1  0.22489000  0.60827000  0.82399000  1.0
  H  H7  1  0.77511000  0.39172000  0.32400000  1.0
  H  H8  1  0.57332000  0.88418000  0.15504000  1.0
  H  H9  1  0.42668000  0.11582000  0.65504000  1.0
  H  H10  1  0.11582000  0.57332000  0.90504000  1.0
  H  H11  1  0.88418000  0.42668000  0.40504000  1.0
  H  H12  1  0.54395000  0.27263000  0.12474000  1.0
  H  H13  1  0.45605000  0.72737000  0.62474000  1.0
  H  H14  1  0.72737000  0.54395000  0.87474000  1.0
  H  H15  1  0.27263000  0.45605000  0.37474000  1.0
  H  H16  1  0.56781000  0.12447000  0.18308000  1.0
  H  H17  1  0.43219000  0.87553000  0.68308000  1.0
  H  H18  1  0.87553000  0.56781000  0.93309000  1.0
  H  H19  1  0.12448000  0.43218000  0.43309000  1.0
  H  H20  1  0.36077000  0.21161000  0.02586000  1.0
  H  H21  1  0.63923000  0.78838000  0.52586000  1.0
  H  H22  1  0.78839000  0.36077000  0.77586000  1.0
  H  H23  1  0.21161000  0.63923000  0.27586000  1.0
  H  H24  1  0.25290000  0.11880000  0.87088000  1.0
  H  H25  1  0.74710000  0.88120000  0.37088000  1.0
  H  H26  1  0.88120000  0.25290000  0.62088000  1.0
  H  H27  1  0.11880000  0.74710000  0.12088000  1.0
  H  H28  1  0.37116000  0.31402000  0.79566000  1.0
  H  H29  1  0.62884000  0.68598000  0.29565000  1.0
  H  H30  1  0.68598000  0.37116000  0.54565000  1.0
  H  H31  1  0.31402000  0.62884000  0.04566000  1.0
  H  H32  1  0.33151000  0.36996000  0.90617000  1.0
  H  H33  1  0.66849000  0.63005000  0.40617000  1.0
  H  H34  1  0.63005000  0.33151000  0.65617000  1.0
  H  H35  1  0.36995000  0.66849000  0.15617000  1.0
  H  H36  1  0.30513000  0.99170000  0.09831000  1.0
  H  H37  1  0.69487000  0.00830000  0.59831000  1.0
  H  H38  1  0.00830000  0.30513000  0.84831000  1.0
  H  H39  1  0.99170000  0.69487000  0.34831000  1.0
  H  H40  1  0.31916000  0.90103000  0.99420000  1.0
  H  H41  1  0.68084000  0.09897000  0.49420000  1.0
  H  H42  1  0.09897000  0.31916000  0.74420000  1.0
  H  H43  1  0.90103000  0.68084000  0.24420000  1.0
  H  H44  1  0.82071000  0.83130000  0.96574000  1.0
  H  H45  1  0.17929000  0.16870000  0.46574000  1.0
  H  H46  1  0.16870000  0.82071000  0.71574000  1.0
  H  H47  1  0.83130000  0.17929000  0.21574000  1.0
  H  H48  1  0.08407000  0.80128000  0.97158000  1.0
  H  H49  1  0.91593000  0.19872000  0.47158000  1.0
  H  H50  1  0.19872000  0.08407000  0.72158000  1.0
  H  H51  1  0.80128000  0.91593000  0.22158000  1.0
  H  H52  1  0.11600000  0.24951000  0.04739000  1.0
  H  H53  1  0.88400000  0.75049000  0.54739000  1.0
  H  H54  1  0.75049000  0.11600000  0.79739000  1.0
  H  H55  1  0.24951000  0.88400000  0.29739000  1.0
  H  H56  1  0.85161000  0.26279000  0.03680000  1.0
  H  H57  1  0.14839000  0.73721000  0.53680000  1.0
  H  H58  1  0.73721000  0.85161000  0.78680000  1.0
  H  H59  1  0.26279000  0.14839000  0.28680000  1.0
  C  C60  1  0.46053000  0.03269000  0.84083000  1.0
  C  C61  1  0.53947000  0.96731000  0.34083000  1.0
  C  C62  1  0.96731000  0.46053000  0.59083000  1.0
  C  C63  1  0.03269000  0.53947000  0.09083000  1.0
  C  C64  1  0.36409000  0.14073000  0.89267000  1.0
  C  C65  1  0.63591000  0.85927000  0.39267000  1.0
  C  C66  1  0.85927000  0.36409000  0.64267000  1.0
  C  C67  1  0.14073000  0.63591000  0.14267000  1.0
  C  C68  1  0.39928000  0.29573000  0.86688000  1.0
  C  C69  1  0.60072000  0.70428000  0.36688000  1.0
  C  C70  1  0.70428000  0.39928000  0.61688000  1.0
  C  C71  1  0.29572000  0.60072000  0.11688000  1.0
  C  C72  1  0.55543000  0.34217000  0.87940000  1.0
  C  C73  1  0.44457000  0.65783000  0.37940000  1.0
  C  C74  1  0.65783000  0.55543000  0.62940000  1.0
  C  C75  1  0.34217000  0.44457000  0.12941000  1.0
  C  C76  1  0.28430000  0.00238000  0.02529000  1.0
  C  C77  1  0.71570000  0.99762000  0.52529000  1.0
  C  C78  1  0.99762000  0.28430000  0.77529000  1.0
  C  C79  1  0.00238000  0.71570000  0.27529000  1.0
  C  C80  1  0.88946000  0.92143000  0.98464000  1.0
  C  C81  1  0.11054000  0.07857000  0.48464000  1.0
  C  C82  1  0.07857000  0.88946000  0.73464000  1.0
  C  C83  1  0.92143000  0.11054000  0.23464000  1.0
  C  C84  1  0.03801000  0.90600000  0.98717000  1.0
  C  C85  1  0.96200000  0.09400000  0.48717000  1.0
  C  C86  1  0.09400000  0.03801000  0.73717000  1.0
  C  C87  1  0.90600000  0.96199000  0.23717000  1.0
  C  C88  1  0.12450000  0.02279000  0.01148000  1.0
  C  C89  1  0.87550000  0.97721000  0.51148000  1.0
  C  C90  1  0.97721000  0.12450000  0.76148000  1.0
  C  C91  1  0.02279000  0.87550000  0.26148000  1.0
  C  C92  1  0.05606000  0.15413000  0.02738000  1.0
  C  C93  1  0.94394000  0.84586000  0.52738000  1.0
  C  C94  1  0.84586000  0.05606000  0.77739000  1.0
  C  C95  1  0.15413000  0.94394000  0.27738000  1.0
  C  C96  1  0.90705000  0.16228000  0.02269000  1.0
  C  C97  1  0.09295000  0.83772000  0.52268000  1.0
  C  C98  1  0.83772000  0.90705000  0.77269000  1.0
  C  C99  1  0.16228000  0.09295000  0.27269000  1.0
  N  N100  1  0.37724000  0.11780000  0.99091000  1.0
  N  N101  1  0.62276000  0.88220000  0.49091000  1.0
  N  N102  1  0.88221000  0.37724000  0.74091000  1.0
  N  N103  1  0.11779000  0.62276000  0.24091000  1.0
  N  N104  1  0.82465000  0.04721000  0.00323000  1.0
  N  N105  1  0.17535000  0.95279000  0.50323000  1.0
  N  N106  1  0.95279000  0.82465000  0.75323000  1.0
  N  N107  1  0.04721000  0.17535000  0.25323000  1.0
  O  O108  1  0.54790000  0.95626000  0.88559000  1.0
  O  O109  1  0.45210000  0.04374000  0.38560000  1.0
  O  O110  1  0.04374000  0.54790000  0.63559000  1.0
  O  O111  1  0.95626000  0.45210000  0.13560000  1.0
  O  O112  1  0.44441000  0.02770000  0.75537000  1.0
  O  O113  1  0.55559000  0.97230000  0.25537000  1.0
  O  O114  1  0.97230000  0.44441000  0.50537000  1.0
  O  O115  1  0.02770000  0.55559000  0.00537000  1.0
  O  O116  1  0.64254000  0.26278000  0.92350000  1.0
  O  O117  1  0.35746000  0.73722000  0.42350000  1.0
  O  O118  1  0.73722000  0.64254000  0.67350000  1.0
  O  O119  1  0.26278000  0.35746000  0.17350000  1.0
  O  O120  1  0.58982000  0.45945000  0.84156000  1.0
  O  O121  1  0.41017000  0.54056000  0.34156000  1.0
  O  O122  1  0.54056000  0.58982000  0.59156000  1.0
  O  O123  1  0.45944000  0.41018000  0.09156000  1.0
  O  O124  1  0.56946000  0.86926000  0.08837000  1.0
  O  O125  1  0.43055000  0.13074000  0.58837000  1.0
  O  O126  1  0.13074000  0.56946000  0.83837000  1.0
  O  O127  1  0.86926000  0.43055000  0.33838000  1.0
  O  O128  1  0.60681000  0.18360000  0.13292000  1.0
  O  O129  1  0.39319000  0.81640000  0.63292000  1.0
  O  O130  1  0.81640000  0.60681000  0.88292000  1.0
  O  O131  1  0.18360000  0.39319000  0.38292000  1.0
