# generated using pymatgen
data_NdH12(CO)12
_symmetry_space_group_name_H-M   'P 1'
_cell_length_a   8.10956000
_cell_length_b   9.82197000
_cell_length_c   10.79700000
_cell_angle_alpha   74.42160000
_cell_angle_beta   73.96810000
_cell_angle_gamma   74.53870000
_symmetry_Int_Tables_number   1
_chemical_formula_structural   NdH12(CO)12
_chemical_formula_sum   'Nd2 H24 C24 O24'
_cell_volume   778.80288722
_cell_formula_units_Z   2
loop_
 _symmetry_equiv_pos_site_id
 _symmetry_equiv_pos_as_xyz
  1  'x, y, z'
loop_
 _atom_site_type_symbol
 _atom_site_label
 _atom_site_symmetry_multiplicity
 _atom_site_fract_x
 _atom_site_fract_y
 _atom_site_fract_z
 _atom_site_occupancy
  Nd  Nd0  1  0.54443000  0.30010000  0.14402000  1.0
  Nd  Nd1  1  0.45557000  0.69990000  0.85598000  1.0
  H  H2  1  0.48767000  0.46018000  0.71770000  1.0
  H  H3  1  0.51234000  0.53982000  0.28230000  1.0
  H  H4  1  0.31297000  0.23224000  0.46115000  1.0
  H  H5  1  0.68704000  0.76776000  0.53885000  1.0
  H  H6  1  0.59158000  0.14627000  0.52471000  1.0
  H  H7  1  0.40842000  0.85373000  0.47529000  1.0
  H  H8  1  0.65090000  0.99282000  0.16417000  1.0
  H  H9  1  0.34910000  0.00718000  0.83582000  1.0
  H  H10  1  0.46366000  0.98878000  0.25824000  1.0
  H  H11  1  0.53634000  0.01122000  0.74176000  1.0
  H  H12  1  0.17985000  0.32771000  0.11127000  1.0
  H  H13  1  0.82014000  0.67229000  0.88873000  1.0
  H  H14  1  0.29344000  0.20446000  0.02853000  1.0
  H  H15  1  0.70656000  0.79555000  0.97147000  1.0
  H  H16  1  0.73028000  0.55373000  0.09189000  1.0
  H  H17  1  0.26972000  0.44627000  0.90811000  1.0
  H  H18  1  0.83720000  0.43033000  0.19164000  1.0
  H  H19  1  0.16280000  0.56967000  0.80836000  1.0
  H  H20  1  0.76359000  0.45398000  0.40468000  1.0
  H  H21  1  0.23641000  0.54602000  0.59532000  1.0
  H  H22  1  0.04556000  0.21366000  0.78269000  1.0
  H  H23  1  0.95444000  0.78633000  0.21731000  1.0
  H  H24  1  0.11280000  0.02710000  0.25764000  1.0
  H  H25  1  0.88720000  0.97290000  0.74236000  1.0
  C  C26  1  0.80796000  0.33438000  0.72127000  1.0
  C  C27  1  0.19204000  0.66562000  0.27873000  1.0
  C  C28  1  0.72724000  0.40398000  0.61387000  1.0
  C  C29  1  0.27276000  0.59603000  0.38613000  1.0
  C  C30  1  0.82819000  0.40316000  0.48637000  1.0
  C  C31  1  0.17182000  0.59684000  0.51362000  1.0
  C  C32  1  0.00761000  0.34036000  0.46266000  1.0
  C  C33  1  0.99239000  0.65964000  0.53734000  1.0
  C  C34  1  0.08921000  0.27518000  0.57146000  1.0
  C  C35  1  0.91079000  0.72482000  0.42854000  1.0
  C  C36  1  0.98588000  0.26929000  0.69886000  1.0
  C  C37  1  0.01413000  0.73071000  0.30114000  1.0
  C  C38  1  0.71078000  0.32733000  0.86012000  1.0
  C  C39  1  0.28922000  0.67268000  0.13988000  1.0
  C  C40  1  0.10987000  0.33798000  0.32654000  1.0
  C  C41  1  0.89013000  0.66202000  0.67346000  1.0
  C  C42  1  0.82064000  0.04890000  0.55162000  1.0
  C  C43  1  0.17936000  0.95110000  0.44838000  1.0
  C  C44  1  0.88715000  0.06475000  0.41400000  1.0
  C  C45  1  0.11285000  0.93525000  0.58600000  1.0
  C  C46  1  0.06547000  0.01562000  0.36385000  1.0
  C  C47  1  0.93453000  0.98438000  0.63615000  1.0
  C  C48  1  0.77040000  0.13448000  0.32161000  1.0
  C  C49  1  0.22960000  0.86552000  0.67839000  1.0
  O  O50  1  0.73113000  0.21068000  0.94501000  1.0
  O  O51  1  0.26887000  0.78932000  0.05499000  1.0
  O  O52  1  0.60626000  0.44264000  0.89515000  1.0
  O  O53  1  0.39374000  0.55736000  0.10485000  1.0
  O  O54  1  0.27753000  0.29183000  0.31118000  1.0
  O  O55  1  0.72247000  0.70817000  0.68882000  1.0
  O  O56  1  0.03714000  0.37666000  0.22795000  1.0
  O  O57  1  0.96286000  0.62334000  0.77205000  1.0
  O  O58  1  0.55492000  0.46901000  0.62607000  1.0
  O  O59  1  0.44508000  0.53099000  0.37393000  1.0
  O  O60  1  0.26202000  0.21426000  0.55855000  1.0
  O  O61  1  0.73798000  0.78574000  0.44145000  1.0
  O  O62  1  0.60910000  0.19288000  0.36848000  1.0
  O  O63  1  0.39090000  0.80712000  0.63152000  1.0
  O  O64  1  0.82457000  0.14074000  0.19824000  1.0
  O  O65  1  0.17542000  0.85926000  0.80176000  1.0
  O  O66  1  0.64721000  0.09627000  0.60311000  1.0
  O  O67  1  0.35279000  0.90373000  0.39689000  1.0
  O  O68  1  0.52767000  0.04084000  0.17259000  1.0
  O  O69  1  0.47233000  0.95916000  0.82741000  1.0
  O  O70  1  0.28865000  0.30155000  0.03765000  1.0
  O  O71  1  0.71134000  0.69845000  0.96235000  1.0
  O  O72  1  0.72414000  0.46355000  0.16122000  1.0
  O  O73  1  0.27586000  0.53645000  0.83878000  1.0
