# generated using pymatgen
data_ThH22C22(NO5)2
_symmetry_space_group_name_H-M   'P 1'
_cell_length_a   9.62000000
_cell_length_b   9.61998000
_cell_length_c   13.47380000
_cell_angle_alpha   80.23870000
_cell_angle_beta   80.23890000
_cell_angle_gamma   74.54580000
_symmetry_Int_Tables_number   1
_chemical_formula_structural   ThH22C22(NO5)2
_chemical_formula_sum   'Th2 H44 C44 N4 O20'
_cell_volume   1174.24368493
_cell_formula_units_Z   2
loop_
 _symmetry_equiv_pos_site_id
 _symmetry_equiv_pos_as_xyz
  1  'x, y, z'
loop_
 _atom_site_type_symbol
 _atom_site_label
 _atom_site_symmetry_multiplicity
 _atom_site_fract_x
 _atom_site_fract_y
 _atom_site_fract_z
 _atom_site_occupancy
  Th  Th0  1  0.87464000  0.12536000  0.25000000  1.0
  Th  Th1  1  0.12536000  0.87464000  0.75000000  1.0
  H  H2  1  0.22954000  0.69259000  0.10569000  1.0
  H  H3  1  0.30741000  0.77046000  0.39431000  1.0
  H  H4  1  0.77046000  0.30741000  0.89431000  1.0
  H  H5  1  0.69259000  0.22954000  0.60569000  1.0
  H  H6  1  0.45022000  0.48288000  0.10307000  1.0
  H  H7  1  0.51712000  0.54978000  0.39692000  1.0
  H  H8  1  0.54978000  0.51712000  0.89693000  1.0
  H  H9  1  0.48288000  0.45022000  0.60308000  1.0
  H  H10  1  0.42765000  0.99596000  0.18680000  1.0
  H  H11  1  0.00404000  0.57235000  0.31321000  1.0
  H  H12  1  0.57236000  0.00404000  0.81320000  1.0
  H  H13  1  0.99596000  0.42764000  0.68680000  1.0
  H  H14  1  0.73963000  0.04611000  0.92382000  1.0
  H  H15  1  0.95389000  0.26037000  0.57618000  1.0
  H  H16  1  0.26037000  0.95389000  0.07618000  1.0
  H  H17  1  0.04611000  0.73963000  0.42382000  1.0
  H  H18  1  0.00942000  0.17751000  0.96821000  1.0
  H  H19  1  0.82249000  0.99058000  0.53179000  1.0
  H  H20  1  0.99058000  0.82250000  0.03179000  1.0
  H  H21  1  0.17751000  0.00942000  0.46821000  1.0
  H  H22  1  0.14054000  0.44271000  0.82549000  1.0
  H  H23  1  0.55729000  0.85945000  0.67451000  1.0
  H  H24  1  0.85946000  0.55729000  0.17451000  1.0
  H  H25  1  0.44271000  0.14054000  0.32549000  1.0
  H  H26  1  0.11829000  0.26299000  0.82586000  1.0
  H  H27  1  0.73701000  0.88171000  0.67414000  1.0
  H  H28  1  0.88171000  0.73701000  0.17414000  1.0
  H  H29  1  0.26299000  0.11829000  0.32586000  1.0
  H  H30  1  0.29416000  0.28972000  0.83062000  1.0
  H  H31  1  0.71028000  0.70584000  0.66938000  1.0
  H  H32  1  0.70584000  0.71028000  0.16938000  1.0
  H  H33  1  0.28972000  0.29416000  0.33062000  1.0
  H  H34  1  0.34365000  0.31415000  0.01547000  1.0
  H  H35  1  0.68585000  0.65635000  0.48453000  1.0
  H  H36  1  0.65635000  0.68585000  0.98453000  1.0
  H  H37  1  0.31415000  0.34365000  0.51547000  1.0
  H  H38  1  0.18046000  0.37062000  0.10019000  1.0
  H  H39  1  0.62938000  0.81954000  0.39981000  1.0
  H  H40  1  0.81954000  0.62938000  0.89981000  1.0
  H  H41  1  0.37062000  0.18046000  0.60019000  1.0
  H  H42  1  0.22268000  0.48659000  0.98434000  1.0
  H  H43  1  0.51341000  0.77732000  0.51566000  1.0
  H  H44  1  0.77732000  0.51341000  0.01566000  1.0
  H  H45  1  0.48659000  0.22268000  0.48434000  1.0
  C  C46  1  0.12817000  0.87182000  0.25000000  1.0
  C  C47  1  0.87183000  0.12818000  0.75000000  1.0
  C  C48  1  0.25608000  0.74392000  0.25000000  1.0
  C  C49  1  0.74392000  0.25608000  0.75000000  1.0
  C  C50  1  0.29402000  0.66157000  0.16865000  1.0
  C  C51  1  0.33843000  0.70598000  0.33134000  1.0
  C  C52  1  0.70598000  0.33843000  0.83134000  1.0
  C  C53  1  0.66157000  0.29402000  0.66866000  1.0
  C  C54  1  0.41607000  0.54493000  0.16729000  1.0
  C  C55  1  0.45508000  0.58393000  0.33270000  1.0
  C  C56  1  0.58393000  0.45507000  0.83271000  1.0
  C  C57  1  0.54492000  0.41607000  0.66729000  1.0
  C  C58  1  0.49578000  0.50423000  0.24999000  1.0
  C  C59  1  0.50423000  0.49578000  0.75000000  1.0
  C  C60  1  0.62364000  0.37636000  0.24999000  1.0
  C  C61  1  0.37636000  0.62364000  0.75001000  1.0
  C  C62  1  0.45813000  0.99777000  0.10509000  1.0
  C  C63  1  0.00223000  0.54187000  0.39491000  1.0
  C  C64  1  0.54187000  0.00223000  0.89491000  1.0
  C  C65  1  0.99777000  0.45813000  0.60509000  1.0
  C  C66  1  0.63393000  0.02656000  0.95566000  1.0
  C  C67  1  0.97344000  0.36607000  0.54434000  1.0
  C  C68  1  0.36607000  0.97344000  0.04434000  1.0
  C  C69  1  0.02656000  0.63393000  0.45566000  1.0
  C  C70  1  0.59264000  0.02477000  0.06059000  1.0
  C  C71  1  0.97523000  0.40736000  0.43941000  1.0
  C  C72  1  0.40736000  0.97523000  0.93941000  1.0
  C  C73  1  0.02477000  0.59264000  0.56059000  1.0
  C  C74  1  0.69218000  0.05305000  0.12388000  1.0
  C  C75  1  0.94695000  0.30783000  0.37612000  1.0
  C  C76  1  0.30782000  0.94695000  0.87612000  1.0
  C  C77  1  0.05305000  0.69218000  0.62388000  1.0
  C  C78  1  0.06383000  0.22381000  0.01543000  1.0
  C  C79  1  0.77619000  0.93617000  0.48457000  1.0
  C  C80  1  0.93617000  0.77619000  0.98457000  1.0
  C  C81  1  0.22381000  0.06383000  0.51543000  1.0
  C  C82  1  0.17688000  0.32728000  0.85524000  1.0
  C  C83  1  0.67272000  0.82312000  0.64476000  1.0
  C  C84  1  0.82312000  0.67272000  0.14476000  1.0
  C  C85  1  0.32728000  0.17688000  0.35524000  1.0
  C  C86  1  0.22850000  0.37425000  0.02034000  1.0
  C  C87  1  0.62574000  0.77150000  0.47966000  1.0
  C  C88  1  0.77150000  0.62575000  0.97966000  1.0
  C  C89  1  0.37426000  0.22850000  0.52034000  1.0
  N  N90  1  0.15011000  0.30716000  0.96599000  1.0
  N  N91  1  0.69284000  0.84989000  0.53401000  1.0
  N  N92  1  0.84989000  0.69284000  0.03401000  1.0
  N  N93  1  0.30716000  0.15011000  0.46599000  1.0
  O  O94  1  0.12126000  0.97399000  0.30185000  1.0
  O  O95  1  0.02600000  0.87874000  0.19814000  1.0
  O  O96  1  0.87874000  0.02601000  0.69815000  1.0
  O  O97  1  0.97400000  0.12126000  0.80186000  1.0
  O  O98  1  0.70216000  0.34715000  0.16591000  1.0
  O  O99  1  0.65285000  0.29784000  0.33408000  1.0
  O  O100  1  0.29784000  0.65285000  0.83409000  1.0
  O  O101  1  0.34715000  0.70216000  0.66592000  1.0
  O  O102  1  0.81351000  0.07958000  0.08234000  1.0
  O  O103  1  0.92042000  0.18649000  0.41766000  1.0
  O  O104  1  0.18649000  0.92042000  0.91766000  1.0
  O  O105  1  0.07958000  0.81351000  0.58234000  1.0
  O  O106  1  0.65477000  0.05096000  0.22019000  1.0
  O  O107  1  0.94904000  0.34523000  0.27981000  1.0
  O  O108  1  0.34523000  0.94904000  0.77981000  1.0
  O  O109  1  0.05096000  0.65477000  0.72019000  1.0
  O  O110  1  0.04525000  0.19753000  0.11135000  1.0
  O  O111  1  0.80247000  0.95475000  0.38865000  1.0
  O  O112  1  0.95475000  0.80247000  0.88865000  1.0
  O  O113  1  0.19753000  0.04525000  0.61135000  1.0
