# generated using pymatgen
data_TbZnH12C22N5O8
_symmetry_space_group_name_H-M   'P 1'
_cell_length_a   10.70100000
_cell_length_b   12.96350000
_cell_length_c   17.97690000
_cell_angle_alpha   90.00000000
_cell_angle_beta   90.70470000
_cell_angle_gamma   90.00000000
_symmetry_Int_Tables_number   1
_chemical_formula_structural   TbZnH12C22N5O8
_chemical_formula_sum   'Tb4 Zn4 H48 C88 N20 O32'
_cell_volume   2493.61033459
_cell_formula_units_Z   4
loop_
 _symmetry_equiv_pos_site_id
 _symmetry_equiv_pos_as_xyz
  1  'x, y, z'
loop_
 _atom_site_type_symbol
 _atom_site_label
 _atom_site_symmetry_multiplicity
 _atom_site_fract_x
 _atom_site_fract_y
 _atom_site_fract_z
 _atom_site_occupancy
  Tb  Tb0  1  0.56532000  0.85858000  0.49151000  1.0
  Tb  Tb1  1  0.93468000  0.35858000  0.00849000  1.0
  Tb  Tb2  1  0.43468000  0.14142000  0.50849000  1.0
  Tb  Tb3  1  0.06532000  0.64142000  0.99151000  1.0
  Zn  Zn4  1  0.76042000  0.84748000  0.72807000  1.0
  Zn  Zn5  1  0.73958000  0.34748000  0.77193000  1.0
  Zn  Zn6  1  0.23958000  0.15252000  0.27193000  1.0
  Zn  Zn7  1  0.26042000  0.65252000  0.22807000  1.0
  H  H8  1  0.99948000  0.97641000  0.79221000  1.0
  H  H9  1  0.50052000  0.47641000  0.70779000  1.0
  H  H10  1  0.00052000  0.02359000  0.20779000  1.0
  H  H11  1  0.49948000  0.52359000  0.29221000  1.0
  H  H12  1  0.15988000  0.00128000  0.89327000  1.0
  H  H13  1  0.34012000  0.50128000  0.60673000  1.0
  H  H14  1  0.84012000  0.99872000  0.10673000  1.0
  H  H15  1  0.65988000  0.49872000  0.39327000  1.0
  H  H16  1  0.12614000  0.14208000  0.98780000  1.0
  H  H17  1  0.37386000  0.64208000  0.51220000  1.0
  H  H18  1  0.87386000  0.85792000  0.01220000  1.0
  H  H19  1  0.62614000  0.35792000  0.48780000  1.0
  H  H20  1  0.77726000  0.20829000  0.90020000  1.0
  H  H21  1  0.72274000  0.70829000  0.59980000  1.0
  H  H22  1  0.22274000  0.79171000  0.09980000  1.0
  H  H23  1  0.27726000  0.29171000  0.40020000  1.0
  H  H24  1  0.79466000  0.25760000  0.37542000  1.0
  H  H25  1  0.70534000  0.75760000  0.12458000  1.0
  H  H26  1  0.20534000  0.74240000  0.62458000  1.0
  H  H27  1  0.29466000  0.24240000  0.87542000  1.0
  H  H28  1  0.00040000  0.28483000  0.31121000  1.0
  H  H29  1  0.49961000  0.78483000  0.18879000  1.0
  H  H30  1  0.99960000  0.71517000  0.68879000  1.0
  H  H31  1  0.50040000  0.21517000  0.81121000  1.0
  H  H32  1  0.12976000  0.99866000  0.37990000  1.0
  H  H33  1  0.37024000  0.49866000  0.12010000  1.0
  H  H34  1  0.87024000  0.00134000  0.62010000  1.0
  H  H35  1  0.62976000  0.50134000  0.87990000  1.0
  H  H36  1  0.92692000  0.95823000  0.44186000  1.0
  H  H37  1  0.57308000  0.45823000  0.05814000  1.0
  H  H38  1  0.07308000  0.04177000  0.55814000  1.0
  H  H39  1  0.42691000  0.54177000  0.94186000  1.0
  H  H40  1  0.78812000  0.76782000  0.25881000  1.0
  H  H41  1  0.71188000  0.26782000  0.24119000  1.0
  H  H42  1  0.21188000  0.23218000  0.74119000  1.0
  H  H43  1  0.28812000  0.73218000  0.75881000  1.0
  H  H44  1  0.97538000  0.70129000  0.18993000  1.0
  H  H45  1  0.52462000  0.20129000  0.31007000  1.0
  H  H46  1  0.02462000  0.29871000  0.81007000  1.0
  H  H47  1  0.47538000  0.79871000  0.68993000  1.0
  H  H48  1  0.16695000  0.64277000  0.38688000  1.0
  H  H49  1  0.33305000  0.14277000  0.11312000  1.0
  H  H50  1  0.83305000  0.35723000  0.61312000  1.0
  H  H51  1  0.66695000  0.85723000  0.88688000  1.0
  H  H52  1  0.98474000  0.70430000  0.46352000  1.0
  H  H53  1  0.51525000  0.20430000  0.03648000  1.0
  H  H54  1  0.01526000  0.29570000  0.53648000  1.0
  H  H55  1  0.48475000  0.79570000  0.96352000  1.0
  C  C56  1  0.61027000  0.98268000  0.62669000  1.0
  C  C57  1  0.88973000  0.48268000  0.87331000  1.0
  C  C58  1  0.38973000  0.01732000  0.37331000  1.0
  C  C59  1  0.11028000  0.51732000  0.12669000  1.0
  C  C60  1  0.66328000  0.05199000  0.68278000  1.0
  C  C61  1  0.83672000  0.55199000  0.81722000  1.0
  C  C62  1  0.33672000  0.94801000  0.31722000  1.0
  C  C63  1  0.16327000  0.44801000  0.18278000  1.0
  C  C64  1  0.65604000  0.15908000  0.69414000  1.0
  C  C65  1  0.84396000  0.65908000  0.80586000  1.0
  C  C66  1  0.34396000  0.84092000  0.30586000  1.0
  C  C67  1  0.15604000  0.34092000  0.19414000  1.0
  C  C68  1  0.61058000  0.24736000  0.64838000  1.0
  C  C69  1  0.88942000  0.74736000  0.85162000  1.0
  C  C70  1  0.38942000  0.75264000  0.35162000  1.0
  C  C71  1  0.11058000  0.25264000  0.14838000  1.0
  C  C72  1  0.77997000  0.09162000  0.77839000  1.0
  C  C73  1  0.72003000  0.59163000  0.72161000  1.0
  C  C74  1  0.22003000  0.90838000  0.22161000  1.0
  C  C75  1  0.27997000  0.40837000  0.27839000  1.0
  C  C76  1  0.87482000  0.09125000  0.83767000  1.0
  C  C77  1  0.62518000  0.59125000  0.66233000  1.0
  C  C78  1  0.12517000  0.90875000  0.16233000  1.0
  C  C79  1  0.37483000  0.40875000  0.33767000  1.0
  C  C80  1  0.98457000  0.03222000  0.83629000  1.0
  C  C81  1  0.51543000  0.53222000  0.66371000  1.0
  C  C82  1  0.01543000  0.96778000  0.16371000  1.0
  C  C83  1  0.48457000  0.46778000  0.33629000  1.0
  C  C84  1  0.07466000  0.04729000  0.89192000  1.0
  C  C85  1  0.42534000  0.54729000  0.60808000  1.0
  C  C86  1  0.92534000  0.95271000  0.10808000  1.0
  C  C87  1  0.57466000  0.45271000  0.39192000  1.0
  C  C88  1  0.05654000  0.12410000  0.94493000  1.0
  C  C89  1  0.44346000  0.62410000  0.55507000  1.0
  C  C90  1  0.94346000  0.87590000  0.05507000  1.0
  C  C91  1  0.55654000  0.37590000  0.44493000  1.0
  C  C92  1  0.86234000  0.16285000  0.89531000  1.0
  C  C93  1  0.63766000  0.66285000  0.60469000  1.0
  C  C94  1  0.13766000  0.83715000  0.10469000  1.0
  C  C95  1  0.36234000  0.33715000  0.39531000  1.0
  C  C96  1  0.72250000  0.07922000  0.44915000  1.0
  C  C97  1  0.77750000  0.57922000  0.05085000  1.0
  C  C98  1  0.27750000  0.92078000  0.55085000  1.0
  C  C99  1  0.22250000  0.42078000  0.94915000  1.0
  C  C100  1  0.84553000  0.10490000  0.41287000  1.0
  C  C101  1  0.65447000  0.60490000  0.08713000  1.0
  C  C102  1  0.15447000  0.89510000  0.58713000  1.0
  C  C103  1  0.34553000  0.39510000  0.91287000  1.0
  C  C104  1  0.86722000  0.19856000  0.37670000  1.0
  C  C105  1  0.63278000  0.69856000  0.12330000  1.0
  C  C106  1  0.13278000  0.80144000  0.62330000  1.0
  C  C107  1  0.36721000  0.30144000  0.87670000  1.0
  C  C108  1  0.98128000  0.21391000  0.34170000  1.0
  C  C109  1  0.51872000  0.71391000  0.15830000  1.0
  C  C110  1  0.01872000  0.78609000  0.65830000  1.0
  C  C111  1  0.48128000  0.28609000  0.84170000  1.0
  C  C112  1  0.05330000  0.05396000  0.37920000  1.0
  C  C113  1  0.44670000  0.55396000  0.12080000  1.0
  C  C114  1  0.94670000  0.94604000  0.62080000  1.0
  C  C115  1  0.55330000  0.44604000  0.87920000  1.0
  C  C116  1  0.94140000  0.03172000  0.41399000  1.0
  C  C117  1  0.55860000  0.53172000  0.08601000  1.0
  C  C118  1  0.05860000  0.96828000  0.58601000  1.0
  C  C119  1  0.44140000  0.46828000  0.91399000  1.0
  C  C120  1  0.76443000  0.78184000  0.40905000  1.0
  C  C121  1  0.73557000  0.28184000  0.09095000  1.0
  C  C122  1  0.23557000  0.21817000  0.59095000  1.0
  C  C123  1  0.26443000  0.71816000  0.90905000  1.0
  C  C124  1  0.87368000  0.74123000  0.36616000  1.0
  C  C125  1  0.62632000  0.24124000  0.13384000  1.0
  C  C126  1  0.12632000  0.25877000  0.63384000  1.0
  C  C127  1  0.37368000  0.75876000  0.86616000  1.0
  C  C128  1  0.87073000  0.73997000  0.28847000  1.0
  C  C129  1  0.62927000  0.23997000  0.21153000  1.0
  C  C130  1  0.12927000  0.26003000  0.71153000  1.0
  C  C131  1  0.37073000  0.76003000  0.78847000  1.0
  C  C132  1  0.97440000  0.70378000  0.25051000  1.0
  C  C133  1  0.52561000  0.20378000  0.24949000  1.0
  C  C134  1  0.02561000  0.29622000  0.74949000  1.0
  C  C135  1  0.47439000  0.79622000  0.75051000  1.0
  C  C136  1  0.08070000  0.67044000  0.36081000  1.0
  C  C137  1  0.41930000  0.17044000  0.13919000  1.0
  C  C138  1  0.91930000  0.32956000  0.63919000  1.0
  C  C139  1  0.58070000  0.82956000  0.86081000  1.0
  C  C140  1  0.98070000  0.70461000  0.40293000  1.0
  C  C141  1  0.51930000  0.20461000  0.09707000  1.0
  C  C142  1  0.01930000  0.29539000  0.59707000  1.0
  C  C143  1  0.48070000  0.79539000  0.90293000  1.0
  N  N144  1  0.74263000  0.01115000  0.73590000  1.0
  N  N145  1  0.75737000  0.51115000  0.76410000  1.0
  N  N146  1  0.25737000  0.98885000  0.26410000  1.0
  N  N147  1  0.24263000  0.48885000  0.23590000  1.0
  N  N148  1  0.72738000  0.18200000  0.75559000  1.0
  N  N149  1  0.77262000  0.68200000  0.74441000  1.0
  N  N150  1  0.27262000  0.81800000  0.24441000  1.0
  N  N151  1  0.22738000  0.31800000  0.25558000  1.0
  N  N152  1  0.95207000  0.18192000  0.94607000  1.0
  N  N153  1  0.54793000  0.68192000  0.55393000  1.0
  N  N154  1  0.04793000  0.81808000  0.05393000  1.0
  N  N155  1  0.45207000  0.31808000  0.44607000  1.0
  N  N156  1  0.07314000  0.14282000  0.34242000  1.0
  N  N157  1  0.42686000  0.64282000  0.15759000  1.0
  N  N158  1  0.92686000  0.85718000  0.65759000  1.0
  N  N159  1  0.57314000  0.35718000  0.84241000  1.0
  N  N160  1  0.07854000  0.67069000  0.28586000  1.0
  N  N161  1  0.42146000  0.17069000  0.21414000  1.0
  N  N162  1  0.92146000  0.32931000  0.71414000  1.0
  N  N163  1  0.57854000  0.82931000  0.78586000  1.0
  O  O164  1  0.64738000  0.88814000  0.62563000  1.0
  O  O165  1  0.85262000  0.38814000  0.87437000  1.0
  O  O166  1  0.35262000  0.11186000  0.37437000  1.0
  O  O167  1  0.14738000  0.61186000  0.12563000  1.0
  O  O168  1  0.53145000  0.01308000  0.57778000  1.0
  O  O169  1  0.96855000  0.51308000  0.92222000  1.0
  O  O170  1  0.46855000  0.98692000  0.42222000  1.0
  O  O171  1  0.03145000  0.48692000  0.07778000  1.0
  O  O172  1  0.56157000  0.23296000  0.58494000  1.0
  O  O173  1  0.93843000  0.73296000  0.91506000  1.0
  O  O174  1  0.43843000  0.76704000  0.41506000  1.0
  O  O175  1  0.06157000  0.26704000  0.08494000  1.0
  O  O176  1  0.63254000  0.33713000  0.67442000  1.0
  O  O177  1  0.86746000  0.83713000  0.82558000  1.0
  O  O178  1  0.36746000  0.66287000  0.32558000  1.0
  O  O179  1  0.13254000  0.16287000  0.17442000  1.0
  O  O180  1  0.71710000  0.99012000  0.47817000  1.0
  O  O181  1  0.78290000  0.49012000  0.02183000  1.0
  O  O182  1  0.28290000  0.00988000  0.52183000  1.0
  O  O183  1  0.21710000  0.50988000  0.97817000  1.0
  O  O184  1  0.63694000  0.14700000  0.44746000  1.0
  O  O185  1  0.86306000  0.64699000  0.05254000  1.0
  O  O186  1  0.36306000  0.85300000  0.55254000  1.0
  O  O187  1  0.13694000  0.35300000  0.94746000  1.0
  O  O188  1  0.76460000  0.77008000  0.47968000  1.0
  O  O189  1  0.73540000  0.27008000  0.02032000  1.0
  O  O190  1  0.23540000  0.22992000  0.52032000  1.0
  O  O191  1  0.26460000  0.72992000  0.97968000  1.0
  O  O192  1  0.67638000  0.82689000  0.37391000  1.0
  O  O193  1  0.82361000  0.32689000  0.12609000  1.0
  O  O194  1  0.32362000  0.17311000  0.62609000  1.0
  O  O195  1  0.17639000  0.67311000  0.87391000  1.0
