# generated using pymatgen
data_SnH18C15S2(NO)2
_symmetry_space_group_name_H-M   'P 1'
_cell_length_a   9.84693000
_cell_length_b   13.61790000
_cell_length_c   14.44220000
_cell_angle_alpha   83.15930000
_cell_angle_beta   78.01060000
_cell_angle_gamma   88.52360000
_symmetry_Int_Tables_number   1
_chemical_formula_structural   SnH18C15S2(NO)2
_chemical_formula_sum   'Sn4 H72 C60 S8 N8 O8'
_cell_volume   1880.88756565
_cell_formula_units_Z   4
loop_
 _symmetry_equiv_pos_site_id
 _symmetry_equiv_pos_as_xyz
  1  'x, y, z'
loop_
 _atom_site_type_symbol
 _atom_site_label
 _atom_site_symmetry_multiplicity
 _atom_site_fract_x
 _atom_site_fract_y
 _atom_site_fract_z
 _atom_site_occupancy
  Sn  Sn0  1  0.92538000  0.77481000  0.95833000  1.0
  Sn  Sn1  1  0.07465000  0.22516000  0.04170000  1.0
  Sn  Sn2  1  0.40275000  0.72897000  0.04619000  1.0
  Sn  Sn3  1  0.59726000  0.27102000  0.95380000  1.0
  H  H4  1  0.71707000  0.85479000  0.08444000  1.0
  H  H5  1  0.28292000  0.14521000  0.91557000  1.0
  H  H6  1  0.86040000  0.93816000  0.04625000  1.0
  H  H7  1  0.13959000  0.06184000  0.95376000  1.0
  H  H8  1  0.74149000  0.92493000  0.96960000  1.0
  H  H9  1  0.25855000  0.07503000  0.03039000  1.0
  H  H10  1  0.10756000  0.91941000  0.87100000  1.0
  H  H11  1  0.89245000  0.08056000  0.12903000  1.0
  H  H12  1  0.19773000  0.80413000  0.87026000  1.0
  H  H13  1  0.80229000  0.19585000  0.12975000  1.0
  H  H14  1  0.08788000  0.83801000  0.78650000  1.0
  H  H15  1  0.91209000  0.16196000  0.21353000  1.0
  H  H16  1  0.99430000  0.58344000  0.94839000  1.0
  H  H17  1  0.00568000  0.41652000  0.05163000  1.0
  H  H18  1  0.92917000  0.60062000  0.07028000  1.0
  H  H19  1  0.07083000  0.39931000  0.92974000  1.0
  H  H20  1  0.81098000  0.59327000  0.99188000  1.0
  H  H21  1  0.18901000  0.40672000  0.00815000  1.0
  H  H22  1  0.70454000  0.73397000  0.70203000  1.0
  H  H23  1  0.29552000  0.26604000  0.29800000  1.0
  H  H24  1  0.73646000  0.40072000  0.73037000  1.0
  H  H25  1  0.26353000  0.59930000  0.26962000  1.0
  H  H26  1  0.85242000  0.35369000  0.57170000  1.0
  H  H27  1  0.14755000  0.64631000  0.42829000  1.0
  H  H28  1  0.87966000  0.48310000  0.42870000  1.0
  H  H29  1  0.12031000  0.51690000  0.57128000  1.0
  H  H30  1  0.78527000  0.65288000  0.45203000  1.0
  H  H31  1  0.21472000  0.34712000  0.54795000  1.0
  H  H32  1  0.30718000  0.94628000  0.72203000  1.0
  H  H33  1  0.69280000  0.05370000  0.27799000  1.0
  H  H34  1  0.36924000  0.12508000  0.70552000  1.0
  H  H35  1  0.63071000  0.87490000  0.29451000  1.0
  H  H36  1  0.60635000  0.17109000  0.72997000  1.0
  H  H37  1  0.39361000  0.82892000  0.27004000  1.0
  H  H38  1  0.76632000  0.03540000  0.77005000  1.0
  H  H39  1  0.23367000  0.96461000  0.22994000  1.0
  H  H40  1  0.44550000  0.92230000  0.05148000  1.0
  H  H41  1  0.55450000  0.07769000  0.94853000  1.0
  H  H42  1  0.43560000  0.90422000  0.93254000  1.0
  H  H43  1  0.56439000  0.09579000  0.06746000  1.0
  H  H44  1  0.27986000  0.90564000  0.02218000  1.0
  H  H45  1  0.72014000  0.09435000  0.97783000  1.0
  H  H46  1  0.26717000  0.64194000  0.92902000  1.0
  H  H47  1  0.73282000  0.35807000  0.07097000  1.0
  H  H48  1  0.39842000  0.56103000  0.96368000  1.0
  H  H49  1  0.60157000  0.43898000  0.03630000  1.0
  H  H50  1  0.23782000  0.57540000  0.04612000  1.0
  H  H51  1  0.76217000  0.42461000  0.95386000  1.0
  H  H52  1  0.54269000  0.59224000  0.14249000  1.0
  H  H53  1  0.45729000  0.40776000  0.85752000  1.0
  H  H54  1  0.62968000  0.70776000  0.12635000  1.0
  H  H55  1  0.37031000  0.29224000  0.87365000  1.0
  H  H56  1  0.47716000  0.68473000  0.21812000  1.0
  H  H57  1  0.52283000  0.31527000  0.78188000  1.0
  H  H58  1  0.02725000  0.72555000  0.30844000  1.0
  H  H59  1  0.97277000  0.27447000  0.69156000  1.0
  H  H60  1  0.62129000  0.55895000  0.30016000  1.0
  H  H61  1  0.37873000  0.44106000  0.69981000  1.0
  H  H62  1  0.65624000  0.37614000  0.30767000  1.0
  H  H63  1  0.34378000  0.62388000  0.69231000  1.0
  H  H64  1  0.90125000  0.30977000  0.26776000  1.0
  H  H65  1  0.09876000  0.69024000  0.73223000  1.0
  H  H66  1  0.09749000  0.42985000  0.22338000  1.0
  H  H67  1  0.90253000  0.57017000  0.77662000  1.0
  H  H68  1  0.81139000  0.01523000  0.39836000  1.0
  H  H69  1  0.18861000  0.98478000  0.60163000  1.0
  H  H70  1  0.77106000  0.00439000  0.57599000  1.0
  H  H71  1  0.22895000  0.99563000  0.42399000  1.0
  H  H72  1  0.87088000  0.85988000  0.66593000  1.0
  H  H73  1  0.12913000  0.14015000  0.33405000  1.0
  H  H74  1  0.00804000  0.73353000  0.57241000  1.0
  H  H75  1  0.99195000  0.26648000  0.42758000  1.0
  C  C76  1  0.79431000  0.88641000  0.02308000  1.0
  C  C77  1  0.20570000  0.11357000  0.97693000  1.0
  C  C78  1  0.10163000  0.84164000  0.85940000  1.0
  C  C79  1  0.89838000  0.15833000  0.14062000  1.0
  C  C80  1  0.91321000  0.61863000  0.99758000  1.0
  C  C81  1  0.08680000  0.38134000  0.00244000  1.0
  C  C82  1  0.69467000  0.74038000  0.85390000  1.0
  C  C83  1  0.30535000  0.25961000  0.14613000  1.0
  C  C84  1  0.63279000  0.71545000  0.77064000  1.0
  C  C85  1  0.36723000  0.28455000  0.22937000  1.0
  C  C86  1  0.69552000  0.55104000  0.67170000  1.0
  C  C87  1  0.30448000  0.44897000  0.32829000  1.0
  C  C88  1  0.74400000  0.45359000  0.66666667  1.0
  C  C89  1  0.25599000  0.54643000  0.33333333  1.0
  C  C90  1  0.81007000  0.42810000  0.57792000  1.0
  C  C91  1  0.18990000  0.57190000  0.42206000  1.0
  C  C92  1  0.82589000  0.49977000  0.49876000  1.0
  C  C93  1  0.17409000  0.50022000  0.50123000  1.0
  C  C94  1  0.77413000  0.59443000  0.51182000  1.0
  C  C95  1  0.22585000  0.40557000  0.48816000  1.0
  C  C96  1  0.50765000  0.89825000  0.75155000  1.0
  C  C97  1  0.49236000  0.10175000  0.24845000  1.0
  C  C98  1  0.40881000  0.96903000  0.73026000  1.0
  C  C99  1  0.59117000  0.03095000  0.26976000  1.0
  C  C100  1  0.44367000  0.06840000  0.72201000  1.0
  C  C101  1  0.55629000  0.93159000  0.27801000  1.0
  C  C102  1  0.57418000  0.09436000  0.73560000  1.0
  C  C103  1  0.42579000  0.90564000  0.26441000  1.0
  C  C104  1  0.66378000  0.01864000  0.75802000  1.0
  C  C105  1  0.33621000  0.98137000  0.24197000  1.0
  C  C106  1  0.38948000  0.88469000  0.00788000  1.0
  C  C107  1  0.61051000  0.11531000  0.99212000  1.0
  C  C108  1  0.31577000  0.61310000  0.98828000  1.0
  C  C109  1  0.68423000  0.38690000  0.01171000  1.0
  C  C110  1  0.52797000  0.67194000  0.14563000  1.0
  C  C111  1  0.47202000  0.32806000  0.85437000  1.0
  C  C112  1  0.10013000  0.75697000  0.15584000  1.0
  C  C113  1  0.89988000  0.24304000  0.84416000  1.0
  C  C114  1  0.98923000  0.76299000  0.24714000  1.0
  C  C115  1  0.01079000  0.23702000  0.75286000  1.0
  C  C116  1  0.84280000  0.58877000  0.25602000  1.0
  C  C117  1  0.15722000  0.41124000  0.74397000  1.0
  C  C118  1  0.72502000  0.52751000  0.28269000  1.0
  C  C119  1  0.27499000  0.47250000  0.71729000  1.0
  C  C120  1  0.74514000  0.42590000  0.28710000  1.0
  C  C121  1  0.25488000  0.57411000  0.71289000  1.0
  C  C122  1  0.88051000  0.38880000  0.26582000  1.0
  C  C123  1  0.11951000  0.61121000  0.73417000  1.0
  C  C124  1  0.99037000  0.45572000  0.24102000  1.0
  C  C125  1  0.00965000  0.54428000  0.75897000  1.0
  C  C126  1  0.93400000  0.88041000  0.39393000  1.0
  C  C127  1  0.06600000  0.11961000  0.60606000  1.0
  C  C128  1  0.85486000  0.95468000  0.43948000  1.0
  C  C129  1  0.14514000  0.04534000  0.56050000  1.0
  C  C130  1  0.83244000  0.94810000  0.53829000  1.0
  C  C131  1  0.16757000  0.05192000  0.46169000  1.0
  C  C132  1  0.88836000  0.86838000  0.58836000  1.0
  C  C133  1  0.11165000  0.13164000  0.41162000  1.0
  C  C134  1  0.96439000  0.79814000  0.53627000  1.0
  C  C135  1  0.03560000  0.20188000  0.46372000  1.0
  S  S136  1  0.61236000  0.58182000  0.78621000  1.0
  S  S137  1  0.38767000  0.41819000  0.21379000  1.0
  S  S138  1  0.46538000  0.77144000  0.76355000  1.0
  S  S139  1  0.53464000  0.22855000  0.23645000  1.0
  S  S140  1  0.81731000  0.71805000  0.24751000  1.0
  S  S141  1  0.18271000  0.28196000  0.75249000  1.0
  S  S142  1  0.96527000  0.89221000  0.26707000  1.0
  S  S143  1  0.03474000  0.10780000  0.73292000  1.0
  N  N144  1  0.70937000  0.62034000  0.59694000  1.0
  N  N145  1  0.29063000  0.37967000  0.40304000  1.0
  N  N146  1  0.63198000  0.92225000  0.76573000  1.0
  N  N147  1  0.36803000  0.07775000  0.23426000  1.0
  N  N148  1  0.97296000  0.55439000  0.23559000  1.0
  N  N149  1  0.02706000  0.44562000  0.76441000  1.0
  N  N150  1  0.98810000  0.80381000  0.44074000  1.0
  N  N151  1  0.01189000  0.19621000  0.55925000  1.0
  O  O152  1  0.82568000  0.75701000  0.83380000  1.0
  O  O153  1  0.17432000  0.24298000  0.16625000  1.0
  O  O154  1  0.62141000  0.73616000  0.93686000  1.0
  O  O155  1  0.37858000  0.26383000  0.06316000  1.0
  O  O156  1  0.22171000  0.73600000  0.17140000  1.0
  O  O157  1  0.77831000  0.26400000  0.82861000  1.0
  O  O158  1  0.07186000  0.77628000  0.07474000  1.0
  O  O159  1  0.92817000  0.22373000  0.92526000  1.0
