# generated using pymatgen
data_U2H27C30N3Cl2O11
_symmetry_space_group_name_H-M   'P 1'
_cell_length_a   11.14620000
_cell_length_b   11.78250000
_cell_length_c   12.95440000
_cell_angle_alpha   87.55770000
_cell_angle_beta   78.23740000
_cell_angle_gamma   78.25390000
_symmetry_Int_Tables_number   1
_chemical_formula_structural   U2H27C30N3Cl2O11
_chemical_formula_sum   'U4 H54 C60 N6 Cl4 O22'
_cell_volume   1630.69705998
_cell_formula_units_Z   2
loop_
 _symmetry_equiv_pos_site_id
 _symmetry_equiv_pos_as_xyz
  1  'x, y, z'
loop_
 _atom_site_type_symbol
 _atom_site_label
 _atom_site_symmetry_multiplicity
 _atom_site_fract_x
 _atom_site_fract_y
 _atom_site_fract_z
 _atom_site_occupancy
  U  U0  1  0.96438000  0.24871000  0.34387000  1.0
  U  U1  1  0.03562000  0.75129000  0.65613000  1.0
  U  U2  1  0.86690000  0.07332000  0.60232000  1.0
  U  U3  1  0.13310000  0.92668000  0.39768000  1.0
  H  H4  1  0.47188000  0.46650000  0.60470000  1.0
  H  H5  1  0.52812000  0.53350000  0.39530000  1.0
  H  H6  1  0.44522000  0.63828000  0.72010000  1.0
  H  H7  1  0.55478000  0.36172000  0.27990000  1.0
  H  H8  1  0.82986000  0.58818000  0.70177000  1.0
  H  H9  1  0.17014000  0.41182000  0.29823000  1.0
  H  H10  1  0.86882000  0.41196000  0.58602000  1.0
  H  H11  1  0.13118000  0.58804000  0.41398000  1.0
  H  H12  1  0.37221000  0.32938000  0.79370000  1.0
  H  H13  1  0.62778000  0.67063000  0.20630000  1.0
  H  H14  1  0.38999000  0.11329000  0.78246000  1.0
  H  H15  1  0.61001000  0.88671000  0.21754000  1.0
  H  H16  1  0.17819000  0.15268000  0.54901000  1.0
  H  H17  1  0.82181000  0.84732000  0.45099000  1.0
  H  H18  1  0.14828000  0.36866000  0.55406000  1.0
  H  H19  1  0.85172000  0.63134000  0.44593000  1.0
  H  H20  1  0.19136000  0.47177000  0.91787000  1.0
  H  H21  1  0.80864000  0.52823000  0.08213000  1.0
  H  H22  1  0.23258000  0.67126000  0.88659000  1.0
  H  H23  1  0.76743000  0.32874000  0.11341000  1.0
  H  H24  1  0.08728000  0.75992000  0.20308000  1.0
  H  H25  1  0.91272000  0.24008000  0.79692000  1.0
  H  H26  1  0.02867000  0.56565000  0.24134000  1.0
  H  H27  1  0.97133000  0.43434000  0.75865000  1.0
  H  H28  1  0.65440000  0.67770000  0.85928000  1.0
  H  H29  1  0.34560000  0.32229000  0.14072000  1.0
  H  H30  1  0.69580000  0.76626000  0.75071000  1.0
  H  H31  1  0.30420000  0.23375000  0.24929000  1.0
  H  H32  1  0.39587000  0.69920000  0.06553000  1.0
  H  H33  1  0.60413000  0.30080000  0.93447000  1.0
  H  H34  1  0.54959000  0.71005000  0.00807000  1.0
  H  H35  1  0.45041000  0.28995000  0.99193000  1.0
  H  H36  1  0.48125000  0.60425000  0.96116000  1.0
  H  H37  1  0.51875000  0.39574000  0.03884000  1.0
  H  H38  1  0.24803000  0.84220000  0.10051000  1.0
  H  H39  1  0.75197000  0.15780000  0.89949000  1.0
  H  H40  1  0.12055000  0.90076000  0.04034000  1.0
  H  H41  1  0.87945000  0.09924000  0.95967000  1.0
  H  H42  1  0.09971000  0.05086000  0.80742000  1.0
  H  H43  1  0.90029000  0.94914000  0.19258000  1.0
  H  H44  1  0.11272000  0.05945000  0.94070000  1.0
  H  H45  1  0.88728000  0.94055000  0.05931000  1.0
  H  H46  1  0.05203000  0.94481000  0.89615000  1.0
  H  H47  1  0.94797000  0.05519000  0.10385000  1.0
  H  H48  1  0.18798000  0.99225000  0.66666667  1.0
  H  H49  1  0.81202000  0.00775000  0.33333333  1.0
  H  H50  1  0.33821000  0.96938000  0.58934000  1.0
  H  H51  1  0.66178000  0.03062000  0.41066000  1.0
  H  H52  1  0.63782000  0.84299000  0.62830000  1.0
  H  H53  1  0.36218000  0.15700000  0.37170000  1.0
  H  H54  1  0.53276000  0.96644000  0.60148000  1.0
  H  H55  1  0.46724000  0.03356000  0.39852000  1.0
  H  H56  1  0.51154000  0.82739000  0.56858000  1.0
  H  H57  1  0.48846000  0.17261000  0.43143000  1.0
  C  C58  1  0.68618000  0.31993000  0.52111000  1.0
  C  C59  1  0.31383000  0.68007000  0.47889000  1.0
  C  C60  1  0.67151000  0.42544000  0.58840000  1.0
  C  C61  1  0.32849000  0.57456000  0.41160000  1.0
  C  C62  1  0.55266000  0.49089000  0.62529000  1.0
  C  C63  1  0.44734000  0.50911000  0.37471000  1.0
  C  C64  1  0.53685000  0.58603000  0.68925000  1.0
  C  C65  1  0.46315000  0.41397000  0.31074000  1.0
  C  C66  1  0.75487000  0.55571000  0.67825000  1.0
  C  C67  1  0.24513000  0.44429000  0.32175000  1.0
  C  C68  1  0.77432000  0.45993000  0.61493000  1.0
  C  C69  1  0.22568000  0.54007000  0.38507000  1.0
  C  C70  1  0.23152000  0.49664000  0.69102000  1.0
  C  C71  1  0.76848000  0.50336000  0.30898000  1.0
  C  C72  1  0.25467000  0.36606000  0.67768000  1.0
  C  C73  1  0.74533000  0.63394000  0.32232000  1.0
  C  C74  1  0.32633000  0.29323000  0.74019000  1.0
  C  C75  1  0.67366000  0.70677000  0.25981000  1.0
  C  C76  1  0.33767000  0.17453000  0.73462000  1.0
  C  C77  1  0.66233000  0.82547000  0.26538000  1.0
  C  C78  1  0.21703000  0.19682000  0.60238000  1.0
  C  C79  1  0.78297000  0.80318000  0.39762000  1.0
  C  C80  1  0.20251000  0.31599000  0.60612000  1.0
  C  C81  1  0.79749000  0.68401000  0.39388000  1.0
  C  C82  1  0.09086000  0.37710000  0.10356000  1.0
  C  C83  1  0.90913000  0.62290000  0.89644000  1.0
  C  C84  1  0.11079000  0.50099000  0.08328000  1.0
  C  C85  1  0.88921000  0.49901000  0.91672000  1.0
  C  C86  1  0.16647000  0.53292000  0.98285000  1.0
  C  C87  1  0.83353000  0.46708000  0.01715000  1.0
  C  C88  1  0.19173000  0.64315000  0.96459000  1.0
  C  C89  1  0.80828000  0.35685000  0.03540000  1.0
  C  C90  1  0.10657000  0.69329000  0.14241000  1.0
  C  C91  1  0.89343000  0.30671000  0.85759000  1.0
  C  C92  1  0.07654000  0.58518000  0.16273000  1.0
  C  C93  1  0.92346000  0.41482000  0.83726000  1.0
  C  C94  1  0.49657000  0.79020000  0.81137000  1.0
  C  C95  1  0.50343000  0.20980000  0.18863000  1.0
  C  C96  1  0.41674000  0.77942000  0.90934000  1.0
  C  C97  1  0.58326000  0.22058000  0.09066000  1.0
  C  C98  1  0.29456000  0.84723000  0.92925000  1.0
  C  C99  1  0.70544000  0.15277000  0.07075000  1.0
  C  C100  1  0.25258000  0.92557000  0.85269000  1.0
  C  C101  1  0.74742000  0.07443000  0.14731000  1.0
  C  C102  1  0.33308000  0.93311000  0.75474000  1.0
  C  C103  1  0.66692000  0.06689000  0.24526000  1.0
  C  C104  1  0.45579000  0.86726000  0.73365000  1.0
  C  C105  1  0.54420000  0.13274000  0.26635000  1.0
  C  C106  1  0.62535000  0.71616000  0.78766000  1.0
  C  C107  1  0.37466000  0.28384000  0.21234000  1.0
  C  C108  1  0.46218000  0.69403000  0.99014000  1.0
  C  C109  1  0.53782000  0.30596000  0.00986000  1.0
  C  C110  1  0.20626000  0.83448000  0.03159000  1.0
  C  C111  1  0.79374000  0.16552000  0.96841000  1.0
  C  C112  1  0.12276000  0.99910000  0.87540000  1.0
  C  C113  1  0.87724000  0.00090000  0.12460000  1.0
  C  C114  1  0.28403000  0.00106000  0.66640000  1.0
  C  C115  1  0.71597000  0.99894000  0.33361000  1.0
  C  C116  1  0.53892000  0.87611000  0.62777000  1.0
  C  C117  1  0.46107000  0.12389000  0.37224000  1.0
  N  N118  1  0.63744000  0.61629000  0.71521000  1.0
  N  N119  1  0.36257000  0.38371000  0.28479000  1.0
  N  N120  1  0.16604000  0.71957000  0.04481000  1.0
  N  N121  1  0.83396000  0.28043000  0.95519000  1.0
  N  N122  1  0.28099000  0.12862000  0.66826000  1.0
  N  N123  1  0.71901000  0.87138000  0.33174000  1.0
  Cl  Cl124  1  0.15931000  0.08272000  0.22627000  1.0
  Cl  Cl125  1  0.84069000  0.91728000  0.77373000  1.0
  Cl  Cl126  1  0.66597000  0.19751000  0.74119000  1.0
  Cl  Cl127  1  0.33403000  0.80249000  0.25881000  1.0
  O  O128  1  0.79925000  0.25488000  0.50457000  1.0
  O  O129  1  0.20075000  0.74512000  0.49543000  1.0
  O  O130  1  0.59660000  0.30162000  0.48684000  1.0
  O  O131  1  0.40341000  0.69838000  0.51316000  1.0
  O  O132  1  0.05613000  0.35420000  0.20267000  1.0
  O  O133  1  0.94387000  0.64580000  0.79733000  1.0
  O  O134  1  0.11127000  0.31009000  0.02799000  1.0
  O  O135  1  0.88872000  0.68992000  0.97200000  1.0
  O  O136  1  0.15642000  0.55510000  0.63541000  1.0
  O  O137  1  0.84358000  0.44490000  0.36458000  1.0
  O  O138  1  0.28394000  0.53507000  0.75429000  1.0
  O  O139  1  0.71606000  0.46493000  0.24571000  1.0
  O  O140  1  0.06873000  0.29549000  0.41842000  1.0
  O  O141  1  0.93127000  0.70452000  0.58157000  1.0
  O  O142  1  0.86046000  0.21021000  0.26632000  1.0
  O  O143  1  0.13953000  0.78979000  0.73368000  1.0
  O  O144  1  0.96938000  0.14247000  0.66295000  1.0
  O  O145  1  0.03063000  0.85753000  0.33705000  1.0
  O  O146  1  0.75731000  0.00661000  0.55113000  1.0
  O  O147  1  0.24269000  0.99339000  0.44887000  1.0
  O  O148  1  0.98232000  0.08442000  0.43494000  1.0
  O  O149  1  0.01768000  0.91558000  0.56505000  1.0
