# generated using pymatgen
data_KCrH12C6(NO3)4
_symmetry_space_group_name_H-M   'P 1'
_cell_length_a   4.72442000
_cell_length_b   7.31779000
_cell_length_c   10.85201495
_cell_angle_alpha   76.27970783
_cell_angle_beta   79.81395491
_cell_angle_gamma   85.52420000
_symmetry_Int_Tables_number   1
_chemical_formula_structural   KCrH12C6(NO3)4
_chemical_formula_sum   'K1 Cr1 H12 C6 N4 O12'
_cell_volume   358.47333621
_cell_formula_units_Z   1
loop_
 _symmetry_equiv_pos_site_id
 _symmetry_equiv_pos_as_xyz
  1  'x, y, z'
loop_
 _atom_site_type_symbol
 _atom_site_label
 _atom_site_symmetry_multiplicity
 _atom_site_fract_x
 _atom_site_fract_y
 _atom_site_fract_z
 _atom_site_occupancy
  K  K0  1  0.50000000  1.00000000  0.00000000  1.0
  Cr  Cr1  1  0.00000000  0.50000000  0.50000000  1.0
  H  H2  1  0.26514000  0.77245000  0.55890000  1.0
  H  H3  1  0.73486000  0.22755000  0.44110000  1.0
  H  H4  1  0.44730000  0.70486000  0.43253000  1.0
  H  H5  1  0.55270000  0.29514000  0.56747000  1.0
  H  H6  1  0.22312000  0.03071000  0.62355000  1.0
  H  H7  1  0.77688000  0.96928000  0.37645000  1.0
  H  H8  1  0.48574000  0.88957000  0.68779000  1.0
  H  H9  1  0.51425000  0.11043000  0.31221000  1.0
  H  H10  1  0.03500000  0.67812000  0.96330000  1.0
  H  H11  1  0.96500000  0.32188000  0.03670000  1.0
  H  H12  1  0.36861000  0.64766000  0.86998000  1.0
  H  H13  1  0.63138000  0.35234000  0.13002000  1.0
  C  C14  1  0.07999000  0.32438000  0.75276000  1.0
  C  C15  1  0.92001000  0.67561000  0.24725000  1.0
  C  C16  1  0.80723000  0.45653000  0.76331000  1.0
  C  C17  1  0.19276000  0.54346000  0.23670000  1.0
  C  C18  1  0.07386000  0.84235000  0.78182000  1.0
  C  C19  1  0.92614000  0.15765000  0.21818000  1.0
  N  N20  1  0.17180000  0.71869000  0.87912000  1.0
  N  N21  1  0.82820000  0.28131000  0.12088000  1.0
  N  N22  1  0.27812000  0.89720000  0.66946000  1.0
  N  N23  1  0.72188000  0.10280000  0.33054000  1.0
  O  O24  1  0.75582000  0.55890000  0.65307000  1.0
  O  O25  1  0.24418000  0.44110000  0.34693000  1.0
  O  O26  1  0.16176000  0.22343000  0.84888000  1.0
  O  O27  1  0.83823000  0.77656000  0.15113000  1.0
  O  O28  1  0.20646000  0.33456000  0.63335000  1.0
  O  O29  1  0.79355000  0.66544000  0.36665000  1.0
  O  O30  1  0.66183000  0.46008000  0.86921000  1.0
  O  O31  1  0.33817000  0.53993000  0.13079000  1.0
  O  O32  1  0.25031000  0.71826000  0.48175000  1.0
  O  O33  1  0.74969000  0.28174000  0.51825000  1.0
  O  O34  1  0.82015000  0.90716000  0.78636000  1.0
  O  O35  1  0.17985000  0.09285000  0.21364000  1.0
