# generated using pymatgen
data_CdH26C26(N2Cl)2
_symmetry_space_group_name_H-M   'P 1'
_cell_length_a   10.09180000
_cell_length_b   10.62310000
_cell_length_c   13.75540490
_cell_angle_alpha   103.11532366
_cell_angle_beta   105.79607324
_cell_angle_gamma   108.64600000
_symmetry_Int_Tables_number   1
_chemical_formula_structural   CdH26C26(N2Cl)2
_chemical_formula_sum   'Cd2 H52 C52 N8 Cl4'
_cell_volume   1262.27517192
_cell_formula_units_Z   2
loop_
 _symmetry_equiv_pos_site_id
 _symmetry_equiv_pos_as_xyz
  1  'x, y, z'
loop_
 _atom_site_type_symbol
 _atom_site_label
 _atom_site_symmetry_multiplicity
 _atom_site_fract_x
 _atom_site_fract_y
 _atom_site_fract_z
 _atom_site_occupancy
  Cd  Cd0  1  0.29616000  0.49235000  0.44443000  1.0
  Cd  Cd1  1  0.70384000  0.50765000  0.55557000  1.0
  H  H2  1  0.33912000  0.41321000  0.20567000  1.0
  H  H3  1  0.66088000  0.58679000  0.79433000  1.0
  H  H4  1  0.91013000  0.43139000  0.31600000  1.0
  H  H5  1  0.08987000  0.56862000  0.68400000  1.0
  H  H6  1  0.39379000  0.83997000  0.73068000  1.0
  H  H7  1  0.60620000  0.16002000  0.26931000  1.0
  H  H8  1  0.34656000  0.97130000  0.80126000  1.0
  H  H9  1  0.65342000  0.02869000  0.19873000  1.0
  H  H10  1  0.22870000  0.86284000  0.66783000  1.0
  H  H11  1  0.77128000  0.13715000  0.33216000  1.0
  H  H12  1  0.83016000  0.28715000  0.92207000  1.0
  H  H13  1  0.16983000  0.71284000  0.07793000  1.0
  H  H14  1  0.14858000  0.43070000  0.95296000  1.0
  H  H15  1  0.85143000  0.56929000  0.04704000  1.0
  H  H16  1  0.29329000  0.38541000  0.01988000  1.0
  H  H17  1  0.70671000  0.61459000  0.98012000  1.0
  H  H18  1  0.17431000  0.10541000  0.01290000  1.0
  H  H19  1  0.82568000  0.89458000  0.98710000  1.0
  H  H20  1  0.05353000  0.86834000  0.87054000  1.0
  H  H21  1  0.94647000  0.13166000  0.12946000  1.0
  H  H22  1  0.90061000  0.83524000  0.68390000  1.0
  H  H23  1  0.09939000  0.16475000  0.31610000  1.0
  H  H24  1  0.99512000  0.27972000  0.78112000  1.0
  H  H25  1  0.00489000  0.72028000  0.21889000  1.0
  H  H26  1  0.59325000  0.92352000  0.67561000  1.0
  H  H27  1  0.40675000  0.07649000  0.32440000  1.0
  H  H28  1  0.89071000  0.27254000  0.53738000  1.0
  H  H29  1  0.10929000  0.72746000  0.46262000  1.0
  H  H30  1  0.44178000  0.31485000  0.61096000  1.0
  H  H31  1  0.55822000  0.68516000  0.38904000  1.0
  H  H32  1  0.57687000  0.25584000  0.87648000  1.0
  H  H33  1  0.42313000  0.74415000  0.12352000  1.0
  H  H34  1  0.54105000  0.37191000  0.97146000  1.0
  H  H35  1  0.45896000  0.62809000  0.02854000  1.0
  H  H36  1  0.49045000  0.19398000  0.96300000  1.0
  H  H37  1  0.50956000  0.80602000  0.03701000  1.0
  H  H38  1  0.59121000  0.45745000  0.15964000  1.0
  H  H39  1  0.40879000  0.54255000  0.84036000  1.0
  H  H40  1  0.66276000  0.41524000  0.27465000  1.0
  H  H41  1  0.33725000  0.58477000  0.72535000  1.0
  H  H42  1  0.52774000  0.27873000  0.15268000  1.0
  H  H43  1  0.47227000  0.72128000  0.84732000  1.0
  H  H44  1  0.23432000  0.22852000  0.66012000  1.0
  H  H45  1  0.76567000  0.77148000  0.33987000  1.0
  H  H46  1  0.16131000  0.04496000  0.64254000  1.0
  H  H47  1  0.83870000  0.95504000  0.35746000  1.0
  H  H48  1  0.27722000  0.16864000  0.77132000  1.0
  H  H49  1  0.72278000  0.83137000  0.22868000  1.0
  H  H50  1  0.77381000  0.92372000  0.56026000  1.0
  H  H51  1  0.22620000  0.07628000  0.43974000  1.0
  H  H52  1  0.93071000  0.06455000  0.56463000  1.0
  H  H53  1  0.06929000  0.93546000  0.43538000  1.0
  C  C54  1  0.22316000  0.40207000  0.18563000  1.0
  C  C55  1  0.77683000  0.59793000  0.81437000  1.0
  C  C56  1  0.01116000  0.39454000  0.19749000  1.0
  C  C57  1  0.98884000  0.60547000  0.80251000  1.0
  C  C58  1  0.98910000  0.35880000  0.08681000  1.0
  C  C59  1  0.01089000  0.64118000  0.91318000  1.0
  C  C60  1  0.89345000  0.40063000  0.23083000  1.0
  C  C61  1  0.10655000  0.59938000  0.76917000  1.0
  C  C62  1  0.75377000  0.36733000  0.15273000  1.0
  C  C63  1  0.24624000  0.63268000  0.84727000  1.0
  C  C64  1  0.73034000  0.32354000  0.04101000  1.0
  C  C65  1  0.26966000  0.67646000  0.95899000  1.0
  C  C66  1  0.34771000  0.91913000  0.72275000  1.0
  C  C67  1  0.65228000  0.08086000  0.27724000  1.0
  C  C68  1  0.84853000  0.31982000  0.00744000  1.0
  C  C69  1  0.15147000  0.68018000  0.99256000  1.0
  C  C70  1  0.17049000  0.35351000  0.98882000  1.0
  C  C71  1  0.82950000  0.64647000  0.01117000  1.0
  C  C72  1  0.09183000  0.20736000  0.90541000  1.0
  C  C73  1  0.90817000  0.79264000  0.09459000  1.0
  C  C74  1  0.10842000  0.09149000  0.93078000  1.0
  C  C75  1  0.89157000  0.90850000  0.06922000  1.0
  C  C76  1  0.03934000  0.95821000  0.85118000  1.0
  C  C77  1  0.96066000  0.04179000  0.14882000  1.0
  C  C78  1  0.95318000  0.93940000  0.74635000  1.0
  C  C79  1  0.04682000  0.06059000  0.25365000  1.0
  C  C80  1  0.93640000  0.05462000  0.72029000  1.0
  C  C81  1  0.06359000  0.94537000  0.27971000  1.0
  C  C82  1  0.00582000  0.18828000  0.80053000  1.0
  C  C83  1  0.99418000  0.81172000  0.19948000  1.0
  C  C84  1  0.64229000  0.10800000  0.62572000  1.0
  C  C85  1  0.35771000  0.89200000  0.37428000  1.0
  C  C86  1  0.56268000  0.01009000  0.66378000  1.0
  C  C87  1  0.43733000  0.98992000  0.33623000  1.0
  C  C88  1  0.43824000  0.02370000  0.68319000  1.0
  C  C89  1  0.56176000  0.97630000  0.31681000  1.0
  C  C90  1  0.79658000  0.23650000  0.56324000  1.0
  C  C91  1  0.20342000  0.76350000  0.43676000  1.0
  C  C92  1  0.60094000  0.21772000  0.60671000  1.0
  C  C93  1  0.39906000  0.78228000  0.39329000  1.0
  C  C94  1  0.47689000  0.23190000  0.62673000  1.0
  C  C95  1  0.52311000  0.76810000  0.37327000  1.0
  C  C96  1  0.39583000  0.13497000  0.66503000  1.0
  C  C97  1  0.60417000  0.86503000  0.33497000  1.0
  C  C98  1  0.57758000  0.28419000  0.95845000  1.0
  C  C99  1  0.42243000  0.71582000  0.04156000  1.0
  C  C100  1  0.62778000  0.37984000  0.18694000  1.0
  C  C101  1  0.37222000  0.62018000  0.81306000  1.0
  C  C102  1  0.26084000  0.14595000  0.68572000  1.0
  C  C103  1  0.73916000  0.85405000  0.31428000  1.0
  C  C104  1  0.85132000  0.03515000  0.60510000  1.0
  C  C105  1  0.14868000  0.96484000  0.39490000  1.0
  N  N106  1  0.15818000  0.41827000  0.25641000  1.0
  N  N107  1  0.84182000  0.58174000  0.74359000  1.0
  N  N108  1  0.12791000  0.36725000  0.08267000  1.0
  N  N109  1  0.87209000  0.63275000  0.91733000  1.0
  N  N110  1  0.69969000  0.29569000  0.56749000  1.0
  N  N111  1  0.30031000  0.70431000  0.43251000  1.0
  N  N112  1  0.76647000  0.12265000  0.59669000  1.0
  N  N113  1  0.23352000  0.87735000  0.40331000  1.0
  Cl  Cl114  1  0.54953000  0.64271000  0.61704000  1.0
  Cl  Cl115  1  0.45047000  0.35730000  0.38295000  1.0
  Cl  Cl116  1  0.12421000  0.34761000  0.51200000  1.0
  Cl  Cl117  1  0.87579000  0.65242000  0.48801000  1.0
