# generated using pymatgen
data_Zn2H11C55N13(O2F)4
_symmetry_space_group_name_H-M   'P 1'
_cell_length_a   12.69950000
_cell_length_b   13.37080000
_cell_length_c   17.43570000
_cell_angle_alpha   85.47670000
_cell_angle_beta   81.32790000
_cell_angle_gamma   83.68820000
_symmetry_Int_Tables_number   1
_chemical_formula_structural   Zn2H11C55N13(O2F)4
_chemical_formula_sum   'Zn2 H11 C55 N13 O8 F4'
_cell_volume   2903.18525973
_cell_formula_units_Z   1
loop_
 _symmetry_equiv_pos_site_id
 _symmetry_equiv_pos_as_xyz
  1  'x, y, z'
loop_
 _atom_site_type_symbol
 _atom_site_label
 _atom_site_symmetry_multiplicity
 _atom_site_fract_x
 _atom_site_fract_y
 _atom_site_fract_z
 _atom_site_occupancy
  Zn  Zn0  1  0.61833000  0.50326000  0.47809000  1.0
  Zn  Zn1  1  0.39819000  0.46300000  0.51969000  1.0
  H  H2  1  0.28126000  0.52921000  0.14517000  1.0
  H  H3  1  0.68200000  0.50032000  0.72161000  1.0
  H  H4  1  0.59077000  0.55435000  0.97949000  1.0
  H  H5  1  0.27382000  0.76403000  0.60077000  1.0
  H  H6  1  0.75606000  0.21144000  0.40414000  1.0
  H  H7  1  0.68440000  0.90395000  0.44223000  1.0
  H  H8  1  0.79871000  0.02896000  0.37714000  1.0
  H  H9  1  0.46412000  0.21668000  0.61222000  1.0
  H  H10  1  0.08744000  0.72602000  0.38192000  1.0
  H  H11  1  0.82074000  0.43667000  0.51419000  1.0
  H  H12  1  0.34497000  0.57661000  0.01922000  1.0
  C  C13  1  0.58569000  0.29612000  0.49206000  1.0
  C  C14  1  0.46545000  0.51330000  0.27108000  1.0
  C  C15  1  0.32489000  0.90927000  0.61632000  1.0
  C  C16  1  0.51878000  0.47866000  0.64544000  1.0
  C  C17  1  0.44065000  0.77070000  0.55818000  1.0
  C  C18  1  0.70832000  0.15457000  0.43596000  1.0
  C  C19  1  0.73199000  0.05235000  0.42118000  1.0
  C  C20  1  0.66804000  0.98109000  0.45930000  1.0
  C  C21  1  0.58093000  0.00834000  0.51687000  1.0
  C  C22  1  0.55670000  0.11257000  0.53172000  1.0
  C  C23  1  0.50764000  0.93715000  0.55450000  1.0
  C  C24  1  0.60511000  0.51327000  0.75821000  1.0
  C  C25  1  0.40920000  0.97343000  0.59919000  1.0
  C  C26  1  0.40074000  0.07436000  0.62528000  1.0
  C  C27  1  0.47209000  0.14102000  0.59180000  1.0
  C  C28  1  0.45505000  0.66596000  0.53104000  1.0
  C  C29  1  0.52632000  0.83112000  0.54545000  1.0
  C  C30  1  0.33987000  0.81107000  0.59216000  1.0
  C  C31  1  0.61936000  0.18533000  0.48846000  1.0
  C  C32  1  0.88808000  0.67256000  0.38793000  1.0
  C  C33  1  0.19257000  0.39027000  0.59095000  1.0
  C  C34  1  0.08852000  0.36752000  0.62273000  1.0
  C  C35  1  0.54322000  0.56693000  0.13802000  1.0
  C  C36  1  0.00476000  0.41880000  0.58689000  1.0
  C  C37  1  0.02686000  0.49109000  0.52346000  1.0
  C  C38  1  0.13462000  0.51847000  0.50593000  1.0
  C  C39  1  0.94526000  0.53923000  0.47940000  1.0
  C  C40  1  0.47681000  0.49301000  0.35546000  1.0
  C  C41  1  0.96907000  0.62448000  0.42861000  1.0
  C  C42  1  0.07153000  0.65889000  0.41950000  1.0
  C  C43  1  0.15355000  0.60707000  0.45448000  1.0
  C  C44  1  0.84324000  0.50560000  0.48147000  1.0
  C  C45  1  0.78747000  0.63844000  0.39686000  1.0
  C  C46  1  0.55396000  0.53919000  0.21697000  1.0
  C  C47  1  0.51106000  0.50468000  0.72838000  1.0
  C  C48  1  0.41037000  0.52232000  0.77547000  1.0
  C  C49  1  0.40942000  0.54632000  0.85243000  1.0
  C  C50  1  0.50248000  0.55082000  0.88639000  1.0
  C  C51  1  0.59938000  0.53505000  0.83497000  1.0
  C  C52  1  0.31073000  0.51880000  0.74772000  1.0
  C  C53  1  0.32736000  0.10475000  0.69156000  1.0
  C  C54  1  0.21937000  0.94567000  0.64981000  1.0
  C  C55  1  0.63364000  0.78425000  0.53435000  1.0
  C  C56  1  0.70633000  0.69544000  0.35893000  1.0
  C  C57  1  0.36661000  0.51184000  0.24353000  1.0
  C  C58  1  0.65977000  0.53584000  0.23683000  1.0
  C  C59  1  0.89965000  0.39771000  0.62120000  1.0
  C  C60  1  0.06865000  0.29809000  0.68779000  1.0
  C  C61  1  0.25112000  0.65285000  0.43366000  1.0
  C  C62  1  0.27142000  0.48451000  0.29201000  1.0
  C  C63  1  0.63348000  0.60389000  0.08996000  1.0
  C  C64  1  0.35794000  0.53420000  0.16479000  1.0
  C  C65  1  0.44501000  0.56005000  0.10974000  1.0
  C  C66  1  0.50847000  0.56129000  0.96759000  1.0
  C  C67  1  0.42848000  0.57042000  0.02846000  1.0
  N  N68  1  0.76786000  0.55358000  0.44305000  1.0
  N  N69  1  0.04623000  0.24310000  0.74177000  1.0
  N  N70  1  0.31796000  0.70462000  0.40819000  1.0
  N  N71  1  0.18813000  0.46309000  0.32323000  1.0
  N  N72  1  0.70757000  0.63681000  0.05249000  1.0
  N  N73  1  0.21624000  0.46305000  0.53831000  1.0
  N  N74  1  0.22698000  0.51855000  0.72779000  1.0
  N  N75  1  0.27612000  0.13206000  0.74891000  1.0
  N  N76  1  0.12988000  0.97166000  0.67226000  1.0
  N  N77  1  0.72207000  0.74963000  0.53603000  1.0
  N  N78  1  0.64561000  0.74951000  0.32747000  1.0
  N  N79  1  0.75073000  0.53292000  0.24200000  1.0
  N  N80  1  0.81667000  0.37790000  0.65398000  1.0
  O  O81  1  0.66052000  0.35371000  0.48725000  1.0
  O  O82  1  0.48594000  0.32397000  0.49599000  1.0
  O  O83  1  0.59886000  0.50675000  0.59932000  1.0
  O  O84  1  0.44353000  0.43279000  0.62871000  1.0
  O  O85  1  0.53900000  0.64321000  0.48390000  1.0
  O  O86  1  0.38156000  0.60884000  0.55493000  1.0
  O  O87  1  0.57049000  0.49081000  0.37210000  1.0
  O  O88  1  0.39180000  0.48180000  0.40302000  1.0
  F  F89  1  0.90844000  0.75461000  0.34075000  1.0
  F  F90  1  0.27440000  0.33295000  0.61628000  1.0
  F  F91  1  0.69213000  0.54010000  0.86311000  1.0
  F  F92  1  0.31319000  0.56422000  0.89682000  1.0
