# generated using pymatgen
data_Cu2H8C9N4O7
_symmetry_space_group_name_H-M   'P 1'
_cell_length_a   6.62336000
_cell_length_b   10.29930000
_cell_length_c   12.14990000
_cell_angle_alpha   70.30100000
_cell_angle_beta   89.40030000
_cell_angle_gamma   89.04420000
_symmetry_Int_Tables_number   1
_chemical_formula_structural   Cu2H8C9N4O7
_chemical_formula_sum   'Cu4 H16 C18 N8 O14'
_cell_volume   780.19298863
_cell_formula_units_Z   2
loop_
 _symmetry_equiv_pos_site_id
 _symmetry_equiv_pos_as_xyz
  1  'x, y, z'
loop_
 _atom_site_type_symbol
 _atom_site_label
 _atom_site_symmetry_multiplicity
 _atom_site_fract_x
 _atom_site_fract_y
 _atom_site_fract_z
 _atom_site_occupancy
  Cu  Cu0  1  0.75257000  0.85889000  0.76066000  1.0
  Cu  Cu1  1  0.25318000  0.14108000  0.23929000  1.0
  Cu  Cu2  1  0.99936000  0.99932000  0.50055000  1.0
  Cu  Cu3  1  0.49938000  0.00061000  0.49944000  1.0
  H  H4  1  0.74790000  0.41530000  0.71733000  1.0
  H  H5  1  0.25219000  0.58471000  0.28267000  1.0
  H  H6  1  0.74612000  0.04955000  0.02092000  1.0
  H  H7  1  0.25391000  0.95046000  0.97908000  1.0
  H  H8  1  0.75362000  0.45183000  0.05998000  1.0
  H  H9  1  0.24635000  0.54818000  0.94003000  1.0
  H  H10  1  0.73996000  0.07942000  0.61739000  1.0
  H  H11  1  0.25696000  0.92047000  0.38271000  1.0
  H  H12  1  0.07416000  0.29837000  0.42015000  1.0
  H  H13  1  0.56910000  0.69063000  0.59924000  1.0
  H  H14  1  0.92572000  0.70143000  0.57992000  1.0
  H  H15  1  0.43067000  0.30954000  0.40075000  1.0
  H  H16  1  0.93312000  0.26998000  0.53110000  1.0
  H  H17  1  0.48971000  0.71648000  0.47198000  1.0
  H  H18  1  0.06690000  0.73001000  0.46900000  1.0
  H  H19  1  0.51020000  0.28343000  0.52803000  1.0
  C  C20  1  0.75278000  0.60105000  0.82994000  1.0
  C  C21  1  0.24680000  0.39898000  0.17010000  1.0
  C  C22  1  0.75117000  0.44848000  0.88370000  1.0
  C  C23  1  0.24842000  0.55156000  0.11627000  1.0
  C  C24  1  0.74845000  0.36684000  0.81204000  1.0
  C  C25  1  0.25149000  0.63318000  0.18796000  1.0
  C  C26  1  0.74639000  0.22331000  0.86173000  1.0
  C  C27  1  0.25357000  0.77671000  0.13825000  1.0
  C  C28  1  0.74718000  0.16169000  0.98347000  1.0
  C  C29  1  0.25277000  0.83833000  0.01651000  1.0
  C  C30  1  0.74984000  0.24314000  0.05505000  1.0
  C  C31  1  0.25033000  0.75692000  0.94488000  1.0
  C  C32  1  0.75189000  0.38672000  0.00555000  1.0
  C  C33  1  0.24790000  0.61334000  0.99442000  1.0
  C  C34  1  0.74446000  0.13327000  0.78685000  1.0
  C  C35  1  0.25563000  0.86675000  0.21313000  1.0
  C  C36  1  0.75010000  0.17380000  0.18259000  1.0
  C  C37  1  0.25053000  0.82623000  0.81735000  1.0
  N  N38  1  0.91675000  0.13890000  0.24999000  1.0
  N  N39  1  0.41661000  0.87308000  0.75120000  1.0
  N  N40  1  0.08399000  0.86007000  0.74992000  1.0
  N  N41  1  0.58389000  0.12793000  0.24881000  1.0
  N  N42  1  0.84889000  0.07158000  0.35689000  1.0
  N  N43  1  0.34764000  0.93629000  0.64386000  1.0
  N  N44  1  0.15179000  0.92793000  0.64294000  1.0
  N  N45  1  0.65290000  0.06415000  0.35628000  1.0
  O  O46  1  0.74796000  0.67612000  0.89519000  1.0
  O  O47  1  0.25167000  0.32396000  0.10479000  1.0
  O  O48  1  0.75869000  0.65821000  0.71837000  1.0
  O  O49  1  0.24137000  0.34192000  0.28167000  1.0
  O  O50  1  0.73103000  0.19043000  0.67616000  1.0
  O  O51  1  0.26906000  0.80959000  0.32384000  1.0
  O  O52  1  0.75620000  0.00380000  0.84137000  1.0
  O  O53  1  0.24400000  0.99620000  0.15854000  1.0
  O  O54  1  0.74660000  0.99002000  0.59507000  1.0
  O  O55  1  0.25046000  0.00990000  0.40498000  1.0
  O  O56  1  0.05750000  0.24022000  0.50215000  1.0
  O  O57  1  0.45697000  0.73062000  0.54548000  1.0
  O  O58  1  0.94254000  0.75979000  0.49800000  1.0
  O  O59  1  0.54275000  0.26931000  0.45449000  1.0
