# generated using pymatgen
data_MnH3(CN2)4
_symmetry_space_group_name_H-M   'P 1'
_cell_length_a   5.92807000
_cell_length_b   7.96889436
_cell_length_c   8.96799000
_cell_angle_alpha   87.50220489
_cell_angle_beta   84.23380000
_cell_angle_gamma   68.73697399
_symmetry_Int_Tables_number   1
_chemical_formula_structural   MnH3(CN2)4
_chemical_formula_sum   'Mn2 H6 C8 N16'
_cell_volume   392.80023432
_cell_formula_units_Z   2
loop_
 _symmetry_equiv_pos_site_id
 _symmetry_equiv_pos_as_xyz
  1  'x, y, z'
loop_
 _atom_site_type_symbol
 _atom_site_label
 _atom_site_symmetry_multiplicity
 _atom_site_fract_x
 _atom_site_fract_y
 _atom_site_fract_z
 _atom_site_occupancy
  Mn  Mn0  1  0.20512000  0.59760000  0.00146000  1.0
  Mn  Mn1  1  0.82742000  0.36619000  0.99427000  1.0
  H  H2  1  0.35692000  0.71862000  0.65060000  1.0
  H  H3  1  0.91941000  0.71902000  0.35194000  1.0
  H  H4  1  0.63675000  0.29958000  0.32710000  1.0
  H  H5  1  0.07006000  0.29883000  0.66546000  1.0
  H  H6  1  0.28280000  0.01793000  0.51919000  1.0
  H  H7  1  0.70111000  0.01862000  0.47915000  1.0
  C  C8  1  0.25940000  0.84477000  0.70924000  1.0
  C  C9  1  0.89173000  0.84516000  0.29108000  1.0
  C  C10  1  0.73420000  0.16753000  0.27800000  1.0
  C  C11  1  0.10107000  0.16730000  0.71712000  1.0
  C  C12  1  0.22028000  0.01123000  0.63653000  1.0
  C  C13  1  0.76866000  0.01166000  0.36158000  1.0
  C  C14  1  0.05374000  0.99399000  0.92372000  1.0
  C  C15  1  0.94736000  0.99394000  0.07380000  1.0
  N  N16  1  0.17605000  0.83748000  0.85249000  1.0
  N  N17  1  0.97881000  0.83723000  0.14718000  1.0
  N  N18  1  0.82238000  0.16266000  0.13132000  1.0
  N  N19  1  0.01625000  0.16332000  0.86417000  1.0
  N  N20  1  0.52749000  0.41236000  0.87589000  1.0
  N  N21  1  0.07073000  0.40757000  0.12326000  1.0
  N  N22  1  0.49462000  0.57568000  0.13575000  1.0
  N  N23  1  0.92850000  0.55755000  0.87084000  1.0
  N  N24  1  0.53822000  0.35144000  0.75214000  1.0
  N  N25  1  0.11557000  0.34811000  0.24847000  1.0
  N  N26  1  0.48612000  0.64188000  0.25591000  1.0
  N  N27  1  0.87100000  0.62922000  0.75110000  1.0
  N  N28  1  0.54332000  0.29598000  0.63381000  1.0
  N  N29  1  0.16230000  0.29505000  0.36835000  1.0
  N  N30  1  0.47017000  0.70876000  0.37134000  1.0
  N  N31  1  0.82246000  0.70373000  0.63774000  1.0
