# generated using pymatgen
data_Fe3H40C64(NO)8
_symmetry_space_group_name_H-M   'P 1'
_cell_length_a   14.56500000
_cell_length_b   14.94552684
_cell_length_c   14.95000000
_cell_angle_alpha   110.90197448
_cell_angle_beta   110.16800000
_cell_angle_gamma   105.54254910
_symmetry_Int_Tables_number   1
_chemical_formula_structural   Fe3H40C64(NO)8
_chemical_formula_sum   'Fe3 H40 C64 N8 O8'
_cell_volume   2554.45416271
_cell_formula_units_Z   1
loop_
 _symmetry_equiv_pos_site_id
 _symmetry_equiv_pos_as_xyz
  1  'x, y, z'
loop_
 _atom_site_type_symbol
 _atom_site_label
 _atom_site_symmetry_multiplicity
 _atom_site_fract_x
 _atom_site_fract_y
 _atom_site_fract_z
 _atom_site_occupancy
  Fe  Fe0  1  0.50004000  0.50005000  0.99999000  1.0
  Fe  Fe1  1  0.92311000  0.92770000  0.97381000  1.0
  Fe  Fe2  1  0.07683000  0.07233000  0.02608000  1.0
  H  H3  1  0.03891000  0.69310000  0.97665000  1.0
  H  H4  1  0.69521000  0.05839000  0.98639000  1.0
  H  H5  1  0.30481000  0.94177000  0.01365000  1.0
  H  H6  1  0.96109000  0.30689000  0.02317000  1.0
  H  H7  1  0.66928000  0.67910000  0.62345000  1.0
  H  H8  1  0.32997000  0.32036000  0.37623000  1.0
  H  H9  1  0.11784000  0.06053000  0.37893000  1.0
  H  H10  1  0.88203000  0.93908000  0.62141000  1.0
  H  H11  1  0.90189000  0.74088000  0.02222000  1.0
  H  H12  1  0.71895000  0.86075000  0.02110000  1.0
  H  H13  1  0.28120000  0.13928000  0.97881000  1.0
  H  H14  1  0.09842000  0.25929000  0.97813000  1.0
  H  H15  1  0.70330000  0.69807000  0.84986000  1.0
  H  H16  1  0.29709000  0.30196000  0.15024000  1.0
  H  H17  1  0.86633000  0.84171000  0.17652000  1.0
  H  H18  1  0.13371000  0.15843000  0.82361000  1.0
  H  H19  1  0.77956000  0.52091000  0.95642000  1.0
  H  H20  1  0.55206000  0.73894000  0.04278000  1.0
  H  H21  1  0.44796000  0.26107000  0.95697000  1.0
  H  H22  1  0.22077000  0.47923000  0.04367000  1.0
  H  H23  1  0.58049000  0.52403000  0.83914000  1.0
  H  H24  1  0.41984000  0.47599000  0.16093000  1.0
  H  H25  1  0.71377000  0.69681000  0.18388000  1.0
  H  H26  1  0.28616000  0.30333000  0.81613000  1.0
  H  H27  1  0.14496000  0.58697000  0.98367000  1.0
  H  H28  1  0.59002000  0.16558000  0.98233000  1.0
  H  H29  1  0.41010000  0.83469000  0.01776000  1.0
  H  H30  1  0.85515000  0.41311000  0.01618000  1.0
  H  H31  1  0.58607000  0.56847000  0.41996000  1.0
  H  H32  1  0.41343000  0.43126000  0.57973000  1.0
  H  H33  1  0.19412000  0.17387000  0.58119000  1.0
  H  H34  1  0.80596000  0.82601000  0.41917000  1.0
  H  H35  1  0.40196000  0.78650000  0.21661000  1.0
  H  H36  1  0.59822000  0.21373000  0.78335000  1.0
  H  H37  1  0.19608000  0.58452000  0.78602000  1.0
  H  H38  1  0.80406000  0.41566000  0.21397000  1.0
  H  H39  1  0.79182000  0.56503000  0.37269000  1.0
  H  H40  1  0.43852000  0.21815000  0.62643000  1.0
  H  H41  1  0.20816000  0.43499000  0.62728000  1.0
  H  H42  1  0.56152000  0.78196000  0.37354000  1.0
  C  C43  1  0.42464000  0.66038000  0.10156000  1.0
  C  C44  1  0.57549000  0.33978000  0.89841000  1.0
  C  C45  1  0.32918000  0.56646000  0.89959000  1.0
  C  C46  1  0.67095000  0.43371000  0.10037667  1.0
  C  C47  1  0.66078000  0.55417000  0.22906000  1.0
  C  C48  1  0.44554000  0.34318000  0.77070000  1.0
  C  C49  1  0.33922000  0.44587000  0.77092000  1.0
  C  C50  1  0.55447000  0.65688000  0.22927000  1.0
  C  C51  1  0.44447000  0.73730000  0.20590000  1.0
  C  C52  1  0.55567000  0.26288000  0.79405000  1.0
  C  C53  1  0.24958000  0.54613000  0.79544000  1.0
  C  C54  1  0.75053000  0.45401000  0.20454000  1.0
  C  C55  1  0.74436000  0.52881000  0.28424000  1.0
  C  C56  1  0.47517000  0.26500000  0.71489000  1.0
  C  C57  1  0.25566000  0.47125000  0.71574000  1.0
  C  C58  1  0.52488000  0.73511000  0.28507000  1.0
  C  C59  1  0.34746000  0.63998000  0.00072000  1.0
  C  C60  1  0.65267000  0.36020000  0.99924000  1.0
  C  C61  1  0.63290000  0.63032000  0.28372000  1.0
  C  C62  1  0.36704000  0.36966000  0.71626000  1.0
  C  C63  1  0.28422000  0.70370000  0.00064000  1.0
  C  C64  1  0.71588000  0.29646000  0.99932000  1.0
  C  C65  1  0.68964000  0.69037000  0.40613000  1.0
  C  C66  1  0.31014000  0.30945000  0.59387000  1.0
  C  C67  1  0.17978000  0.66458000  0.98968000  1.0
  C  C68  1  0.67119000  0.19620000  0.99069000  1.0
  C  C69  1  0.32891000  0.80399000  0.00934000  1.0
  C  C70  1  0.82029000  0.33552000  0.01021000  1.0
  C  C71  1  0.65279000  0.64900000  0.46458000  1.0
  C  C72  1  0.34677000  0.35071000  0.53525000  1.0
  C  C73  1  0.22444000  0.20583000  0.53638000  1.0
  C  C74  1  0.77546000  0.79395000  0.46382000  1.0
  C  C75  1  0.12026000  0.72354000  0.98562000  1.0
  C  C76  1  0.72968000  0.13648000  0.99351000  1.0
  C  C77  1  0.27038000  0.86367000  0.00651000  1.0
  C  C78  1  0.87976000  0.27652000  0.01427000  1.0
  C  C79  1  0.69836000  0.71106000  0.57808000  1.0
  C  C80  1  0.30106000  0.28850000  0.42175000  1.0
  C  C81  1  0.18121000  0.14272000  0.42391000  1.0
  C  C82  1  0.81858000  0.85691000  0.57629000  1.0
  C  C83  1  0.16528000  0.82332000  0.99371000  1.0
  C  C84  1  0.83474000  0.17677000  0.00624000  1.0
  C  C85  1  0.77922000  0.81658000  0.63402000  1.0
  C  C86  1  0.22032000  0.18297000  0.36601000  1.0
  C  C87  1  0.10379000  0.88800000  0.99076000  1.0
  C  C88  1  0.89624000  0.11210000  0.00919000  1.0
  C  C89  1  0.82426000  0.89186000  0.75383000  1.0
  C  C90  1  0.17517000  0.10765000  0.24619000  1.0
  C  C91  1  0.81958000  0.70277000  0.00946000  1.0
  C  C92  1  0.70792000  0.78397000  0.01716000  1.0
  C  C93  1  0.29222000  0.21608000  0.98281000  1.0
  C  C94  1  0.18067000  0.29737000  0.99078000  1.0
  C  C95  1  0.71284000  0.69809000  0.92574000  1.0
  C  C96  1  0.28744000  0.30196000  0.07434000  1.0
  C  C97  1  0.79639000  0.77219000  0.10099000  1.0
  C  C98  1  0.20372000  0.22793000  0.89911000  1.0
  C  C99  1  0.75818000  0.58628000  0.96188000  1.0
  C  C100  1  0.62196000  0.72720000  0.04093000  1.0
  C  C101  1  0.37811000  0.27284000  0.95895000  1.0
  C  C102  1  0.24211000  0.41386000  0.03836000  1.0
  C  C103  1  0.65120000  0.58952000  0.91687000  1.0
  C  C104  1  0.34907000  0.41054000  0.08323000  1.0
  C  C105  1  0.70560000  0.70698000  0.11368000  1.0
  C  C106  1  0.29444000  0.29313000  0.88633000  1.0
  N  N107  1  0.49287000  0.61154000  0.11637000  1.0
  N  N108  1  0.50721000  0.38857000  0.88361000  1.0
  N  N109  1  0.38369000  0.50449000  0.88386000  1.0
  N  N110  1  0.61639000  0.49563000  0.11613000  1.0
  N  N111  1  0.94045000  0.94339000  0.08700000  1.0
  N  N112  1  0.05963000  0.05640000  0.91283000  1.0
  N  N113  1  0.61517000  0.61791000  0.00387000  1.0
  N  N114  1  0.38496000  0.38216000  0.99612000  1.0
  O  O115  1  0.00058000  0.84065000  0.95375000  1.0
  O  O116  1  0.84189000  0.01350000  0.97591000  1.0
  O  O117  1  0.15821000  0.98665000  0.02429000  1.0
  O  O118  1  0.99940000  0.15941000  0.04592000  1.0
  O  O119  1  0.82999000  0.84624000  0.81495000  1.0
  O  O120  1  0.16929000  0.15323000  0.18505000  1.0
  O  O121  1  0.14524000  0.01068000  0.21493000  1.0
  O  O122  1  0.85426000  0.98883000  0.78512000  1.0
