# generated using pymatgen
data_CoP4H16C4(NO6)2
_symmetry_space_group_name_H-M   'P 1'
_cell_length_a   8.52083000
_cell_length_b   9.32413000
_cell_length_c   9.33846000
_cell_angle_alpha   96.82410000
_cell_angle_beta   89.99980000
_cell_angle_gamma   90.00000000
_symmetry_Int_Tables_number   1
_chemical_formula_structural   CoP4H16C4(NO6)2
_chemical_formula_sum   'Co2 P8 H32 C8 N4 O24'
_cell_volume   736.67821134
_cell_formula_units_Z   2
loop_
 _symmetry_equiv_pos_site_id
 _symmetry_equiv_pos_as_xyz
  1  'x, y, z'
loop_
 _atom_site_type_symbol
 _atom_site_label
 _atom_site_symmetry_multiplicity
 _atom_site_fract_x
 _atom_site_fract_y
 _atom_site_fract_z
 _atom_site_occupancy
  Co  Co0  1  0.00000000  0.50000000  0.00000000  1.0
  Co  Co1  1  0.50000000  0.50000000  0.50000000  1.0
  P  P2  1  0.34027000  0.82950000  0.53724000  1.0
  P  P3  1  0.84028000  0.17050000  0.96276000  1.0
  P  P4  1  0.65972000  0.17050000  0.46276000  1.0
  P  P5  1  0.15972000  0.82950000  0.03724000  1.0
  P  P6  1  0.81335000  0.58754000  0.71732000  1.0
  P  P7  1  0.31335000  0.41246000  0.78268000  1.0
  P  P8  1  0.18665000  0.41246000  0.28268000  1.0
  P  P9  1  0.68665000  0.58754000  0.21732000  1.0
  H  H10  1  0.82892000  0.83832000  0.66934000  1.0
  H  H11  1  0.32892000  0.16168000  0.83066000  1.0
  H  H12  1  0.17108000  0.16168000  0.33066000  1.0
  H  H13  1  0.67108000  0.83832000  0.16934000  1.0
  H  H14  1  0.84285000  0.71456000  0.50737000  1.0
  H  H15  1  0.34285000  0.28544000  0.99263000  1.0
  H  H16  1  0.15715000  0.28544000  0.49263000  1.0
  H  H17  1  0.65715000  0.71456000  0.00737000  1.0
  H  H18  1  0.08565000  0.77414000  0.74022000  1.0
  H  H19  1  0.58565000  0.22586000  0.75978000  1.0
  H  H20  1  0.91435000  0.22586000  0.25978000  1.0
  H  H21  1  0.41435000  0.77414000  0.24022000  1.0
  H  H22  1  0.09551000  0.96512000  0.60054000  1.0
  H  H23  1  0.59551000  0.03488000  0.89946000  1.0
  H  H24  1  0.90449000  0.03488000  0.39946000  1.0
  H  H25  1  0.40449000  0.96512000  0.10054000  1.0
  H  H26  1  0.08166000  0.84244000  0.43706000  1.0
  H  H27  1  0.58166000  0.15756000  0.06294000  1.0
  H  H28  1  0.91834000  0.15756000  0.56294000  1.0
  H  H29  1  0.41834000  0.84244000  0.93706000  1.0
  H  H30  1  0.10570000  0.64942000  0.59098000  1.0
  H  H31  1  0.60570000  0.35058000  0.90902000  1.0
  H  H32  1  0.89430000  0.35058000  0.40903000  1.0
  H  H33  1  0.39430000  0.64942000  0.09098000  1.0
  H  H34  1  0.49302000  0.00735000  0.63383000  1.0
  H  H35  1  0.99302000  0.99265000  0.86617000  1.0
  H  H36  1  0.50698000  0.99265000  0.36617000  1.0
  H  H37  1  0.00698000  0.00735000  0.13383000  1.0
  H  H38  1  0.00422000  0.43256000  0.70442000  1.0
  H  H39  1  0.50422000  0.56744000  0.79558000  1.0
  H  H40  1  0.99578000  0.56744000  0.29558000  1.0
  H  H41  1  0.49578000  0.43256000  0.20442000  1.0
  C  C42  1  0.87988000  0.73588000  0.62048000  1.0
  C  C43  1  0.37988000  0.26412000  0.87952000  1.0
  C  C44  1  0.12012000  0.26412000  0.37952000  1.0
  C  C45  1  0.62012000  0.73588000  0.12048000  1.0
  C  C46  1  0.12665000  0.85765000  0.54795000  1.0
  C  C47  1  0.62665000  0.14235000  0.95204000  1.0
  C  C48  1  0.87335000  0.14235000  0.45205000  1.0
  C  C49  1  0.37335000  0.85765000  0.04795000  1.0
  N  N50  1  0.05425000  0.74691000  0.63008000  1.0
  N  N51  1  0.55425000  0.25309000  0.86992000  1.0
  N  N52  1  0.94575000  0.25309000  0.36992000  1.0
  N  N53  1  0.44575000  0.74691000  0.13008000  1.0
  O  O54  1  0.39159000  0.87823000  0.39407000  1.0
  O  O55  1  0.89158000  0.12178000  0.10593000  1.0
  O  O56  1  0.60841000  0.12177000  0.60593000  1.0
  O  O57  1  0.10841000  0.87822000  0.89407000  1.0
  O  O58  1  0.35764000  0.67265000  0.55909000  1.0
  O  O59  1  0.85765000  0.32735000  0.94090000  1.0
  O  O60  1  0.64236000  0.32735000  0.44090000  1.0
  O  O61  1  0.14235000  0.67265000  0.05910000  1.0
  O  O62  1  0.90926000  0.45248000  0.64149000  1.0
  O  O63  1  0.40926000  0.54753000  0.85851000  1.0
  O  O64  1  0.09074000  0.54753000  0.35851000  1.0
  O  O65  1  0.59074000  0.45247000  0.14149000  1.0
  O  O66  1  0.85879000  0.62138000  0.87437000  1.0
  O  O67  1  0.35880000  0.37862000  0.62563000  1.0
  O  O68  1  0.14121000  0.37862000  0.12563000  1.0
  O  O69  1  0.64121000  0.62138000  0.37437000  1.0
  O  O70  1  0.63856000  0.56825000  0.68744000  1.0
  O  O71  1  0.13856000  0.43175000  0.81256000  1.0
  O  O72  1  0.36144000  0.43175000  0.31256000  1.0
  O  O73  1  0.86144000  0.56825000  0.18744000  1.0
  O  O74  1  0.41600000  0.93170000  0.66663000  1.0
  O  O75  1  0.91600000  0.06830000  0.83337000  1.0
  O  O76  1  0.58400000  0.06830000  0.33333333  1.0
  O  O77  1  0.08400000  0.93170000  0.16663000  1.0
