# generated using pymatgen
data_ZnH14C24(NO)4
_symmetry_space_group_name_H-M   'P 1'
_cell_length_a   7.88886000
_cell_length_b   11.37260000
_cell_length_c   11.60300000
_cell_angle_alpha   66.88160000
_cell_angle_beta   88.75410000
_cell_angle_gamma   81.38550000
_symmetry_Int_Tables_number   1
_chemical_formula_structural   ZnH14C24(NO)4
_chemical_formula_sum   'Zn2 H28 C48 N8 O8'
_cell_volume   945.80123667
_cell_formula_units_Z   2
loop_
 _symmetry_equiv_pos_site_id
 _symmetry_equiv_pos_as_xyz
  1  'x, y, z'
loop_
 _atom_site_type_symbol
 _atom_site_label
 _atom_site_symmetry_multiplicity
 _atom_site_fract_x
 _atom_site_fract_y
 _atom_site_fract_z
 _atom_site_occupancy
  Zn  Zn0  1  0.36009000  0.37143000  0.03662000  1.0
  Zn  Zn1  1  0.63991000  0.62857000  0.96338000  1.0
  H  H2  1  0.06387000  0.41716000  0.18051000  1.0
  H  H3  1  0.93613000  0.58284000  0.81949000  1.0
  H  H4  1  0.74691000  0.35445000  0.16679000  1.0
  H  H5  1  0.25309000  0.64555000  0.83321000  1.0
  H  H6  1  0.20354000  0.73860000  0.58450000  1.0
  H  H7  1  0.79646000  0.26140000  0.41551000  1.0
  H  H8  1  0.44292000  0.82417000  0.64655000  1.0
  H  H9  1  0.55708000  0.17583000  0.35345000  1.0
  H  H10  1  0.72854000  0.81101000  0.55036000  1.0
  H  H11  1  0.27146000  0.18899000  0.44964000  1.0
  H  H12  1  0.77523000  0.71027000  0.39482000  1.0
  H  H13  1  0.22477000  0.28973000  0.60518000  1.0
  H  H14  1  0.09375000  0.62815000  0.46090000  1.0
  H  H15  1  0.90625000  0.37185000  0.53910000  1.0
  H  H16  1  0.66440000  0.60756000  0.26723000  1.0
  H  H17  1  0.33560000  0.39245000  0.73277000  1.0
  H  H18  1  0.55037000  0.99848000  0.81845000  1.0
  H  H19  1  0.44963000  0.00152000  0.18155000  1.0
  H  H20  1  0.69006000  0.91636000  0.66775000  1.0
  H  H21  1  0.30995000  0.08364000  0.33226000  1.0
  H  H22  1  0.99374000  0.94313000  0.61158000  1.0
  H  H23  1  0.00626000  0.05687000  0.38842000  1.0
  H  H24  1  0.15677000  0.05604000  0.70555000  1.0
  H  H25  1  0.84323000  0.94397000  0.29445000  1.0
  H  H26  1  0.56309000  0.11394000  0.96201000  1.0
  H  H27  1  0.43690000  0.88606000  0.03798000  1.0
  H  H28  1  0.16886000  0.17198000  0.84770000  1.0
  H  H29  1  0.83114000  0.82802000  0.15230000  1.0
  C  C30  1  0.32773000  0.73589000  0.54158000  1.0
  C  C31  1  0.67227000  0.26411000  0.45842000  1.0
  C  C32  1  0.46073000  0.78342000  0.57538000  1.0
  C  C33  1  0.53927000  0.21658000  0.42461000  1.0
  C  C34  1  0.62283000  0.77592000  0.52098000  1.0
  C  C35  1  0.37717000  0.22408000  0.47902000  1.0
  C  C36  1  0.64956000  0.72139000  0.43380000  1.0
  C  C37  1  0.35044000  0.27861000  0.56620000  1.0
  C  C38  1  0.51435000  0.67278000  0.39604000  1.0
  C  C39  1  0.48565000  0.32722000  0.60396000  1.0
  C  C40  1  0.34985000  0.67961000  0.45138000  1.0
  C  C41  1  0.65015000  0.32039000  0.54862000  1.0
  C  C42  1  0.21664000  0.62848000  0.41622000  1.0
  C  C43  1  0.78336000  0.37152000  0.58378000  1.0
  C  C44  1  0.24305000  0.57234000  0.32957000  1.0
  C  C45  1  0.75695000  0.42766000  0.67043000  1.0
  C  C46  1  0.40600000  0.56690000  0.27428000  1.0
  C  C47  1  0.59400000  0.43310000  0.72572000  1.0
  C  C48  1  0.53922000  0.61592000  0.30753000  1.0
  C  C49  1  0.46078000  0.38408000  0.69247000  1.0
  C  C50  1  0.43037000  0.50818000  0.18307000  1.0
  C  C51  1  0.56963000  0.49182000  0.81693000  1.0
  C  C52  1  0.10522000  0.51587000  0.29552000  1.0
  C  C53  1  0.89478000  0.48413000  0.70448000  1.0
  C  C54  1  0.68194000  0.01253000  0.79319000  1.0
  C  C55  1  0.31806000  0.98747000  0.20681000  1.0
  C  C56  1  0.76066000  0.96615000  0.70937000  1.0
  C  C57  1  0.23934000  0.03385000  0.29063000  1.0
  C  C58  1  0.93282000  0.98186000  0.67732000  1.0
  C  C59  1  0.06718000  0.01814000  0.32268000  1.0
  C  C60  1  0.02399000  0.04428000  0.72940000  1.0
  C  C61  1  0.97601000  0.95572000  0.27060000  1.0
  C  C62  1  0.94701000  0.09363000  0.81661000  1.0
  C  C63  1  0.05299000  0.90637000  0.18339000  1.0
  C  C64  1  0.77200000  0.07699000  0.84951000  1.0
  C  C65  1  0.22800000  0.92301000  0.15049000  1.0
  C  C66  1  0.69575000  0.12413000  0.93691000  1.0
  C  C67  1  0.30425000  0.87587000  0.06309000  1.0
  C  C68  1  0.78808000  0.18574000  0.99083000  1.0
  C  C69  1  0.21192000  0.81427000  0.00916000  1.0
  C  C70  1  0.95988000  0.20374000  0.95740000  1.0
  C  C71  1  0.04012000  0.79626000  0.04260000  1.0
  C  C72  1  0.03716000  0.15746000  0.87180000  1.0
  C  C73  1  0.96284000  0.84254000  0.12820000  1.0
  C  C74  1  0.71160000  0.23850000  0.07816000  1.0
  C  C75  1  0.28840000  0.76150000  0.92184000  1.0
  C  C76  1  0.05103000  0.27243000  0.01357000  1.0
  C  C77  1  0.94897000  0.72757000  0.98643000  1.0
  N  N78  1  0.30446000  0.45727000  0.15530000  1.0
  N  N79  1  0.69554000  0.54273000  0.84470000  1.0
  N  N80  1  0.15007000  0.45947000  0.21196000  1.0
  N  N81  1  0.84993000  0.54053000  0.78804000  1.0
  N  N82  1  0.81028000  0.30013000  0.12136000  1.0
  N  N83  1  0.18972000  0.69987000  0.87864000  1.0
  N  N84  1  0.97601000  0.32080000  0.09269000  1.0
  N  N85  1  0.02399000  0.67920000  0.90731000  1.0
  O  O86  1  0.57508000  0.50195000  0.12750000  1.0
  O  O87  1  0.42492000  0.49805000  0.87250000  1.0
  O  O88  1  0.95843000  0.51560000  0.33732000  1.0
  O  O89  1  0.04157000  0.48440000  0.66268000  1.0
  O  O90  1  0.55672000  0.22992000  0.11359000  1.0
  O  O91  1  0.44328000  0.77008000  0.88641000  1.0
  O  O92  1  0.20712000  0.28588000  0.98161000  1.0
  O  O93  1  0.79288000  0.71412000  0.01840000  1.0
