# generated using pymatgen
data_InH8C12N4Cl3
_symmetry_space_group_name_H-M   'P 1'
_cell_length_a   19.26125951
_cell_length_b   19.26140000
_cell_length_c   19.26130000
_cell_angle_alpha   70.52900000
_cell_angle_beta   70.52850585
_cell_angle_gamma   109.47091483
_symmetry_Int_Tables_number   1
_chemical_formula_structural   InH8C12N4Cl3
_chemical_formula_sum   'In6 H48 C72 N24 Cl18'
_cell_volume   5500.94867892
_cell_formula_units_Z   6
loop_
 _symmetry_equiv_pos_site_id
 _symmetry_equiv_pos_as_xyz
  1  'x, y, z'
loop_
 _atom_site_type_symbol
 _atom_site_label
 _atom_site_symmetry_multiplicity
 _atom_site_fract_x
 _atom_site_fract_y
 _atom_site_fract_z
 _atom_site_occupancy
  In  In0  1  0.28757000  0.78757000  0.50000000  1.0
  In  In1  1  0.71243000  0.21243000  0.50000000  1.0
  In  In2  1  0.50000000  0.71243000  0.78757000  1.0
  In  In3  1  0.50000000  0.28757000  0.21243000  1.0
  In  In4  1  0.78757000  0.50000000  0.71243000  1.0
  In  In5  1  0.21243000  0.50000000  0.28757000  1.0
  H  H6  1  0.08867000  0.73002000  0.60318000  1.0
  H  H7  1  0.99252000  0.79270000  0.60928000  1.0
  H  H8  1  0.21890000  0.04060000  0.43769000  1.0
  H  H9  1  0.30495000  0.96771000  0.43978000  1.0
  H  H10  1  0.33320000  0.69185000  0.39682000  1.0
  H  H11  1  0.40198000  0.60181000  0.39072000  1.0
  H  H12  1  0.47829000  0.65659000  0.56232000  1.0
  H  H13  1  0.40749000  0.74474000  0.56022000  1.0
  H  H14  1  0.66680000  0.26998000  0.64135000  1.0
  H  H15  1  0.59802000  0.20730000  0.80018000  1.0
  H  H16  1  0.52171000  0.95939000  0.82169000  1.0
  H  H17  1  0.59250000  0.03228000  0.66276000  1.0
  H  H18  1  0.91133000  0.30815000  0.35865000  1.0
  H  H19  1  0.00748000  0.39820000  0.19982000  1.0
  H  H20  1  0.78109000  0.34340000  0.17831000  1.0
  H  H21  1  0.69505000  0.25527000  0.33724000  1.0
  H  H22  1  0.35865000  0.66679000  0.73003000  1.0
  H  H23  1  0.19983000  0.59802000  0.79270000  1.0
  H  H24  1  0.17830000  0.52170000  0.04061000  1.0
  H  H25  1  0.33725000  0.59251000  0.96771000  1.0
  H  H26  1  0.64135000  0.91133000  0.69185000  1.0
  H  H27  1  0.80017000  0.00747000  0.60181000  1.0
  H  H28  1  0.82170000  0.78110000  0.65659000  1.0
  H  H29  1  0.66276000  0.69505000  0.74473000  1.0
  H  H30  1  0.39682000  0.08867000  0.26998000  1.0
  H  H31  1  0.39072000  0.99253000  0.20730000  1.0
  H  H32  1  0.56231000  0.21890000  0.95940000  1.0
  H  H33  1  0.56022000  0.30495000  0.03229000  1.0
  H  H34  1  0.60318000  0.33320000  0.30815000  1.0
  H  H35  1  0.60928000  0.40198000  0.39819000  1.0
  H  H36  1  0.43768000  0.47829000  0.34341000  1.0
  H  H37  1  0.43978000  0.40749000  0.25526000  1.0
  H  H38  1  0.69185000  0.60318000  0.66680000  1.0
  H  H39  1  0.60180000  0.60928000  0.59802000  1.0
  H  H40  1  0.65659000  0.43768000  0.52171000  1.0
  H  H41  1  0.74473000  0.43978000  0.59251000  1.0
  H  H42  1  0.73002000  0.39682000  0.91133000  1.0
  H  H43  1  0.79270000  0.39072000  0.00748000  1.0
  H  H44  1  0.04060000  0.56231000  0.78110000  1.0
  H  H45  1  0.96771000  0.56022000  0.69505000  1.0
  H  H46  1  0.30815000  0.64135000  0.08867000  1.0
  H  H47  1  0.39820000  0.80017000  0.99252000  1.0
  H  H48  1  0.34341000  0.82170000  0.21891000  1.0
  H  H49  1  0.25527000  0.66276000  0.30495000  1.0
  H  H50  1  0.26998000  0.35865000  0.33320000  1.0
  H  H51  1  0.20730000  0.19983000  0.40198000  1.0
  H  H52  1  0.95939000  0.17830000  0.47829000  1.0
  H  H53  1  0.03229000  0.33725000  0.40749000  1.0
  C  C54  1  0.04626000  0.96319000  0.52597000  1.0
  C  C55  1  0.11407000  0.79837000  0.56751000  1.0
  C  C56  1  0.06138000  0.83342000  0.57081000  1.0
  C  C57  1  0.09888000  0.92194000  0.52370000  1.0
  C  C58  1  0.18768000  0.97168000  0.47508000  1.0
  C  C59  1  0.23561000  0.93159000  0.47547000  1.0
  C  C60  1  0.48916000  0.57224000  0.47402000  1.0
  C  C61  1  0.36588000  0.68158000  0.43249000  1.0
  C  C62  1  0.40423000  0.63220000  0.42919000  1.0
  C  C63  1  0.44565000  0.62259000  0.47630000  1.0
  C  C64  1  0.44676000  0.66277000  0.52492000  1.0
  C  C65  1  0.40707000  0.71108000  0.52452000  1.0
  C  C66  1  0.51084000  0.03681000  0.91693000  1.0
  C  C67  1  0.63411000  0.20163000  0.68430000  1.0
  C  C68  1  0.59577000  0.16658000  0.77203000  1.0
  C  C69  1  0.55435000  0.07805000  0.82306000  1.0
  C  C70  1  0.55324000  0.02832000  0.78399000  1.0
  C  C71  1  0.59293000  0.06841000  0.69599000  1.0
  C  C72  1  0.95375000  0.42778000  0.08307000  1.0
  C  C73  1  0.88592000  0.31841000  0.31571000  1.0
  C  C74  1  0.93862000  0.36781000  0.22796000  1.0
  C  C75  1  0.90111000  0.37741000  0.17695000  1.0
  C  C76  1  0.81233000  0.33725000  0.21598000  1.0
  C  C77  1  0.76439000  0.28892000  0.30402000  1.0
  C  C78  1  0.08308000  0.51085000  0.96318000  1.0
  C  C79  1  0.31571000  0.63412000  0.79837000  1.0
  C  C80  1  0.22797000  0.59577000  0.83342000  1.0
  C  C81  1  0.17694000  0.55435000  0.92195000  1.0
  C  C82  1  0.21601000  0.55324000  0.97168000  1.0
  C  C83  1  0.30401000  0.59293000  0.93159000  1.0
  C  C84  1  0.91692000  0.95374000  0.57224000  1.0
  C  C85  1  0.68429000  0.88593000  0.68159000  1.0
  C  C86  1  0.77204000  0.93862000  0.63219000  1.0
  C  C87  1  0.82306000  0.90112000  0.62259000  1.0
  C  C88  1  0.78400000  0.81232000  0.66277000  1.0
  C  C89  1  0.69598000  0.76439000  0.71109000  1.0
  C  C90  1  0.47402000  0.04625000  0.03682000  1.0
  C  C91  1  0.43249000  0.11408000  0.20163000  1.0
  C  C92  1  0.42919000  0.06138000  0.16658000  1.0
  C  C93  1  0.47630000  0.09889000  0.07805000  1.0
  C  C94  1  0.52492000  0.18768000  0.02831000  1.0
  C  C95  1  0.52452000  0.23560000  0.06841000  1.0
  C  C96  1  0.52597000  0.48915000  0.42777000  1.0
  C  C97  1  0.56752000  0.36589000  0.31841000  1.0
  C  C98  1  0.57081000  0.40423000  0.36780000  1.0
  C  C99  1  0.52370000  0.44564000  0.37741000  1.0
  C  C100  1  0.47508000  0.44676000  0.33723000  1.0
  C  C101  1  0.47548000  0.40707000  0.28892000  1.0
  C  C102  1  0.57223000  0.52597000  0.51084000  1.0
  C  C103  1  0.68158000  0.56751000  0.63412000  1.0
  C  C104  1  0.63220000  0.57081000  0.59577000  1.0
  C  C105  1  0.62258000  0.52370000  0.55436000  1.0
  C  C106  1  0.66276000  0.47507000  0.55324000  1.0
  C  C107  1  0.71108000  0.47548000  0.59294000  1.0
  C  C108  1  0.96319000  0.47403000  0.95374000  1.0
  C  C109  1  0.79837000  0.43249000  0.88592000  1.0
  C  C110  1  0.83342000  0.42919000  0.93862000  1.0
  C  C111  1  0.92195000  0.47631000  0.90111000  1.0
  C  C112  1  0.97169000  0.52492000  0.81232000  1.0
  C  C113  1  0.93159000  0.52453000  0.76438000  1.0
  C  C114  1  0.42777000  0.91693000  0.04625000  1.0
  C  C115  1  0.31841000  0.68429000  0.11408000  1.0
  C  C116  1  0.36781000  0.77204000  0.06138000  1.0
  C  C117  1  0.37741000  0.82305000  0.09889000  1.0
  C  C118  1  0.33725000  0.78402000  0.18767000  1.0
  C  C119  1  0.28891000  0.69597000  0.23562000  1.0
  C  C120  1  0.03681000  0.08307000  0.48916000  1.0
  C  C121  1  0.20163000  0.31570000  0.36589000  1.0
  C  C122  1  0.16658000  0.22797000  0.40423000  1.0
  C  C123  1  0.07805000  0.17694000  0.44565000  1.0
  C  C124  1  0.02832000  0.21601000  0.44676000  1.0
  C  C125  1  0.06841000  0.30401000  0.40707000  1.0
  N  N126  1  0.08714000  0.04859000  0.48380000  1.0
  N  N127  1  0.19934000  0.84653000  0.52081000  1.0
  N  N128  1  0.53240000  0.57095000  0.51620000  1.0
  N  N129  1  0.36734000  0.72015000  0.47919000  1.0
  N  N130  1  0.46760000  0.95140000  0.96145000  1.0
  N  N131  1  0.63266000  0.15347000  0.64719000  1.0
  N  N132  1  0.91286000  0.42906000  0.03855000  1.0
  N  N133  1  0.80067000  0.27986000  0.35281000  1.0
  N  N134  1  0.03855000  0.46760000  0.04860000  1.0
  N  N135  1  0.35282000  0.63266000  0.84652000  1.0
  N  N136  1  0.96145000  0.91286000  0.57095000  1.0
  N  N137  1  0.64719000  0.80066000  0.72015000  1.0
  N  N138  1  0.51619000  0.08714000  0.95141000  1.0
  N  N139  1  0.47919000  0.19934000  0.15347000  1.0
  N  N140  1  0.48380000  0.53240000  0.42906000  1.0
  N  N141  1  0.52081000  0.36733000  0.27985000  1.0
  N  N142  1  0.57094000  0.48380000  0.46761000  1.0
  N  N143  1  0.72015000  0.52081000  0.63266000  1.0
  N  N144  1  0.04860000  0.51620000  0.91286000  1.0
  N  N145  1  0.84653000  0.47919000  0.80066000  1.0
  N  N146  1  0.42905000  0.96145000  0.08714000  1.0
  N  N147  1  0.27986000  0.64719000  0.19933000  1.0
  N  N148  1  0.95140000  0.03855000  0.53240000  1.0
  N  N149  1  0.15347000  0.35281000  0.36734000  1.0
  Cl  Cl150  1  0.18184000  0.65613000  0.63275000  1.0
  Cl  Cl151  1  0.28888000  0.81459000  0.36725000  1.0
  Cl  Cl152  1  0.71113000  0.34388000  0.47428000  1.0
  Cl  Cl153  1  0.81816000  0.18541000  0.52571000  1.0
  Cl  Cl154  1  0.52571000  0.71112000  0.65613000  1.0
  Cl  Cl155  1  0.47429000  0.81816000  0.81458000  1.0
  Cl  Cl156  1  0.36725000  0.18183000  0.34388000  1.0
  Cl  Cl157  1  0.63275000  0.28888000  0.18541000  1.0
  Cl  Cl158  1  0.81459000  0.63275000  0.71112000  1.0
  Cl  Cl159  1  0.65613000  0.36726000  0.81816000  1.0
  Cl  Cl160  1  0.18541000  0.47428000  0.18184000  1.0
  Cl  Cl161  1  0.34387000  0.52571000  0.28888000  1.0
  Cl  Cl162  1  0.39479000  0.89479000  0.50001000  1.0
  Cl  Cl163  1  0.60521000  0.10521000  0.49999000  1.0
  Cl  Cl164  1  0.50001000  0.60521000  0.89479000  1.0
  Cl  Cl165  1  0.49999000  0.39479000  0.10521000  1.0
  Cl  Cl166  1  0.89479000  0.49999000  0.60521000  1.0
  Cl  Cl167  1  0.10520000  0.50000000  0.39480000  1.0
