# generated using pymatgen
data_AlH12C21NO6
_symmetry_space_group_name_H-M   'P 1'
_cell_length_a   4.13132000
_cell_length_b   13.47350365
_cell_length_c   13.47320000
_cell_angle_alpha   119.99976345
_cell_angle_beta   90.00080000
_cell_angle_gamma   89.99920002
_symmetry_Int_Tables_number   1
_chemical_formula_structural   AlH12C21NO6
_chemical_formula_sum   'Al1 H12 C21 N1 O6'
_cell_volume   649.48900471
_cell_formula_units_Z   1
loop_
 _symmetry_equiv_pos_site_id
 _symmetry_equiv_pos_as_xyz
  1  'x, y, z'
loop_
 _atom_site_type_symbol
 _atom_site_label
 _atom_site_symmetry_multiplicity
 _atom_site_fract_x
 _atom_site_fract_y
 _atom_site_fract_z
 _atom_site_occupancy
  Al  Al0  1  0.00000000  0.50000000  0.00000000  1.0
  H  H1  1  0.18921000  0.78745000  0.96940000  1.0
  H  H2  1  0.20183000  0.89557000  0.86608000  1.0
  H  H3  1  0.79815000  0.63393000  0.60444000  1.0
  H  H4  1  0.81077000  0.53061000  0.71256000  1.0
  H  H5  1  0.79815000  0.97051000  0.86607000  1.0
  H  H6  1  0.81079000  0.18195000  0.96939000  1.0
  H  H7  1  0.18922000  0.18195000  0.71255000  1.0
  H  H8  1  0.20183000  0.97051000  0.60444000  1.0
  H  H9  1  0.79825000  0.89554000  0.52949000  1.0
  H  H10  1  0.81087000  0.78741000  0.31805000  1.0
  H  H11  1  0.18914000  0.53062000  0.31806000  1.0
  H  H12  1  0.20177000  0.63395000  0.52950000  1.0
  C  C13  1  0.50001000  0.32458000  0.91228000  1.0
  C  C14  1  0.50000000  0.58770000  0.17542000  1.0
  C  C15  1  0.50000000  0.58771000  0.91230000  1.0
  C  C16  1  0.33027000  0.75499000  0.89083000  1.0
  C  C17  1  0.33306000  0.81508000  0.83176000  1.0
  C  C18  1  0.49999000  0.77254000  0.72747000  1.0
  C  C19  1  0.66696000  0.66826000  0.68494000  1.0
  C  C20  1  0.66969000  0.60918000  0.74502000  1.0
  C  C21  1  0.50000000  0.65176000  0.84826000  1.0
  C  C22  1  0.66693000  0.01668000  0.83175000  1.0
  C  C23  1  0.66974000  0.13583000  0.89081000  1.0
  C  C24  1  0.49999000  0.19649000  0.84824000  1.0
  C  C25  1  0.33029000  0.13583000  0.74500000  1.0
  C  C26  1  0.33304000  0.01667000  0.68493000  1.0
  C  C27  1  0.50000000  0.95493000  0.72746000  1.0
  C  C28  1  0.66700000  0.81506000  0.48333000  1.0
  C  C29  1  0.66977000  0.75497000  0.36417000  1.0
  C  C30  1  0.50002000  0.65175000  0.30352000  1.0
  C  C31  1  0.33025000  0.60918000  0.36417000  1.0
  C  C32  1  0.33302000  0.66826000  0.48333000  1.0
  C  C33  1  0.50000000  0.77254000  0.54508000  1.0
  N  N34  1  0.49999000  0.83334000  0.66667000  1.0
  O  O35  1  0.73623000  0.60585000  0.98016000  1.0
  O  O36  1  0.73623000  0.37431000  0.89415000  1.0
  O  O37  1  0.73622000  0.51983000  0.12569000  1.0
  O  O38  1  0.26376000  0.51985000  0.89415000  1.0
  O  O39  1  0.26376000  0.60584000  0.12569000  1.0
  O  O40  1  0.26379000  0.37431000  0.98016000  1.0
