# generated using pymatgen
data_DyH18C24NO7
_symmetry_space_group_name_H-M   'P 1'
_cell_length_a   8.69246000
_cell_length_b   10.78890000
_cell_length_c   12.11030000
_cell_angle_alpha   69.89020000
_cell_angle_beta   84.32160000
_cell_angle_gamma   77.92070000
_symmetry_Int_Tables_number   1
_chemical_formula_structural   DyH18C24NO7
_chemical_formula_sum   'Dy2 H36 C48 N2 O14'
_cell_volume   1042.42592106
_cell_formula_units_Z   2
loop_
 _symmetry_equiv_pos_site_id
 _symmetry_equiv_pos_as_xyz
  1  'x, y, z'
loop_
 _atom_site_type_symbol
 _atom_site_label
 _atom_site_symmetry_multiplicity
 _atom_site_fract_x
 _atom_site_fract_y
 _atom_site_fract_z
 _atom_site_occupancy
  Dy  Dy0  1  0.28430000  0.02343000  0.55710000  1.0
  Dy  Dy1  1  0.71570000  0.97657000  0.44291000  1.0
  H  H2  1  0.77002000  0.36280000  0.23687000  1.0
  H  H3  1  0.22998000  0.63720000  0.76313000  1.0
  H  H4  1  0.00319000  0.70142000  0.14874000  1.0
  H  H5  1  0.99682000  0.29857000  0.85126000  1.0
  H  H6  1  0.14328000  0.35201000  0.44971000  1.0
  H  H7  1  0.85673000  0.64798000  0.55029000  1.0
  H  H8  1  0.03541000  0.78596000  0.30766000  1.0
  H  H9  1  0.96459000  0.21404000  0.69234000  1.0
  H  H10  1  0.22107000  0.90317000  0.35397000  1.0
  H  H11  1  0.77892000  0.09684000  0.64602000  1.0
  H  H12  1  0.59233000  0.55955000  0.38783000  1.0
  H  H13  1  0.40767000  0.44046000  0.61216000  1.0
  H  H14  1  0.40264000  0.43764000  0.34595000  1.0
  H  H15  1  0.59737000  0.56237000  0.65405000  1.0
  H  H16  1  0.00932000  0.67014000  0.97555000  1.0
  H  H17  1  0.99068000  0.32985000  0.02445000  1.0
  H  H18  1  0.88436000  0.79836000  0.78307000  1.0
  H  H19  1  0.11565000  0.20164000  0.21692000  1.0
  H  H20  1  0.44476000  0.68410000  0.92926000  1.0
  H  H21  1  0.55525000  0.31590000  0.07074000  1.0
  H  H22  1  0.56637000  0.56031000  0.12402000  1.0
  H  H23  1  0.43364000  0.43968000  0.87598000  1.0
  H  H24  1  0.09283000  0.86755000  0.88704000  1.0
  H  H25  1  0.90716000  0.13246000  0.11296000  1.0
  H  H26  1  0.45798000  0.03341000  0.87387000  1.0
  H  H27  1  0.54201000  0.96659000  0.12612000  1.0
  H  H28  1  0.32334000  0.12973000  0.94901000  1.0
  H  H29  1  0.67665000  0.87027000  0.05098000  1.0
  H  H30  1  0.29431000  0.15172000  0.79816000  1.0
  H  H31  1  0.70568000  0.84829000  0.20184000  1.0
  H  H32  1  0.17325000  0.81448000  0.06149000  1.0
  H  H33  1  0.82675000  0.18552000  0.93850000  1.0
  H  H34  1  0.20215000  0.95194000  0.10214000  1.0
  H  H35  1  0.79785000  0.04805000  0.89786000  1.0
  H  H36  1  0.36707000  0.84019000  0.06811000  1.0
  H  H37  1  0.63293000  0.15982000  0.93188000  1.0
  C  C38  1  0.93861000  0.20592000  0.42523000  1.0
  C  C39  1  0.06140000  0.79407000  0.57476000  1.0
  C  C40  1  0.95273000  0.34669000  0.35104000  1.0
  C  C41  1  0.04727000  0.65331000  0.64896000  1.0
  C  C42  1  0.85604000  0.41401000  0.25408000  1.0
  C  C43  1  0.14396000  0.58599000  0.74592000  1.0
  C  C44  1  0.87738000  0.54064000  0.17749000  1.0
  C  C45  1  0.12263000  0.45935000  0.82251000  1.0
  C  C46  1  0.99034000  0.60051000  0.20496000  1.0
  C  C47  1  0.00967000  0.39948000  0.79504000  1.0
  C  C48  1  0.08768000  0.53479000  0.30137000  1.0
  C  C49  1  0.91233000  0.46520000  0.69863000  1.0
  C  C50  1  0.06903000  0.40591000  0.37411000  1.0
  C  C51  1  0.93098000  0.59408000  0.62590000  1.0
  C  C52  1  0.20544000  0.60322000  0.32450000  1.0
  C  C53  1  0.79456000  0.39678000  0.67551000  1.0
  C  C54  1  0.15758000  0.73602000  0.32371000  1.0
  C  C55  1  0.84241000  0.26398000  0.67629000  1.0
  C  C56  1  0.26206000  0.80196000  0.35067000  1.0
  C  C57  1  0.73793000  0.19804000  0.64933000  1.0
  C  C58  1  0.41817000  0.73770000  0.37682000  1.0
  C  C59  1  0.58183000  0.26231000  0.62318000  1.0
  C  C60  1  0.46977000  0.60792000  0.37042000  1.0
  C  C61  1  0.53023000  0.39209000  0.62959000  1.0
  C  C62  1  0.36359000  0.54031000  0.34665000  1.0
  C  C63  1  0.63642000  0.45970000  0.65336000  1.0
  C  C64  1  0.52411000  0.80548000  0.41546000  1.0
  C  C65  1  0.47588000  0.19453000  0.58454000  1.0
  C  C66  1  0.79638000  0.60928000  0.06475000  1.0
  C  C67  1  0.20363000  0.39072000  0.93524000  1.0
  C  C68  1  0.88389000  0.67716000  0.96668000  1.0
  C  C69  1  0.11612000  0.32284000  0.03332000  1.0
  C  C70  1  0.81543000  0.74733000  0.85872000  1.0
  C  C71  1  0.18458000  0.25266000  0.14128000  1.0
  C  C72  1  0.65633000  0.75138000  0.84409000  1.0
  C  C73  1  0.34367000  0.24862000  0.15591000  1.0
  C  C74  1  0.56822000  0.68235000  0.94057000  1.0
  C  C75  1  0.43179000  0.31764000  0.05943000  1.0
  C  C76  1  0.63729000  0.61154000  0.04942000  1.0
  C  C77  1  0.36272000  0.38845000  0.95058000  1.0
  C  C78  1  0.58916000  0.82770000  0.72452000  1.0
  C  C79  1  0.41084000  0.17230000  0.27548000  1.0
  C  C80  1  0.15650000  0.95173000  0.84602000  1.0
  C  C81  1  0.84348000  0.04827000  0.15397000  1.0
  C  C82  1  0.33401000  0.07913000  0.88332000  1.0
  C  C83  1  0.66598000  0.92088000  0.11667000  1.0
  C  C84  1  0.24549000  0.89121000  0.04506000  1.0
  C  C85  1  0.75450000  0.10879000  0.95494000  1.0
  N  N86  1  0.23833000  0.97524000  0.92213000  1.0
  N  N87  1  0.76166000  0.02477000  0.07787000  1.0
  O  O88  1  0.04038000  0.13863000  0.50232000  1.0
  O  O89  1  0.95962000  0.86137000  0.49768000  1.0
  O  O90  1  0.82339000  0.16131000  0.40598000  1.0
  O  O91  1  0.17663000  0.83868000  0.59402000  1.0
  O  O92  1  0.67282000  0.77566000  0.40488000  1.0
  O  O93  1  0.32717000  0.22436000  0.59511000  1.0
  O  O94  1  0.46218000  0.89994000  0.45800000  1.0
  O  O95  1  0.53781000  0.10007000  0.54201000  1.0
  O  O96  1  0.68907000  0.84679000  0.63896000  1.0
  O  O97  1  0.31092000  0.15321000  0.36104000  1.0
  O  O98  1  0.44096000  0.86871000  0.71699000  1.0
  O  O99  1  0.55903000  0.13130000  0.28302000  1.0
  O  O100  1  0.14633000  0.01762000  0.73894000  1.0
  O  O101  1  0.85366000  0.98238000  0.26106000  1.0
