# generated using pymatgen
data_Cd2H6C5BrN2Cl3O4
_symmetry_space_group_name_H-M   'P 1'
_cell_length_a   6.93738000
_cell_length_b   9.94445000
_cell_length_c   9.94451000
_cell_angle_alpha   106.21100000
_cell_angle_beta   90.00000000
_cell_angle_gamma   89.99950000
_symmetry_Int_Tables_number   1
_chemical_formula_structural   Cd2H6C5BrN2Cl3O4
_chemical_formula_sum   'Cd4 H12 C10 Br2 N4 Cl6 O8'
_cell_volume   658.77859865
_cell_formula_units_Z   2
loop_
 _symmetry_equiv_pos_site_id
 _symmetry_equiv_pos_as_xyz
  1  'x, y, z'
loop_
 _atom_site_type_symbol
 _atom_site_label
 _atom_site_symmetry_multiplicity
 _atom_site_fract_x
 _atom_site_fract_y
 _atom_site_fract_z
 _atom_site_occupancy
  Cd  Cd0  1  0.15890000  0.64634000  0.01324000  1.0
  Cd  Cd1  1  0.65890000  0.35367000  0.98676000  1.0
  Cd  Cd2  1  0.34110000  0.98676000  0.35365000  1.0
  Cd  Cd3  1  0.84110000  0.01324000  0.64634000  1.0
  H  H4  1  0.08060000  0.42211000  0.68624000  1.0
  H  H5  1  0.58060000  0.57789000  0.31377000  1.0
  H  H6  1  0.41940000  0.31376000  0.57789000  1.0
  H  H7  1  0.91940000  0.68624000  0.42211000  1.0
  H  H8  1  0.45524000  0.83906000  0.01034000  1.0
  H  H9  1  0.95524000  0.16095000  0.98965000  1.0
  H  H10  1  0.04476000  0.98966000  0.16094000  1.0
  H  H11  1  0.54476000  0.01035000  0.83905000  1.0
  H  H12  1  0.56036000  0.69396000  0.98314000  1.0
  H  H13  1  0.06036000  0.30605000  0.01686000  1.0
  H  H14  1  0.93963000  0.01686000  0.30604000  1.0
  H  H15  1  0.43964000  0.98314000  0.69395000  1.0
  C  C16  1  0.04444000  0.52228000  0.66790000  1.0
  C  C17  1  0.54444000  0.47773000  0.33210000  1.0
  C  C18  1  0.45556000  0.33210000  0.47772000  1.0
  C  C19  1  0.95556000  0.66790000  0.52228000  1.0
  C  C20  1  0.00000000  0.53475000  0.53476000  1.0
  C  C21  1  0.50000000  0.46524000  0.46525000  1.0
  C  C22  1  0.00000000  0.75955000  0.75956000  1.0
  C  C23  1  0.50000000  0.24045000  0.24045000  1.0
  C  C24  1  0.00000000  0.88702000  0.88702000  1.0
  C  C25  1  0.50000000  0.11298000  0.11298000  1.0
  Br  Br26  1  0.00001000  0.37729000  0.37731000  1.0
  Br  Br27  1  0.50000000  0.62269000  0.62270000  1.0
  N  N28  1  0.04458000  0.63540000  0.77908000  1.0
  N  N29  1  0.54458000  0.36460000  0.22093000  1.0
  N  N30  1  0.45542000  0.22093000  0.36460000  1.0
  N  N31  1  0.95541000  0.77907000  0.63541000  1.0
  Cl  Cl32  1  0.29313000  0.39762000  0.92415000  1.0
  Cl  Cl33  1  0.79312000  0.60238000  0.07585000  1.0
  Cl  Cl34  1  0.20687000  0.07585000  0.60237000  1.0
  Cl  Cl35  1  0.70688000  0.92415000  0.39762000  1.0
  Cl  Cl36  1  0.25000000  0.72438000  0.27562000  1.0
  Cl  Cl37  1  0.75000000  0.27562000  0.72437000  1.0
  O  O38  1  0.04949000  0.86877000  0.00315000  1.0
  O  O39  1  0.54951000  0.13123000  0.99685000  1.0
  O  O40  1  0.45051000  0.99686000  0.13123000  1.0
  O  O41  1  0.95051000  0.00314000  0.86878000  1.0
  O  O42  1  0.44924000  0.73955000  0.95197000  1.0
  O  O43  1  0.94924000  0.26045000  0.04803000  1.0
  O  O44  1  0.05076000  0.04803000  0.26045000  1.0
  O  O45  1  0.55077000  0.95197000  0.73955000  1.0
