# generated using pymatgen
data_ErH17C15(NO3)3
_symmetry_space_group_name_H-M   'P 1'
_cell_length_a   12.94160000
_cell_length_b   12.94230000
_cell_length_c   14.58180000
_cell_angle_alpha   83.79450000
_cell_angle_beta   83.79490000
_cell_angle_gamma   61.75430000
_symmetry_Int_Tables_number   1
_chemical_formula_structural   ErH17C15(NO3)3
_chemical_formula_sum   'Er4 H68 C60 N12 O36'
_cell_volume   2134.41232593
_cell_formula_units_Z   4
loop_
 _symmetry_equiv_pos_site_id
 _symmetry_equiv_pos_as_xyz
  1  'x, y, z'
loop_
 _atom_site_type_symbol
 _atom_site_label
 _atom_site_symmetry_multiplicity
 _atom_site_fract_x
 _atom_site_fract_y
 _atom_site_fract_z
 _atom_site_occupancy
  Er  Er0  1  0.65481000  0.01857000  0.46932000  1.0
  Er  Er1  1  0.98143000  0.34518000  0.03069000  1.0
  Er  Er2  1  0.34520000  0.98145000  0.53069000  1.0
  Er  Er3  1  0.01858000  0.65481000  0.96930000  1.0
  H  H4  1  0.52259000  0.69085000  0.62709000  1.0
  H  H5  1  0.30918000  0.47746000  0.87288000  1.0
  H  H6  1  0.47741000  0.30919000  0.37291000  1.0
  H  H7  1  0.69077000  0.52259000  0.12711000  1.0
  H  H8  1  0.79660000  0.73887000  0.72798000  1.0
  H  H9  1  0.26112000  0.20345000  0.77206000  1.0
  H  H10  1  0.20342000  0.26112000  0.27202000  1.0
  H  H11  1  0.73890000  0.79655000  0.22795000  1.0
  H  H12  1  0.72116000  0.46273000  0.85230000  1.0
  H  H13  1  0.53730000  0.27882000  0.64769000  1.0
  H  H14  1  0.27881000  0.53729000  0.14769000  1.0
  H  H15  1  0.46270000  0.72121000  0.35232000  1.0
  H  H16  1  0.83038000  0.73208000  0.44635000  1.0
  H  H17  1  0.26796000  0.16962000  0.05365000  1.0
  H  H18  1  0.16961000  0.26792000  0.55368000  1.0
  H  H19  1  0.73205000  0.83038000  0.94633000  1.0
  H  H20  1  0.99219000  0.56873000  0.27732000  1.0
  H  H21  1  0.43129000  0.00779000  0.22269000  1.0
  H  H22  1  0.00779000  0.43123000  0.72272000  1.0
  H  H23  1  0.56870000  0.99220000  0.77731000  1.0
  H  H24  1  0.93368000  0.56392000  0.39359000  1.0
  H  H25  1  0.43612000  0.06630000  0.10642000  1.0
  H  H26  1  0.06630000  0.43608000  0.60646000  1.0
  H  H27  1  0.56389000  0.93369000  0.89358000  1.0
  H  H28  1  0.08730000  0.51958000  0.36995000  1.0
  H  H29  1  0.48045000  0.91270000  0.13007000  1.0
  H  H30  1  0.91268000  0.48040000  0.63011000  1.0
  H  H31  1  0.51955000  0.08730000  0.86993000  1.0
  H  H32  1  0.14304000  0.67485000  0.30753000  1.0
  H  H33  1  0.32514000  0.85696000  0.19246000  1.0
  H  H34  1  0.85695000  0.32513000  0.69251000  1.0
  H  H35  1  0.67483000  0.14304000  0.80751000  1.0
  H  H36  1  0.04035000  0.82298000  0.33024000  1.0
  H  H37  1  0.17700000  0.95969000  0.16974000  1.0
  H  H38  1  0.95963000  0.17700000  0.66976000  1.0
  H  H39  1  0.82297000  0.04035000  0.83025000  1.0
  H  H40  1  0.03088000  0.75936000  0.22959000  1.0
  H  H41  1  0.24065000  0.96912000  0.27041000  1.0
  H  H42  1  0.96913000  0.24058000  0.77043000  1.0
  H  H43  1  0.75937000  0.03087000  0.72958000  1.0
  H  H44  1  0.79446000  0.94155000  0.25402000  1.0
  H  H45  1  0.05846000  0.20553000  0.24597000  1.0
  H  H46  1  0.20555000  0.05846000  0.74599000  1.0
  H  H47  1  0.94155000  0.79450000  0.75402000  1.0
  H  H48  1  0.65161000  0.23934000  0.07594000  1.0
  H  H49  1  0.76066000  0.34842000  0.42405000  1.0
  H  H50  1  0.34838000  0.76066000  0.92406000  1.0
  H  H51  1  0.23934000  0.65167000  0.57592000  1.0
  H  H52  1  0.69692000  0.26390000  0.17873000  1.0
  H  H53  1  0.73611000  0.30298000  0.32131000  1.0
  H  H54  1  0.30314000  0.73611000  0.82123000  1.0
  H  H55  1  0.26392000  0.69681000  0.67879000  1.0
  H  H56  1  0.57033000  0.24217000  0.18454000  1.0
  H  H57  1  0.75780000  0.42960000  0.31539000  1.0
  H  H58  1  0.42971000  0.75785000  0.81550000  1.0
  H  H59  1  0.24213000  0.57028000  0.68444000  1.0
  H  H60  1  0.73934000  0.04246000  0.03019000  1.0
  H  H61  1  0.95753000  0.26063000  0.46981000  1.0
  H  H62  1  0.26065000  0.95754000  0.96983000  1.0
  H  H63  1  0.04243000  0.73934000  0.53018000  1.0
  H  H64  1  0.83546000  0.92698000  0.10618000  1.0
  H  H65  1  0.07303000  0.16453000  0.39382000  1.0
  H  H66  1  0.16454000  0.07302000  0.89383000  1.0
  H  H67  1  0.92696000  0.83547000  0.60617000  1.0
  H  H68  1  0.86933000  0.04163000  0.06032000  1.0
  H  H69  1  0.95837000  0.13065000  0.43967000  1.0
  H  H70  1  0.13067000  0.95836000  0.93967000  1.0
  H  H71  1  0.04163000  0.86931000  0.56030000  1.0
  C  C72  1  0.61473000  0.56867000  0.73985000  1.0
  C  C73  1  0.43136000  0.38528000  0.76012000  1.0
  C  C74  1  0.38525000  0.43135000  0.26014000  1.0
  C  C75  1  0.56861000  0.61476000  0.23987000  1.0
  C  C76  1  0.59208000  0.66358000  0.67418000  1.0
  C  C77  1  0.33646000  0.40796000  0.82580000  1.0
  C  C78  1  0.40792000  0.33645000  0.32581000  1.0
  C  C79  1  0.66352000  0.59208000  0.17420000  1.0
  C  C80  1  0.65810000  0.72394000  0.67004000  1.0
  C  C81  1  0.27607000  0.34195000  0.82996000  1.0
  C  C82  1  0.34191000  0.27607000  0.32996000  1.0
  C  C83  1  0.72391000  0.65807000  0.17003000  1.0
  C  C84  1  0.74589000  0.69113000  0.73157000  1.0
  C  C85  1  0.30888000  0.25415000  0.76845000  1.0
  C  C86  1  0.25412000  0.30888000  0.26844000  1.0
  C  C87  1  0.69113000  0.74586000  0.23155000  1.0
  C  C88  1  0.76870000  0.59689000  0.79707000  1.0
  C  C89  1  0.40311000  0.23132000  0.70294000  1.0
  C  C90  1  0.23130000  0.40311000  0.20293000  1.0
  C  C91  1  0.59689000  0.76870000  0.29706000  1.0
  C  C92  1  0.70377000  0.53562000  0.80096000  1.0
  C  C93  1  0.46441000  0.29623000  0.69903000  1.0
  C  C94  1  0.29622000  0.46440000  0.19903000  1.0
  C  C95  1  0.53559000  0.70379000  0.30098000  1.0
  C  C96  1  0.54827000  0.50694000  0.74603000  1.0
  C  C97  1  0.49310000  0.45174000  0.75393000  1.0
  C  C98  1  0.45171000  0.49310000  0.25396000  1.0
  C  C99  1  0.50687000  0.54829000  0.24607000  1.0
  C  C100  1  0.63288000  0.82484000  0.60016000  1.0
  C  C101  1  0.17519000  0.36719000  0.89986000  1.0
  C  C102  1  0.36714000  0.17518000  0.39985000  1.0
  C  C103  1  0.82481000  0.63281000  0.10014000  1.0
  C  C104  1  0.86413000  0.55863000  0.86241000  1.0
  C  C105  1  0.44136000  0.13588000  0.63760000  1.0
  C  C106  1  0.13586000  0.44137000  0.13759000  1.0
  C  C107  1  0.55865000  0.86413000  0.36241000  1.0
  C  C108  1  0.88075000  0.77417000  0.40895000  1.0
  C  C109  1  0.22585000  0.11925000  0.09104000  1.0
  C  C110  1  0.11924000  0.22582000  0.59108000  1.0
  C  C111  1  0.77416000  0.88074000  0.90894000  1.0
  C  C112  1  0.99834000  0.58175000  0.34936000  1.0
  C  C113  1  0.41828000  0.00165000  0.15065000  1.0
  C  C114  1  0.00164000  0.41823000  0.65069000  1.0
  C  C115  1  0.58173000  0.99835000  0.84935000  1.0
  C  C116  1  0.05133000  0.74280000  0.30271000  1.0
  C  C117  1  0.25720000  0.94868000  0.19728000  1.0
  C  C118  1  0.94866000  0.25717000  0.69731000  1.0
  C  C119  1  0.74279000  0.05133000  0.80270000  1.0
  C  C120  1  0.73789000  0.03741000  0.24973000  1.0
  C  C121  1  0.96259000  0.26210000  0.25026000  1.0
  C  C122  1  0.26214000  0.96260000  0.75028000  1.0
  C  C123  1  0.03741000  0.73789000  0.74973000  1.0
  C  C124  1  0.65797000  0.21606000  0.15028000  1.0
  C  C125  1  0.78393000  0.34200000  0.34971000  1.0
  C  C126  1  0.34206000  0.78395000  0.84972000  1.0
  C  C127  1  0.21605000  0.65794000  0.65026000  1.0
  C  C128  1  0.79770000  0.02116000  0.08627000  1.0
  C  C129  1  0.97884000  0.20227000  0.41372000  1.0
  C  C130  1  0.20230000  0.97884000  0.91373000  1.0
  C  C131  1  0.02115000  0.79770000  0.58626000  1.0
  N  N132  1  0.97469000  0.70213000  0.35773000  1.0
  N  N133  1  0.29789000  0.02531000  0.14226000  1.0
  N  N134  1  0.02530000  0.29785000  0.64229000  1.0
  N  N135  1  0.70212000  0.97469000  0.85773000  1.0
  N  N136  1  0.73068000  0.08904000  0.16501000  1.0
  N  N137  1  0.91096000  0.26930000  0.33498000  1.0
  N  N138  1  0.26935000  0.91097000  0.83500000  1.0
  N  N139  1  0.08903000  0.73068000  0.66500000  1.0
  N  N140  1  0.73209000  0.16706000  0.53788000  1.0
  N  N141  1  0.83290000  0.26795000  0.96211000  1.0
  N  N142  1  0.26793000  0.83296000  0.46212000  1.0
  N  N143  1  0.16711000  0.73205000  0.03786000  1.0
  O  O144  1  0.53236000  0.87570000  0.56709000  1.0
  O  O145  1  0.12435000  0.46770000  0.93291000  1.0
  O  O146  1  0.46766000  0.12431000  0.43291000  1.0
  O  O147  1  0.87564000  0.53229000  0.06710000  1.0
  O  O148  1  0.71268000  0.85534000  0.57616000  1.0
  O  O149  1  0.14468000  0.28741000  0.92387000  1.0
  O  O150  1  0.28734000  0.14468000  0.42386000  1.0
  O  O151  1  0.85534000  0.71258000  0.07614000  1.0
  O  O152  1  0.89355000  0.63530000  0.87927000  1.0
  O  O153  1  0.36466000  0.10650000  0.62075000  1.0
  O  O154  1  0.10645000  0.36470000  0.12073000  1.0
  O  O155  1  0.63535000  0.89352000  0.37925000  1.0
  O  O156  1  0.90863000  0.45258000  0.89471000  1.0
  O  O157  1  0.54742000  0.09139000  0.60529000  1.0
  O  O158  1  0.09137000  0.54742000  0.10529000  1.0
  O  O159  1  0.45259000  0.90862000  0.39473000  1.0
  O  O160  1  0.84996000  0.88080000  0.41602000  1.0
  O  O161  1  0.11923000  0.15004000  0.08395000  1.0
  O  O162  1  0.15004000  0.11920000  0.58398000  1.0
  O  O163  1  0.88078000  0.84996000  0.91603000  1.0
  O  O164  1  0.68509000  0.09209000  0.32056000  1.0
  O  O165  1  0.90789000  0.31489000  0.17944000  1.0
  O  O166  1  0.31494000  0.90791000  0.67945000  1.0
  O  O167  1  0.09211000  0.68509000  0.82055000  1.0
  O  O168  1  0.78744000  0.05400000  0.55029000  1.0
  O  O169  1  0.94598000  0.21259000  0.94972000  1.0
  O  O170  1  0.21258000  0.94602000  0.44970000  1.0
  O  O171  1  0.05404000  0.78740000  0.05027000  1.0
  O  O172  1  0.64739000  0.20879000  0.48379000  1.0
  O  O173  1  0.79117000  0.35266000  0.01619000  1.0
  O  O174  1  0.35263000  0.79122000  0.51622000  1.0
  O  O175  1  0.20884000  0.64734000  0.98379000  1.0
  O  O176  1  0.75917000  0.23088000  0.57599000  1.0
  O  O177  1  0.76908000  0.24088000  0.92400000  1.0
  O  O178  1  0.24084000  0.76914000  0.42403000  1.0
  O  O179  1  0.23094000  0.75913000  0.07595000  1.0
