# generated using pymatgen
data_ZnH21C47N5O12
_symmetry_space_group_name_H-M   'P 1'
_cell_length_a   14.75730000
_cell_length_b   16.19050000
_cell_length_c   27.90650000
_cell_angle_alpha   90.21940000
_cell_angle_beta   89.97140000
_cell_angle_gamma   89.98840000
_symmetry_Int_Tables_number   1
_chemical_formula_structural   ZnH21C47N5O12
_chemical_formula_sum   'Zn2 H42 C94 N10 O24'
_cell_volume   6667.59620978
_cell_formula_units_Z   2
loop_
 _symmetry_equiv_pos_site_id
 _symmetry_equiv_pos_as_xyz
  1  'x, y, z'
loop_
 _atom_site_type_symbol
 _atom_site_label
 _atom_site_symmetry_multiplicity
 _atom_site_fract_x
 _atom_site_fract_y
 _atom_site_fract_z
 _atom_site_occupancy
  Zn  Zn0  1  0.59734000  0.49996000  0.49996000  1.0
  Zn  Zn1  1  0.40196000  0.49993000  0.50003000  1.0
  H  H2  1  0.64449000  0.49797000  0.35033000  1.0
  H  H3  1  0.64462000  0.50326000  0.64961000  1.0
  H  H4  1  0.64865000  0.50109000  0.26005000  1.0
  H  H5  1  0.64867000  0.50023000  0.73988000  1.0
  H  H6  1  0.58240000  0.70506000  0.12256000  1.0
  H  H7  1  0.58253000  0.29559000  0.87737000  1.0
  H  H8  1  0.35419000  0.49066000  0.65385000  1.0
  H  H9  1  0.35401000  0.50875000  0.34616000  1.0
  H  H10  1  0.47619000  0.69884000  0.87875000  1.0
  H  H11  1  0.47616000  0.30182000  0.12117000  1.0
  H  H12  1  0.50298000  0.70534000  0.96640000  1.0
  H  H13  1  0.50282000  0.29538000  0.03351000  1.0
  H  H14  1  0.05343000  0.53284000  0.37115000  1.0
  H  H15  1  0.14274000  0.61410000  0.31259000  1.0
  H  H16  1  0.23709000  0.73260000  0.34057000  1.0
  H  H17  1  0.24464000  0.76669000  0.42770000  1.0
  H  H18  1  0.15909000  0.68306000  0.48637000  1.0
  H  H19  1  0.94689000  0.28094000  0.52969000  1.0
  H  H20  1  0.86089000  0.18705000  0.58305000  1.0
  H  H21  1  0.76907000  0.24501000  0.65028000  1.0
  H  H22  1  0.76031000  0.39691000  0.66222000  1.0
  H  H23  1  0.84321000  0.49135000  0.60740000  1.0
  H  H24  1  0.05305000  0.46679000  0.62894000  1.0
  H  H25  1  0.14238000  0.38553000  0.68742000  1.0
  H  H26  1  0.23708000  0.26725000  0.65938000  1.0
  H  H27  1  0.24491000  0.23336000  0.57222000  1.0
  H  H28  1  0.15932000  0.31698000  0.51360000  1.0
  H  H29  1  0.94679000  0.71898000  0.47036000  1.0
  H  H30  1  0.86085000  0.81284000  0.41698000  1.0
  H  H31  1  0.76933000  0.75488000  0.34972000  1.0
  H  H32  1  0.76084000  0.60299000  0.33770000  1.0
  H  H33  1  0.84368000  0.50855000  0.39252000  1.0
  H  H34  1  0.71162000  0.66036000  0.98784000  1.0
  H  H35  1  0.78045000  0.78672000  0.95360000  1.0
  H  H36  1  0.71944000  0.92542000  0.97537000  1.0
  H  H37  1  0.59028000  0.93644000  0.03285000  1.0
  H  H38  1  0.52169000  0.80991000  0.06709000  1.0
  H  H39  1  0.71128000  0.34049000  0.01213000  1.0
  H  H40  1  0.78015000  0.21416000  0.04646000  1.0
  H  H41  1  0.71927000  0.07544000  0.02470000  1.0
  H  H42  1  0.59039000  0.06433000  0.96718000  1.0
  H  H43  1  0.52178000  0.19077000  0.93286000  1.0
  C  C44  1  0.50102000  0.66009000  0.49994000  1.0
  C  C45  1  0.50108000  0.33981000  0.50010000  1.0
  C  C46  1  0.49778000  0.50087000  0.40731000  1.0
  C  C47  1  0.49798000  0.49919000  0.59267000  1.0
  C  C48  1  0.53313000  0.58288000  0.17945000  1.0
  C  C49  1  0.53321000  0.41780000  0.82049000  1.0
  C  C50  1  0.49501000  0.43149000  0.17903000  1.0
  C  C51  1  0.49504000  0.56920000  0.82093000  1.0
  C  C52  1  0.42163000  0.51088000  0.27780000  1.0
  C  C53  1  0.42174000  0.48919000  0.72221000  1.0
  C  C54  1  0.41888000  0.50770000  0.32764000  1.0
  C  C55  1  0.41902000  0.49214000  0.67236000  1.0
  C  C56  1  0.58252000  0.50157000  0.32930000  1.0
  C  C57  1  0.58263000  0.49921000  0.67064000  1.0
  C  C58  1  0.58467000  0.50370000  0.27953000  1.0
  C  C59  1  0.58474000  0.49724000  0.72042000  1.0
  C  C60  1  0.50463000  0.50872000  0.25321000  1.0
  C  C61  1  0.50472000  0.49185000  0.74677000  1.0
  C  C62  1  0.52959000  0.50369000  0.10173000  1.0
  C  C63  1  0.52966000  0.49699000  0.89821000  1.0
  C  C64  1  0.54205000  0.57909000  0.12678000  1.0
  C  C65  1  0.54211000  0.42159000  0.87315000  1.0
  C  C66  1  0.56702000  0.64941000  0.10197000  1.0
  C  C67  1  0.56706000  0.35125000  0.89795000  1.0
  C  C68  1  0.50732000  0.43047000  0.12662000  1.0
  C  C69  1  0.50746000  0.57023000  0.87332000  1.0
  C  C70  1  0.49953000  0.50354000  0.35357000  1.0
  C  C71  1  0.49967000  0.49666000  0.64641000  1.0
  C  C72  1  0.53475000  0.57600000  0.97380000  1.0
  C  C73  1  0.53465000  0.42473000  0.02612000  1.0
  C  C74  1  0.55162000  0.42263000  0.97447000  1.0
  C  C75  1  0.55164000  0.57808000  0.02545000  1.0
  C  C76  1  0.53883000  0.49840000  0.94913000  1.0
  C  C77  1  0.53881000  0.50231000  0.05079000  1.0
  C  C78  1  0.51066000  0.64663000  0.94783000  1.0
  C  C79  1  0.51045000  0.35411000  0.05208000  1.0
  C  C80  1  0.49579000  0.64371000  0.89849000  1.0
  C  C81  1  0.49562000  0.35701000  0.10144000  1.0
  C  C82  1  0.57402000  0.65035000  0.05162000  1.0
  C  C83  1  0.57402000  0.35036000  0.94830000  1.0
  C  C84  1  0.58246000  0.04264000  0.49905000  1.0
  C  C85  1  0.41965000  0.95724000  0.50112000  1.0
  C  C86  1  0.58244000  0.95719000  0.50132000  1.0
  C  C87  1  0.41968000  0.04267000  0.49878000  1.0
  C  C88  1  0.50108000  0.08855000  0.49801000  1.0
  C  C89  1  0.50104000  0.91134000  0.50210000  1.0
  C  C90  1  0.50102000  0.17515000  0.49848000  1.0
  C  C91  1  0.50096000  0.82474000  0.50160000  1.0
  C  C92  1  0.50087000  0.74969000  0.50034000  1.0
  C  C93  1  0.50097000  0.25019000  0.49974000  1.0
  C  C94  1  0.95254000  0.55256000  0.46732000  1.0
  C  C95  1  0.04755000  0.44784000  0.53299000  1.0
  C  C96  1  0.95246000  0.44736000  0.53270000  1.0
  C  C97  1  0.04762000  0.55206000  0.46705000  1.0
  C  C98  1  0.90756000  0.49996000  0.50000000  1.0
  C  C99  1  0.09235000  0.49995000  0.50004000  1.0
  C  C100  1  0.81140000  0.49996000  0.49997000  1.0
  C  C101  1  0.18842000  0.49996000  0.50007000  1.0
  C  C102  1  0.10021000  0.60261000  0.43254000  1.0
  C  C103  1  0.09555000  0.58406000  0.38343000  1.0
  C  C104  1  0.14541000  0.63013000  0.35055000  1.0
  C  C105  1  0.19888000  0.69604000  0.36637000  1.0
  C  C106  1  0.20354000  0.71500000  0.41518000  1.0
  C  C107  1  0.15504000  0.66804000  0.44828000  1.0
  C  C108  1  0.90054000  0.39220000  0.56502000  1.0
  C  C109  1  0.90565000  0.30631000  0.55864000  1.0
  C  C110  1  0.85771000  0.25363000  0.58884000  1.0
  C  C111  1  0.80573000  0.28620000  0.62628000  1.0
  C  C112  1  0.80060000  0.37159000  0.63289000  1.0
  C  C113  1  0.84712000  0.42460000  0.60218000  1.0
  C  C114  1  0.10011000  0.39724000  0.56748000  1.0
  C  C115  1  0.09534000  0.41569000  0.61660000  1.0
  C  C116  1  0.14521000  0.36961000  0.64946000  1.0
  C  C117  1  0.19885000  0.30379000  0.63359000  1.0
  C  C118  1  0.20365000  0.28496000  0.58477000  1.0
  C  C119  1  0.15512000  0.33190000  0.55170000  1.0
  C  C120  1  0.90072000  0.60771000  0.43496000  1.0
  C  C121  1  0.90569000  0.69360000  0.44137000  1.0
  C  C122  1  0.85780000  0.74627000  0.41117000  1.0
  C  C123  1  0.80596000  0.71369000  0.37371000  1.0
  C  C124  1  0.80097000  0.62830000  0.36707000  1.0
  C  C125  1  0.84747000  0.57530000  0.39778000  1.0
  C  C126  1  0.61126000  0.72628000  0.02947000  1.0
  C  C127  1  0.68467000  0.72095000  0.99740000  1.0
  C  C128  1  0.72324000  0.79200000  0.97818000  1.0
  C  C129  1  0.68921000  0.86988000  0.99057000  1.0
  C  C130  1  0.61692000  0.87599000  0.02270000  1.0
  C  C131  1  0.57845000  0.80480000  0.04219000  1.0
  C  C132  1  0.61119000  0.27446000  0.97049000  1.0
  C  C133  1  0.68445000  0.27988000  0.00260000  1.0
  C  C134  1  0.72302000  0.20887000  0.02186000  1.0
  C  C135  1  0.68912000  0.13097000  0.00946000  1.0
  C  C136  1  0.61697000  0.12478000  0.97729000  1.0
  C  C137  1  0.57849000  0.19593000  0.95777000  1.0
  N  N138  1  0.51181000  0.50768000  0.20197000  1.0
  N  N139  1  0.51193000  0.49300000  0.79799000  1.0
  N  N140  1  0.26694000  0.49998000  0.50008000  1.0
  N  N141  1  0.73285000  0.49992000  0.49992000  1.0
  N  N142  1  0.33419000  0.48318000  0.74760000  1.0
  N  N143  1  0.33409000  0.51649000  0.25244000  1.0
  N  N144  1  0.66970000  0.91187000  0.50159000  1.0
  N  N145  1  0.33264000  0.08824000  0.49881000  1.0
  N  N146  1  0.66974000  0.08788000  0.49904000  1.0
  N  N147  1  0.33259000  0.91175000  0.50089000  1.0
  O  O148  1  0.57862000  0.62667000  0.49816000  1.0
  O  O149  1  0.42358000  0.37352000  0.49857000  1.0
  O  O150  1  0.57864000  0.37327000  0.50180000  1.0
  O  O151  1  0.42357000  0.62634000  0.50149000  1.0
  O  O152  1  0.57442000  0.49691000  0.42805000  1.0
  O  O153  1  0.42077000  0.49696000  0.57262000  1.0
  O  O154  1  0.57464000  0.50316000  0.57190000  1.0
  O  O155  1  0.42055000  0.50293000  0.42740000  1.0
  O  O156  1  0.54399000  0.64616000  0.20333000  1.0
  O  O157  1  0.54396000  0.35451000  0.79661000  1.0
  O  O158  1  0.47224000  0.62980000  0.79731000  1.0
  O  O159  1  0.47237000  0.37085000  0.20266000  1.0
  O  O160  1  0.26559000  0.50594000  0.72565000  1.0
  O  O161  1  0.33385000  0.45465000  0.78880000  1.0
  O  O162  1  0.26570000  0.49275000  0.27424000  1.0
  O  O163  1  0.33355000  0.54572000  0.21140000  1.0
  O  O164  1  0.68462000  0.86756000  0.53637000  1.0
  O  O165  1  0.71918000  0.92254000  0.46634000  1.0
  O  O166  1  0.31745000  0.13308000  0.46428000  1.0
  O  O167  1  0.28367000  0.07775000  0.53430000  1.0
  O  O168  1  0.68517000  0.13219000  0.46431000  1.0
  O  O169  1  0.71877000  0.07711000  0.53442000  1.0
  O  O170  1  0.31699000  0.86699000  0.53541000  1.0
  O  O171  1  0.28399000  0.92224000  0.46528000  1.0
