# generated using pymatgen
data_V4CuH4C4(NO5)2
_symmetry_space_group_name_H-M   'P 1'
_cell_length_a   6.75349000
_cell_length_b   8.07922024
_cell_length_c   11.67780000
_cell_angle_alpha   90.00720039
_cell_angle_beta   90.00340000
_cell_angle_gamma   114.38473236
_symmetry_Int_Tables_number   1
_chemical_formula_structural   V4CuH4C4(NO5)2
_chemical_formula_sum   'V8 Cu2 H8 C8 N4 O20'
_cell_volume   580.33499060
_cell_formula_units_Z   2
loop_
 _symmetry_equiv_pos_site_id
 _symmetry_equiv_pos_as_xyz
  1  'x, y, z'
loop_
 _atom_site_type_symbol
 _atom_site_label
 _atom_site_symmetry_multiplicity
 _atom_site_fract_x
 _atom_site_fract_y
 _atom_site_fract_z
 _atom_site_occupancy
  V  V0  1  0.84604000  0.41082000  0.39876000  1.0
  V  V1  1  0.15426000  0.58939000  0.89888000  1.0
  V  V2  1  0.42881000  0.57370000  0.10482000  1.0
  V  V3  1  0.57124000  0.42604000  0.60462000  1.0
  V  V4  1  0.15394000  0.58917000  0.60124000  1.0
  V  V5  1  0.84575000  0.41061000  0.10112000  1.0
  V  V6  1  0.57118000  0.42629000  0.89517000  1.0
  V  V7  1  0.42876000  0.57395000  0.39538000  1.0
  Cu  Cu8  1  0.68717000  0.98492000  0.25003000  1.0
  Cu  Cu9  1  0.31282000  0.01506000  0.74996000  1.0
  H  H10  1  0.38644000  0.01397000  0.42843000  1.0
  H  H11  1  0.61382000  0.98633000  0.92843000  1.0
  H  H12  1  0.38617000  0.01368000  0.07158000  1.0
  H  H13  1  0.61355000  0.98604000  0.57157000  1.0
  H  H14  1  0.01717000  0.02265000  0.42628000  1.0
  H  H15  1  0.98326000  0.97785000  0.92622000  1.0
  H  H16  1  0.01676000  0.02215000  0.07378000  1.0
  H  H17  1  0.98282000  0.97734000  0.57371000  1.0
  C  C18  1  0.30411000  0.01395000  0.34849000  1.0
  C  C19  1  0.69602000  0.98620000  0.84846000  1.0
  C  C20  1  0.30397000  0.01380000  0.15153000  1.0
  C  C21  1  0.69588000  0.98605000  0.65150000  1.0
  C  C22  1  0.10052000  0.01738000  0.34802000  1.0
  C  C23  1  0.89971000  0.98287000  0.84795000  1.0
  C  C24  1  0.10030000  0.01713000  0.15204000  1.0
  C  C25  1  0.89950000  0.98264000  0.65199000  1.0
  N  N26  1  0.99712000  0.01823000  0.25004000  1.0
  N  N27  1  0.00291000  0.98177000  0.74996000  1.0
  N  N28  1  0.40652000  0.01181000  0.25001000  1.0
  N  N29  1  0.59345000  0.98819000  0.74999000  1.0
  O  O30  1  0.79294000  0.19606000  0.39887000  1.0
  O  O31  1  0.20758000  0.80418000  0.89903000  1.0
  O  O32  1  0.59304000  0.78793000  0.11826000  1.0
  O  O33  1  0.40738000  0.21178000  0.61798000  1.0
  O  O34  1  0.20706000  0.80395000  0.60112000  1.0
  O  O35  1  0.79242000  0.19583000  0.10096000  1.0
  O  O36  1  0.40697000  0.21207000  0.88175000  1.0
  O  O37  1  0.59261000  0.78822000  0.38202000  1.0
  O  O38  1  0.85580000  0.45451000  0.57287000  1.0
  O  O39  1  0.14424000  0.54474000  0.07268000  1.0
  O  O40  1  0.41674000  0.56523000  0.92557000  1.0
  O  O41  1  0.58406000  0.43558000  0.42567000  1.0
  O  O42  1  0.14420000  0.54546000  0.42714000  1.0
  O  O43  1  0.85576000  0.45527000  0.92732000  1.0
  O  O44  1  0.58327000  0.43477000  0.07443000  1.0
  O  O45  1  0.41596000  0.56445000  0.57433000  1.0
  O  O46  1  0.86178000  0.47387000  0.24992000  1.0
  O  O47  1  0.13823000  0.52613000  0.75008000  1.0
  O  O48  1  0.36871000  0.49874000  0.25008000  1.0
  O  O49  1  0.63129000  0.50125000  0.74993000  1.0
