# generated using pymatgen
data_AgPH10(C7O3)2
_symmetry_space_group_name_H-M   'P 1'
_cell_length_a   8.03345000
_cell_length_b   11.30530000
_cell_length_c   14.08050000
_cell_angle_alpha   90.00000000
_cell_angle_beta   90.00000000
_cell_angle_gamma   90.00000000
_symmetry_Int_Tables_number   1
_chemical_formula_structural   AgPH10(C7O3)2
_chemical_formula_sum   'Ag4 P4 H40 C56 O24'
_cell_volume   1278.79892725
_cell_formula_units_Z   4
loop_
 _symmetry_equiv_pos_site_id
 _symmetry_equiv_pos_as_xyz
  1  'x, y, z'
loop_
 _atom_site_type_symbol
 _atom_site_label
 _atom_site_symmetry_multiplicity
 _atom_site_fract_x
 _atom_site_fract_y
 _atom_site_fract_z
 _atom_site_occupancy
  Ag  Ag0  1  0.50000000  0.84622000  0.25000000  1.0
  Ag  Ag1  1  0.00000000  0.65378000  0.75000000  1.0
  Ag  Ag2  1  0.50000000  0.15378000  0.75000000  1.0
  Ag  Ag3  1  0.00000000  0.34622000  0.25000000  1.0
  P  P4  1  0.50000000  0.11797000  0.25000000  1.0
  P  P5  1  0.00000000  0.38203000  0.75000000  1.0
  P  P6  1  0.50000000  0.88203000  0.75000000  1.0
  P  P7  1  0.00000000  0.61797000  0.25000000  1.0
  H  H8  1  0.34900000  0.46216000  0.03960000  1.0
  H  H9  1  0.15100000  0.03784000  0.53960000  1.0
  H  H10  1  0.84900000  0.03785000  0.96040000  1.0
  H  H11  1  0.65101000  0.46216000  0.46040000  1.0
  H  H12  1  0.65100000  0.53784000  0.96040000  1.0
  H  H13  1  0.84900000  0.96215000  0.46040000  1.0
  H  H14  1  0.15100000  0.96216000  0.03960000  1.0
  H  H15  1  0.34900000  0.53785000  0.53960000  1.0
  H  H16  1  0.06012000  0.39036000  0.01500000  1.0
  H  H17  1  0.43988000  0.10964000  0.51501000  1.0
  H  H18  1  0.56013000  0.10964000  0.98500000  1.0
  H  H19  1  0.93988000  0.39036000  0.48499000  1.0
  H  H20  1  0.93988000  0.60964000  0.98500000  1.0
  H  H21  1  0.56012000  0.89036000  0.48499000  1.0
  H  H22  1  0.43988000  0.89036000  0.01501000  1.0
  H  H23  1  0.06012000  0.60964000  0.51501000  1.0
  H  H24  1  0.96894000  0.20101000  0.09212000  1.0
  H  H25  1  0.53106000  0.29899000  0.59212000  1.0
  H  H26  1  0.46894000  0.29899000  0.90788000  1.0
  H  H27  1  0.03106000  0.20101000  0.40788000  1.0
  H  H28  1  0.03106000  0.79899000  0.90788000  1.0
  H  H29  1  0.46893000  0.70101000  0.40788000  1.0
  H  H30  1  0.53106000  0.70101000  0.09212000  1.0
  H  H31  1  0.96894000  0.79899000  0.59212000  1.0
  H  H32  1  0.16330000  0.09164000  0.19605000  1.0
  H  H33  1  0.33669000  0.40836000  0.69605000  1.0
  H  H34  1  0.66330000  0.40836000  0.80395000  1.0
  H  H35  1  0.83669000  0.09164000  0.30395000  1.0
  H  H36  1  0.83670000  0.90836000  0.80394000  1.0
  H  H37  1  0.66330000  0.59164000  0.30394000  1.0
  H  H38  1  0.33669000  0.59164000  0.19605000  1.0
  H  H39  1  0.16330000  0.90836000  0.69606000  1.0
  H  H40  1  0.72381000  0.50781000  0.15505000  1.0
  H  H41  1  0.77619000  0.99219000  0.65505000  1.0
  H  H42  1  0.22381000  0.99219000  0.84495000  1.0
  H  H43  1  0.27620000  0.50781000  0.34495000  1.0
  H  H44  1  0.27619000  0.49219000  0.84495000  1.0
  H  H45  1  0.22380000  0.00781000  0.34495000  1.0
  H  H46  1  0.77619000  0.00781000  0.15505000  1.0
  H  H47  1  0.72381000  0.49219000  0.65505000  1.0
  C  C48  1  0.59459000  0.36264000  0.13928000  1.0
  C  C49  1  0.90541000  0.13736000  0.63928000  1.0
  C  C50  1  0.09459000  0.13736000  0.86072000  1.0
  C  C51  1  0.40541000  0.36264000  0.36072000  1.0
  C  C52  1  0.40541000  0.63736000  0.86072000  1.0
  C  C53  1  0.09459000  0.86264000  0.36072000  1.0
  C  C54  1  0.90541000  0.86264000  0.13928000  1.0
  C  C55  1  0.59459000  0.63736000  0.63928000  1.0
  C  C56  1  0.42163000  0.31603000  0.12849000  1.0
  C  C57  1  0.07837000  0.18397000  0.62849000  1.0
  C  C58  1  0.92163000  0.18397000  0.87151000  1.0
  C  C59  1  0.57837000  0.31603000  0.37151000  1.0
  C  C60  1  0.57837000  0.68397000  0.87151000  1.0
  C  C61  1  0.92163000  0.81603000  0.37151000  1.0
  C  C62  1  0.07837000  0.81603000  0.12849000  1.0
  C  C63  1  0.42163000  0.68397000  0.62849000  1.0
  C  C64  1  0.30786000  0.38070000  0.07335000  1.0
  C  C65  1  0.19214000  0.11930000  0.57335000  1.0
  C  C66  1  0.80786000  0.11930000  0.92665000  1.0
  C  C67  1  0.69214000  0.38070000  0.42665000  1.0
  C  C68  1  0.69214000  0.61930000  0.92666000  1.0
  C  C69  1  0.80786000  0.88070000  0.42665000  1.0
  C  C70  1  0.19214000  0.88070000  0.07334000  1.0
  C  C71  1  0.30786000  0.61930000  0.57335000  1.0
  C  C72  1  0.14550000  0.34095000  0.06012000  1.0
  C  C73  1  0.35450000  0.15906000  0.56012000  1.0
  C  C74  1  0.64550000  0.15906000  0.93988000  1.0
  C  C75  1  0.85450000  0.34094000  0.43988000  1.0
  C  C76  1  0.85450000  0.65905000  0.93988000  1.0
  C  C77  1  0.64550000  0.84094000  0.43988000  1.0
  C  C78  1  0.35450000  0.84094000  0.06012000  1.0
  C  C79  1  0.14550000  0.65906000  0.56012000  1.0
  C  C80  1  0.09349000  0.23578000  0.10447000  1.0
  C  C81  1  0.40651000  0.26422000  0.60447000  1.0
  C  C82  1  0.59349000  0.26422000  0.89553000  1.0
  C  C83  1  0.90651000  0.23578000  0.39553000  1.0
  C  C84  1  0.90651000  0.76422000  0.89553000  1.0
  C  C85  1  0.59348000  0.73578000  0.39553000  1.0
  C  C86  1  0.40651000  0.73578000  0.10447000  1.0
  C  C87  1  0.09349000  0.76422000  0.60447000  1.0
  C  C88  1  0.20593000  0.17195000  0.16099000  1.0
  C  C89  1  0.29407000  0.32805000  0.66099000  1.0
  C  C90  1  0.70593000  0.32805000  0.83901000  1.0
  C  C91  1  0.79406000  0.17195000  0.33901000  1.0
  C  C92  1  0.79407000  0.82804000  0.83901000  1.0
  C  C93  1  0.70593000  0.67195000  0.33901000  1.0
  C  C94  1  0.29407000  0.67196000  0.16099000  1.0
  C  C95  1  0.20593000  0.82805000  0.66099000  1.0
  C  C96  1  0.37073000  0.21014000  0.17324000  1.0
  C  C97  1  0.12927000  0.28986000  0.67324000  1.0
  C  C98  1  0.87073000  0.28985000  0.82676000  1.0
  C  C99  1  0.62926000  0.21015000  0.32676000  1.0
  C  C100  1  0.62927000  0.78985000  0.82676000  1.0
  C  C101  1  0.87073000  0.71014000  0.32676000  1.0
  C  C102  1  0.12927000  0.71015000  0.17324000  1.0
  C  C103  1  0.37073000  0.78986000  0.67324000  1.0
  O  O104  1  0.60305000  0.48010000  0.13850000  1.0
  O  O105  1  0.89695000  0.01990000  0.63850000  1.0
  O  O106  1  0.10305000  0.01990000  0.86150000  1.0
  O  O107  1  0.39695000  0.48010000  0.36150000  1.0
  O  O108  1  0.39695000  0.51990000  0.86150000  1.0
  O  O109  1  0.10305000  0.98010000  0.36150000  1.0
  O  O110  1  0.89695000  0.98010000  0.13850000  1.0
  O  O111  1  0.60305000  0.51990000  0.63850000  1.0
  O  O112  1  0.71655000  0.29688000  0.14861000  1.0
  O  O113  1  0.78345000  0.20312000  0.64861000  1.0
  O  O114  1  0.21655000  0.20312000  0.85139000  1.0
  O  O115  1  0.28345000  0.29688000  0.35139000  1.0
  O  O116  1  0.28345000  0.70312000  0.85139000  1.0
  O  O117  1  0.21655000  0.79688000  0.35139000  1.0
  O  O118  1  0.78345000  0.79688000  0.14861000  1.0
  O  O119  1  0.71655000  0.70312000  0.64861000  1.0
  O  O120  1  0.39109000  0.04027000  0.31365000  1.0
  O  O121  1  0.10891000  0.45973000  0.81365000  1.0
  O  O122  1  0.89109000  0.45973000  0.68635000  1.0
  O  O123  1  0.60891000  0.04027000  0.18635000  1.0
  O  O124  1  0.60891000  0.95973000  0.68635000  1.0
  O  O125  1  0.89109000  0.54026000  0.18635000  1.0
  O  O126  1  0.10891000  0.54027000  0.31365000  1.0
  O  O127  1  0.39109000  0.95973000  0.81365000  1.0
