# generated using pymatgen
data_MnH8C4O7
_symmetry_space_group_name_H-M   'P 1'
_cell_length_a   8.78968000
_cell_length_b   9.11314000
_cell_length_c   10.28340000
_cell_angle_alpha   90.00060000
_cell_angle_beta   89.99950000
_cell_angle_gamma   89.99990000
_symmetry_Int_Tables_number   1
_chemical_formula_structural   MnH8C4O7
_chemical_formula_sum   'Mn4 H32 C16 O28'
_cell_volume   823.71663289
_cell_formula_units_Z   4
loop_
 _symmetry_equiv_pos_site_id
 _symmetry_equiv_pos_as_xyz
  1  'x, y, z'
loop_
 _atom_site_type_symbol
 _atom_site_label
 _atom_site_symmetry_multiplicity
 _atom_site_fract_x
 _atom_site_fract_y
 _atom_site_fract_z
 _atom_site_occupancy
  Mn  Mn0  1  0.19029000  0.72278000  0.09039000  1.0
  Mn  Mn1  1  0.30970000  0.22277000  0.90962000  1.0
  Mn  Mn2  1  0.69029000  0.27723000  0.40961000  1.0
  Mn  Mn3  1  0.80971000  0.77723000  0.59039000  1.0
  H  H4  1  0.81873000  0.83917000  0.21617000  1.0
  H  H5  1  0.68127000  0.33916000  0.78383000  1.0
  H  H6  1  0.31873000  0.16084000  0.28383000  1.0
  H  H7  1  0.18127000  0.66083000  0.71616000  1.0
  H  H8  1  0.00429000  0.71467000  0.31980000  1.0
  H  H9  1  0.49570000  0.21467000  0.68020000  1.0
  H  H10  1  0.50429000  0.28533000  0.18019000  1.0
  H  H11  1  0.99571000  0.78533000  0.81980000  1.0
  H  H12  1  0.61851000  0.65456000  0.17211000  1.0
  H  H13  1  0.88148000  0.15455000  0.82789000  1.0
  H  H14  1  0.11851000  0.34546000  0.32790000  1.0
  H  H15  1  0.38149000  0.84544000  0.67211000  1.0
  H  H16  1  0.75622000  0.51024000  0.17292000  1.0
  H  H17  1  0.74377000  0.01023000  0.82707000  1.0
  H  H18  1  0.25623000  0.48977000  0.32708000  1.0
  H  H19  1  0.24378000  0.98976000  0.67292000  1.0
  H  H20  1  0.27563000  0.79331000  0.33113000  1.0
  H  H21  1  0.22437000  0.29330000  0.66887000  1.0
  H  H22  1  0.77563000  0.20669000  0.16887000  1.0
  H  H23  1  0.72438000  0.70669000  0.83113000  1.0
  H  H24  1  0.38970000  0.89261000  0.24535000  1.0
  H  H25  1  0.11030000  0.39261000  0.75465000  1.0
  H  H26  1  0.88971000  0.10739000  0.25464000  1.0
  H  H27  1  0.61030000  0.60739000  0.74536000  1.0
  H  H28  1  0.12714000  0.98005000  0.23867000  1.0
  H  H29  1  0.37286000  0.48005000  0.76134000  1.0
  H  H30  1  0.62714000  0.01995000  0.26134000  1.0
  H  H31  1  0.87286000  0.51994000  0.73866000  1.0
  H  H32  1  0.09911000  0.12219000  0.15426000  1.0
  H  H33  1  0.40089000  0.62219000  0.84574000  1.0
  H  H34  1  0.59911000  0.87781000  0.34574000  1.0
  H  H35  1  0.90089000  0.37781000  0.65426000  1.0
  C  C36  1  0.85735000  0.75119000  0.02851000  1.0
  C  C37  1  0.64265000  0.25119000  0.97148000  1.0
  C  C38  1  0.35735000  0.24880000  0.47148000  1.0
  C  C39  1  0.14265000  0.74880000  0.52851000  1.0
  C  C40  1  0.84956000  0.73116000  0.17583000  1.0
  C  C41  1  0.65044000  0.23115000  0.82417000  1.0
  C  C42  1  0.34956000  0.26885000  0.32417000  1.0
  C  C43  1  0.15044000  0.76884000  0.67583000  1.0
  C  C44  1  0.72749000  0.61814000  0.21345000  1.0
  C  C45  1  0.77250000  0.11813000  0.78654000  1.0
  C  C46  1  0.22750000  0.38187000  0.28655000  1.0
  C  C47  1  0.27250000  0.88187000  0.71345000  1.0
  C  C48  1  0.71630000  0.61078000  0.36016000  1.0
  C  C49  1  0.78370000  0.11078000  0.63983000  1.0
  C  C50  1  0.21630000  0.38923000  0.13984000  1.0
  C  C51  1  0.28369000  0.88922000  0.86016000  1.0
  O  O52  1  0.98962000  0.74479000  0.97438000  1.0
  O  O53  1  0.51038000  0.24479000  0.02562000  1.0
  O  O54  1  0.48962000  0.25522000  0.52562000  1.0
  O  O55  1  0.01038000  0.75521000  0.47438000  1.0
  O  O56  1  0.73497000  0.77376000  0.96914000  1.0
  O  O57  1  0.76502000  0.27375000  0.03086000  1.0
  O  O58  1  0.23497000  0.22624000  0.53086000  1.0
  O  O59  1  0.26503000  0.72625000  0.46914000  1.0
  O  O60  1  0.68583000  0.73047000  0.42082000  1.0
  O  O61  1  0.81417000  0.23047000  0.57918000  1.0
  O  O62  1  0.18583000  0.26953000  0.07918000  1.0
  O  O63  1  0.31417000  0.76953000  0.92082000  1.0
  O  O64  1  0.74660000  0.49347000  0.42105000  1.0
  O  O65  1  0.75341000  0.99347000  0.57894000  1.0
  O  O66  1  0.24659000  0.50653000  0.07894000  1.0
  O  O67  1  0.25339000  0.00653000  0.92105000  1.0
  O  O68  1  0.99636000  0.68944000  0.22405000  1.0
  O  O69  1  0.50363000  0.18943000  0.77595000  1.0
  O  O70  1  0.49637000  0.31057000  0.27595000  1.0
  O  O71  1  0.00364000  0.81056000  0.72405000  1.0
  O  O72  1  0.28516000  0.84475000  0.24304000  1.0
  O  O73  1  0.21484000  0.34474000  0.75697000  1.0
  O  O74  1  0.78516000  0.15526000  0.25696000  1.0
  O  O75  1  0.71485000  0.65525000  0.74304000  1.0
  O  O76  1  0.04627000  0.04431000  0.20465000  1.0
  O  O77  1  0.45373000  0.54430000  0.79535000  1.0
  O  O78  1  0.54627000  0.95570000  0.29535000  1.0
  O  O79  1  0.95373000  0.45569000  0.70465000  1.0
