# generated using pymatgen
data_CdH20C18(NO2)2
_symmetry_space_group_name_H-M   'P 1'
_cell_length_a   9.62943000
_cell_length_b   10.08880000
_cell_length_c   10.43810000
_cell_angle_alpha   110.10000000
_cell_angle_beta   92.26850000
_cell_angle_gamma   106.38800000
_symmetry_Int_Tables_number   1
_chemical_formula_structural   CdH20C18(NO2)2
_chemical_formula_sum   'Cd2 H40 C36 N4 O8'
_cell_volume   903.05127170
_cell_formula_units_Z   2
loop_
 _symmetry_equiv_pos_site_id
 _symmetry_equiv_pos_as_xyz
  1  'x, y, z'
loop_
 _atom_site_type_symbol
 _atom_site_label
 _atom_site_symmetry_multiplicity
 _atom_site_fract_x
 _atom_site_fract_y
 _atom_site_fract_z
 _atom_site_occupancy
  Cd  Cd0  1  0.37716000  0.86817000  0.08515000  1.0
  Cd  Cd1  1  0.62285000  0.13184000  0.91485000  1.0
  H  H2  1  0.31862000  0.77114000  0.75357000  1.0
  H  H3  1  0.68137000  0.22885000  0.24643000  1.0
  H  H4  1  0.31760000  0.56571000  0.53723000  1.0
  H  H5  1  0.68240000  0.43429000  0.46276000  1.0
  H  H6  1  0.40485000  0.32693000  0.78956000  1.0
  H  H7  1  0.59515000  0.67307000  0.21044000  1.0
  H  H8  1  0.39511000  0.54318000  0.99573000  1.0
  H  H9  1  0.60488000  0.45681000  0.00427000  1.0
  H  H10  1  0.22235000  0.34163000  0.38151000  1.0
  H  H11  1  0.77765000  0.65837000  0.61849000  1.0
  H  H12  1  0.24104000  0.13342000  0.17499000  1.0
  H  H13  1  0.75895000  0.86657000  0.82502000  1.0
  H  H14  1  0.53024000  0.03376000  0.40097000  1.0
  H  H15  1  0.46977000  0.96624000  0.59903000  1.0
  H  H16  1  0.52714000  0.23845000  0.61994000  1.0
  H  H17  1  0.47286000  0.76156000  0.38006000  1.0
  H  H18  1  0.09277000  0.93974000  0.88833000  1.0
  H  H19  1  0.90723000  0.06027000  0.11167000  1.0
  H  H20  1  0.11901000  0.12674000  0.90806000  1.0
  H  H21  1  0.88100000  0.87326000  0.09194000  1.0
  H  H22  1  0.97231000  0.97812000  0.68455000  1.0
  H  H23  1  0.02769000  0.02188000  0.31545000  1.0
  H  H24  1  0.14902000  0.06517000  0.65786000  1.0
  H  H25  1  0.85097000  0.93483000  0.34214000  1.0
  H  H26  1  0.03476000  0.74166000  0.63976000  1.0
  H  H27  1  0.96525000  0.25834000  0.36024000  1.0
  H  H28  1  0.21344000  0.83102000  0.61920000  1.0
  H  H29  1  0.78656000  0.16898000  0.38079000  1.0
  H  H30  1  0.94027000  0.79640000  0.43520000  1.0
  H  H31  1  0.05973000  0.20360000  0.56480000  1.0
  H  H32  1  0.12346000  0.86941000  0.41636000  1.0
  H  H33  1  0.87654000  0.13059000  0.58364000  1.0
  H  H34  1  0.15714000  0.61817000  0.38170000  1.0
  H  H35  1  0.84285000  0.38183000  0.61830000  1.0
  H  H36  1  0.96777000  0.54760000  0.38778000  1.0
  H  H37  1  0.03222000  0.45239000  0.61222000  1.0
  H  H38  1  0.91665000  0.62387000  0.18329000  1.0
  H  H39  1  0.08336000  0.37614000  0.81670000  1.0
  H  H40  1  0.00170000  0.48318000  0.14442000  1.0
  H  H41  1  0.99831000  0.51682000  0.85558000  1.0
  C  C42  1  0.33681000  0.67060000  0.75670000  1.0
  C  C43  1  0.66319000  0.32940000  0.24330000  1.0
  C  C44  1  0.33652000  0.55520000  0.63631000  1.0
  C  C45  1  0.66347000  0.44479000  0.36369000  1.0
  C  C46  1  0.36548000  0.42965000  0.64501000  1.0
  C  C47  1  0.63451000  0.57035000  0.35498000  1.0
  C  C48  1  0.38820000  0.42470000  0.77685000  1.0
  C  C49  1  0.61180000  0.57531000  0.22314000  1.0
  C  C50  1  0.38298000  0.54399000  0.89167000  1.0
  C  C51  1  0.61701000  0.45601000  0.10833000  1.0
  C  C52  1  0.37182000  0.30702000  0.51983000  1.0
  C  C53  1  0.62818000  0.69298000  0.48017000  1.0
  C  C54  1  0.29275000  0.27705000  0.39173000  1.0
  C  C55  1  0.70724000  0.72294000  0.60827000  1.0
  C  C56  1  0.30138000  0.16073000  0.27611000  1.0
  C  C57  1  0.69862000  0.83927000  0.72389000  1.0
  C  C58  1  0.46218000  0.10435000  0.40341000  1.0
  C  C59  1  0.53783000  0.89565000  0.59660000  1.0
  C  C60  1  0.45926000  0.21781000  0.52449000  1.0
  C  C61  1  0.54074000  0.78219000  0.47551000  1.0
  C  C62  1  0.30967000  0.06015000  0.87409000  1.0
  C  C63  1  0.69034000  0.93986000  0.12591000  1.0
  C  C64  1  0.14494000  0.02548000  0.84722000  1.0
  C  C65  1  0.85506000  0.97453000  0.15278000  1.0
  C  C66  1  0.08681000  0.97955000  0.69487000  1.0
  C  C67  1  0.91319000  0.02045000  0.30512000  1.0
  C  C68  1  0.09869000  0.82889000  0.60467000  1.0
  C  C69  1  0.90131000  0.17111000  0.39533000  1.0
  C  C70  1  0.05039000  0.78697000  0.45128000  1.0
  C  C71  1  0.94961000  0.21302000  0.54872000  1.0
  C  C72  1  0.04960000  0.63110000  0.36099000  1.0
  C  C73  1  0.95040000  0.36890000  0.63901000  1.0
  C  C74  1  0.01759000  0.60088000  0.20682000  1.0
  C  C75  1  0.98242000  0.39912000  0.79318000  1.0
  C  C76  1  0.14259000  0.69494000  0.15965000  1.0
  C  C77  1  0.85743000  0.30506000  0.84036000  1.0
  N  N78  1  0.36041000  0.66614000  0.88240000  1.0
  N  N79  1  0.63958000  0.33386000  0.11759000  1.0
  N  N80  1  0.38459000  0.07558000  0.28157000  1.0
  N  N81  1  0.61540000  0.92442000  0.71843000  1.0
  O  O82  1  0.27319000  0.69953000  0.19593000  1.0
  O  O83  1  0.72682000  0.30047000  0.80409000  1.0
  O  O84  1  0.38985000  0.11975000  0.80202000  1.0
  O  O85  1  0.61016000  0.88027000  0.19798000  1.0
  O  O86  1  0.36649000  0.03140000  0.97050000  1.0
  O  O87  1  0.63351000  0.96859000  0.02949000  1.0
  O  O88  1  0.11468000  0.76568000  0.08664000  1.0
  O  O89  1  0.88534000  0.23433000  0.91338000  1.0
