# generated using pymatgen
data_CuH16C16(NO)6
_symmetry_space_group_name_H-M   'P 1'
_cell_length_a   8.24904000
_cell_length_b   10.81950000
_cell_length_c   14.64170000
_cell_angle_alpha   71.18520000
_cell_angle_beta   80.59130000
_cell_angle_gamma   71.55200000
_symmetry_Int_Tables_number   1
_chemical_formula_structural   CuH16C16(NO)6
_chemical_formula_sum   'Cu2 H32 C32 N12 O12'
_cell_volume   1170.63875295
_cell_formula_units_Z   2
loop_
 _symmetry_equiv_pos_site_id
 _symmetry_equiv_pos_as_xyz
  1  'x, y, z'
loop_
 _atom_site_type_symbol
 _atom_site_label
 _atom_site_symmetry_multiplicity
 _atom_site_fract_x
 _atom_site_fract_y
 _atom_site_fract_z
 _atom_site_occupancy
  Cu  Cu0  1  0.74701000  0.93342000  0.73390000  1.0
  Cu  Cu1  1  0.25298000  0.06657000  0.26611000  1.0
  H  H2  1  0.70164000  0.66264000  0.84840000  1.0
  H  H3  1  0.29836000  0.33736000  0.15160000  1.0
  H  H4  1  0.70348000  0.45450000  0.80839000  1.0
  H  H5  1  0.29653000  0.54550000  0.19160000  1.0
  H  H6  1  0.74469000  0.45348000  0.63534000  1.0
  H  H7  1  0.25529000  0.54653000  0.36466000  1.0
  H  H8  1  0.80594000  0.85691000  0.55838000  1.0
  H  H9  1  0.19405000  0.14310000  0.44162000  1.0
  H  H10  1  0.83092000  0.75384000  0.44121000  1.0
  H  H11  1  0.16907000  0.24617000  0.55879000  1.0
  H  H12  1  0.90130000  0.67781000  0.31670000  1.0
  H  H13  1  0.09872000  0.32219000  0.68329000  1.0
  H  H14  1  0.90851000  0.41466000  0.32345000  1.0
  H  H15  1  0.09148000  0.58535000  0.67655000  1.0
  H  H16  1  0.90197000  0.55451000  0.21698000  1.0
  H  H17  1  0.09806000  0.44547000  0.78302000  1.0
  H  H18  1  0.67451000  0.44112000  0.23314000  1.0
  H  H19  1  0.32550000  0.55888000  0.76685000  1.0
  H  H20  1  0.59071000  0.48225000  0.34294000  1.0
  H  H21  1  0.40929000  0.51774000  0.65705000  1.0
  H  H22  1  0.45930000  0.70421000  0.25509000  1.0
  H  H23  1  0.54069000  0.29577000  0.74490000  1.0
  H  H24  1  0.34552000  0.84557000  0.13308000  1.0
  H  H25  1  0.65449000  0.15443000  0.86692000  1.0
  H  H26  1  0.67745000  0.79401000  0.93580000  1.0
  H  H27  1  0.32255000  0.20600000  0.06420000  1.0
  H  H28  1  0.37961000  0.08959000  0.71829000  1.0
  H  H29  1  0.62038000  0.91041000  0.28171000  1.0
  H  H30  1  0.13235000  0.13700000  0.83803000  1.0
  H  H31  1  0.86765000  0.86300000  0.16198000  1.0
  H  H32  1  0.15900000  0.00152000  0.01231000  1.0
  H  H33  1  0.84101000  0.99849000  0.98771000  1.0
  C  C34  1  0.72283000  0.65790000  0.77413000  1.0
  C  C35  1  0.27717000  0.34210000  0.22587000  1.0
  C  C36  1  0.72216000  0.54337000  0.75096000  1.0
  C  C37  1  0.27784000  0.45663000  0.24904000  1.0
  C  C38  1  0.74556000  0.54156000  0.65521000  1.0
  C  C39  1  0.25443000  0.45846000  0.34478000  1.0
  C  C40  1  0.77466000  0.65596000  0.58238000  1.0
  C  C41  1  0.22532000  0.34404000  0.41762000  1.0
  C  C42  1  0.77849000  0.76737000  0.61138000  1.0
  C  C43  1  0.22150000  0.23264000  0.38862000  1.0
  C  C44  1  0.79183000  0.57190000  0.44134000  1.0
  C  C45  1  0.20816000  0.42810000  0.55866000  1.0
  C  C46  1  0.83547000  0.51962000  0.28746000  1.0
  C  C47  1  0.16453000  0.48038000  0.71254000  1.0
  C  C48  1  0.65808000  0.51575000  0.27255000  1.0
  C  C49  1  0.34193000  0.48425000  0.72745000  1.0
  C  C50  1  0.56451000  0.68989000  0.12058000  1.0
  C  C51  1  0.43550000  0.31012000  0.87942000  1.0
  C  C52  1  0.41956000  0.88277000  0.98752000  1.0
  C  C53  1  0.58046000  0.11723000  0.01249000  1.0
  C  C54  1  0.55423000  0.86682000  0.91588000  1.0
  C  C55  1  0.44577000  0.13317000  0.08413000  1.0
  C  C56  1  0.38759000  0.03422000  0.79484000  1.0
  C  C57  1  0.61240000  0.96577000  0.20517000  1.0
  C  C58  1  0.25024000  0.05896000  0.86228000  1.0
  C  C59  1  0.74976000  0.94104000  0.13773000  1.0
  C  C60  1  0.26535000  0.98334000  0.95862000  1.0
  C  C61  1  0.73465000  0.01666000  0.04138000  1.0
  C  C62  1  0.01078000  0.04816000  0.65449000  1.0
  C  C63  1  0.98924000  0.95182000  0.34550000  1.0
  C  C64  1  0.89491000  0.13591000  0.71886000  1.0
  C  C65  1  0.10508000  0.86406000  0.28114000  1.0
  N  N66  1  0.75082000  0.76759000  0.70419000  1.0
  N  N67  1  0.24916000  0.23242000  0.29581000  1.0
  N  N68  1  0.80274000  0.66600000  0.48517000  1.0
  N  N69  1  0.19725000  0.33401000  0.51483000  1.0
  N  N70  1  0.82962000  0.61024000  0.34345000  1.0
  N  N71  1  0.17038000  0.38976000  0.65655000  1.0
  N  N72  1  0.55066000  0.64578000  0.21891000  1.0
  N  N73  1  0.44936000  0.35421000  0.78108000  1.0
  N  N74  1  0.43577000  0.80936000  0.08334000  1.0
  N  N75  1  0.56424000  0.19065000  0.91667000  1.0
  N  N76  1  0.53635000  0.94080000  0.82291000  1.0
  N  N77  1  0.46364000  0.05921000  0.17709000  1.0
  O  O78  1  0.74908000  0.46691000  0.48526000  1.0
  O  O79  1  0.25090000  0.53310000  0.51475000  1.0
  O  O80  1  0.67565000  0.62993000  0.06930000  1.0
  O  O81  1  0.32437000  0.37008000  0.93069000  1.0
  O  O82  1  0.95892000  0.94760000  0.65372000  1.0
  O  O83  1  0.04108000  0.05239000  0.34627000  1.0
  O  O84  1  0.14232000  0.07627000  0.61023000  1.0
  O  O85  1  0.85764000  0.92373000  0.38977000  1.0
  O  O86  1  0.75717000  0.09954000  0.75875000  1.0
  O  O87  1  0.24284000  0.90043000  0.24126000  1.0
  O  O88  1  0.93202000  0.23063000  0.73232000  1.0
  O  O89  1  0.06797000  0.76935000  0.26769000  1.0
