# generated using pymatgen
data_HgH11C13Br2N3
_symmetry_space_group_name_H-M   'P 1'
_cell_length_a   8.09511000
_cell_length_b   9.11903000
_cell_length_c   10.92040000
_cell_angle_alpha   102.22900000
_cell_angle_beta   96.48940000
_cell_angle_gamma   112.01200000
_symmetry_Int_Tables_number   1
_chemical_formula_structural   HgH11C13Br2N3
_chemical_formula_sum   'Hg2 H22 C26 Br4 N6'
_cell_volume   713.75781285
_cell_formula_units_Z   2
loop_
 _symmetry_equiv_pos_site_id
 _symmetry_equiv_pos_as_xyz
  1  'x, y, z'
loop_
 _atom_site_type_symbol
 _atom_site_label
 _atom_site_symmetry_multiplicity
 _atom_site_fract_x
 _atom_site_fract_y
 _atom_site_fract_z
 _atom_site_occupancy
  Hg  Hg0  1  0.45014000  0.08199000  0.70590000  1.0
  Hg  Hg1  1  0.54986000  0.91801000  0.29410000  1.0
  H  H2  1  0.52359000  0.77337000  0.79468000  1.0
  H  H3  1  0.47641000  0.22664000  0.20532000  1.0
  H  H4  1  0.95959000  0.85115000  0.65327000  1.0
  H  H5  1  0.04039000  0.14882000  0.34672000  1.0
  H  H6  1  0.91474000  0.27809000  0.63353000  1.0
  H  H7  1  0.08528000  0.72191000  0.36648000  1.0
  H  H8  1  0.47339000  0.47787000  0.74751000  1.0
  H  H9  1  0.52661000  0.52214000  0.25249000  1.0
  H  H10  1  0.26225000  0.32859000  0.65141000  1.0
  H  H11  1  0.73776000  0.67142000  0.34859000  1.0
  H  H12  1  0.64265000  0.32479000  0.55945000  1.0
  H  H13  1  0.35735000  0.67519000  0.44055000  1.0
  H  H14  1  0.66296000  0.60671000  0.57194000  1.0
  H  H15  1  0.33703000  0.39326000  0.42805000  1.0
  H  H16  1  0.13532000  0.42973000  0.13205000  1.0
  H  H17  1  0.86470000  0.57029000  0.86795000  1.0
  H  H18  1  0.27180000  0.03756000  0.94238000  1.0
  H  H19  1  0.72820000  0.96244000  0.05763000  1.0
  H  H20  1  0.21309000  0.55763000  0.95535000  1.0
  H  H21  1  0.78691000  0.44238000  0.04465000  1.0
  H  H22  1  0.15768000  0.15823000  0.12348000  1.0
  H  H23  1  0.84232000  0.84179000  0.87653000  1.0
  C  C24  1  0.37732000  0.72377000  0.75884000  1.0
  C  C25  1  0.62267000  0.27624000  0.24116000  1.0
  C  C26  1  0.10419000  0.70227000  0.69212000  1.0
  C  C27  1  0.89580000  0.29772000  0.30787000  1.0
  C  C28  1  0.94989000  0.72835000  0.65199000  1.0
  C  C29  1  0.05009000  0.27163000  0.34800000  1.0
  C  C30  1  0.92584000  0.40246000  0.64013000  1.0
  C  C31  1  0.07417000  0.59753000  0.35986000  1.0
  C  C32  1  0.32499000  0.42954000  0.74062000  1.0
  C  C33  1  0.67502000  0.57047000  0.25939000  1.0
  C  C34  1  0.09039000  0.54117000  0.68677000  1.0
  C  C35  1  0.90961000  0.45883000  0.31323000  1.0
  C  C36  1  0.77337000  0.43031000  0.59936000  1.0
  C  C37  1  0.22663000  0.56967000  0.40063000  1.0
  C  C38  1  0.78497000  0.59013000  0.60602000  1.0
  C  C39  1  0.21502000  0.40985000  0.39397000  1.0
  C  C40  1  0.27839000  0.36222000  0.85354000  1.0
  C  C41  1  0.72161000  0.63778000  0.14646000  1.0
  C  C42  1  0.17944000  0.36949000  0.05318000  1.0
  C  C43  1  0.82057000  0.63052000  0.94683000  1.0
  C  C44  1  0.25444000  0.15171000  0.94762000  1.0
  C  C45  1  0.74555000  0.84830000  0.05238000  1.0
  C  C46  1  0.22251000  0.44121000  0.95376000  1.0
  C  C47  1  0.77751000  0.55880000  0.04624000  1.0
  C  C48  1  0.19344000  0.22087000  0.04949000  1.0
  C  C49  1  0.80656000  0.77914000  0.95051000  1.0
  Br  Br50  1  0.28835000  0.06371000  0.48645000  1.0
  Br  Br51  1  0.71164000  0.93629000  0.51355000  1.0
  Br  Br52  1  0.73702000  0.15303000  0.87044000  1.0
  Br  Br53  1  0.26297000  0.84697000  0.12956000  1.0
  N  N54  1  0.28567000  0.81268000  0.73758000  1.0
  N  N55  1  0.71432000  0.18732000  0.26242000  1.0
  N  N56  1  0.26749000  0.56002000  0.73054000  1.0
  N  N57  1  0.73251000  0.43998000  0.26946000  1.0
  N  N58  1  0.29617000  0.22080000  0.85191000  1.0
  N  N59  1  0.70384000  0.77921000  0.14810000  1.0
