# generated using pymatgen
data_Zn2P2H22C19(NO4)2
_symmetry_space_group_name_H-M   'P 1'
_cell_length_a   9.59167000
_cell_length_b   9.74457000
_cell_length_c   24.65900000
_cell_angle_alpha   90.00000000
_cell_angle_beta   90.00010000
_cell_angle_gamma   90.00000000
_symmetry_Int_Tables_number   1
_chemical_formula_structural   Zn2P2H22C19(NO4)2
_chemical_formula_sum   'Zn8 P8 H88 C76 N8 O32'
_cell_volume   2304.79534869
_cell_formula_units_Z   4
loop_
 _symmetry_equiv_pos_site_id
 _symmetry_equiv_pos_as_xyz
  1  'x, y, z'
loop_
 _atom_site_type_symbol
 _atom_site_label
 _atom_site_symmetry_multiplicity
 _atom_site_fract_x
 _atom_site_fract_y
 _atom_site_fract_z
 _atom_site_occupancy
  Zn  Zn0  1  0.49810000  0.11210000  0.01671000  1.0
  Zn  Zn1  1  0.00190000  0.88790000  0.51671000  1.0
  Zn  Zn2  1  0.50190000  0.61210000  0.48329000  1.0
  Zn  Zn3  1  0.99810000  0.38790000  0.98329000  1.0
  Zn  Zn4  1  0.62984000  0.12124000  0.49743000  1.0
  Zn  Zn5  1  0.87016000  0.87876000  0.99743000  1.0
  Zn  Zn6  1  0.37016000  0.62124000  0.00257000  1.0
  Zn  Zn7  1  0.12984000  0.37876000  0.50257000  1.0
  P  P8  1  0.26842000  0.33844000  0.05435000  1.0
  P  P9  1  0.23157000  0.66156000  0.55435000  1.0
  P  P10  1  0.73158000  0.83844000  0.44565000  1.0
  P  P11  1  0.76842000  0.16156000  0.94565000  1.0
  P  P12  1  0.57987000  0.82939000  0.06541000  1.0
  P  P13  1  0.92013000  0.17061000  0.56541000  1.0
  P  P14  1  0.42013000  0.32939000  0.43459000  1.0
  P  P15  1  0.07987000  0.67061000  0.93459000  1.0
  H  H16  1  0.24536000  0.16344000  0.94828000  1.0
  H  H17  1  0.25464000  0.83656000  0.44828000  1.0
  H  H18  1  0.75464000  0.66344000  0.55172000  1.0
  H  H19  1  0.74536000  0.33655000  0.05172000  1.0
  H  H20  1  0.15286000  0.07892000  0.86014000  1.0
  H  H21  1  0.34714000  0.92108000  0.36014000  1.0
  H  H22  1  0.84714000  0.57892000  0.63986000  1.0
  H  H23  1  0.65286000  0.42108000  0.13986000  1.0
  H  H24  1  0.49130000  0.78596000  0.85710000  1.0
  H  H25  1  0.00870000  0.21404000  0.35710000  1.0
  H  H26  1  0.50870000  0.28596000  0.64290000  1.0
  H  H27  1  0.99130000  0.71404000  0.14290000  1.0
  H  H28  1  0.57027000  0.88197000  0.94474000  1.0
  H  H29  1  0.92973000  0.11803000  0.44474000  1.0
  H  H30  1  0.42973000  0.38197000  0.55526000  1.0
  H  H31  1  0.07027000  0.61803000  0.05526000  1.0
  H  H32  1  0.15138000  0.88726000  0.79252000  1.0
  H  H33  1  0.34862000  0.11274000  0.29252000  1.0
  H  H34  1  0.84862000  0.38726000  0.70748000  1.0
  H  H35  1  0.65138000  0.61274000  0.20748000  1.0
  H  H36  1  0.28090000  0.75791000  0.79520000  1.0
  H  H37  1  0.21910000  0.24209000  0.29520000  1.0
  H  H38  1  0.71910000  0.25791000  0.70480000  1.0
  H  H39  1  0.78090000  0.74209000  0.20480000  1.0
  H  H40  1  0.45433000  0.92702000  0.75452000  1.0
  H  H41  1  0.04567000  0.07298000  0.25452000  1.0
  H  H42  1  0.54567000  0.42702000  0.74548000  1.0
  H  H43  1  0.95433000  0.57298000  0.24548000  1.0
  H  H44  1  0.31779000  0.04803000  0.74853000  1.0
  H  H45  1  0.18221000  0.95197000  0.24853000  1.0
  H  H46  1  0.68221000  0.54803000  0.75147000  1.0
  H  H47  1  0.81779000  0.45197000  0.25147000  1.0
  H  H48  1  0.31651000  0.76166000  0.69653000  1.0
  H  H49  1  0.18349000  0.23834000  0.19653000  1.0
  H  H50  1  0.68349000  0.26167000  0.80347000  1.0
  H  H51  1  0.81651000  0.73834000  0.30347000  1.0
  H  H52  1  0.18359000  0.88546000  0.68927000  1.0
  H  H53  1  0.31641000  0.11454000  0.18927000  1.0
  H  H54  1  0.81641000  0.38546000  0.81073000  1.0
  H  H55  1  0.68359000  0.61454000  0.31073000  1.0
  H  H56  1  0.19718000  0.04663000  0.61386000  1.0
  H  H57  1  0.30282000  0.95337000  0.11386000  1.0
  H  H58  1  0.80282000  0.54663000  0.88614000  1.0
  H  H59  1  0.69718000  0.45337000  0.38614000  1.0
  H  H60  1  0.33080000  0.13664000  0.53545000  1.0
  H  H61  1  0.16920000  0.86336000  0.03545000  1.0
  H  H62  1  0.66920000  0.63664000  0.96455000  1.0
  H  H63  1  0.83080000  0.36336000  0.46455000  1.0
  H  H64  1  0.68963000  0.93179000  0.58432000  1.0
  H  H65  1  0.81036000  0.06821000  0.08432000  1.0
  H  H66  1  0.31036000  0.43179000  0.91568000  1.0
  H  H67  1  0.18964000  0.56821000  0.41568000  1.0
  H  H68  1  0.57182000  0.83393000  0.66451000  1.0
  H  H69  1  0.92818000  0.16607000  0.16451000  1.0
  H  H70  1  0.42818000  0.33393000  0.83549000  1.0
  H  H71  1  0.07182000  0.66607000  0.33549000  1.0
  H  H72  1  0.19023000  0.31297000  0.10166000  1.0
  H  H73  1  0.30977000  0.68703000  0.60166000  1.0
  H  H74  1  0.80977000  0.81297000  0.39834000  1.0
  H  H75  1  0.69023000  0.18703000  0.89834000  1.0
  H  H76  1  0.61275000  0.77530000  0.11682000  1.0
  H  H77  1  0.88725000  0.22470000  0.61682000  1.0
  H  H78  1  0.38725000  0.27530000  0.38318000  1.0
  H  H79  1  0.11275000  0.72470000  0.88318000  1.0
  H  H80  1  0.23694000  0.72220000  0.25062000  1.0
  H  H81  1  0.26306000  0.27780000  0.75062000  1.0
  H  H82  1  0.76306000  0.22220000  0.24938000  1.0
  H  H83  1  0.73694000  0.77780000  0.74938000  1.0
  H  H84  1  0.50103000  0.40795000  0.31961000  1.0
  H  H85  1  0.99897000  0.59205000  0.81961000  1.0
  H  H86  1  0.49897000  0.90795000  0.18039000  1.0
  H  H87  1  0.00103000  0.09205000  0.68039000  1.0
  H  H88  1  0.52698000  0.30454000  0.22847000  1.0
  H  H89  1  0.97301000  0.69546000  0.72847000  1.0
  H  H90  1  0.47301000  0.80454000  0.27153000  1.0
  H  H91  1  0.02699000  0.19547000  0.77153000  1.0
  H  H92  1  0.41650000  0.40971000  0.14790000  1.0
  H  H93  1  0.08350000  0.59029000  0.64790000  1.0
  H  H94  1  0.58350000  0.90971000  0.35210000  1.0
  H  H95  1  0.91650000  0.09029000  0.85210000  1.0
  H  H96  1  0.27914000  0.58542000  0.11749000  1.0
  H  H97  1  0.22086000  0.41458000  0.61749000  1.0
  H  H98  1  0.72086000  0.08542000  0.38251000  1.0
  H  H99  1  0.77914000  0.91458000  0.88251000  1.0
  H  H100  1  0.39287000  0.57904000  0.36909000  1.0
  H  H101  1  0.10713000  0.42096000  0.86909000  1.0
  H  H102  1  0.60713000  0.07904000  0.13091000  1.0
  H  H103  1  0.89287000  0.92096000  0.63091000  1.0
  C  C104  1  0.29658000  0.08014000  0.92641000  1.0
  C  C105  1  0.20342000  0.91986000  0.42641000  1.0
  C  C106  1  0.70342000  0.58014000  0.57359000  1.0
  C  C107  1  0.79658000  0.41986000  0.07359000  1.0
  C  C108  1  0.24565000  0.03154000  0.87731000  1.0
  C  C109  1  0.25435000  0.96847000  0.37731000  1.0
  C  C110  1  0.75435000  0.53153000  0.62269000  1.0
  C  C111  1  0.74565000  0.46846000  0.12269000  1.0
  C  C112  1  0.31337000  0.92350000  0.85061000  1.0
  C  C113  1  0.18663000  0.07650000  0.35061000  1.0
  C  C114  1  0.68663000  0.42350000  0.64939000  1.0
  C  C115  1  0.81337000  0.57650000  0.14939000  1.0
  C  C116  1  0.43214000  0.86898000  0.87571000  1.0
  C  C117  1  0.06786000  0.13102000  0.37571000  1.0
  C  C118  1  0.56786000  0.36898000  0.62429000  1.0
  C  C119  1  0.93214000  0.63102000  0.12429000  1.0
  C  C120  1  0.47775000  0.92217000  0.92473000  1.0
  C  C121  1  0.02225000  0.07783000  0.42473000  1.0
  C  C122  1  0.52225000  0.42217000  0.57527000  1.0
  C  C123  1  0.97775000  0.57783000  0.07527000  1.0
  C  C124  1  0.26402000  0.86960000  0.79690000  1.0
  C  C125  1  0.23598000  0.13040000  0.29690000  1.0
  C  C126  1  0.73598000  0.36960000  0.70310000  1.0
  C  C127  1  0.76402000  0.63040000  0.20310000  1.0
  C  C128  1  0.34073000  0.93732000  0.74901000  1.0
  C  C129  1  0.15927000  0.06268000  0.24901000  1.0
  C  C130  1  0.65927000  0.43732000  0.75099000  1.0
  C  C131  1  0.84073000  0.56268000  0.25099000  1.0
  C  C132  1  0.29656000  0.87297000  0.69474000  1.0
  C  C133  1  0.20344000  0.12703000  0.19474000  1.0
  C  C134  1  0.70344000  0.37297000  0.80526000  1.0
  C  C135  1  0.79656000  0.62703000  0.30526000  1.0
  C  C136  1  0.37241000  0.93211000  0.64688000  1.0
  C  C137  1  0.12759000  0.06789000  0.14688000  1.0
  C  C138  1  0.62759000  0.43211000  0.85312000  1.0
  C  C139  1  0.87241000  0.56789000  0.35312000  1.0
  C  C140  1  0.30647000  0.01877000  0.60951000  1.0
  C  C141  1  0.19353000  0.98123000  0.10951000  1.0
  C  C142  1  0.69353000  0.51877000  0.89049000  1.0
  C  C143  1  0.80647000  0.48123000  0.39049000  1.0
  C  C144  1  0.37986000  0.06941000  0.56526000  1.0
  C  C145  1  0.12014000  0.93059000  0.06526000  1.0
  C  C146  1  0.62014000  0.56941000  0.93474000  1.0
  C  C147  1  0.87986000  0.43059000  0.43474000  1.0
  C  C148  1  0.58064000  0.95489000  0.59257000  1.0
  C  C149  1  0.91936000  0.04511000  0.09257000  1.0
  C  C150  1  0.41936000  0.45488000  0.90743000  1.0
  C  C151  1  0.08064000  0.54512000  0.40743000  1.0
  C  C152  1  0.51319000  0.90091000  0.63744000  1.0
  C  C153  1  0.98681000  0.09909000  0.13744000  1.0
  C  C154  1  0.48681000  0.40091000  0.86256000  1.0
  C  C155  1  0.01319000  0.59909000  0.36256000  1.0
  C  C156  1  0.31935000  0.57333000  0.19414000  1.0
  C  C157  1  0.18065000  0.42668000  0.69414000  1.0
  C  C158  1  0.68065000  0.07332000  0.30586000  1.0
  C  C159  1  0.81935000  0.92668000  0.80586000  1.0
  C  C160  1  0.30010000  0.63003000  0.24583000  1.0
  C  C161  1  0.19989000  0.36997000  0.74583000  1.0
  C  C162  1  0.69990000  0.13003000  0.25417000  1.0
  C  C163  1  0.80011000  0.86997000  0.75417000  1.0
  C  C164  1  0.36627000  0.57159000  0.29094000  1.0
  C  C165  1  0.13373000  0.42841000  0.79094000  1.0
  C  C166  1  0.63374000  0.07159000  0.20906000  1.0
  C  C167  1  0.86626000  0.92841000  0.70906000  1.0
  C  C168  1  0.44893000  0.45360000  0.28477000  1.0
  C  C169  1  0.05107000  0.54640000  0.78477000  1.0
  C  C170  1  0.55107000  0.95360000  0.21523000  1.0
  C  C171  1  0.94893000  0.04640000  0.71523000  1.0
  C  C172  1  0.46396000  0.39651000  0.23328000  1.0
  C  C173  1  0.03604000  0.60349000  0.73328000  1.0
  C  C174  1  0.53604000  0.89651000  0.26672000  1.0
  C  C175  1  0.96396000  0.10349000  0.76672000  1.0
  C  C176  1  0.40124000  0.45475000  0.18785000  1.0
  C  C177  1  0.09876000  0.54525000  0.68785000  1.0
  C  C178  1  0.59876000  0.95475000  0.31215000  1.0
  C  C179  1  0.90124000  0.04525000  0.81215000  1.0
  N  N180  1  0.41178000  0.02681000  0.94997000  1.0
  N  N181  1  0.08822000  0.97319000  0.44997000  1.0
  N  N182  1  0.58822000  0.52681000  0.55003000  1.0
  N  N183  1  0.91178000  0.47319000  0.05003000  1.0
  N  N184  1  0.51554000  0.03858000  0.55693000  1.0
  N  N185  1  0.98447000  0.96142000  0.05693000  1.0
  N  N186  1  0.48446000  0.53858000  0.94307000  1.0
  N  N187  1  0.01554000  0.46142000  0.44307000  1.0
  O  O188  1  0.39881000  0.24908000  0.05770000  1.0
  O  O189  1  0.10119000  0.75092000  0.55770000  1.0
  O  O190  1  0.60119000  0.74908000  0.44230000  1.0
  O  O191  1  0.89881000  0.25092000  0.94230000  1.0
  O  O192  1  0.56186000  0.98583000  0.07524000  1.0
  O  O193  1  0.93814000  0.01417000  0.57524000  1.0
  O  O194  1  0.43814000  0.48583000  0.42476000  1.0
  O  O195  1  0.06186000  0.51417000  0.92476000  1.0
  O  O196  1  0.17685000  0.30399000  0.00517000  1.0
  O  O197  1  0.32315000  0.69601000  0.50517000  1.0
  O  O198  1  0.82315000  0.80399000  0.49483000  1.0
  O  O199  1  0.67685000  0.19601000  0.99483000  1.0
  O  O200  1  0.30327000  0.49334000  0.05866000  1.0
  O  O201  1  0.19672000  0.50666000  0.55866000  1.0
  O  O202  1  0.69673000  0.99334000  0.44134000  1.0
  O  O203  1  0.80327000  0.00666000  0.94134000  1.0
  O  O204  1  0.70044000  0.79408000  0.02719000  1.0
  O  O205  1  0.79956000  0.20592000  0.52719000  1.0
  O  O206  1  0.29956000  0.29408000  0.47281000  1.0
  O  O207  1  0.20044000  0.70592000  0.97281000  1.0
  O  O208  1  0.44147000  0.76722000  0.04731000  1.0
  O  O209  1  0.05853000  0.23278000  0.54731000  1.0
  O  O210  1  0.55853000  0.26722000  0.45270000  1.0
  O  O211  1  0.94147000  0.73278000  0.95269000  1.0
  O  O212  1  0.25756000  0.63707000  0.15143000  1.0
  O  O213  1  0.24244000  0.36293000  0.65143000  1.0
  O  O214  1  0.74244000  0.13707000  0.34857000  1.0
  O  O215  1  0.75756000  0.86293000  0.84857000  1.0
  O  O216  1  0.35015000  0.63568000  0.33969000  1.0
  O  O217  1  0.14985000  0.36432000  0.83969000  1.0
  O  O218  1  0.64985000  0.13568000  0.16031000  1.0
  O  O219  1  0.85015000  0.86432000  0.66031000  1.0
