# generated using pymatgen
data_Al2H14C21O10
_symmetry_space_group_name_H-M   'P 1'
_cell_length_a   6.81784000
_cell_length_b   11.04360000
_cell_length_c   11.06417415
_cell_angle_alpha   91.17916883
_cell_angle_beta   107.19175326
_cell_angle_gamma   106.05450000
_symmetry_Int_Tables_number   1
_chemical_formula_structural   Al2H14C21O10
_chemical_formula_sum   'Al2 H14 C21 O10'
_cell_volume   760.03669126
_cell_formula_units_Z   1
loop_
 _symmetry_equiv_pos_site_id
 _symmetry_equiv_pos_as_xyz
  1  'x, y, z'
loop_
 _atom_site_type_symbol
 _atom_site_label
 _atom_site_symmetry_multiplicity
 _atom_site_fract_x
 _atom_site_fract_y
 _atom_site_fract_z
 _atom_site_occupancy
  Al  Al0  1  0.99007000  0.49399000  0.49855000  1.0
  Al  Al1  1  0.49197000  0.50003000  0.49952000  1.0
  H  H2  1  0.62771000  0.41781000  0.34593000  1.0
  H  H3  1  0.35056000  0.57372000  0.65290000  1.0
  H  H4  1  0.62275000  0.89715000  0.49469000  1.0
  H  H5  1  0.23360000  0.85927000  0.50099000  1.0
  H  H6  1  0.77104000  0.13327000  0.49079000  1.0
  H  H7  1  0.49191000  0.67182000  0.24548000  1.0
  H  H8  1  0.73298000  0.79443000  0.13523000  1.0
  H  H9  1  0.23408000  0.67206000  0.77507000  1.0
  H  H10  1  0.60299000  0.79549000  0.89874000  1.0
  H  H11  1  0.62695000  0.41169000  0.87623000  1.0
  H  H12  1  0.75049000  0.41898000  0.11338000  1.0
  H  H13  1  0.54599000  0.07226000  0.58167000  1.0
  H  H14  1  0.49790000  0.19782000  0.49049000  1.0
  H  H15  1  0.45419000  0.04477000  0.41376000  1.0
  C  C16  1  0.13681000  0.51347000  0.27399000  1.0
  C  C17  1  0.14299000  0.26893000  0.49293000  1.0
  C  C18  1  0.85644000  0.50118000  0.72567000  1.0
  C  C19  1  0.84606000  0.72448000  0.50396000  1.0
  C  C20  1  0.07911000  0.12754000  0.49442000  1.0
  C  C21  1  0.92145000  0.86408000  0.49892000  1.0
  C  C22  1  0.21415000  0.05087000  0.49655000  1.0
  C  C23  1  0.78713000  0.94056000  0.49523000  1.0
  C  C24  1  0.13141000  0.92019000  0.49898000  1.0
  C  C25  1  0.86770000  0.07006000  0.49315000  1.0
  C  C26  1  0.07432000  0.52596000  0.13463000  1.0
  C  C27  1  0.22341000  0.59384000  0.07363000  1.0
  C  C28  1  0.86203000  0.46630000  0.06412000  1.0
  C  C29  1  0.43626000  0.66853000  0.14235000  1.0
  C  C30  1  0.57070000  0.73775000  0.08030000  1.0
  C  C31  1  0.93477000  0.51970000  0.86765000  1.0
  C  C32  1  0.79239000  0.46249000  0.93109000  1.0
  C  C33  1  0.15062000  0.59184000  0.93711000  1.0
  C  C34  1  0.29219000  0.66735000  0.87717000  1.0
  C  C35  1  0.49780000  0.73793000  0.94687000  1.0
  C  C36  1  0.44074000  0.09631000  0.49541000  1.0
  O  O37  1  0.99574000  0.51272000  0.32842000  1.0
  O  O38  1  0.33722000  0.32719000  0.50261000  1.0
  O  O39  1  0.66608000  0.50603000  0.67163000  1.0
  O  O40  1  0.98787000  0.66661000  0.51788000  1.0
  O  O41  1  0.98362000  0.47991000  0.66927000  1.0
  O  O42  1  0.64902000  0.67451000  0.49560000  1.0
  O  O43  1  0.32163000  0.50001000  0.32747000  1.0
  O  O44  1  0.99462000  0.32193000  0.48127000  1.0
  O  O45  1  0.68494000  0.44164000  0.43721000  1.0
  O  O46  1  0.29520000  0.55291000  0.56109000  1.0
