# generated using pymatgen
data_CdH28C20(N4Cl)2
_symmetry_space_group_name_H-M   'P 1'
_cell_length_a   7.68614000
_cell_length_b   8.60286000
_cell_length_c   18.70800000
_cell_angle_alpha   90.00000000
_cell_angle_beta   90.00000000
_cell_angle_gamma   112.72900000
_symmetry_Int_Tables_number   1
_chemical_formula_structural   CdH28C20(N4Cl)2
_chemical_formula_sum   'Cd2 H56 C40 N16 Cl4'
_cell_volume   1140.96099298
_cell_formula_units_Z   2
loop_
 _symmetry_equiv_pos_site_id
 _symmetry_equiv_pos_as_xyz
  1  'x, y, z'
loop_
 _atom_site_type_symbol
 _atom_site_label
 _atom_site_symmetry_multiplicity
 _atom_site_fract_x
 _atom_site_fract_y
 _atom_site_fract_z
 _atom_site_occupancy
  Cd  Cd0  1  0.00000000  0.50000000  0.00000000  1.0
  Cd  Cd1  1  0.50000000  0.00000000  0.50000000  1.0
  H  H2  1  0.46771000  0.65067000  0.95103000  1.0
  H  H3  1  0.03229000  0.84933000  0.45103000  1.0
  H  H4  1  0.53229000  0.34933000  0.04897000  1.0
  H  H5  1  0.96771000  0.15067000  0.54897000  1.0
  H  H6  1  0.98255000  0.07359000  0.77699000  1.0
  H  H7  1  0.51745000  0.42641000  0.27699000  1.0
  H  H8  1  0.01745000  0.92641000  0.22301000  1.0
  H  H9  1  0.48255000  0.57359000  0.72301000  1.0
  H  H10  1  0.02481000  0.92346000  0.83106000  1.0
  H  H11  1  0.47518000  0.57654000  0.33106000  1.0
  H  H12  1  0.97519000  0.07654000  0.16894000  1.0
  H  H13  1  0.52481000  0.42346000  0.66894000  1.0
  H  H14  1  0.46909000  0.13003000  0.89940000  1.0
  H  H15  1  0.03091000  0.36997000  0.39940000  1.0
  H  H16  1  0.53091000  0.86997000  0.10060000  1.0
  H  H17  1  0.96909000  0.63003000  0.60060000  1.0
  H  H18  1  0.06564000  0.94864000  0.58742000  1.0
  H  H19  1  0.43436000  0.55136000  0.08742000  1.0
  H  H20  1  0.93436000  0.05135000  0.41258000  1.0
  H  H21  1  0.56565000  0.44864000  0.91258000  1.0
  H  H22  1  0.63927000  0.91773000  0.78482000  1.0
  H  H23  1  0.86073000  0.58227000  0.28482000  1.0
  H  H24  1  0.36073000  0.08227000  0.21518000  1.0
  H  H25  1  0.13927000  0.41773000  0.71518000  1.0
  H  H26  1  0.66825000  0.74486000  0.82660000  1.0
  H  H27  1  0.83175000  0.75515000  0.32660000  1.0
  H  H28  1  0.33175000  0.25515000  0.17340000  1.0
  H  H29  1  0.16825000  0.24485000  0.67340000  1.0
  H  H30  1  0.87196000  0.69933000  0.73892000  1.0
  H  H31  1  0.62804000  0.80067000  0.23892000  1.0
  H  H32  1  0.12804000  0.30067000  0.26108000  1.0
  H  H33  1  0.37196000  0.19933000  0.76108000  1.0
  H  H34  1  0.83731000  0.84959000  0.68190000  1.0
  H  H35  1  0.66269000  0.65041000  0.18190000  1.0
  H  H36  1  0.16269000  0.15040000  0.31810000  1.0
  H  H37  1  0.33732000  0.34959000  0.81810000  1.0
  H  H38  1  0.26469000  0.82077000  0.78076000  1.0
  H  H39  1  0.23531000  0.67923000  0.28076000  1.0
  H  H40  1  0.73531000  0.17923000  0.21924000  1.0
  H  H41  1  0.76469000  0.32077000  0.71924000  1.0
  H  H42  1  0.55108000  0.91181000  0.67666000  1.0
  H  H43  1  0.94892000  0.58819000  0.17666000  1.0
  H  H44  1  0.44892000  0.08819000  0.32334000  1.0
  H  H45  1  0.05108000  0.41181000  0.82334000  1.0
  H  H46  1  0.79381000  0.91212000  0.93562000  1.0
  H  H47  1  0.70619000  0.58788000  0.43562000  1.0
  H  H48  1  0.20619000  0.08788000  0.06438000  1.0
  H  H49  1  0.29381000  0.41212000  0.56438000  1.0
  H  H50  1  0.78594000  0.09586000  0.89496000  1.0
  H  H51  1  0.71406000  0.40414000  0.39496000  1.0
  H  H52  1  0.21406000  0.90414000  0.10504000  1.0
  H  H53  1  0.28594000  0.59586000  0.60504000  1.0
  H  H54  1  0.11222000  0.92035000  0.94693000  1.0
  H  H55  1  0.38777000  0.57964000  0.44693000  1.0
  H  H56  1  0.88777000  0.07965000  0.05307000  1.0
  H  H57  1  0.61223000  0.42035000  0.55307000  1.0
  C  C58  1  0.41553000  0.74937000  0.94182000  1.0
  C  C59  1  0.08447000  0.75063000  0.44182000  1.0
  C  C60  1  0.58447000  0.25063000  0.05818000  1.0
  C  C61  1  0.91553000  0.24937000  0.55818000  1.0
  C  C62  1  0.92829000  0.93884000  0.79085000  1.0
  C  C63  1  0.57171000  0.56117000  0.29085000  1.0
  C  C64  1  0.07171000  0.06116000  0.20915000  1.0
  C  C65  1  0.42829000  0.43884000  0.70915000  1.0
  C  C66  1  0.41309000  0.99862000  0.91473000  1.0
  C  C67  1  0.08691000  0.50139000  0.41473000  1.0
  C  C68  1  0.58691000  0.00139000  0.08527000  1.0
  C  C69  1  0.91309000  0.49862000  0.58527000  1.0
  C  C70  1  0.16449000  0.93242000  0.62538000  1.0
  C  C71  1  0.33551000  0.56758000  0.12538000  1.0
  C  C72  1  0.83551000  0.06758000  0.37462000  1.0
  C  C73  1  0.66449000  0.43242000  0.87462000  1.0
  C  C74  1  0.72985000  0.88327000  0.82174000  1.0
  C  C75  1  0.77015000  0.61673000  0.32174000  1.0
  C  C76  1  0.27015000  0.11673000  0.17826000  1.0
  C  C77  1  0.22986000  0.38327000  0.67826000  1.0
  C  C78  1  0.92723000  0.83400000  0.72483000  1.0
  C  C79  1  0.57277000  0.66600000  0.22483000  1.0
  C  C80  1  0.07277000  0.16599000  0.27518000  1.0
  C  C81  1  0.42723000  0.33400000  0.77517000  1.0
  C  C82  1  0.26898000  0.86180000  0.72573000  1.0
  C  C83  1  0.23102000  0.63821000  0.22573000  1.0
  C  C84  1  0.73102000  0.13820000  0.27427000  1.0
  C  C85  1  0.76899000  0.36179000  0.77427000  1.0
  C  C86  1  0.40899000  0.90916000  0.67458000  1.0
  C  C87  1  0.09101000  0.59084000  0.17458000  1.0
  C  C88  1  0.59101000  0.09084000  0.32542000  1.0
  C  C89  1  0.90899000  0.40916000  0.82542000  1.0
  C  C90  1  0.72114000  0.95770000  0.89512000  1.0
  C  C91  1  0.77886000  0.54230000  0.39512000  1.0
  C  C92  1  0.27886000  0.04230000  0.10488000  1.0
  C  C93  1  0.22114000  0.45770000  0.60488000  1.0
  C  C94  1  0.23717000  0.89341000  0.93818000  1.0
  C  C95  1  0.26282000  0.60659000  0.43818000  1.0
  C  C96  1  0.76282000  0.10659000  0.06182000  1.0
  C  C97  1  0.73717000  0.39341000  0.56182000  1.0
  N  N98  1  0.24085000  0.73837000  0.95460000  1.0
  N  N99  1  0.25915000  0.76163000  0.45460000  1.0
  N  N100  1  0.75915000  0.26163000  0.04540000  1.0
  N  N101  1  0.74085000  0.23837000  0.54540000  1.0
  N  N102  1  0.52464000  0.90562000  0.91768000  1.0
  N  N103  1  0.97536000  0.59438000  0.41768000  1.0
  N  N104  1  0.47536000  0.09438000  0.08232000  1.0
  N  N105  1  0.02464000  0.40562000  0.58232000  1.0
  N  N106  1  0.11442000  0.87734000  0.69353000  1.0
  N  N107  1  0.38558000  0.62266000  0.19353000  1.0
  N  N108  1  0.88558000  0.12265000  0.30647000  1.0
  N  N109  1  0.61442000  0.37734000  0.80647000  1.0
  N  N110  1  0.34206000  0.95252000  0.61261000  1.0
  N  N111  1  0.15794000  0.54748000  0.11261000  1.0
  N  N112  1  0.65794000  0.04748000  0.38739000  1.0
  N  N113  1  0.84206000  0.45252000  0.88739000  1.0
  Cl  Cl114  1  0.20123000  0.31817000  0.95775000  1.0
  Cl  Cl115  1  0.29877000  0.18182000  0.45775000  1.0
  Cl  Cl116  1  0.79877000  0.68182000  0.04225000  1.0
  Cl  Cl117  1  0.70123000  0.81817000  0.54225000  1.0
