# generated using pymatgen
data_CdH5C5SN5O4
_symmetry_space_group_name_H-M   'P 1'
_cell_length_a   6.84969000
_cell_length_b   11.13830000
_cell_length_c   11.93320000
_cell_angle_alpha   90.00000000
_cell_angle_beta   89.99990000
_cell_angle_gamma   106.28400000
_symmetry_Int_Tables_number   1
_chemical_formula_structural   CdH5C5SN5O4
_chemical_formula_sum   'Cd4 H20 C20 S4 N20 O16'
_cell_volume   873.90723171
_cell_formula_units_Z   4
loop_
 _symmetry_equiv_pos_site_id
 _symmetry_equiv_pos_as_xyz
  1  'x, y, z'
loop_
 _atom_site_type_symbol
 _atom_site_label
 _atom_site_symmetry_multiplicity
 _atom_site_fract_x
 _atom_site_fract_y
 _atom_site_fract_z
 _atom_site_occupancy
  Cd  Cd0  1  0.27750000  0.57131000  0.12360000  1.0
  Cd  Cd1  1  0.72250000  0.92869000  0.62360000  1.0
  Cd  Cd2  1  0.72250000  0.42869000  0.87640000  1.0
  Cd  Cd3  1  0.27750000  0.07131000  0.37640000  1.0
  H  H4  1  0.18963000  0.48623000  0.67900000  1.0
  H  H5  1  0.81037000  0.01377000  0.17900000  1.0
  H  H6  1  0.81037000  0.51377000  0.32100000  1.0
  H  H7  1  0.18963000  0.98623000  0.82100000  1.0
  H  H8  1  0.28266000  0.20013000  0.60492000  1.0
  H  H9  1  0.71735000  0.29987000  0.10492000  1.0
  H  H10  1  0.71735000  0.79987000  0.39508000  1.0
  H  H11  1  0.28266000  0.70013000  0.89508000  1.0
  H  H12  1  0.26890000  0.30426000  0.71465000  1.0
  H  H13  1  0.73111000  0.19574000  0.21466000  1.0
  H  H14  1  0.73111000  0.69574000  0.28534000  1.0
  H  H15  1  0.26889000  0.80426000  0.78535000  1.0
  H  H16  1  0.31093000  0.27715000  0.18572000  1.0
  H  H17  1  0.68907000  0.22285000  0.68573000  1.0
  H  H18  1  0.68907000  0.72285000  0.81427000  1.0
  H  H19  1  0.31093000  0.77715000  0.31428000  1.0
  H  H20  1  0.21769000  0.66567000  0.56992000  1.0
  H  H21  1  0.78231000  0.83433000  0.06992000  1.0
  H  H22  1  0.78231000  0.33433000  0.43008000  1.0
  H  H23  1  0.21769000  0.16567000  0.93008000  1.0
  C  C24  1  0.29921000  0.32683000  0.26283000  1.0
  C  C25  1  0.70078000  0.17317000  0.76283000  1.0
  C  C26  1  0.70079000  0.67317000  0.73717000  1.0
  C  C27  1  0.29921000  0.82683000  0.23717000  1.0
  C  C28  1  0.26747000  0.47178000  0.37576000  1.0
  C  C29  1  0.73253000  0.02822000  0.87576000  1.0
  C  C30  1  0.73253000  0.52822000  0.62424000  1.0
  C  C31  1  0.26747000  0.97178000  0.12424000  1.0
  C  C32  1  0.23184000  0.58185000  0.52711000  1.0
  C  C33  1  0.76816000  0.91815000  0.02711000  1.0
  C  C34  1  0.76817000  0.41815000  0.47289000  1.0
  C  C35  1  0.23184000  0.08185000  0.97289000  1.0
  C  C36  1  0.25182000  0.37008000  0.55656000  1.0
  C  C37  1  0.74818000  0.12992000  0.05656000  1.0
  C  C38  1  0.74818000  0.62992000  0.44344000  1.0
  C  C39  1  0.25182000  0.87008000  0.94344000  1.0
  C  C40  1  0.26856000  0.36460000  0.43860000  1.0
  C  C41  1  0.73144000  0.13540000  0.93860000  1.0
  C  C42  1  0.73144000  0.63540000  0.56140000  1.0
  C  C43  1  0.26855000  0.86460000  0.06140000  1.0
  S  S44  1  0.22084000  0.44183000  0.90037000  1.0
  S  S45  1  0.77916000  0.05817000  0.40037000  1.0
  S  S46  1  0.77916000  0.55817000  0.09963000  1.0
  S  S47  1  0.22084000  0.94183000  0.59964000  1.0
  N  N48  1  0.28735000  0.44593000  0.26520000  1.0
  N  N49  1  0.71264000  0.05407000  0.76521000  1.0
  N  N50  1  0.71265000  0.55407000  0.73479000  1.0
  N  N51  1  0.28735000  0.94593000  0.23479000  1.0
  N  N52  1  0.29047000  0.27373000  0.36485000  1.0
  N  N53  1  0.70953000  0.22627000  0.86485000  1.0
  N  N54  1  0.70953000  0.72627000  0.63515000  1.0
  N  N55  1  0.29047000  0.77373000  0.13515000  1.0
  N  N56  1  0.25249000  0.58233000  0.41785000  1.0
  N  N57  1  0.74751000  0.91767000  0.91785000  1.0
  N  N58  1  0.74751000  0.41767000  0.58215000  1.0
  N  N59  1  0.25249000  0.08233000  0.08215000  1.0
  N  N60  1  0.22912000  0.48233000  0.59447000  1.0
  N  N61  1  0.77088000  0.01767000  0.09447000  1.0
  N  N62  1  0.77088000  0.51767000  0.40553000  1.0
  N  N63  1  0.22912000  0.98233000  0.90553000  1.0
  N  N64  1  0.25757000  0.28290000  0.63042000  1.0
  N  N65  1  0.74243000  0.21710000  0.13042000  1.0
  N  N66  1  0.74243000  0.71710000  0.36958000  1.0
  N  N67  1  0.25757000  0.78290000  0.86958000  1.0
  O  O68  1  0.10168000  0.38666000  0.00059000  1.0
  O  O69  1  0.89832000  0.11334000  0.50060000  1.0
  O  O70  1  0.89832000  0.61334000  0.99940000  1.0
  O  O71  1  0.10168000  0.88666000  0.49941000  1.0
  O  O72  1  0.36490000  0.56638000  0.93391000  1.0
  O  O73  1  0.63510000  0.93362000  0.43391000  1.0
  O  O74  1  0.63510000  0.43362000  0.06609000  1.0
  O  O75  1  0.36490000  0.06638000  0.56609000  1.0
  O  O76  1  0.34084000  0.35904000  0.85560000  1.0
  O  O77  1  0.65916000  0.14096000  0.35560000  1.0
  O  O78  1  0.65917000  0.64096000  0.14440000  1.0
  O  O79  1  0.34084000  0.85904000  0.64440000  1.0
  O  O80  1  0.08354000  0.46339000  0.80931000  1.0
  O  O81  1  0.91646000  0.03661000  0.30931000  1.0
  O  O82  1  0.91646000  0.53661000  0.19069000  1.0
  O  O83  1  0.08354000  0.96339000  0.69069000  1.0
