# generated using pymatgen
data_Mg2H7C14SNO8
_symmetry_space_group_name_H-M   'P 1'
_cell_length_a   6.83502000
_cell_length_b   25.57610000
_cell_length_c   25.57610000
_cell_angle_alpha   119.21600000
_cell_angle_beta   95.11510000
_cell_angle_gamma   95.10430000
_symmetry_Int_Tables_number   1
_chemical_formula_structural   Mg2H7C14SNO8
_chemical_formula_sum   'Mg6 H21 C42 S3 N3 O24'
_cell_volume   3841.31492538
_cell_formula_units_Z   3
loop_
 _symmetry_equiv_pos_site_id
 _symmetry_equiv_pos_as_xyz
  1  'x, y, z'
loop_
 _atom_site_type_symbol
 _atom_site_label
 _atom_site_symmetry_multiplicity
 _atom_site_fract_x
 _atom_site_fract_y
 _atom_site_fract_z
 _atom_site_occupancy
  Mg  Mg0  1  0.60125000  0.70455000  0.37721000  1.0
  Mg  Mg1  1  0.01531000  0.29445000  0.62316000  1.0
  Mg  Mg2  1  0.22411000  0.62276000  0.32733000  1.0
  Mg  Mg3  1  0.39224000  0.37681000  0.67126000  1.0
  Mg  Mg4  1  0.89659000  0.67259000  0.29538000  1.0
  Mg  Mg5  1  0.72093000  0.32872000  0.70554000  1.0
  H  H6  1  0.65049000  0.46996000  0.48240000  1.0
  H  H7  1  0.93642000  0.53620000  0.41260000  1.0
  H  H8  1  0.27766000  0.60185000  0.45367000  1.0
  H  H9  1  0.40958000  0.54057000  0.49475000  1.0
  H  H10  1  0.71186000  0.47624000  0.60123000  1.0
  H  H11  1  0.34891000  0.39852000  0.54929000  1.0
  H  H12  1  0.24468000  0.47550000  0.52318000  1.0
  H  H13  1  0.16788000  0.51767000  0.98755000  1.0
  H  H14  1  0.52348000  0.58751000  0.12358000  1.0
  H  H15  1  0.82378000  0.54626000  0.14818000  1.0
  H  H16  1  0.91450000  0.50523000  0.04581000  1.0
  H  H17  1  0.11078000  0.39880000  0.87498000  1.0
  H  H18  1  0.79947000  0.45087000  0.84926000  1.0
  H  H19  1  0.72138000  0.47703000  0.95236000  1.0
  H  H20  1  0.17995000  0.01239000  0.53005000  1.0
  H  H21  1  0.39976000  0.87639000  0.46386000  1.0
  H  H22  1  0.67543000  0.85174000  0.39803000  1.0
  H  H23  1  0.86852000  0.95412000  0.45936000  1.0
  H  H24  1  0.23549000  0.12500000  0.52383000  1.0
  H  H25  1  0.95009000  0.15069000  0.60154000  1.0
  H  H26  1  0.76862000  0.04758000  0.52465000  1.0
  C  C27  1  0.68153000  0.53297000  0.45510000  1.0
  C  C28  1  0.79232000  0.55062000  0.42199000  1.0
  C  C29  1  0.72259000  0.58755000  0.40014000  1.0
  C  C30  1  0.53206000  0.60650000  0.41132000  1.0
  C  C31  1  0.42174000  0.58715000  0.44453000  1.0
  C  C32  1  0.49580000  0.55206000  0.46686000  1.0
  C  C33  1  0.85189000  0.60477000  0.36606000  1.0
  C  C34  1  0.97109000  0.47988000  0.56024000  1.0
  C  C35  1  0.84917000  0.45820000  0.58817000  1.0
  C  C36  1  0.90323000  0.41421000  0.60226000  1.0
  C  C37  1  0.09016000  0.39310000  0.58910000  1.0
  C  C38  1  0.20817000  0.41535000  0.55942000  1.0
  C  C39  1  0.15066000  0.45787000  0.54503000  1.0
  C  C40  1  0.76569000  0.39390000  0.63236000  1.0
  C  C41  1  0.22609000  0.54495000  0.07786000  1.0
  C  C42  1  0.37002000  0.57809000  0.12863000  1.0
  C  C43  1  0.32221000  0.59988000  0.18741000  1.0
  C  C44  1  0.12052000  0.58866000  0.19517000  1.0
  C  C45  1  0.97695000  0.55546000  0.14261000  1.0
  C  C46  1  0.02862000  0.53313000  0.08518000  1.0
  C  C47  1  0.48568000  0.63395000  0.23870000  1.0
  C  C48  1  0.41080000  0.43988000  0.91965000  1.0
  C  C49  1  0.26109000  0.41189000  0.87002000  1.0
  C  C50  1  0.30096000  0.39775000  0.81191000  1.0
  C  C51  1  0.50103000  0.41093000  0.80399000  1.0
  C  C52  1  0.64864000  0.44068000  0.85595000  1.0
  C  C53  1  0.60552000  0.45512000  0.91287000  1.0
  C  C54  1  0.13331000  0.36763000  0.76151000  1.0
  C  C55  1  0.14805000  0.92208000  0.46703000  1.0
  C  C56  1  0.24123000  0.87132000  0.44939000  1.0
  C  C57  1  0.13468000  0.81253000  0.41242000  1.0
  C  C58  1  0.92523000  0.80476000  0.39342000  1.0
  C  C59  1  0.83419000  0.85732000  0.41278000  1.0
  C  C60  1  0.94325000  0.91475000  0.44790000  1.0
  C  C61  1  0.24689000  0.76124000  0.39520000  1.0
  C  C62  1  0.49087000  0.08033000  0.52022000  1.0
  C  C63  1  0.39079000  0.12995000  0.54188000  1.0
  C  C64  1  0.48887000  0.18806000  0.58582000  1.0
  C  C65  1  0.69690000  0.19599000  0.60692000  1.0
  C  C66  1  0.79251000  0.14401000  0.58472000  1.0
  C  C67  1  0.69241000  0.08711000  0.54223000  1.0
  C  C68  1  0.37166000  0.23846000  0.60610000  1.0
  S  S69  1  0.90515000  0.53859000  0.54743000  1.0
  S  S70  1  0.35755000  0.45263000  0.99115000  1.0
  S  S71  1  0.36625000  0.00881000  0.46147000  1.0
  N  N72  1  0.76155000  0.49658000  0.47808000  1.0
  N  N73  1  0.28318000  0.52197000  0.01850000  1.0
  N  N74  1  0.26443000  0.98146000  0.50345000  1.0
  O  O75  1  0.01379000  0.58372000  0.35340000  1.0
  O  O76  1  0.79766000  0.64281000  0.35007000  1.0
  O  O77  1  0.45381000  0.64177000  0.39238000  1.0
  O  O78  1  0.60276000  0.41454000  0.64395000  1.0
  O  O79  1  0.81363000  0.35388000  0.64635000  1.0
  O  O80  1  0.16160000  0.35442000  0.60428000  1.0
  O  O81  1  0.78792000  0.57382000  0.59327000  1.0
  O  O82  1  0.07913000  0.56806000  0.53874000  1.0
  O  O83  1  0.66022000  0.64660000  0.23029000  1.0
  O  O84  1  0.44752000  0.64992000  0.29273000  1.0
  O  O85  1  0.06127000  0.60756000  0.24937000  1.0
  O  O86  1  0.95883000  0.35602000  0.77055000  1.0
  O  O87  1  0.16724000  0.35363000  0.70750000  1.0
  O  O88  1  0.55735000  0.39572000  0.75012000  1.0
  O  O89  1  0.19454000  0.40678000  0.98050000  1.0
  O  O90  1  0.54019000  0.46133000  0.02932000  1.0
  O  O91  1  0.42985000  0.76966000  0.41627000  1.0
  O  O92  1  0.15475000  0.70721000  0.35714000  1.0
  O  O93  1  0.81182000  0.75056000  0.35814000  1.0
  O  O94  1  0.18809000  0.22944000  0.58549000  1.0
  O  O95  1  0.45970000  0.29246000  0.64609000  1.0
  O  O96  1  0.80714000  0.24984000  0.64557000  1.0
  O  O97  1  0.21397000  0.01942000  0.42619000  1.0
  O  O98  1  0.51086000  0.97066000  0.43205000  1.0
