# generated using pymatgen
data_Zn3H6C35(I4O11)2
_symmetry_space_group_name_H-M   'P 1'
_cell_length_a   21.90350000
_cell_length_b   21.99780000
_cell_length_c   22.24610088
_cell_angle_alpha   60.36763762
_cell_angle_beta   60.89356323
_cell_angle_gamma   90.00100000
_symmetry_Int_Tables_number   1
_chemical_formula_structural   Zn3H6C35(I4O11)2
_chemical_formula_sum   'Zn6 H12 C70 I16 O44'
_cell_volume   7721.34110043
_cell_formula_units_Z   2
loop_
 _symmetry_equiv_pos_site_id
 _symmetry_equiv_pos_as_xyz
  1  'x, y, z'
loop_
 _atom_site_type_symbol
 _atom_site_label
 _atom_site_symmetry_multiplicity
 _atom_site_fract_x
 _atom_site_fract_y
 _atom_site_fract_z
 _atom_site_occupancy
  Zn  Zn0  1  0.50002000  0.44013000  0.99998000  1.0
  Zn  Zn1  1  0.49998000  0.55823000  0.00001000  1.0
  Zn  Zn2  1  0.05911000  0.00088000  0.99993000  1.0
  Zn  Zn3  1  0.94088000  0.00079000  0.00008000  1.0
  Zn  Zn4  1  0.95901000  0.46090000  0.08089000  1.0
  Zn  Zn5  1  0.04097000  0.54180000  0.91916000  1.0
  H  H6  1  0.75926000  0.50434000  0.10319000  1.0
  H  H7  1  0.24075000  0.60750000  0.89681000  1.0
  H  H8  1  0.84623000  0.73040000  0.64680000  1.0
  H  H9  1  0.15371000  0.37649000  0.35301000  1.0
  H  H10  1  0.72761000  0.43221000  0.84312000  1.0
  H  H11  1  0.27246000  0.27533000  0.15675000  1.0
  H  H12  1  0.84036000  0.99951000  0.35742000  1.0
  H  H13  1  0.15892000  0.35691000  0.64255000  1.0
  H  H14  1  0.65529000  0.76004000  0.35508000  1.0
  H  H15  1  0.34490000  0.11577000  0.64496000  1.0
  H  H16  1  0.52359000  0.45976000  0.20946000  1.0
  H  H17  1  0.47641000  0.66917000  0.79058000  1.0
  C  C18  1  0.61655000  0.49637000  0.00300000  1.0
  C  C19  1  0.38342000  0.49933000  0.99703000  1.0
  C  C20  1  0.79326000  0.79506000  0.41263000  1.0
  C  C21  1  0.20672000  0.20775000  0.58738000  1.0
  C  C22  1  0.69192000  0.77390000  0.52789000  1.0
  C  C23  1  0.30794000  0.30201000  0.47211000  1.0
  C  C24  1  0.77509000  0.82297000  0.47095000  1.0
  C  C25  1  0.22469000  0.29393000  0.52904000  1.0
  C  C26  1  0.66344000  0.66350000  0.67423000  1.0
  C  C27  1  0.33657000  0.33776000  0.32576000  1.0
  C  C28  1  0.83816000  0.83901000  0.32466000  1.0
  C  C29  1  0.16182000  0.16373000  0.67534000  1.0
  C  C30  1  0.68970000  0.49943000  0.06214000  1.0
  C  C31  1  0.31028000  0.56152000  0.93789000  1.0
  C  C32  1  0.75530000  0.50067000  0.05804000  1.0
  C  C33  1  0.24468000  0.55867000  0.94199000  1.0
  C  C34  1  0.81602000  0.49716000  0.99737000  1.0
  C  C35  1  0.18395000  0.49451000  0.00267000  1.0
  C  C36  1  0.81090000  0.49172000  0.93947000  1.0
  C  C37  1  0.18908000  0.43115000  0.06055000  1.0
  C  C38  1  0.74512000  0.49026000  0.94305000  1.0
  C  C39  1  0.25487000  0.43328000  0.05695000  1.0
  C  C40  1  0.58047000  0.58026000  0.83959000  1.0
  C  C41  1  0.41950000  0.41982000  0.16040000  1.0
  C  C42  1  0.68477000  0.49474000  0.00382000  1.0
  C  C43  1  0.31522000  0.49852000  0.99619000  1.0
  C  C44  1  0.99995000  0.88337000  0.00002000  1.0
  C  C45  1  0.92235000  0.92112000  0.15941000  1.0
  C  C46  1  0.07771000  0.08054000  0.84060000  1.0
  C  C47  1  0.00000000  0.11855000  0.00001000  1.0
  C  C48  1  0.00000000  0.38395000  0.99997000  1.0
  C  C49  1  0.88369000  0.49952000  0.99866000  1.0
  C  C50  1  0.11626000  0.49814000  0.00144000  1.0
  C  C51  1  0.00002000  0.61836000  0.99999000  1.0
  C  C52  1  0.99160000  0.81136000  0.94274000  1.0
  C  C53  1  0.00837000  0.75410000  0.05729000  1.0
  C  C54  1  0.98729000  0.74588000  0.94614000  1.0
  C  C55  1  0.01270000  0.69203000  0.05387000  1.0
  C  C56  1  0.00001000  0.68695000  0.00001000  1.0
  C  C57  1  0.80940000  0.72886000  0.47119000  1.0
  C  C58  1  0.19074000  0.19992000  0.52882000  1.0
  C  C59  1  0.99997000  0.81467000  0.00002000  1.0
  C  C60  1  0.93545000  0.19041000  0.05798000  1.0
  C  C61  1  0.06453000  0.24840000  0.94199000  1.0
  C  C62  1  0.93420000  0.25604000  0.05423000  1.0
  C  C63  1  0.06579000  0.31030000  0.94572000  1.0
  C  C64  1  0.99999000  0.31529000  0.99997000  1.0
  C  C65  1  0.99999000  0.18734000  0.00000000  1.0
  C  C66  1  0.79076000  0.75738000  0.52885000  1.0
  C  C67  1  0.20917000  0.28606000  0.47114000  1.0
  C  C68  1  0.62454000  0.62522000  0.75002000  1.0
  C  C69  1  0.37542000  0.37521000  0.24998000  1.0
  C  C70  1  0.87774000  0.87619000  0.24892000  1.0
  C  C71  1  0.12229000  0.12513000  0.75109000  1.0
  C  C72  1  0.72663000  0.68008000  0.52755000  1.0
  C  C73  1  0.27361000  0.20773000  0.47246000  1.0
  C  C74  1  0.70771000  0.70758000  0.58644000  1.0
  C  C75  1  0.29231000  0.29405000  0.41356000  1.0
  C  C76  1  0.70981000  0.74584000  0.47024000  1.0
  C  C77  1  0.29024000  0.21635000  0.52978000  1.0
  C  C78  1  0.84051000  0.76873000  0.55280000  1.0
  C  C79  1  0.15938000  0.32110000  0.44711000  1.0
  C  C80  1  0.73963000  0.49164000  0.87746000  1.0
  C  C81  1  0.26034000  0.36904000  0.12253000  1.0
  C  C82  1  0.79780000  0.89898000  0.44854000  1.0
  C  C83  1  0.20179000  0.34755000  0.55138000  1.0
  C  C84  1  0.65926000  0.73453000  0.44739000  1.0
  C  C85  1  0.34085000  0.18242000  0.55265000  1.0
  C  C86  1  0.62745000  0.50128000  0.13101000  1.0
  C  C87  1  0.37253000  0.63225000  0.86902000  1.0
  I  I88  1  0.99245000  0.90707000  0.84831000  1.0
  I  I89  1  0.00751000  0.75536000  0.15173000  1.0
  I  I90  1  0.95562000  0.73249000  0.87684000  1.0
  I  I91  1  0.04438000  0.60933000  0.12317000  1.0
  I  I92  1  0.84413000  0.09383000  0.15412000  1.0
  I  I93  1  0.15585000  0.24792000  0.84590000  1.0
  I  I94  1  0.83356000  0.26883000  0.12337000  1.0
  I  I95  1  0.16644000  0.39221000  0.87660000  1.0
  I  I96  1  0.90151000  0.69506000  0.42651000  1.0
  I  I97  1  0.09878000  0.12120000  0.57356000  1.0
  I  I98  1  0.60093000  0.80955000  0.57276000  1.0
  I  I99  1  0.39868000  0.38280000  0.42729000  1.0
  I  I100  1  0.68948000  0.56981000  0.57117000  1.0
  I  I101  1  0.31120000  0.14114000  0.42885000  1.0
  I  I102  1  0.89916000  0.48305000  0.84867000  1.0
  I  I103  1  0.10086000  0.33165000  0.15126000  1.0
  O  O104  1  0.58896000  0.44328000  0.00574000  1.0
  O  O105  1  0.41106000  0.44901000  0.99424000  1.0
  O  O106  1  0.87373000  0.45565000  0.06962000  1.0
  O  O107  1  0.12620000  0.52524000  0.93049000  1.0
  O  O108  1  0.94452000  0.54575000  0.93021000  1.0
  O  O109  1  0.05544000  0.47590000  0.06992000  1.0
  O  O110  1  0.95160000  0.55827000  0.06790000  1.0
  O  O111  1  0.04846000  0.62621000  0.93207000  1.0
  O  O112  1  0.59377000  0.55078000  0.99779000  1.0
  O  O113  1  0.40615000  0.54848000  0.00232000  1.0
  O  O114  1  0.56591000  0.51067000  0.87494000  1.0
  O  O115  1  0.43411000  0.38561000  0.12503000  1.0
  O  O116  1  0.55990000  0.61451000  0.87511000  1.0
  O  O117  1  0.44002000  0.48959000  0.12491000  1.0
  O  O118  1  0.05920000  0.91872000  0.98143000  1.0
  O  O119  1  0.94070000  0.90013000  0.01858000  1.0
  O  O120  1  0.99123000  0.92906000  0.12382000  1.0
  O  O121  1  0.00882000  0.05287000  0.87620000  1.0
  O  O122  1  0.88862000  0.94905000  0.12384000  1.0
  O  O123  1  0.11143000  0.07291000  0.87618000  1.0
  O  O124  1  0.04143000  0.08368000  0.01783000  1.0
  O  O125  1  0.95857000  0.10148000  0.98219000  1.0
  O  O126  1  0.97869000  0.37571000  0.06869000  1.0
  O  O127  1  0.02133000  0.44443000  0.93125000  1.0
  O  O128  1  0.90167000  0.81440000  0.50150000  1.0
  O  O129  1  0.81041000  0.72164000  0.63532000  1.0
  O  O130  1  0.09813000  0.31539000  0.49834000  1.0
  O  O131  1  0.18955000  0.35642000  0.36459000  1.0
  O  O132  1  0.74308000  0.54751000  0.82057000  1.0
  O  O133  1  0.72999000  0.42514000  0.88900000  1.0
  O  O134  1  0.25687000  0.36799000  0.17945000  1.0
  O  O135  1  0.27003000  0.31414000  0.11092000  1.0
  O  O136  1  0.78757000  0.91074000  0.50025000  1.0
  O  O137  1  0.82798000  0.95142000  0.36681000  1.0
  O  O138  1  0.21203000  0.41101000  0.49962000  1.0
  O  O139  1  0.17145000  0.31826000  0.63314000  1.0
  O  O140  1  0.59518000  0.69547000  0.49976000  1.0
  O  O141  1  0.69229000  0.77151000  0.36390000  1.0
  O  O142  1  0.40497000  0.19583000  0.50030000  1.0
  O  O143  1  0.30785000  0.13594000  0.63615000  1.0
  O  O144  1  0.63516000  0.53813000  0.15506000  1.0
  O  O145  1  0.56183000  0.45456000  0.16627000  1.0
  O  O146  1  0.36485000  0.69316000  0.84497000  1.0
  O  O147  1  0.43814000  0.62079000  0.83376000  1.0
