# generated using pymatgen
data_CdH10C14(NO)4
_symmetry_space_group_name_H-M   'P 1'
_cell_length_a   7.88002000
_cell_length_b   8.90227000
_cell_length_c   10.19980000
_cell_angle_alpha   89.79730000
_cell_angle_beta   78.43200000
_cell_angle_gamma   75.14100000
_symmetry_Int_Tables_number   1
_chemical_formula_structural   CdH10C14(NO)4
_chemical_formula_sum   'Cd2 H20 C28 N8 O8'
_cell_volume   676.67473912
_cell_formula_units_Z   2
loop_
 _symmetry_equiv_pos_site_id
 _symmetry_equiv_pos_as_xyz
  1  'x, y, z'
loop_
 _atom_site_type_symbol
 _atom_site_label
 _atom_site_symmetry_multiplicity
 _atom_site_fract_x
 _atom_site_fract_y
 _atom_site_fract_z
 _atom_site_occupancy
  Cd  Cd0  1  0.43254000  0.33704000  0.15708000  1.0
  Cd  Cd1  1  0.56746000  0.66296000  0.84293000  1.0
  H  H2  1  0.10112000  0.63395000  0.41154000  1.0
  H  H3  1  0.89888000  0.36605000  0.58846000  1.0
  H  H4  1  0.73663000  0.67577000  0.41721000  1.0
  H  H5  1  0.26337000  0.32422000  0.58279000  1.0
  H  H6  1  0.06428000  0.06576000  0.85120000  1.0
  H  H7  1  0.93572000  0.93424000  0.14880000  1.0
  H  H8  1  0.39850000  0.05339000  0.90147000  1.0
  H  H9  1  0.60150000  0.94661000  0.09853000  1.0
  H  H10  1  0.52982000  0.38040000  0.60387000  1.0
  H  H11  1  0.47019000  0.61960000  0.39613000  1.0
  H  H12  1  0.78722000  0.00499000  0.82145000  1.0
  H  H13  1  0.21277000  0.99502000  0.17855000  1.0
  H  H14  1  0.88286000  0.83182000  0.61357000  1.0
  H  H15  1  0.11713000  0.16818000  0.38644000  1.0
  H  H16  1  0.79419000  0.93496000  0.40108000  1.0
  H  H17  1  0.20582000  0.06504000  0.59892000  1.0
  H  H18  1  0.72220000  0.51805000  0.21641000  1.0
  H  H19  1  0.27780000  0.48195000  0.78359000  1.0
  H  H20  1  0.84612000  0.27591000  0.00761000  1.0
  H  H21  1  0.15388000  0.72409000  0.99239000  1.0
  C  C22  1  0.03518000  0.58315000  0.34670000  1.0
  C  C23  1  0.96482000  0.41685000  0.65331000  1.0
  C  C24  1  0.85481000  0.60733000  0.34912000  1.0
  C  C25  1  0.14519000  0.39267000  0.65088000  1.0
  C  C26  1  0.01133000  0.43396000  0.18616000  1.0
  C  C27  1  0.98867000  0.56604000  0.81383000  1.0
  C  C28  1  0.07345000  0.31228000  0.08131000  1.0
  C  C29  1  0.92655000  0.68772000  0.91868000  1.0
  C  C30  1  0.10366000  0.13478000  0.92082000  1.0
  C  C31  1  0.89634000  0.86522000  0.07918000  1.0
  C  C32  1  0.26952000  0.12951000  0.94744000  1.0
  C  C33  1  0.73047000  0.87049000  0.05255000  1.0
  C  C34  1  0.65463000  0.16281000  0.49046000  1.0
  C  C35  1  0.34537000  0.83719000  0.50954000  1.0
  C  C36  1  0.60366000  0.25939000  0.60730000  1.0
  C  C37  1  0.39635000  0.74061000  0.39270000  1.0
  C  C38  1  0.65049000  0.20252000  0.72663000  1.0
  C  C39  1  0.34951000  0.79748000  0.27337000  1.0
  C  C40  1  0.75264000  0.04823000  0.72776000  1.0
  C  C41  1  0.24736000  0.95177000  0.27225000  1.0
  C  C42  1  0.80503000  0.95199000  0.61129000  1.0
  C  C43  1  0.19497000  0.04802000  0.38872000  1.0
  C  C44  1  0.75627000  0.00889000  0.49265000  1.0
  C  C45  1  0.24373000  0.99111000  0.50735000  1.0
  C  C46  1  0.58914000  0.22352000  0.36746000  1.0
  C  C47  1  0.41088000  0.77647000  0.63254000  1.0
  C  C48  1  0.58561000  0.30412000  0.85275000  1.0
  C  C49  1  0.41439000  0.69588000  0.14725000  1.0
  N  N50  1  0.13139000  0.47623000  0.24468000  1.0
  N  N51  1  0.86861000  0.52377000  0.75532000  1.0
  N  N52  1  0.84171000  0.51250000  0.24715000  1.0
  N  N53  1  0.15829000  0.48751000  0.75285000  1.0
  N  N54  1  0.24940000  0.23953000  0.04727000  1.0
  N  N55  1  0.75060000  0.76047000  0.95272000  1.0
  N  N56  1  0.98189000  0.25029000  0.00578000  1.0
  N  N57  1  0.01811000  0.74971000  0.99422000  1.0
  O  O58  1  0.46022000  0.34737000  0.38249000  1.0
  O  O59  1  0.53980000  0.65263000  0.61750000  1.0
  O  O60  1  0.65717000  0.15054000  0.25405000  1.0
  O  O61  1  0.34284000  0.84945000  0.74595000  1.0
  O  O62  1  0.46858000  0.43422000  0.85323000  1.0
  O  O63  1  0.53141000  0.56579000  0.14676000  1.0
  O  O64  1  0.64575000  0.25431000  0.95655000  1.0
  O  O65  1  0.35425000  0.74569000  0.04345000  1.0
