# generated using pymatgen
data_CdH10C16(NO)4
_symmetry_space_group_name_H-M   'P 1'
_cell_length_a   7.74078000
_cell_length_b   15.20351930
_cell_length_c   17.77990000
_cell_angle_alpha   101.56790080
_cell_angle_beta   102.58520000
_cell_angle_gamma   104.75526063
_symmetry_Int_Tables_number   1
_chemical_formula_structural   CdH10C16(NO)4
_chemical_formula_sum   'Cd4 H40 C64 N16 O16'
_cell_volume   1900.79152399
_cell_formula_units_Z   4
loop_
 _symmetry_equiv_pos_site_id
 _symmetry_equiv_pos_as_xyz
  1  'x, y, z'
loop_
 _atom_site_type_symbol
 _atom_site_label
 _atom_site_symmetry_multiplicity
 _atom_site_fract_x
 _atom_site_fract_y
 _atom_site_fract_z
 _atom_site_occupancy
  Cd  Cd0  1  0.73983000  0.48621000  0.53246000  1.0
  Cd  Cd1  1  0.22113000  0.01363000  0.96753000  1.0
  Cd  Cd2  1  0.26017000  0.51378000  0.46754000  1.0
  Cd  Cd3  1  0.77886000  0.98637000  0.03247000  1.0
  H  H4  1  0.41487000  0.18255000  0.12667000  1.0
  H  H5  1  0.60588000  0.31768000  0.37305000  1.0
  H  H6  1  0.58513000  0.81745000  0.87333000  1.0
  H  H7  1  0.39411000  0.68232000  0.62695000  1.0
  H  H8  1  0.68132000  0.33072000  0.17634000  1.0
  H  H9  1  0.67459000  0.16957000  0.32344000  1.0
  H  H10  1  0.31867000  0.66927000  0.82365000  1.0
  H  H11  1  0.32541000  0.83043000  0.67656000  1.0
  H  H12  1  0.29926000  0.49395000  0.17422000  1.0
  H  H13  1  0.13202000  0.00621000  0.32615000  1.0
  H  H14  1  0.70075000  0.50605000  0.82577000  1.0
  H  H15  1  0.86798000  0.99379000  0.67385000  1.0
  H  H16  1  0.03074000  0.34267000  0.12234000  1.0
  H  H17  1  0.06645000  0.15743000  0.37786000  1.0
  H  H18  1  0.96926000  0.65733000  0.87766000  1.0
  H  H19  1  0.93354000  0.84257000  0.62214000  1.0
  H  H20  1  0.93842000  0.82244000  0.25357000  1.0
  H  H21  1  0.36153000  0.67766000  0.24626000  1.0
  H  H22  1  0.06158000  0.17756000  0.74643000  1.0
  H  H23  1  0.63848000  0.32235000  0.75374000  1.0
  H  H24  1  0.88430000  0.67878000  0.30120000  1.0
  H  H25  1  0.40349000  0.82135000  0.19866000  1.0
  H  H26  1  0.11570000  0.32122000  0.69880000  1.0
  H  H27  1  0.59652000  0.17865000  0.80135000  1.0
  H  H28  1  0.49681000  0.51899000  0.06995000  1.0
  H  H29  1  0.40889000  0.98129000  0.43010000  1.0
  H  H30  1  0.50321000  0.48102000  0.93005000  1.0
  H  H31  1  0.59111000  0.01871000  0.56991000  1.0
  H  H32  1  0.54992000  0.66587000  0.02469000  1.0
  H  H33  1  0.36027000  0.83439000  0.47537000  1.0
  H  H34  1  0.45008000  0.33413000  0.97531000  1.0
  H  H35  1  0.63973000  0.16561000  0.52463000  1.0
  H  H36  1  0.55154000  0.53311000  0.35317000  1.0
  H  H37  1  0.16538000  0.96703000  0.14695000  1.0
  H  H38  1  0.44846000  0.46689000  0.64683000  1.0
  H  H39  1  0.83462000  0.03297000  0.85306000  1.0
  H  H40  1  0.01458000  0.48727000  0.27759000  1.0
  H  H41  1  0.74993000  0.01277000  0.22236000  1.0
  H  H42  1  0.98543000  0.51273000  0.72241000  1.0
  H  H43  1  0.25008000  0.98723000  0.77764000  1.0
  C  C44  1  0.04442000  0.16537000  0.09207000  1.0
  C  C45  1  0.28716000  0.33474000  0.40784000  1.0
  C  C46  1  0.95557000  0.83463000  0.90793000  1.0
  C  C47  1  0.71284000  0.66526000  0.59216000  1.0
  C  C48  1  0.20657000  0.25397000  0.12148000  1.0
  C  C49  1  0.33156000  0.24622000  0.37849000  1.0
  C  C50  1  0.79342000  0.74603000  0.87852000  1.0
  C  C51  1  0.66845000  0.75378000  0.62151000  1.0
  C  C52  1  0.38956000  0.25051000  0.13698000  1.0
  C  C53  1  0.50240000  0.24972000  0.36287000  1.0
  C  C54  1  0.61044000  0.74949000  0.86302000  1.0
  C  C55  1  0.49760000  0.75028000  0.63713000  1.0
  C  C56  1  0.53878000  0.33355000  0.16457000  1.0
  C  C57  1  0.54109000  0.16671000  0.33533000  1.0
  C  C58  1  0.46122000  0.66645000  0.83543000  1.0
  C  C59  1  0.45890000  0.83329000  0.66467000  1.0
  C  C60  1  0.50481000  0.42064000  0.17724000  1.0
  C  C61  1  0.40756000  0.07957000  0.32282000  1.0
  C  C62  1  0.49518000  0.57935000  0.82275000  1.0
  C  C63  1  0.59245000  0.92043000  0.67718000  1.0
  C  C64  1  0.32270000  0.42541000  0.16206000  1.0
  C  C65  1  0.23601000  0.07477000  0.33815000  1.0
  C  C66  1  0.67731000  0.57459000  0.83794000  1.0
  C  C67  1  0.76399000  0.92523000  0.66185000  1.0
  C  C68  1  0.17442000  0.34177000  0.13408000  1.0
  C  C69  1  0.19926000  0.15839000  0.36608000  1.0
  C  C70  1  0.82558000  0.65823000  0.86593000  1.0
  C  C71  1  0.80073000  0.84161000  0.63392000  1.0
  C  C72  1  0.77916000  0.84095000  0.10772000  1.0
  C  C73  1  0.33047000  0.65926000  0.39226000  1.0
  C  C74  1  0.22084000  0.15905000  0.89228000  1.0
  C  C75  1  0.66952000  0.34074000  0.60774000  1.0
  C  C76  1  0.74754000  0.75379000  0.13610000  1.0
  C  C77  1  0.35790000  0.74642000  0.36387000  1.0
  C  C78  1  0.25247000  0.24622000  0.86390000  1.0
  C  C79  1  0.64210000  0.25358000  0.63613000  1.0
  C  C80  1  0.84066000  0.75590000  0.21369000  1.0
  C  C81  1  0.37084000  0.74427000  0.28622000  1.0
  C  C82  1  0.15934000  0.24410000  0.78631000  1.0
  C  C83  1  0.62917000  0.25573000  0.71378000  1.0
  C  C84  1  0.81029000  0.67490000  0.24046000  1.0
  C  C85  1  0.39458000  0.82526000  0.25945000  1.0
  C  C86  1  0.18970000  0.32509000  0.75954000  1.0
  C  C87  1  0.60544000  0.17475000  0.74055000  1.0
  C  C88  1  0.68640000  0.58877000  0.18866000  1.0
  C  C89  1  0.40913000  0.91141000  0.31133000  1.0
  C  C90  1  0.31361000  0.41123000  0.81134000  1.0
  C  C91  1  0.59087000  0.08859000  0.68868000  1.0
  C  C92  1  0.59235000  0.58566000  0.11041000  1.0
  C  C93  1  0.39697000  0.91457000  0.38962000  1.0
  C  C94  1  0.40767000  0.41435000  0.88959000  1.0
  C  C95  1  0.60303000  0.08543000  0.61038000  1.0
  C  C96  1  0.62240000  0.66752000  0.08512000  1.0
  C  C97  1  0.37046000  0.83273000  0.41492000  1.0
  C  C98  1  0.37760000  0.33248000  0.91488000  1.0
  C  C99  1  0.62953000  0.16727000  0.58508000  1.0
  C  C100  1  0.68425000  0.51974000  0.35421000  1.0
  C  C101  1  0.31039000  0.98038000  0.14584000  1.0
  C  C102  1  0.31575000  0.48026000  0.64579000  1.0
  C  C103  1  0.68961000  0.01962000  0.85416000  1.0
  C  C104  1  0.92193000  0.49523000  0.31439000  1.0
  C  C105  1  0.61247000  0.00487000  0.18561000  1.0
  C  C106  1  0.07807000  0.50477000  0.68561000  1.0
  C  C107  1  0.38754000  0.99513000  0.81439000  1.0
  N  N108  1  0.80391000  0.51057000  0.41501000  1.0
  N  N109  1  0.37830000  0.98948000  0.08502000  1.0
  N  N110  1  0.19608000  0.48942000  0.58499000  1.0
  N  N111  1  0.62170000  0.01052000  0.91498000  1.0
  N  N112  1  0.95389000  0.49607000  0.39020000  1.0
  N  N113  1  0.56760000  0.00397000  0.10978000  1.0
  N  N114  1  0.04611000  0.50393000  0.60980000  1.0
  N  N115  1  0.43240000  0.99603000  0.89022000  1.0
  N  N116  1  0.75474000  0.51044000  0.28985000  1.0
  N  N117  1  0.45470000  0.98975000  0.21019000  1.0
  N  N118  1  0.24527000  0.48956000  0.71015000  1.0
  N  N119  1  0.54531000  0.01025000  0.78981000  1.0
  N  N120  1  0.66224000  0.50452000  0.21206000  1.0
  N  N121  1  0.44617000  0.99570000  0.28800000  1.0
  N  N122  1  0.33777000  0.49548000  0.78793000  1.0
  N  N123  1  0.55383000  0.00430000  0.71201000  1.0
  O  O124  1  0.67441000  0.83512000  0.03910000  1.0
  O  O125  1  0.30069000  0.66514000  0.46097000  1.0
  O  O126  1  0.32559000  0.16488000  0.96090000  1.0
  O  O127  1  0.69930000  0.33486000  0.53903000  1.0
  O  O128  1  0.90422000  0.91733000  0.15183000  1.0
  O  O129  1  0.33437000  0.58276000  0.34806000  1.0
  O  O130  1  0.09577000  0.08267000  0.84817000  1.0
  O  O131  1  0.66563000  0.41724000  0.65194000  1.0
  O  O132  1  0.88426000  0.16843000  0.09285000  1.0
  O  O133  1  0.12305000  0.33157000  0.40688000  1.0
  O  O134  1  0.11574000  0.83157000  0.90715000  1.0
  O  O135  1  0.87696000  0.66843000  0.59312000  1.0
  O  O136  1  0.07620000  0.08612000  0.06674000  1.0
  O  O137  1  0.42350000  0.41405000  0.43331000  1.0
  O  O138  1  0.92379000  0.91388000  0.93326000  1.0
  O  O139  1  0.57651000  0.58595000  0.56669000  1.0
