# generated using pymatgen
data_HgH14C13(IN)2
_symmetry_space_group_name_H-M   'P 1'
_cell_length_a   5.01080000
_cell_length_b   11.84990000
_cell_length_c   13.40310000
_cell_angle_alpha   89.99990000
_cell_angle_beta   90.00000000
_cell_angle_gamma   90.68570000
_symmetry_Int_Tables_number   1
_chemical_formula_structural   HgH14C13(IN)2
_chemical_formula_sum   'Hg2 H28 C26 I4 N4'
_cell_volume   795.78529558
_cell_formula_units_Z   2
loop_
 _symmetry_equiv_pos_site_id
 _symmetry_equiv_pos_as_xyz
  1  'x, y, z'
loop_
 _atom_site_type_symbol
 _atom_site_label
 _atom_site_symmetry_multiplicity
 _atom_site_fract_x
 _atom_site_fract_y
 _atom_site_fract_z
 _atom_site_occupancy
  Hg  Hg0  1  0.01805000  0.77694000  0.49419000  1.0
  Hg  Hg1  1  0.98195000  0.22306000  0.99419000  1.0
  H  H2  1  0.89749000  0.60233000  0.67233000  1.0
  H  H3  1  0.10251000  0.39767000  0.17233000  1.0
  H  H4  1  0.61280000  0.56802000  0.82315000  1.0
  H  H5  1  0.38720000  0.43198000  0.32315000  1.0
  H  H6  1  0.25848000  0.89323000  0.77108000  1.0
  H  H7  1  0.74152000  0.10677000  0.27108000  1.0
  H  H8  1  0.56488000  0.91567000  0.62455000  1.0
  H  H9  1  0.43512000  0.08433000  0.12455000  1.0
  H  H10  1  0.06256000  0.76472000  0.89689000  1.0
  H  H11  1  0.93744000  0.23528000  0.39689000  1.0
  H  H12  1  0.16570000  0.62206000  0.90297000  1.0
  H  H13  1  0.83430000  0.37794000  0.40297000  1.0
  H  H14  1  0.57493000  0.68284000  0.99851000  1.0
  H  H15  1  0.42507000  0.31716000  0.49850000  1.0
  H  H16  1  0.46390000  0.82396000  0.99622000  1.0
  H  H17  1  0.53610000  0.17604000  0.49622000  1.0
  H  H18  1  0.05888000  0.77089000  0.09293000  1.0
  H  H19  1  0.94112000  0.22911000  0.59293000  1.0
  H  H20  1  0.14699000  0.62616000  0.08805000  1.0
  H  H21  1  0.85301000  0.37384000  0.58805000  1.0
  H  H22  1  0.58677000  0.91845000  0.36113000  1.0
  H  H23  1  0.41323000  0.08155000  0.86113000  1.0
  H  H24  1  0.27865000  0.89973000  0.21466000  1.0
  H  H25  1  0.72135000  0.10027000  0.71466000  1.0
  H  H26  1  0.56722000  0.56054000  0.17610000  1.0
  H  H27  1  0.43278000  0.43946000  0.67610000  1.0
  H  H28  1  0.85579000  0.59201000  0.32653000  1.0
  H  H29  1  0.14421000  0.40798000  0.82653000  1.0
  C  C30  1  0.75406000  0.66486000  0.69785000  1.0
  C  C31  1  0.24594000  0.33514000  0.19785000  1.0
  C  C32  1  0.59400000  0.64629000  0.78091000  1.0
  C  C33  1  0.40600000  0.35371000  0.28091000  1.0
  C  C34  1  0.40918000  0.72800000  0.80979000  1.0
  C  C35  1  0.59082000  0.27201000  0.30979000  1.0
  C  C36  1  0.39947000  0.82691000  0.75265000  1.0
  C  C37  1  0.60053000  0.17309000  0.25265000  1.0
  C  C38  1  0.56888000  0.83987000  0.67090000  1.0
  C  C39  1  0.43112000  0.16013000  0.17090000  1.0
  C  C40  1  0.23825000  0.71014000  0.90059000  1.0
  C  C41  1  0.76175000  0.28986000  0.40059000  1.0
  C  C42  1  0.39503000  0.73541000  0.99659000  1.0
  C  C43  1  0.60497000  0.26459000  0.49659000  1.0
  C  C44  1  0.22846000  0.71284000  0.09091000  1.0
  C  C45  1  0.77154000  0.28716000  0.59091000  1.0
  C  C46  1  0.57524000  0.84045000  0.31783000  1.0
  C  C47  1  0.42476000  0.15955000  0.81783000  1.0
  C  C48  1  0.40509000  0.82947000  0.23616000  1.0
  C  C49  1  0.59491000  0.17053000  0.73616000  1.0
  C  C50  1  0.39660000  0.72786000  0.18271000  1.0
  C  C51  1  0.60339000  0.27214000  0.68271000  1.0
  C  C52  1  0.56337000  0.64115000  0.21541000  1.0
  C  C53  1  0.43663000  0.35885000  0.71541000  1.0
  C  C54  1  0.72563000  0.65809000  0.29816000  1.0
  C  C55  1  0.27437000  0.34190000  0.79816000  1.0
  I  I56  1  0.08363000  0.00503000  0.49073000  1.0
  I  I57  1  0.91637000  0.99497000  0.99073000  1.0
  I  I58  1  0.24810000  0.56992000  0.49808000  1.0
  I  I59  1  0.75190000  0.43008000  0.99808000  1.0
  N  N60  1  0.74210000  0.75994000  0.64372000  1.0
  N  N61  1  0.25790000  0.24006000  0.14372000  1.0
  N  N62  1  0.73220000  0.75613000  0.34834000  1.0
  N  N63  1  0.26780000  0.24387000  0.84834000  1.0
