# generated using pymatgen
data_CuH10C8IN2
_symmetry_space_group_name_H-M   'P 1'
_cell_length_a   8.57294000
_cell_length_b   9.76756000
_cell_length_c   12.23730000
_cell_angle_alpha   112.59000000
_cell_angle_beta   90.72320000
_cell_angle_gamma   95.45790000
_symmetry_Int_Tables_number   1
_chemical_formula_structural   CuH10C8IN2
_chemical_formula_sum   'Cu4 H40 C32 I4 N8'
_cell_volume   940.45520923
_cell_formula_units_Z   4
loop_
 _symmetry_equiv_pos_site_id
 _symmetry_equiv_pos_as_xyz
  1  'x, y, z'
loop_
 _atom_site_type_symbol
 _atom_site_label
 _atom_site_symmetry_multiplicity
 _atom_site_fract_x
 _atom_site_fract_y
 _atom_site_fract_z
 _atom_site_occupancy
  Cu  Cu0  1  0.58837000  0.45101000  0.74440000  1.0
  Cu  Cu1  1  0.41163000  0.54899000  0.25560000  1.0
  Cu  Cu2  1  0.84807000  0.59207000  0.74706000  1.0
  Cu  Cu3  1  0.15193000  0.40793000  0.25295000  1.0
  H  H4  1  0.29316000  0.58103000  0.02182000  1.0
  H  H5  1  0.70684000  0.41897000  0.97818000  1.0
  H  H6  1  0.37764000  0.66243000  0.92469000  1.0
  H  H7  1  0.62236000  0.33757000  0.07531000  1.0
  H  H8  1  0.48552000  0.23557000  0.87605000  1.0
  H  H9  1  0.51448000  0.76443000  0.12395000  1.0
  H  H10  1  0.35914000  0.32335000  0.99265000  1.0
  H  H11  1  0.64086000  0.67666000  0.00736000  1.0
  H  H12  1  0.22768000  0.46802000  0.79058000  1.0
  H  H13  1  0.77232000  0.53198000  0.20942000  1.0
  H  H14  1  0.18612000  0.33491000  0.85391000  1.0
  H  H15  1  0.81388000  0.66509000  0.14609000  1.0
  H  H16  1  0.09403000  0.11306000  0.68025000  1.0
  H  H17  1  0.90597000  0.88694000  0.31975000  1.0
  H  H18  1  0.13841000  0.93569000  0.47106000  1.0
  H  H19  1  0.86159000  0.06430000  0.52894000  1.0
  H  H20  1  0.37038000  0.99635000  0.37083000  1.0
  H  H21  1  0.62962000  0.00365000  0.62917000  1.0
  H  H22  1  0.55907000  0.22154000  0.48475000  1.0
  H  H23  1  0.44093000  0.77845000  0.51525000  1.0
  H  H24  1  0.96549000  0.65572000  0.43897000  1.0
  H  H25  1  0.03451000  0.34428000  0.56103000  1.0
  H  H26  1  0.78894000  0.65510000  0.51650000  1.0
  H  H27  1  0.21106000  0.34489000  0.48350000  1.0
  H  H28  1  0.20429000  0.58172000  0.65869000  1.0
  H  H29  1  0.79571000  0.41828000  0.34131000  1.0
  H  H30  1  0.20988000  0.61021000  0.52356000  1.0
  H  H31  1  0.79013000  0.38979000  0.47644000  1.0
  H  H32  1  0.92147000  0.84876000  0.67215000  1.0
  H  H33  1  0.07854000  0.15123000  0.32784000  1.0
  H  H34  1  0.11765000  0.84224000  0.62409000  1.0
  H  H35  1  0.88235000  0.15776000  0.37591000  1.0
  H  H36  1  0.27119000  0.00381000  0.80295000  1.0
  H  H37  1  0.72881000  0.99619000  0.19705000  1.0
  H  H38  1  0.34457000  0.06725000  0.01917000  1.0
  H  H39  1  0.65543000  0.93276000  0.98083000  1.0
  H  H40  1  0.20189000  0.91839000  0.12134000  1.0
  H  H41  1  0.79810000  0.08162000  0.87866000  1.0
  H  H42  1  0.99421000  0.71348000  0.00611000  1.0
  H  H43  1  0.00579000  0.28652000  0.99389000  1.0
  C  C44  1  0.39740000  0.58921000  0.97167000  1.0
  C  C45  1  0.60260000  0.41079000  0.02833000  1.0
  C  C46  1  0.46058000  0.34332000  0.94323000  1.0
  C  C47  1  0.53942000  0.65668000  0.05677000  1.0
  C  C48  1  0.27635000  0.37705000  0.80748000  1.0
  C  C49  1  0.72365000  0.62294000  0.19252000  1.0
  C  C50  1  0.30258000  0.25798000  0.68909000  1.0
  C  C51  1  0.69742000  0.74202000  0.31090000  1.0
  C  C52  1  0.19587000  0.13206000  0.63350000  1.0
  C  C53  1  0.80412000  0.86794000  0.36650000  1.0
  C  C54  1  0.21903000  0.03576000  0.51767000  1.0
  C  C55  1  0.78097000  0.96423000  0.48233000  1.0
  C  C56  1  0.34911000  0.06840000  0.46144000  1.0
  C  C57  1  0.65089000  0.93160000  0.53855000  1.0
  C  C58  1  0.45384000  0.19338000  0.52410000  1.0
  C  C59  1  0.54616000  0.80661000  0.47590000  1.0
  C  C60  1  0.89950000  0.60503000  0.49365000  1.0
  C  C61  1  0.10050000  0.39496000  0.50635000  1.0
  C  C62  1  0.13639000  0.56104000  0.57608000  1.0
  C  C63  1  0.86361000  0.43895000  0.42392000  1.0
  C  C64  1  0.03026000  0.79576000  0.66984000  1.0
  C  C65  1  0.96974000  0.20424000  0.33016000  1.0
  C  C66  1  0.08939000  0.83234000  0.79545000  1.0
  C  C67  1  0.91060000  0.16765000  0.20455000  1.0
  C  C68  1  0.21051000  0.94452000  0.85226000  1.0
  C  C69  1  0.78949000  0.05548000  0.14774000  1.0
  C  C70  1  0.25209000  0.97852000  0.97112000  1.0
  C  C71  1  0.74791000  0.02149000  0.02888000  1.0
  C  C72  1  0.17243000  0.89675000  0.02882000  1.0
  C  C73  1  0.82757000  0.10326000  0.97118000  1.0
  C  C74  1  0.05580000  0.78344000  0.96550000  1.0
  C  C75  1  0.94420000  0.21657000  0.03451000  1.0
  I  I76  1  0.84370000  0.33298000  0.75771000  1.0
  I  I77  1  0.15630000  0.66702000  0.24229000  1.0
  I  I78  1  0.58556000  0.70869000  0.73448000  1.0
  I  I79  1  0.41444000  0.29131000  0.26553000  1.0
  N  N80  1  0.43200000  0.28613000  0.63564000  1.0
  N  N81  1  0.56800000  0.71386000  0.36436000  1.0
  N  N82  1  0.42153000  0.44112000  0.88232000  1.0
  N  N83  1  0.57847000  0.55888000  0.11768000  1.0
  N  N84  1  0.01385000  0.75180000  0.85125000  1.0
  N  N85  1  0.98615000  0.24820000  0.14875000  1.0
  N  N86  1  0.99083000  0.63454000  0.60482000  1.0
  N  N87  1  0.00917000  0.36546000  0.39518000  1.0
