# generated using pymatgen
data_Cu3H8W2(C6N5)4
_symmetry_space_group_name_H-M   'P 1'
_cell_length_a   11.52800000
_cell_length_b   20.15450000
_cell_length_c   20.15450000
_cell_angle_alpha   77.16220000
_cell_angle_beta   73.37400000
_cell_angle_gamma   73.37420000
_symmetry_Int_Tables_number   1
_chemical_formula_structural   Cu3H8W2(C6N5)4
_chemical_formula_sum   'Cu12 H32 W8 C96 N80'
_cell_volume   4248.85254473
_cell_formula_units_Z   4
loop_
 _symmetry_equiv_pos_site_id
 _symmetry_equiv_pos_as_xyz
  1  'x, y, z'
loop_
 _atom_site_type_symbol
 _atom_site_label
 _atom_site_symmetry_multiplicity
 _atom_site_fract_x
 _atom_site_fract_y
 _atom_site_fract_z
 _atom_site_occupancy
  Cu  Cu0  1  0.84337000  0.61998000  0.11788000  1.0
  Cu  Cu1  1  0.41909000  0.11768000  0.62009000  1.0
  Cu  Cu2  1  0.65663000  0.38212000  0.88003000  1.0
  Cu  Cu3  1  0.08091000  0.87991000  0.38232000  1.0
  Cu  Cu4  1  0.15663000  0.38003000  0.88212000  1.0
  Cu  Cu5  1  0.58090000  0.88232000  0.37991000  1.0
  Cu  Cu6  1  0.34337000  0.61788000  0.11997000  1.0
  Cu  Cu7  1  0.91909000  0.12009000  0.61768000  1.0
  Cu  Cu8  1  0.11344000  0.88653000  0.88651000  1.0
  Cu  Cu9  1  0.38657000  0.61349000  0.61346000  1.0
  Cu  Cu10  1  0.88656000  0.11347000  0.11349000  1.0
  Cu  Cu11  1  0.61344000  0.38651000  0.38653000  1.0
  H  H12  1  0.27949000  0.50020000  0.23920000  1.0
  H  H13  1  0.09149000  0.44661000  0.28989000  1.0
  H  H14  1  0.90438000  0.50029000  0.23662000  1.0
  H  H15  1  0.09303000  0.64214000  0.09844000  1.0
  H  H16  1  0.98173000  0.23907000  0.50030000  1.0
  H  H17  1  0.17294000  0.28956000  0.44674000  1.0
  H  H18  1  0.35942000  0.23614000  0.50054000  1.0
  H  H19  1  0.16659000  0.09819000  0.64237000  1.0
  H  H20  1  0.22051000  0.26080000  0.99980000  1.0
  H  H21  1  0.40851000  0.21011000  0.05339000  1.0
  H  H22  1  0.59562000  0.26338000  0.99972000  1.0
  H  H23  1  0.40697000  0.40155000  0.85786000  1.0
  H  H24  1  0.51827000  0.99970000  0.26093000  1.0
  H  H25  1  0.32707000  0.05326000  0.21044000  1.0
  H  H26  1  0.14058000  0.99947000  0.26386000  1.0
  H  H27  1  0.33341000  0.85763000  0.40181000  1.0
  H  H28  1  0.72051000  0.49980000  0.76080000  1.0
  H  H29  1  0.90851000  0.55339000  0.71011000  1.0
  H  H30  1  0.09562000  0.49971000  0.76338000  1.0
  H  H31  1  0.90697000  0.35786000  0.90156000  1.0
  H  H32  1  0.01827000  0.76093000  0.49970000  1.0
  H  H33  1  0.82706000  0.71044000  0.55327000  1.0
  H  H34  1  0.64057000  0.76386000  0.49947000  1.0
  H  H35  1  0.83341000  0.90182000  0.35763000  1.0
  H  H36  1  0.77949000  0.73920000  0.00019000  1.0
  H  H37  1  0.59149000  0.78990000  0.94660000  1.0
  H  H38  1  0.40438000  0.73662000  0.00029000  1.0
  H  H39  1  0.59303000  0.59845000  0.14213000  1.0
  H  H40  1  0.48173000  0.00030000  0.73908000  1.0
  H  H41  1  0.67294000  0.94673000  0.78956000  1.0
  H  H42  1  0.85943000  0.00053000  0.73614000  1.0
  H  H43  1  0.66659000  0.14237000  0.59819000  1.0
  W  W44  1  0.93707000  0.84255000  0.15747000  1.0
  W  W45  1  0.06293000  0.15745000  0.84253000  1.0
  W  W46  1  0.56294000  0.34253000  0.65745000  1.0
  W  W47  1  0.43706000  0.65747000  0.34254000  1.0
  W  W48  1  0.75000000  0.37999000  0.12001000  1.0
  W  W49  1  0.75000000  0.12006000  0.37994000  1.0
  W  W50  1  0.25000000  0.62001000  0.87999000  1.0
  W  W51  1  0.25000000  0.87994000  0.62006000  1.0
  C  C52  1  0.88922000  0.75913000  0.13021000  1.0
  C  C53  1  0.11914000  0.77445000  0.13221000  1.0
  C  C54  1  0.01663000  0.86370000  0.04702000  1.0
  C  C55  1  0.79178000  0.47784000  0.11625000  1.0
  C  C56  1  0.08125000  0.61926000  0.96118000  1.0
  C  C57  1  0.17170000  0.72879000  0.88643000  1.0
  C  C58  1  0.60250000  0.32618000  0.14620000  1.0
  C  C59  1  0.19488000  0.51943000  0.21984000  1.0
  C  C60  1  0.09176000  0.49059000  0.24738000  1.0
  C  C61  1  0.98903000  0.51954000  0.21828000  1.0
  C  C62  1  0.09256000  0.59865000  0.14128000  1.0
  C  C63  1  0.22164000  0.13005000  0.75924000  1.0
  C  C64  1  0.97431000  0.13213000  0.77444000  1.0
  C  C65  1  0.07256000  0.04701000  0.86378000  1.0
  C  C66  1  0.61447000  0.11621000  0.47789000  1.0
  C  C67  1  0.33869000  0.96097000  0.61929000  1.0
  C  C68  1  0.21331000  0.88646000  0.72880000  1.0
  C  C69  1  0.92524000  0.14606000  0.32596000  1.0
  C  C70  1  0.06639000  0.21970000  0.51960000  1.0
  C  C71  1  0.17095000  0.24712000  0.49079000  1.0
  C  C72  1  0.27376000  0.21791000  0.51978000  1.0
  C  C73  1  0.16784000  0.14104000  0.59889000  1.0
  C  C74  1  0.61079000  0.36979000  0.74087000  1.0
  C  C75  1  0.38086000  0.36779000  0.72555000  1.0
  C  C76  1  0.48338000  0.45298000  0.63630000  1.0
  C  C77  1  0.70823000  0.38375000  0.02216000  1.0
  C  C78  1  0.41876000  0.53882000  0.88074000  1.0
  C  C79  1  0.32831000  0.61356000  0.77120000  1.0
  C  C80  1  0.89748000  0.35380000  0.17383000  1.0
  C  C81  1  0.30512000  0.28016000  0.98057000  1.0
  C  C82  1  0.40824000  0.25262000  0.00941000  1.0
  C  C83  1  0.51097000  0.28172000  0.98046000  1.0
  C  C84  1  0.40744000  0.35872000  0.90135000  1.0
  C  C85  1  0.27835000  0.74076000  0.36995000  1.0
  C  C86  1  0.52569000  0.72556000  0.36786000  1.0
  C  C87  1  0.42745000  0.63622000  0.45299000  1.0
  C  C88  1  0.88553000  0.02211000  0.38379000  1.0
  C  C89  1  0.16131000  0.88071000  0.53903000  1.0
  C  C90  1  0.28669000  0.77120000  0.61354000  1.0
  C  C91  1  0.57477000  0.17404000  0.35394000  1.0
  C  C92  1  0.43361000  0.98040000  0.28030000  1.0
  C  C93  1  0.32905000  0.00921000  0.25288000  1.0
  C  C94  1  0.22624000  0.98023000  0.28209000  1.0
  C  C95  1  0.33217000  0.90111000  0.35896000  1.0
  C  C96  1  0.11078000  0.24087000  0.86979000  1.0
  C  C97  1  0.88086000  0.22555000  0.86779000  1.0
  C  C98  1  0.98337000  0.13629000  0.95298000  1.0
  C  C99  1  0.20823000  0.52216000  0.88375000  1.0
  C  C100  1  0.91876000  0.38073000  0.03882000  1.0
  C  C101  1  0.82830000  0.27121000  0.11357000  1.0
  C  C102  1  0.39750000  0.67382000  0.85380000  1.0
  C  C103  1  0.80512000  0.48057000  0.78016000  1.0
  C  C104  1  0.90825000  0.50941000  0.75262000  1.0
  C  C105  1  0.01097000  0.48046000  0.78172000  1.0
  C  C106  1  0.90744000  0.40135000  0.85873000  1.0
  C  C107  1  0.77835000  0.86995000  0.24076000  1.0
  C  C108  1  0.02569000  0.86787000  0.22556000  1.0
  C  C109  1  0.92745000  0.95298000  0.13622000  1.0
  C  C110  1  0.38553000  0.88379000  0.52211000  1.0
  C  C111  1  0.66130000  0.03903000  0.38071000  1.0
  C  C112  1  0.78668000  0.11354000  0.27120000  1.0
  C  C113  1  0.07477000  0.85393000  0.67404000  1.0
  C  C114  1  0.93360000  0.78030000  0.48040000  1.0
  C  C115  1  0.82904000  0.75288000  0.50921000  1.0
  C  C116  1  0.72623000  0.78210000  0.48023000  1.0
  C  C117  1  0.83216000  0.85896000  0.40111000  1.0
  C  C118  1  0.38922000  0.63021000  0.25913000  1.0
  C  C119  1  0.61914000  0.63221000  0.27445000  1.0
  C  C120  1  0.51663000  0.54702000  0.36370000  1.0
  C  C121  1  0.29178000  0.61625000  0.97784000  1.0
  C  C122  1  0.58125000  0.46119000  0.11926000  1.0
  C  C123  1  0.67169000  0.38644000  0.22879000  1.0
  C  C124  1  0.10251000  0.64619000  0.82618000  1.0
  C  C125  1  0.69488000  0.71984000  0.01943000  1.0
  C  C126  1  0.59176000  0.74739000  0.99059000  1.0
  C  C127  1  0.48903000  0.71828000  0.01954000  1.0
  C  C128  1  0.59256000  0.64128000  0.09864000  1.0
  C  C129  1  0.72165000  0.25924000  0.63005000  1.0
  C  C130  1  0.47431000  0.27444000  0.63214000  1.0
  C  C131  1  0.57254000  0.36378000  0.54701000  1.0
  C  C132  1  0.11448000  0.97789000  0.61621000  1.0
  C  C133  1  0.83869000  0.11929000  0.46098000  1.0
  C  C134  1  0.71332000  0.22880000  0.38646000  1.0
  C  C135  1  0.42524000  0.82596000  0.64607000  1.0
  C  C136  1  0.56639000  0.01960000  0.71970000  1.0
  C  C137  1  0.67095000  0.99079000  0.74712000  1.0
  C  C138  1  0.77377000  0.01977000  0.71791000  1.0
  C  C139  1  0.66784000  0.09889000  0.64104000  1.0
  C  C140  1  0.78070000  0.88928000  0.11063000  1.0
  C  C141  1  0.94244000  0.75673000  0.24331000  1.0
  C  C142  1  0.21930000  0.11072000  0.88938000  1.0
  C  C143  1  0.05756000  0.24327000  0.75669000  1.0
  C  C144  1  0.71931000  0.38937000  0.61071000  1.0
  C  C145  1  0.55756000  0.25669000  0.74327000  1.0
  C  C146  1  0.28069000  0.61063000  0.38928000  1.0
  C  C147  1  0.44243000  0.74331000  0.25673000  1.0
  N  N148  1  0.86508000  0.71117000  0.11840000  1.0
  N  N149  1  0.21542000  0.73476000  0.11703000  1.0
  N  N150  1  0.05787000  0.87604000  0.98685000  1.0
  N  N151  1  0.81815000  0.52964000  0.11612000  1.0
  N  N152  1  0.98985000  0.61958000  0.00556000  1.0
  N  N153  1  0.12962000  0.78817000  0.89064000  1.0
  N  N154  1  0.52448000  0.29623000  0.15515000  1.0
  N  N155  1  0.99076000  0.57343000  0.16526000  1.0
  N  N156  1  0.19417000  0.57319000  0.16666000  1.0
  N  N157  1  0.30567000  0.11811000  0.71134000  1.0
  N  N158  1  0.93274000  0.11706000  0.73477000  1.0
  N  N159  1  0.07900000  0.98687000  0.87613000  1.0
  N  N160  1  0.53643000  0.11604000  0.52971000  1.0
  N  N161  1  0.38550000  0.00528000  0.61965000  1.0
  N  N162  1  0.19170000  0.89079000  0.78814000  1.0
  N  N163  1  0.02419000  0.15506000  0.29590000  1.0
  N  N164  1  0.27097000  0.16491000  0.57369000  1.0
  N  N165  1  0.06637000  0.16654000  0.57339000  1.0
  N  N166  1  0.63493000  0.38160000  0.78883000  1.0
  N  N167  1  0.28460000  0.38297000  0.76524000  1.0
  N  N168  1  0.44213000  0.51315000  0.62396000  1.0
  N  N169  1  0.68185000  0.38387000  0.97036000  1.0
  N  N170  1  0.51015000  0.49444000  0.88041000  1.0
  N  N171  1  0.37037000  0.60936000  0.71183000  1.0
  N  N172  1  0.97551000  0.34485000  0.20377000  1.0
  N  N173  1  0.50925000  0.33474000  0.92657000  1.0
  N  N174  1  0.30583000  0.33333333  0.92680000  1.0
  N  N175  1  0.19433000  0.78866000  0.38189000  1.0
  N  N176  1  0.56725000  0.76524000  0.38293000  1.0
  N  N177  1  0.42101000  0.62387000  0.51313000  1.0
  N  N178  1  0.96357000  0.97029000  0.38396000  1.0
  N  N179  1  0.11450000  0.88034000  0.49472000  1.0
  N  N180  1  0.30830000  0.71186000  0.60921000  1.0
  N  N181  1  0.47581000  0.20411000  0.34494000  1.0
  N  N182  1  0.22903000  0.92631000  0.33509000  1.0
  N  N183  1  0.43363000  0.92661000  0.33345000  1.0
  N  N184  1  0.13492000  0.28883000  0.88160000  1.0
  N  N185  1  0.78458000  0.26523000  0.88297000  1.0
  N  N186  1  0.94212000  0.12395000  0.01315000  1.0
  N  N187  1  0.18185000  0.47036000  0.88387000  1.0
  N  N188  1  0.01015000  0.38041000  0.99444000  1.0
  N  N189  1  0.87038000  0.21183000  0.10936000  1.0
  N  N190  1  0.47551000  0.70377000  0.84485000  1.0
  N  N191  1  0.00925000  0.42657000  0.83474000  1.0
  N  N192  1  0.80584000  0.42681000  0.83335000  1.0
  N  N193  1  0.69433000  0.88189000  0.28865000  1.0
  N  N194  1  0.06725000  0.88293000  0.26525000  1.0
  N  N195  1  0.92100000  0.01313000  0.12387000  1.0
  N  N196  1  0.46357000  0.88397000  0.47029000  1.0
  N  N197  1  0.61449000  0.99472000  0.38034000  1.0
  N  N198  1  0.80830000  0.10921000  0.21186000  1.0
  N  N199  1  0.97582000  0.84494000  0.70411000  1.0
  N  N200  1  0.72903000  0.83509000  0.42631000  1.0
  N  N201  1  0.93363000  0.83346000  0.42661000  1.0
  N  N202  1  0.36508000  0.61840000  0.21116000  1.0
  N  N203  1  0.71541000  0.61704000  0.23476000  1.0
  N  N204  1  0.55788000  0.48685000  0.37604000  1.0
  N  N205  1  0.31815000  0.61613000  0.02964000  1.0
  N  N206  1  0.48985000  0.50556000  0.11958000  1.0
  N  N207  1  0.62963000  0.39064000  0.28817000  1.0
  N  N208  1  0.02448000  0.65514000  0.79623000  1.0
  N  N209  1  0.49075000  0.66526000  0.07343000  1.0
  N  N210  1  0.69417000  0.66666667  0.07319000  1.0
  N  N211  1  0.80567000  0.21134000  0.61811000  1.0
  N  N212  1  0.43274000  0.23475000  0.61707000  1.0
  N  N213  1  0.57898000  0.37613000  0.48687000  1.0
  N  N214  1  0.03643000  0.02971000  0.61604000  1.0
  N  N215  1  0.88550000  0.11965000  0.50528000  1.0
  N  N216  1  0.69171000  0.28814000  0.39079000  1.0
  N  N217  1  0.52419000  0.79590000  0.65505000  1.0
  N  N218  1  0.77097000  0.07369000  0.66491000  1.0
  N  N219  1  0.56637000  0.07339000  0.66655000  1.0
  N  N220  1  0.69540000  0.91468000  0.08526000  1.0
  N  N221  1  0.94441000  0.71012000  0.28994000  1.0
  N  N222  1  0.30460000  0.08532000  0.91474000  1.0
  N  N223  1  0.05558000  0.28988000  0.71006000  1.0
  N  N224  1  0.80461000  0.41473000  0.58531000  1.0
  N  N225  1  0.55559000  0.21007000  0.78989000  1.0
  N  N226  1  0.19540000  0.58526000  0.41468000  1.0
  N  N227  1  0.44441000  0.78994000  0.21012000  1.0
