# generated using pymatgen
data_CoH11C17N3O4
_symmetry_space_group_name_H-M   'P 1'
_cell_length_a   10.52810000
_cell_length_b   14.23210000
_cell_length_c   21.24100000
_cell_angle_alpha   90.00000000
_cell_angle_beta   103.11400000
_cell_angle_gamma   89.99910000
_symmetry_Int_Tables_number   1
_chemical_formula_structural   CoH11C17N3O4
_chemical_formula_sum   'Co4 H44 C68 N12 O16'
_cell_volume   3099.68441416
_cell_formula_units_Z   4
loop_
 _symmetry_equiv_pos_site_id
 _symmetry_equiv_pos_as_xyz
  1  'x, y, z'
loop_
 _atom_site_type_symbol
 _atom_site_label
 _atom_site_symmetry_multiplicity
 _atom_site_fract_x
 _atom_site_fract_y
 _atom_site_fract_z
 _atom_site_occupancy
  Co  Co0  1  0.42757000  0.54263000  0.02278000  1.0
  Co  Co1  1  0.57265000  0.04265000  0.47722000  1.0
  Co  Co2  1  0.57268000  0.45734000  0.97723000  1.0
  Co  Co3  1  0.42765000  0.95740000  0.52276000  1.0
  H  H4  1  0.23851000  0.75667000  0.36795000  1.0
  H  H5  1  0.76146000  0.25663000  0.13206000  1.0
  H  H6  1  0.76143000  0.24335000  0.63207000  1.0
  H  H7  1  0.23857000  0.74332000  0.86792000  1.0
  H  H8  1  0.17796000  0.66623000  0.26337000  1.0
  H  H9  1  0.82194000  0.16617000  0.23662000  1.0
  H  H10  1  0.82192000  0.33383000  0.73663000  1.0
  H  H11  1  0.17805000  0.83375000  0.76335000  1.0
  H  H12  1  0.38440000  0.86862000  0.17378000  1.0
  H  H13  1  0.61558000  0.36860000  0.32622000  1.0
  H  H14  1  0.61549000  0.13141000  0.82622000  1.0
  H  H15  1  0.38451000  0.63134000  0.67378000  1.0
  H  H16  1  0.45051000  0.95497000  0.27936000  1.0
  H  H17  1  0.54953000  0.45497000  0.22066000  1.0
  H  H18  1  0.54945000  0.04506000  0.72066000  1.0
  H  H19  1  0.45061000  0.54500000  0.77936000  1.0
  H  H20  1  0.66102000  0.79655000  0.09200000  1.0
  H  H21  1  0.33900000  0.29636000  0.40799000  1.0
  H  H22  1  0.33896000  0.20364000  0.90800000  1.0
  H  H23  1  0.66106000  0.70349000  0.59200000  1.0
  H  H24  1  0.84481000  0.90007000  0.14813000  1.0
  H  H25  1  0.15522000  0.39988000  0.35182000  1.0
  H  H26  1  0.15517000  0.10013000  0.85184000  1.0
  H  H27  1  0.84484000  0.59996000  0.64812000  1.0
  H  H28  1  0.07300000  0.85078000  0.15662000  1.0
  H  H29  1  0.92703000  0.35063000  0.34334000  1.0
  H  H30  1  0.92698000  0.14938000  0.84335000  1.0
  H  H31  1  0.07302000  0.64923000  0.65661000  1.0
  H  H32  1  0.93721000  0.59726000  0.05028000  1.0
  H  H33  1  0.06272000  0.09713000  0.44974000  1.0
  H  H34  1  0.06269000  0.40287000  0.94975000  1.0
  H  H35  1  0.93729000  0.90275000  0.55025000  1.0
  H  H36  1  0.55563000  0.60464000  0.16276000  1.0
  H  H37  1  0.44428000  0.10465000  0.33726000  1.0
  H  H38  1  0.44423000  0.39535000  0.83729000  1.0
  H  H39  1  0.55567000  0.89534000  0.66275000  1.0
  H  H40  1  0.49771000  0.64672000  0.23092000  1.0
  H  H41  1  0.50222000  0.14668000  0.26909000  1.0
  H  H42  1  0.50219000  0.35335000  0.76911000  1.0
  H  H43  1  0.49774000  0.85331000  0.73091000  1.0
  H  H44  1  0.54874000  0.72722000  0.17802000  1.0
  H  H45  1  0.45123000  0.22722000  0.32198000  1.0
  H  H46  1  0.45119000  0.27278000  0.82198000  1.0
  H  H47  1  0.54880000  0.77278000  0.67804000  1.0
  C  C48  1  0.39896000  0.90856000  0.39293000  1.0
  C  C49  1  0.60109000  0.40861000  0.10709000  1.0
  C  C50  1  0.60110000  0.09141000  0.60709000  1.0
  C  C51  1  0.39896000  0.59143000  0.89294000  1.0
  C  C52  1  0.34990000  0.85976000  0.32970000  1.0
  C  C53  1  0.65011000  0.35976000  0.17030000  1.0
  C  C54  1  0.65008000  0.14024000  0.67031000  1.0
  C  C55  1  0.34996000  0.64021000  0.82970000  1.0
  C  C56  1  0.27000000  0.78009000  0.32505000  1.0
  C  C57  1  0.72996000  0.28008000  0.17495000  1.0
  C  C58  1  0.72993000  0.21992000  0.67496000  1.0
  C  C59  1  0.27008000  0.71988000  0.82504000  1.0
  C  C60  1  0.23599000  0.73029000  0.26709000  1.0
  C  C61  1  0.76394000  0.23025000  0.23291000  1.0
  C  C62  1  0.76391000  0.26974000  0.73292000  1.0
  C  C63  1  0.23609000  0.76968000  0.76707000  1.0
  C  C64  1  0.28012000  0.76210000  0.21353000  1.0
  C  C65  1  0.71983000  0.26204000  0.28648000  1.0
  C  C66  1  0.71979000  0.23795000  0.78648000  1.0
  C  C67  1  0.28020000  0.73788000  0.71350000  1.0
  C  C68  1  0.35335000  0.84460000  0.21667000  1.0
  C  C69  1  0.64664000  0.34456000  0.28333000  1.0
  C  C70  1  0.64655000  0.15545000  0.78334000  1.0
  C  C71  1  0.35345000  0.65537000  0.71667000  1.0
  C  C72  1  0.38918000  0.89265000  0.27490000  1.0
  C  C73  1  0.61084000  0.39264000  0.22511000  1.0
  C  C74  1  0.61077000  0.10737000  0.72511000  1.0
  C  C75  1  0.38927000  0.60731000  0.77490000  1.0
  C  C76  1  0.68021000  0.62678000  0.03731000  1.0
  C  C77  1  0.31976000  0.12666000  0.46271000  1.0
  C  C78  1  0.31969000  0.37338000  0.96274000  1.0
  C  C79  1  0.68031000  0.87325000  0.53729000  1.0
  C  C80  1  0.78873000  0.69123000  0.06787000  1.0
  C  C81  1  0.21123000  0.19107000  0.43213000  1.0
  C  C82  1  0.21119000  0.30894000  0.93215000  1.0
  C  C83  1  0.78880000  0.80880000  0.56785000  1.0
  C  C84  1  0.76225000  0.77637000  0.09563000  1.0
  C  C85  1  0.23775000  0.27620000  0.40435000  1.0
  C  C86  1  0.23771000  0.22382000  0.90437000  1.0
  C  C87  1  0.76230000  0.72365000  0.59563000  1.0
  C  C88  1  0.86485000  0.83335000  0.12705000  1.0
  C  C89  1  0.13516000  0.33317000  0.37292000  1.0
  C  C90  1  0.13512000  0.16684000  0.87293000  1.0
  C  C91  1  0.86489000  0.66666667  0.62705000  1.0
  C  C92  1  0.99386000  0.80549000  0.13188000  1.0
  C  C93  1  0.00615000  0.30534000  0.36810000  1.0
  C  C94  1  0.00611000  0.19466000  0.86810000  1.0
  C  C95  1  0.99390000  0.69452000  0.63188000  1.0
  C  C96  1  0.02114000  0.72004000  0.10441000  1.0
  C  C97  1  0.97883000  0.21991000  0.39558000  1.0
  C  C98  1  0.97880000  0.28009000  0.89558000  1.0
  C  C99  1  0.02120000  0.77995000  0.60440000  1.0
  C  C100  1  0.91755000  0.66362000  0.07180000  1.0
  C  C101  1  0.08240000  0.16348000  0.42819000  1.0
  C  C102  1  0.08236000  0.33652000  0.92820000  1.0
  C  C103  1  0.91763000  0.83638000  0.57179000  1.0
  C  C104  1  0.15403000  0.68721000  0.10752000  1.0
  C  C105  1  0.84594000  0.18711000  0.39247000  1.0
  C  C106  1  0.84590000  0.31288000  0.89247000  1.0
  C  C107  1  0.15408000  0.81277000  0.60750000  1.0
  C  C108  1  0.36517000  0.66002000  0.13934000  1.0
  C  C109  1  0.63479000  0.15997000  0.36066000  1.0
  C  C110  1  0.63474000  0.34001000  0.86067000  1.0
  C  C111  1  0.36521000  0.83996000  0.63932000  1.0
  C  C112  1  0.49965000  0.65955000  0.18010000  1.0
  C  C113  1  0.50028000  0.15953000  0.31992000  1.0
  C  C114  1  0.50024000  0.34048000  0.81993000  1.0
  C  C115  1  0.49969000  0.84045000  0.68009000  1.0
  N  N116  1  0.31961000  0.61579000  0.08386000  1.0
  N  N117  1  0.68036000  0.11572000  0.41613000  1.0
  N  N118  1  0.68032000  0.38425000  0.91614000  1.0
  N  N119  1  0.31963000  0.88420000  0.58384000  1.0
  N  N120  1  0.18853000  0.63251000  0.06379000  1.0
  N  N121  1  0.81144000  0.13240000  0.43619000  1.0
  N  N122  1  0.81140000  0.36758000  0.93620000  1.0
  N  N123  1  0.18859000  0.86748000  0.56378000  1.0
  N  N124  1  0.26318000  0.70669000  0.15611000  1.0
  N  N125  1  0.73678000  0.20662000  0.34390000  1.0
  N  N126  1  0.73672000  0.29336000  0.84390000  1.0
  N  N127  1  0.26325000  0.79328000  0.65608000  1.0
  O  O128  1  0.48739000  0.97048000  0.39459000  1.0
  O  O129  1  0.51270000  0.47055000  0.10541000  1.0
  O  O130  1  0.51269000  0.02947000  0.60540000  1.0
  O  O131  1  0.48741000  0.52952000  0.89462000  1.0
  O  O132  1  0.35206000  0.88542000  0.44091000  1.0
  O  O133  1  0.64803000  0.38544000  0.05913000  1.0
  O  O134  1  0.64806000  0.11457000  0.55914000  1.0
  O  O135  1  0.35200000  0.61456000  0.94090000  1.0
  O  O136  1  0.56713000  0.64309000  0.04732000  1.0
  O  O137  1  0.43281000  0.14300000  0.45267000  1.0
  O  O138  1  0.43277000  0.35704000  0.95271000  1.0
  O  O139  1  0.56723000  0.85695000  0.54731000  1.0
  O  O140  1  0.70686000  0.55713000  0.00483000  1.0
  O  O141  1  0.29318000  0.05703000  0.49523000  1.0
  O  O142  1  0.29312000  0.44301000  0.99526000  1.0
  O  O143  1  0.70694000  0.94289000  0.50479000  1.0
