# generated using pymatgen
data_AlH8C14NO8
_symmetry_space_group_name_H-M   'P 1'
_cell_length_a   6.65783000
_cell_length_b   11.05230000
_cell_length_c   17.02360000
_cell_angle_alpha   85.79930000
_cell_angle_beta   81.52230000
_cell_angle_gamma   73.42740000
_symmetry_Int_Tables_number   1
_chemical_formula_structural   AlH8C14NO8
_chemical_formula_sum   'Al2 H16 C28 N2 O16'
_cell_volume   1186.87092435
_cell_formula_units_Z   2
loop_
 _symmetry_equiv_pos_site_id
 _symmetry_equiv_pos_as_xyz
  1  'x, y, z'
loop_
 _atom_site_type_symbol
 _atom_site_label
 _atom_site_symmetry_multiplicity
 _atom_site_fract_x
 _atom_site_fract_y
 _atom_site_fract_z
 _atom_site_occupancy
  Al  Al0  1  0.48658000  0.50268000  0.49589000  1.0
  Al  Al1  1  0.98763000  0.50069000  0.49727000  1.0
  H  H2  1  0.17857000  0.65044000  0.44996000  1.0
  H  H3  1  0.79653000  0.34697000  0.52202000  1.0
  H  H4  1  0.81835000  0.52156000  0.73969000  1.0
  H  H5  1  0.76769000  0.51808000  0.88787000  1.0
  H  H6  1  0.43634000  0.46155000  0.88524000  1.0
  H  H7  1  0.55870000  0.52084000  0.10557000  1.0
  H  H8  1  0.22649000  0.46038000  0.10701000  1.0
  H  H9  1  0.16846000  0.46262000  0.25518000  1.0
  H  H10  1  0.85632000  0.76883000  0.61371000  1.0
  H  H11  1  0.63276000  0.23867000  0.59949000  1.0
  H  H12  1  0.18619000  0.11383000  0.44253000  1.0
  H  H13  1  0.29954000  0.87829000  0.44992000  1.0
  H  H14  1  0.52027000  0.46637000  0.67426000  1.0
  H  H15  1  0.46418000  0.52781000  0.31659000  1.0
  H  H16  1  0.87285000  0.80068000  0.76652000  1.0
  H  H17  1  0.02295000  0.24134000  0.60830000  1.0
  C  C18  1  0.61998000  0.72686000  0.51145000  1.0
  C  C19  1  0.80328000  0.49763000  0.35160000  1.0
  C  C20  1  0.35677000  0.27215000  0.49682000  1.0
  C  C21  1  0.17679000  0.49875000  0.64166000  1.0
  C  C22  1  0.15421000  0.49594000  0.72829000  1.0
  C  C23  1  0.95187000  0.51054000  0.77203000  1.0
  C  C24  1  0.92264000  0.50819000  0.85380000  1.0
  C  C25  1  0.09988000  0.49048000  0.89438000  1.0
  C  C26  1  0.30166000  0.47562000  0.85285000  1.0
  C  C27  1  0.33167000  0.47754000  0.76961000  1.0
  C  C28  1  0.69117000  0.50781000  0.13904000  1.0
  C  C29  1  0.89469000  0.49084000  0.09848000  1.0
  C  C30  1  0.06964000  0.47347000  0.14020000  1.0
  C  C31  1  0.03622000  0.47439000  0.22203000  1.0
  C  C32  1  0.83175000  0.49290000  0.26480000  1.0
  C  C33  1  0.65677000  0.50983000  0.22216000  1.0
  C  C34  1  0.55105000  0.86693000  0.51755000  1.0
  C  C35  1  0.65551000  0.93398000  0.55888000  1.0
  C  C36  1  0.38063000  0.93156000  0.47897000  1.0
  C  C37  1  0.81037000  0.87162000  0.60866000  1.0
  C  C38  1  0.90199000  0.93880000  0.65085000  1.0
  C  C39  1  0.42353000  0.13245000  0.50943000  1.0
  C  C40  1  0.31654000  0.06383000  0.47505000  1.0
  C  C41  1  0.59178000  0.06971000  0.55425000  1.0
  C  C42  1  0.68976000  0.13607000  0.59835000  1.0
  C  C43  1  0.84349000  0.07321000  0.64477000  1.0
  C  C44  1  0.07464000  0.87089000  0.69936000  1.0
  C  C45  1  0.92861000  0.14262000  0.69896000  1.0
  N  N46  1  0.08968000  0.48615000  0.97810000  1.0
  N  N47  1  0.90676000  0.49389000  0.01473000  1.0
  O  O48  1  0.47487000  0.67167000  0.51519000  1.0
  O  O49  1  0.96303000  0.48402000  0.38782000  1.0
  O  O50  1  0.15736000  0.32571000  0.50322000  1.0
  O  O51  1  0.36709000  0.48111000  0.60373000  1.0
  O  O52  1  0.49901000  0.32934000  0.47988000  1.0
  O  O53  1  0.01416000  0.51652000  0.60632000  1.0
  O  O54  1  0.81773000  0.67248000  0.49919000  1.0
  O  O55  1  0.61081000  0.51769000  0.38789000  1.0
  O  O56  1  0.22215000  0.56024000  0.46173000  1.0
  O  O57  1  0.75405000  0.43765000  0.52912000  1.0
  O  O58  1  0.53032000  0.46123000  0.73241000  1.0
  O  O59  1  0.45635000  0.52897000  0.25829000  1.0
  O  O60  1  0.02437000  0.79321000  0.75946000  1.0
  O  O61  1  0.25387000  0.88100000  0.68421000  1.0
  O  O62  1  0.01162000  0.23641000  0.66652000  1.0
  O  O63  1  0.92067000  0.11673000  0.76979000  1.0
