# generated using pymatgen
data_Zn2H21C35(N4O)2
_symmetry_space_group_name_H-M   'P 1'
_cell_length_a   19.53990000
_cell_length_b   19.73436309
_cell_length_c   20.00290000
_cell_angle_alpha   104.77263034
_cell_angle_beta   112.14200000
_cell_angle_gamma   110.67440444
_symmetry_Int_Tables_number   1
_chemical_formula_structural   Zn2H21C35(N4O)2
_chemical_formula_sum   'Zn4 H42 C70 N16 O4'
_cell_volume   5976.74913104
_cell_formula_units_Z   2
loop_
 _symmetry_equiv_pos_site_id
 _symmetry_equiv_pos_as_xyz
  1  'x, y, z'
loop_
 _atom_site_type_symbol
 _atom_site_label
 _atom_site_symmetry_multiplicity
 _atom_site_fract_x
 _atom_site_fract_y
 _atom_site_fract_z
 _atom_site_occupancy
  Zn  Zn0  1  0.90135000  0.89742000  0.49178000  1.0
  Zn  Zn1  1  0.11285000  0.11205000  0.50271000  1.0
  Zn  Zn2  1  0.11169000  0.00573000  0.60840000  1.0
  Zn  Zn3  1  0.90225000  0.01687000  0.40426000  1.0
  H  H4  1  0.85644000  0.98345000  0.61656000  1.0
  H  H5  1  0.65808000  0.64181000  0.98970000  1.0
  H  H6  1  0.85758000  0.03772000  0.98879000  1.0
  H  H7  1  0.12889000  0.18840000  0.99890000  1.0
  H  H8  1  0.70579000  0.99340000  0.35566000  1.0
  H  H9  1  0.13909000  0.87025000  0.50627000  1.0
  H  H10  1  0.30842000  0.27571000  0.63982000  1.0
  H  H11  1  0.90291000  0.75557000  0.36937000  1.0
  H  H12  1  0.87321000  0.13179000  0.52805000  1.0
  H  H13  1  0.14147000  0.88336000  0.69574000  1.0
  H  H14  1  0.30471000  0.76256000  0.40422000  1.0
  H  H15  1  0.14145000  0.14962000  0.35535000  1.0
  H  H16  1  0.41738000  0.94607000  0.29939000  1.0
  H  H17  1  0.14552000  0.51971000  0.71203000  1.0
  H  H18  1  0.87622000  0.52939000  0.62465000  1.0
  H  H19  1  0.85449000  0.04013000  0.86420000  1.0
  H  H20  1  0.13184000  0.18598000  0.12347000  1.0
  H  H21  1  0.12556000  0.30933000  0.50988000  1.0
  H  H22  1  0.19572000  0.26998000  0.53861000  1.0
  H  H23  1  0.23372000  0.37533000  0.59371000  1.0
  H  H24  1  0.82962000  0.63506000  0.54416000  1.0
  H  H25  1  0.86811000  0.62375000  0.47593000  1.0
  H  H26  1  0.40150000  0.99219000  0.43721000  1.0
  H  H27  1  0.76157000  0.60739000  0.43973000  1.0
  H  H28  1  0.35326000  0.22795000  0.89039000  1.0
  H  H29  1  0.42334000  0.19921000  0.87000000  1.0
  H  H30  1  0.35333000  0.13817000  0.89515000  1.0
  H  H31  1  0.76470000  0.93682000  0.24400000  1.0
  H  H32  1  0.70451000  0.82852000  0.19139000  1.0
  H  H33  1  0.72770000  0.88664000  0.13867000  1.0
  H  H34  1  0.69378000  0.80966000  0.43913000  1.0
  H  H35  1  0.11739000  0.99854000  0.35939000  1.0
  H  H36  1  0.13162000  0.14099000  0.75372000  1.0
  H  H37  1  0.32060000  0.71694000  0.26675000  1.0
  H  H38  1  0.86821000  0.05052000  0.24158000  1.0
  H  H39  1  0.47191000  0.89905000  0.49042000  1.0
  H  H40  1  0.25054000  0.80971000  0.21345000  1.0
  H  H41  1  0.14689000  0.64704000  0.71598000  1.0
  H  H42  1  0.87477000  0.40203000  0.62014000  1.0
  H  H43  1  0.72335000  0.50198000  0.11030000  1.0
  H  H44  1  0.53242000  0.51513000  0.87083000  1.0
  H  H45  1  0.59808000  0.37533000  0.99125000  1.0
  C  C46  1  0.92424000  0.01626000  0.63842000  1.0
  C  C47  1  0.33815000  0.77815000  0.30473000  1.0
  C  C48  1  0.42185000  0.87938000  0.42911000  1.0
  C  C49  1  0.30002000  0.82975000  0.27515000  1.0
  C  C50  1  0.57855000  0.87207000  0.37091000  1.0
  C  C51  1  0.17967000  0.88286000  0.37949000  1.0
  C  C52  1  0.39167000  0.90554000  0.32285000  1.0
  C  C53  1  0.33040000  0.80354000  0.38115000  1.0
  C  C54  1  0.43164000  0.85416000  0.35273000  1.0
  C  C55  1  0.29090000  0.85551000  0.35193000  1.0
  C  C56  1  0.50784000  0.85925000  0.35808000  1.0
  C  C57  1  0.07530000  0.12462000  0.33980000  1.0
  C  C58  1  0.22421000  0.86312000  0.35937000  1.0
  C  C59  1  0.08752000  0.59328000  0.69538000  1.0
  C  C60  1  0.93430000  0.45587000  0.64131000  1.0
  C  C61  1  0.07531000  0.23740000  0.58554000  1.0
  C  C62  1  0.93756000  0.78084000  0.55746000  1.0
  C  C63  1  0.01107000  0.59632000  0.66759000  1.0
  C  C64  1  0.00943000  0.45088000  0.66283000  1.0
  C  C65  1  0.93513000  0.52704000  0.64366000  1.0
  C  C66  1  0.08672000  0.52220000  0.69315000  1.0
  C  C67  1  0.00952000  0.66432000  0.65768000  1.0
  C  C68  1  0.00536000  0.23987000  0.58981000  1.0
  C  C69  1  0.00683000  0.37571000  0.64750000  1.0
  C  C70  1  0.00394000  0.31062000  0.62374000  1.0
  C  C71  1  0.00675000  0.71835000  0.63949000  1.0
  C  C72  1  0.61141000  0.43386000  0.99122000  1.0
  C  C73  1  0.64484000  0.58326000  0.98961000  1.0
  C  C74  1  0.55552000  0.43641000  0.92324000  1.0
  C  C75  1  0.69860000  0.58093000  0.05903000  1.0
  C  C76  1  0.57471000  0.51256000  0.92328000  1.0
  C  C77  1  0.68149000  0.50456000  0.05763000  1.0
  C  C78  1  0.48096000  0.36498000  0.85788000  1.0
  C  C79  1  0.00570000  0.77996000  0.61692000  1.0
  C  C80  1  0.76348000  0.65328000  0.12999000  1.0
  C  C81  1  0.81139000  0.71532000  0.19363000  1.0
  C  C82  1  0.41459000  0.30353000  0.80313000  1.0
  C  C83  1  0.91679000  0.07114000  0.99080000  1.0
  C  C84  1  0.06954000  0.15591000  0.99704000  1.0
  C  C85  1  0.28645000  0.15890000  0.72984000  1.0
  C  C86  1  0.85893000  0.86082000  0.27303000  1.0
  C  C87  1  0.99492000  0.11181000  0.06503000  1.0
  C  C88  1  0.99147000  0.11441000  0.92258000  1.0
  C  C89  1  0.07121000  0.15449000  0.06658000  1.0
  C  C90  1  0.33773000  0.23572000  0.73757000  1.0
  C  C91  1  0.91509000  0.07255000  0.92125000  1.0
  C  C92  1  0.99701000  0.10938000  0.13578000  1.0
  C  C93  1  0.99039000  0.11067000  0.85064000  1.0
  C  C94  1  0.99060000  0.10031000  0.78782000  1.0
  C  C95  1  0.99938000  0.10690000  0.19702000  1.0
  C  C96  1  0.71737000  0.95218000  0.37924000  1.0
  C  C97  1  0.12959000  0.90891000  0.47791000  1.0
  C  C98  1  0.29181000  0.22963000  0.66019000  1.0
  C  C99  1  0.89316000  0.79758000  0.34618000  1.0
  C  C100  1  0.71105000  0.85826000  0.42189000  1.0
  C  C101  1  0.85557000  0.78621000  0.26575000  1.0
  C  C102  1  0.11866000  0.97466000  0.40284000  1.0
  C  C103  1  0.93900000  0.15833000  0.54245000  1.0
  C  C104  1  0.07581000  0.85778000  0.64851000  1.0
  C  C105  1  0.06504000  0.09714000  0.70856000  1.0
  C  C106  1  0.93564000  0.07417000  0.28185000  1.0
  C  C107  1  0.99252000  0.07698000  0.71632000  1.0
  C  C108  1  0.00306000  0.10282000  0.26731000  1.0
  C  C109  1  0.17812000  0.31424000  0.56150000  1.0
  C  C110  1  0.82729000  0.64293000  0.49109000  1.0
  C  C111  1  0.36037000  0.17645000  0.86427000  1.0
  C  C112  1  0.66180000  0.89144000  0.38829000  1.0
  C  C113  1  0.75200000  0.88320000  0.19608000  1.0
  C  C114  1  0.14074000  0.91590000  0.41373000  1.0
  C  C115  1  0.38471000  0.93122000  0.39951000  1.0
  N  N116  1  0.95497000  0.00091000  0.59012000  1.0
  N  N117  1  0.91561000  0.87200000  0.39603000  1.0
  N  N118  1  0.78879000  0.89609000  0.43155000  1.0
  N  N119  1  0.09845000  0.00134000  0.45777000  1.0
  N  N120  1  0.96755000  0.11255000  0.51262000  1.0
  N  N121  1  0.05165000  0.90039000  0.61224000  1.0
  N  N122  1  0.04131000  0.05033000  0.63293000  1.0
  N  N123  1  0.96524000  0.07858000  0.35620000  1.0
  N  N124  1  0.05227000  0.11002000  0.39218000  1.0
  N  N125  1  0.05194000  0.16110000  0.54039000  1.0
  N  N126  1  0.96549000  0.85235000  0.55524000  1.0
  N  N127  1  0.21783000  0.11283000  0.65506000  1.0
  N  N128  1  0.89570000  0.91143000  0.35116000  1.0
  N  N129  1  0.79276000  0.95454000  0.40519000  1.0
  N  N130  1  0.10515000  0.96084000  0.50351000  1.0
  N  N131  1  0.22119000  0.15693000  0.61146000  1.0
  O  O132  1  0.15404000  0.30165000  0.61896000  1.0
  O  O133  1  0.85376000  0.72584000  0.50562000  1.0
  O  O134  1  0.29329000  0.12498000  0.78113000  1.0
  O  O135  1  0.82901000  0.88037000  0.21207000  1.0
