# generated using pymatgen
data_ZnH18C25N(O2F)2
_symmetry_space_group_name_H-M   'P 1'
_cell_length_a   10.96000000
_cell_length_b   14.00160000
_cell_length_c   15.29850000
_cell_angle_alpha   87.93560000
_cell_angle_beta   87.20120000
_cell_angle_gamma   89.83840000
_symmetry_Int_Tables_number   1
_chemical_formula_structural   ZnH18C25N(O2F)2
_chemical_formula_sum   'Zn2 H36 C50 N2 O8 F4'
_cell_volume   2343.34650193
_cell_formula_units_Z   2
loop_
 _symmetry_equiv_pos_site_id
 _symmetry_equiv_pos_as_xyz
  1  'x, y, z'
loop_
 _atom_site_type_symbol
 _atom_site_label
 _atom_site_symmetry_multiplicity
 _atom_site_fract_x
 _atom_site_fract_y
 _atom_site_fract_z
 _atom_site_occupancy
  Zn  Zn0  1  0.50308000  0.60194000  0.50638000  1.0
  Zn  Zn1  1  0.50539000  0.40472000  0.49571000  1.0
  H  H2  1  0.70355000  0.20180000  0.79743000  1.0
  H  H3  1  0.29155000  0.81359000  0.20728000  1.0
  H  H4  1  0.67711000  0.06829000  0.42844000  1.0
  H  H5  1  0.38353000  0.93494000  0.62236000  1.0
  H  H6  1  0.33818000  0.25486000  0.55851000  1.0
  H  H7  1  0.59443000  0.75520000  0.38941000  1.0
  H  H8  1  0.32063000  0.07641000  0.56497000  1.0
  H  H9  1  0.60066000  0.93388000  0.37720000  1.0
  H  H10  1  0.75412000  0.36719000  0.83622000  1.0
  H  H11  1  0.23580000  0.65096000  0.16338000  1.0
  H  H12  1  0.87265000  0.25610000  0.53992000  1.0
  H  H13  1  0.14687000  0.74546000  0.46919000  1.0
  H  H14  1  0.76572000  0.14447000  0.64876000  1.0
  H  H15  1  0.24728000  0.86171000  0.36133000  1.0
  H  H16  1  0.11540000  0.38468000  0.59038000  1.0
  H  H17  1  0.89114000  0.62147000  0.41196000  1.0
  H  H18  1  0.40405000  0.38806000  0.25012000  1.0
  H  H19  1  0.60975000  0.59308000  0.76803000  1.0
  H  H20  1  0.85033000  0.55933000  0.68890000  1.0
  H  H21  1  0.83086000  0.52086000  0.80092000  1.0
  H  H22  1  0.97500000  0.51023000  0.74363000  1.0
  H  H23  1  0.14404000  0.45248000  0.30811000  1.0
  H  H24  1  0.02155000  0.50631000  0.25408000  1.0
  H  H25  1  0.16575000  0.49410000  0.19717000  1.0
  H  H26  1  0.58790000  0.71620000  0.01317000  1.0
  H  H27  1  0.45697000  0.66904000  0.96704000  1.0
  H  H28  1  0.44232000  0.73005000  0.06635000  1.0
  H  H29  1  0.49390000  0.29114000  0.01740000  1.0
  H  H30  1  0.34805000  0.27174000  0.97639000  1.0
  H  H31  1  0.48189000  0.24319000  0.91315000  1.0
  H  H32  1  0.63998000  0.67852000  0.25697000  1.0
  H  H33  1  0.62881000  0.73118000  0.15018000  1.0
  H  H34  1  0.50433000  0.73789000  0.22933000  1.0
  H  H35  1  0.32438000  0.33580000  0.72666000  1.0
  H  H36  1  0.44551000  0.26018000  0.75466000  1.0
  H  H37  1  0.31772000  0.27324000  0.83018000  1.0
  C  C38  1  0.51674000  0.52236000  0.33012000  1.0
  C  C39  1  0.48468000  0.48116000  0.67083000  1.0
  C  C40  1  0.13084000  0.49940000  0.49337000  1.0
  C  C41  1  0.87578000  0.50703000  0.50877000  1.0
  C  C42  1  0.06907000  0.56764000  0.44210000  1.0
  C  C43  1  0.93777000  0.43877000  0.56025000  1.0
  C  C44  1  0.50922000  0.58854000  0.08361000  1.0
  C  C45  1  0.45220000  0.39287000  0.91288000  1.0
  C  C46  1  0.52887000  0.59868000  0.17344000  1.0
  C  C47  1  0.44027000  0.39458000  0.82105000  1.0
  C  C48  1  0.50088000  0.52230000  0.23341000  1.0
  C  C49  1  0.48853000  0.47173000  0.76859000  1.0
  C  C50  1  0.44108000  0.44264000  0.20384000  1.0
  C  C51  1  0.55843000  0.53982000  0.80803000  1.0
  C  C52  1  0.42532000  0.43435000  0.11577000  1.0
  C  C53  1  0.56509000  0.53738000  0.89761000  1.0
  C  C54  1  0.47833000  0.49712000  0.04980000  1.0
  C  C55  1  0.49458000  0.47572000  0.95577000  1.0
  C  C56  1  0.59817000  0.10486000  0.45741000  1.0
  C  C57  1  0.43088000  0.90000000  0.56809000  1.0
  C  C58  1  0.59643000  0.20409000  0.45677000  1.0
  C  C59  1  0.43283000  0.80082000  0.56701000  1.0
  C  C60  1  0.73924000  0.51225000  0.50971000  1.0
  C  C61  1  0.26740000  0.49540000  0.49203000  1.0
  C  C62  1  0.41008000  0.20929000  0.53122000  1.0
  C  C63  1  0.55044000  0.79924000  0.43904000  1.0
  C  C64  1  0.40204000  0.11051000  0.53478000  1.0
  C  C65  1  0.55361000  0.89813000  0.43344000  1.0
  C  C66  1  0.49783000  0.05609000  0.49735000  1.0
  C  C67  1  0.49391000  0.95063000  0.49958000  1.0
  C  C68  1  0.78052000  0.34218000  0.77122000  1.0
  C  C69  1  0.21585000  0.67232000  0.23052000  1.0
  C  C70  1  0.84219000  0.40531000  0.71114000  1.0
  C  C71  1  0.15815000  0.60653000  0.29016000  1.0
  C  C72  1  0.87405000  0.37330000  0.62664000  1.0
  C  C73  1  0.13337000  0.63428000  0.37701000  1.0
  C  C74  1  0.84740000  0.27933000  0.60567000  1.0
  C  C75  1  0.16598000  0.72584000  0.40154000  1.0
  C  C76  1  0.78657000  0.21731000  0.66638000  1.0
  C  C77  1  0.22272000  0.79052000  0.34127000  1.0
  C  C78  1  0.75202000  0.24925000  0.74945000  1.0
  C  C79  1  0.24770000  0.76350000  0.25522000  1.0
  C  C80  1  0.06517000  0.43621000  0.55074000  1.0
  C  C81  1  0.94175000  0.56988000  0.45119000  1.0
  C  C82  1  0.87560000  0.50410000  0.73761000  1.0
  C  C83  1  0.12103000  0.50975000  0.26077000  1.0
  C  C84  1  0.50040000  0.68027000  0.02882000  1.0
  C  C85  1  0.44159000  0.29523000  0.95832000  1.0
  C  C86  1  0.57831000  0.69177000  0.20353000  1.0
  C  C87  1  0.37819000  0.31132000  0.78160000  1.0
  N  N88  1  0.50703000  0.25598000  0.49233000  1.0
  N  N89  1  0.49114000  0.75069000  0.50608000  1.0
  O  O90  1  0.50827000  0.60079000  0.36955000  1.0
  O  O91  1  0.46343000  0.40699000  0.62809000  1.0
  O  O92  1  0.53351000  0.44015000  0.36636000  1.0
  O  O93  1  0.50672000  0.56429000  0.63704000  1.0
  O  O94  1  0.69092000  0.59451000  0.49871000  1.0
  O  O95  1  0.31826000  0.41495000  0.47894000  1.0
  O  O96  1  0.68233000  0.43332000  0.51916000  1.0
  O  O97  1  0.32072000  0.57326000  0.50670000  1.0
  F  F98  1  0.34606000  0.36373000  0.09588000  1.0
  F  F99  1  0.65326000  0.59460000  0.92910000  1.0
  F  F100  1  0.69055000  0.25235000  0.41753000  1.0
  F  F101  1  0.37285000  0.75075000  0.63186000  1.0
