# generated using pymatgen
data_KH10C5S2NO2
_symmetry_space_group_name_H-M   'P 1'
_cell_length_a   6.61348000
_cell_length_b   8.05512000
_cell_length_c   17.17380000
_cell_angle_alpha   89.99990000
_cell_angle_beta   89.99980000
_cell_angle_gamma   71.16600000
_symmetry_Int_Tables_number   1
_chemical_formula_structural   KH10C5S2NO2
_chemical_formula_sum   'K4 H40 C20 S8 N4 O8'
_cell_volume   865.90399042
_cell_formula_units_Z   4
loop_
 _symmetry_equiv_pos_site_id
 _symmetry_equiv_pos_as_xyz
  1  'x, y, z'
loop_
 _atom_site_type_symbol
 _atom_site_label
 _atom_site_symmetry_multiplicity
 _atom_site_fract_x
 _atom_site_fract_y
 _atom_site_fract_z
 _atom_site_occupancy
  K  K0  1  0.69577000  0.51915000  0.24564000  1.0
  K  K1  1  0.30424000  0.98085000  0.74565000  1.0
  K  K2  1  0.30424000  0.48085000  0.75436000  1.0
  K  K3  1  0.69577000  0.01915000  0.25436000  1.0
  H  H4  1  0.27560000  0.93648000  0.30285000  1.0
  H  H5  1  0.72440000  0.56351000  0.80285000  1.0
  H  H6  1  0.72440000  0.06350000  0.69715000  1.0
  H  H7  1  0.27561000  0.43649000  0.19715000  1.0
  H  H8  1  0.87612000  0.11933000  0.58464000  1.0
  H  H9  1  0.12389000  0.38068000  0.08464000  1.0
  H  H10  1  0.12388000  0.88068000  0.41536000  1.0
  H  H11  1  0.87611000  0.61932000  0.91536000  1.0
  H  H12  1  0.69591000  0.31665000  0.54382000  1.0
  H  H13  1  0.30409000  0.18336000  0.04382000  1.0
  H  H14  1  0.30409000  0.68335000  0.45618000  1.0
  H  H15  1  0.69591000  0.81665000  0.95617000  1.0
  H  H16  1  0.29864000  0.82952000  0.22580000  1.0
  H  H17  1  0.70135000  0.67047000  0.72580000  1.0
  H  H18  1  0.70135000  0.17046000  0.77420000  1.0
  H  H19  1  0.29865000  0.32953000  0.27420000  1.0
  H  H20  1  0.91106000  0.48995000  0.59588000  1.0
  H  H21  1  0.08895000  0.01006000  0.09588000  1.0
  H  H22  1  0.08894000  0.51006000  0.40412000  1.0
  H  H23  1  0.91106000  0.98994000  0.90411000  1.0
  H  H24  1  0.85323000  0.36227000  0.67274000  1.0
  H  H25  1  0.14677000  0.13774000  0.17274000  1.0
  H  H26  1  0.14677000  0.63774000  0.32726000  1.0
  H  H27  1  0.85323000  0.86225000  0.82726000  1.0
  H  H28  1  0.45282000  0.19927000  0.58098000  1.0
  H  H29  1  0.54718000  0.30073000  0.08098000  1.0
  H  H30  1  0.54718000  0.80073000  0.41902000  1.0
  H  H31  1  0.45282000  0.69927000  0.91902000  1.0
  H  H32  1  0.26731000  0.39420000  0.54215000  1.0
  H  H33  1  0.73269000  0.10580000  0.04215000  1.0
  H  H34  1  0.73269000  0.60579000  0.45785000  1.0
  H  H35  1  0.26731000  0.89420000  0.95785000  1.0
  H  H36  1  0.30804000  0.15236000  0.44925000  1.0
  H  H37  1  0.69195000  0.34764000  0.94925000  1.0
  H  H38  1  0.69196000  0.84764000  0.55075000  1.0
  H  H39  1  0.30804000  0.65237000  0.05075000  1.0
  H  H40  1  0.26120000  0.01547000  0.52470000  1.0
  H  H41  1  0.73880000  0.48453000  0.02471000  1.0
  H  H42  1  0.73880000  0.98452000  0.47530000  1.0
  H  H43  1  0.26120000  0.51547000  0.97530000  1.0
  C  C44  1  0.90226000  0.23889000  0.41599000  1.0
  C  C45  1  0.09775000  0.26111000  0.91599000  1.0
  C  C46  1  0.09775000  0.76110000  0.58401000  1.0
  C  C47  1  0.90224000  0.73890000  0.08401000  1.0
  C  C48  1  0.86294000  0.24822000  0.55926000  1.0
  C  C49  1  0.13707000  0.25178000  0.05926000  1.0
  C  C50  1  0.13707000  0.75178000  0.44074000  1.0
  C  C51  1  0.86293000  0.74822000  0.94074000  1.0
  C  C52  1  0.93971000  0.35552000  0.61776000  1.0
  C  C53  1  0.06030000  0.14448000  0.11776000  1.0
  C  C54  1  0.06029000  0.64448000  0.38224000  1.0
  C  C55  1  0.93971000  0.85552000  0.88224000  1.0
  C  C56  1  0.28532000  0.26190000  0.56466000  1.0
  C  C57  1  0.71468000  0.23810000  0.06467000  1.0
  C  C58  1  0.71468000  0.73809000  0.43534000  1.0
  C  C59  1  0.28532000  0.76191000  0.93534000  1.0
  C  C60  1  0.22107000  0.15179000  0.50352000  1.0
  C  C61  1  0.77893000  0.34821000  0.00352000  1.0
  C  C62  1  0.77893000  0.84820000  0.49648000  1.0
  C  C63  1  0.22107000  0.65180000  0.99648000  1.0
  S  S64  1  0.06478000  0.19577000  0.33390000  1.0
  S  S65  1  0.93523000  0.30422000  0.83390000  1.0
  S  S66  1  0.93523000  0.80422000  0.66610000  1.0
  S  S67  1  0.06476000  0.69578000  0.16610000  1.0
  S  S68  1  0.63147000  0.30435000  0.40459000  1.0
  S  S69  1  0.36853000  0.19565000  0.90459000  1.0
  S  S70  1  0.36853000  0.69565000  0.59541000  1.0
  S  S71  1  0.63146000  0.80436000  0.09541000  1.0
  N  N72  1  0.99125000  0.22053000  0.48803000  1.0
  N  N73  1  0.00875000  0.27948000  0.98804000  1.0
  N  N74  1  0.00875000  0.77947000  0.51196000  1.0
  N  N75  1  0.99125000  0.72053000  0.01196000  1.0
  O  O76  1  0.16297000  0.27662000  0.63527000  1.0
  O  O77  1  0.83703000  0.22339000  0.13527000  1.0
  O  O78  1  0.83703000  0.72338000  0.36473000  1.0
  O  O79  1  0.16298000  0.77660000  0.86473000  1.0
  O  O80  1  0.37947000  0.84260000  0.27222000  1.0
  O  O81  1  0.62052000  0.65738000  0.77222000  1.0
  O  O82  1  0.62052000  0.15736000  0.72778000  1.0
  O  O83  1  0.37948000  0.34263000  0.22778000  1.0
