# generated using pymatgen
data_Hg2H3C4Br5N2
_symmetry_space_group_name_H-M   'P 1'
_cell_length_a   6.40633000
_cell_length_b   6.60630000
_cell_length_c   17.31810000
_cell_angle_alpha   89.99930000
_cell_angle_beta   89.99970000
_cell_angle_gamma   61.50100000
_symmetry_Int_Tables_number   1
_chemical_formula_structural   Hg2H3C4Br5N2
_chemical_formula_sum   'Hg4 H6 C8 Br10 N4'
_cell_volume   644.12545356
_cell_formula_units_Z   2
loop_
 _symmetry_equiv_pos_site_id
 _symmetry_equiv_pos_as_xyz
  1  'x, y, z'
loop_
 _atom_site_type_symbol
 _atom_site_label
 _atom_site_symmetry_multiplicity
 _atom_site_fract_x
 _atom_site_fract_y
 _atom_site_fract_z
 _atom_site_occupancy
  Hg  Hg0  1  0.83324000  0.32740000  0.44440000  1.0
  Hg  Hg1  1  0.16678000  0.67259000  0.94439000  1.0
  Hg  Hg2  1  0.83323000  0.32740000  0.05561000  1.0
  Hg  Hg3  1  0.16678000  0.67259000  0.55561000  1.0
  H  H4  1  0.86269000  0.27440000  0.25000000  1.0
  H  H5  1  0.13731000  0.72561000  0.75000000  1.0
  H  H6  1  0.55239000  0.88486000  0.37545000  1.0
  H  H7  1  0.44761000  0.11514000  0.87545000  1.0
  H  H8  1  0.55238000  0.88486000  0.12455000  1.0
  H  H9  1  0.44761000  0.11514000  0.62455000  1.0
  C  C10  1  0.76677000  0.46230000  0.25000000  1.0
  C  C11  1  0.23323000  0.53770000  0.75000000  1.0
  C  C12  1  0.59494000  0.80042000  0.31918000  1.0
  C  C13  1  0.40506000  0.19958000  0.81918000  1.0
  C  C14  1  0.59494000  0.80042000  0.18082000  1.0
  C  C15  1  0.40505000  0.19958000  0.68083000  1.0
  C  C16  1  0.53251000  0.92337000  0.25000000  1.0
  C  C17  1  0.46747000  0.07665000  0.75000000  1.0
  Br  Br18  1  0.02414000  0.94154000  0.37945000  1.0
  Br  Br19  1  0.97588000  0.05844000  0.87943000  1.0
  Br  Br20  1  0.02413000  0.94154000  0.12056000  1.0
  Br  Br21  1  0.97587000  0.05844000  0.62056000  1.0
  Br  Br22  1  0.66042000  0.68244000  0.52908000  1.0
  Br  Br23  1  0.33958000  0.31756000  0.02908000  1.0
  Br  Br24  1  0.66043000  0.68244000  0.97092000  1.0
  Br  Br25  1  0.33959000  0.31756000  0.47093000  1.0
  Br  Br26  1  0.36937000  0.24800000  0.25000000  1.0
  Br  Br27  1  0.63059000  0.75201000  0.75000000  1.0
  N  N28  1  0.71233000  0.56942000  0.31833000  1.0
  N  N29  1  0.28767000  0.43059000  0.81833000  1.0
  N  N30  1  0.71233000  0.56942000  0.18167000  1.0
  N  N31  1  0.28767000  0.43058000  0.68167000  1.0
