# generated using pymatgen
data_KH7C6N4O5
_symmetry_space_group_name_H-M   'P 1'
_cell_length_a   4.58996000
_cell_length_b   9.87303000
_cell_length_c   22.38830000
_cell_angle_alpha   90.00000000
_cell_angle_beta   89.99990000
_cell_angle_gamma   89.99990000
_symmetry_Int_Tables_number   1
_chemical_formula_structural   KH7C6N4O5
_chemical_formula_sum   'K4 H28 C24 N16 O20'
_cell_volume   1014.56639953
_cell_formula_units_Z   4
loop_
 _symmetry_equiv_pos_site_id
 _symmetry_equiv_pos_as_xyz
  1  'x, y, z'
loop_
 _atom_site_type_symbol
 _atom_site_label
 _atom_site_symmetry_multiplicity
 _atom_site_fract_x
 _atom_site_fract_y
 _atom_site_fract_z
 _atom_site_occupancy
  K  K0  1  0.90016000  0.77541000  0.07203000  1.0
  K  K1  1  0.59984000  0.22458000  0.57203000  1.0
  K  K2  1  0.09984000  0.27541000  0.42797000  1.0
  K  K3  1  0.40016000  0.72459000  0.92797000  1.0
  H  H4  1  0.57501000  0.21205000  0.03439000  1.0
  H  H5  1  0.92500000  0.78795000  0.53439000  1.0
  H  H6  1  0.42499000  0.71205000  0.46561000  1.0
  H  H7  1  0.07501000  0.28795000  0.96561000  1.0
  H  H8  1  0.89789000  0.25035000  0.11037000  1.0
  H  H9  1  0.60211000  0.74965000  0.61037000  1.0
  H  H10  1  0.10211000  0.75035000  0.38963000  1.0
  H  H11  1  0.39789000  0.24965000  0.88963000  1.0
  H  H12  1  0.31428000  0.25924000  0.20421000  1.0
  H  H13  1  0.18572000  0.74076000  0.70421000  1.0
  H  H14  1  0.68572000  0.75923000  0.29579000  1.0
  H  H15  1  0.81428000  0.24076000  0.79579000  1.0
  H  H16  1  0.57907000  0.05901000  0.27051000  1.0
  H  H17  1  0.92093000  0.94099000  0.77051000  1.0
  H  H18  1  0.42093000  0.55901000  0.22949000  1.0
  H  H19  1  0.07907000  0.44099000  0.72949000  1.0
  H  H20  1  0.33683000  0.82046000  0.22574000  1.0
  H  H21  1  0.16317000  0.17954000  0.72574000  1.0
  H  H22  1  0.66318000  0.32046000  0.27426000  1.0
  H  H23  1  0.83683000  0.67954000  0.77426000  1.0
  H  H24  1  0.16480000  0.51899000  0.13834000  1.0
  H  H25  1  0.33520000  0.48101000  0.63834000  1.0
  H  H26  1  0.83520000  0.01899000  0.36166000  1.0
  H  H27  1  0.66480000  0.98101000  0.86166000  1.0
  H  H28  1  0.92137000  0.54305000  0.18723000  1.0
  H  H29  1  0.57863000  0.45695000  0.68723000  1.0
  H  H30  1  0.07863000  0.04305000  0.31277000  1.0
  H  H31  1  0.42137000  0.95695000  0.81277000  1.0
  C  C32  1  0.90157000  0.14043000  0.11698000  1.0
  C  C33  1  0.59843000  0.85957000  0.61698000  1.0
  C  C34  1  0.09843000  0.64042000  0.38302000  1.0
  C  C35  1  0.40157000  0.35957000  0.88302000  1.0
  C  C36  1  0.27852000  0.15085000  0.20159000  1.0
  C  C37  1  0.22148000  0.84915000  0.70159000  1.0
  C  C38  1  0.72148000  0.65085000  0.29842000  1.0
  C  C39  1  0.77852000  0.34915000  0.79841000  1.0
  C  C40  1  0.09236000  0.08833000  0.16204000  1.0
  C  C41  1  0.40764000  0.91167000  0.66204000  1.0
  C  C42  1  0.90763000  0.58833000  0.33796000  1.0
  C  C43  1  0.59236000  0.41167000  0.83796000  1.0
  C  C44  1  0.38149000  0.02231000  0.01426000  1.0
  C  C45  1  0.11851000  0.97769000  0.51426000  1.0
  C  C46  1  0.61850000  0.52231000  0.48574000  1.0
  C  C47  1  0.88149000  0.47769000  0.98574000  1.0
  C  C48  1  0.41452000  0.04637000  0.23591000  1.0
  C  C49  1  0.08548000  0.95363000  0.73591000  1.0
  C  C50  1  0.58548000  0.54637000  0.26409000  1.0
  C  C51  1  0.91452000  0.45363000  0.76409000  1.0
  C  C52  1  0.30274000  0.92644000  0.21520000  1.0
  C  C53  1  0.19726000  0.07357000  0.71520000  1.0
  C  C54  1  0.69726000  0.42643000  0.28480000  1.0
  C  C55  1  0.80274000  0.57357000  0.78480000  1.0
  N  N56  1  0.56623000  0.10964000  0.04404000  1.0
  N  N57  1  0.93377000  0.89036000  0.54404000  1.0
  N  N58  1  0.43377000  0.60964000  0.45596000  1.0
  N  N59  1  0.06623000  0.39036000  0.95596000  1.0
  N  N60  1  0.74348000  0.05693000  0.08602000  1.0
  N  N61  1  0.75653000  0.94307000  0.58603000  1.0
  N  N62  1  0.25652000  0.55693000  0.41398000  1.0
  N  N63  1  0.24347000  0.44307000  0.91397000  1.0
  N  N64  1  0.21729000  0.09603000  0.97321000  1.0
  N  N65  1  0.28271000  0.90397000  0.47321000  1.0
  N  N66  1  0.78271000  0.59603000  0.52679000  1.0
  N  N67  1  0.71729000  0.40397000  0.02679000  1.0
  N  N68  1  0.02228000  0.03011000  0.94032000  1.0
  N  N69  1  0.47773000  0.96989000  0.44032000  1.0
  N  N70  1  0.97772000  0.53011000  0.55968000  1.0
  N  N71  1  0.52228000  0.46989000  0.05968000  1.0
  O  O72  1  0.38253000  0.89860000  0.02515000  1.0
  O  O73  1  0.11747000  0.10140000  0.52515000  1.0
  O  O74  1  0.61747000  0.39860000  0.47485000  1.0
  O  O75  1  0.88253000  0.60140000  0.97485000  1.0
  O  O76  1  0.10601000  0.94973000  0.17037000  1.0
  O  O77  1  0.39399000  0.05027000  0.67037000  1.0
  O  O78  1  0.89399000  0.44973000  0.32963000  1.0
  O  O79  1  0.60601000  0.55027000  0.82963000  1.0
  O  O80  1  0.05373000  0.58985000  0.16006000  1.0
  O  O81  1  0.44627000  0.41015000  0.66006000  1.0
  O  O82  1  0.94627000  0.08985000  0.33994000  1.0
  O  O83  1  0.55374000  0.91015000  0.83994000  1.0
  O  O84  1  0.90184000  0.10061000  0.89932000  1.0
  O  O85  1  0.59817000  0.89939000  0.39932000  1.0
  O  O86  1  0.09817000  0.60061000  0.60068000  1.0
  O  O87  1  0.40184000  0.39939000  0.10068000  1.0
  O  O88  1  0.94929000  0.90805000  0.94753000  1.0
  O  O89  1  0.55072000  0.09195000  0.44753000  1.0
  O  O90  1  0.05071000  0.40805000  0.55247000  1.0
  O  O91  1  0.44928000  0.59195000  0.05247000  1.0
