# generated using pymatgen
data_ZnH16C12S(NO)4
_symmetry_space_group_name_H-M   'P 1'
_cell_length_a   6.05522000
_cell_length_b   10.65690000
_cell_length_c   12.76553826
_cell_angle_alpha   114.29566964
_cell_angle_beta   103.66055645
_cell_angle_gamma   90.01270000
_symmetry_Int_Tables_number   1
_chemical_formula_structural   ZnH16C12S(NO)4
_chemical_formula_sum   'Zn2 H32 C24 S2 N8 O8'
_cell_volume   725.13852604
_cell_formula_units_Z   2
loop_
 _symmetry_equiv_pos_site_id
 _symmetry_equiv_pos_as_xyz
  1  'x, y, z'
loop_
 _atom_site_type_symbol
 _atom_site_label
 _atom_site_symmetry_multiplicity
 _atom_site_fract_x
 _atom_site_fract_y
 _atom_site_fract_z
 _atom_site_occupancy
  Zn  Zn0  1  0.00001000  0.00000000  0.50000000  1.0
  Zn  Zn1  1  0.99999000  0.50000000  0.50000000  1.0
  H  H2  1  0.02611000  0.84681000  0.99417000  1.0
  H  H3  1  0.53160000  0.65355000  0.00518000  1.0
  H  H4  1  0.97392000  0.15322000  0.00584000  1.0
  H  H5  1  0.46840000  0.34645000  0.99482000  1.0
  H  H6  1  0.17265000  0.76070000  0.14826000  1.0
  H  H7  1  0.52325000  0.73969000  0.85107000  1.0
  H  H8  1  0.82736000  0.23932000  0.85174000  1.0
  H  H9  1  0.47674000  0.26031000  0.14893000  1.0
  H  H10  1  0.52096000  0.04652000  0.17828000  1.0
  H  H11  1  0.84277000  0.45363000  0.82214000  1.0
  H  H12  1  0.47904000  0.95348000  0.82172000  1.0
  H  H13  1  0.15722000  0.54637000  0.17786000  1.0
  H  H14  1  0.18194000  0.79225000  0.35188000  1.0
  H  H15  1  0.32893000  0.70778000  0.64766000  1.0
  H  H16  1  0.81807000  0.20774000  0.64812000  1.0
  H  H17  1  0.67106000  0.29222000  0.35234000  1.0
  H  H18  1  0.91930000  0.74123000  0.34708000  1.0
  H  H19  1  0.07113000  0.75881000  0.65250000  1.0
  H  H20  1  0.08070000  0.25876000  0.65291000  1.0
  H  H21  1  0.92886000  0.24119000  0.34750000  1.0
  H  H22  1  0.58608000  0.90315000  0.37270000  1.0
  H  H23  1  0.71285000  0.59675000  0.62741000  1.0
  H  H24  1  0.41392000  0.09684000  0.62729000  1.0
  H  H25  1  0.28714000  0.40324000  0.37259000  1.0
  H  H26  1  0.57713000  0.06113000  0.37459000  1.0
  H  H27  1  0.70212000  0.43885000  0.62573000  1.0
  H  H28  1  0.42287000  0.93887000  0.62541000  1.0
  H  H29  1  0.29789000  0.56114000  0.37427000  1.0
  H  H30  1  0.70249000  0.99330000  0.01058000  1.0
  H  H31  1  0.19224000  0.50707000  0.98943000  1.0
  H  H32  1  0.29753000  0.00671000  0.98943000  1.0
  H  H33  1  0.80776000  0.49293000  0.01057000  1.0
  C  C34  1  0.76472000  0.95247000  0.07628000  1.0
  C  C35  1  0.18832000  0.54781000  0.92361000  1.0
  C  C36  1  0.23529000  0.04754000  0.92372000  1.0
  C  C37  1  0.81167000  0.45219000  0.07638000  1.0
  C  C38  1  0.92714000  0.85207000  0.24754000  1.0
  C  C39  1  0.17862000  0.64819000  0.75223000  1.0
  C  C40  1  0.07287000  0.14793000  0.75246000  1.0
  C  C41  1  0.82138000  0.35181000  0.24778000  1.0
  C  C42  1  0.94677000  0.87160000  0.06756000  1.0
  C  C43  1  0.37870000  0.62875000  0.93204000  1.0
  C  C44  1  0.05326000  0.12842000  0.93245000  1.0
  C  C45  1  0.62130000  0.37124000  0.06796000  1.0
  C  C46  1  0.02735000  0.82138000  0.15331000  1.0
  C  C47  1  0.37309000  0.67902000  0.84625000  1.0
  C  C48  1  0.97267000  0.17863000  0.84669000  1.0
  C  C49  1  0.62690000  0.32098000  0.15375000  1.0
  C  C50  1  0.74468000  0.93473000  0.25691000  1.0
  C  C51  1  0.98717000  0.56541000  0.74314000  1.0
  C  C52  1  0.25533000  0.06526000  0.74309000  1.0
  C  C53  1  0.01283000  0.43458000  0.25687000  1.0
  C  C54  1  0.66255000  0.98281000  0.17001000  1.0
  C  C55  1  0.99233000  0.51736000  0.83012000  1.0
  C  C56  1  0.33746000  0.01720000  0.82999000  1.0
  C  C57  1  0.00767000  0.48263000  0.16987000  1.0
  S  S58  1  0.33464000  0.25006000  0.50012000  1.0
  S  S59  1  0.66536000  0.74994000  0.49988000  1.0
  N  N60  1  0.01784000  0.81906000  0.34594000  1.0
  N  N61  1  0.17079000  0.68101000  0.65367000  1.0
  N  N62  1  0.98215000  0.18094000  0.65405000  1.0
  N  N63  1  0.82920000  0.31899000  0.34633000  1.0
  N  N64  1  0.67406000  0.98035000  0.36413000  1.0
  N  N65  1  0.80938000  0.51962000  0.63605000  1.0
  N  N66  1  0.32594000  0.01965000  0.63586000  1.0
  N  N67  1  0.19062000  0.48038000  0.36396000  1.0
  O  O68  1  0.51921000  0.22823000  0.58938000  1.0
  O  O69  1  0.43028000  0.27178000  0.41080000  1.0
  O  O70  1  0.48079000  0.77177000  0.41063000  1.0
  O  O71  1  0.56973000  0.72822000  0.58921000  1.0
  O  O72  1  0.15999000  0.12625000  0.43447000  1.0
  O  O73  1  0.22564000  0.37393000  0.56582000  1.0
  O  O74  1  0.84002000  0.87374000  0.56552000  1.0
  O  O75  1  0.77434000  0.62606000  0.43418000  1.0
