# generated using pymatgen
data_HgH18(C11N4)2
_symmetry_space_group_name_H-M   'P 1'
_cell_length_a   10.30830000
_cell_length_b   11.33130000
_cell_length_c   12.88600000
_cell_angle_alpha   90.00030000
_cell_angle_beta   90.00060000
_cell_angle_gamma   89.56550000
_symmetry_Int_Tables_number   1
_chemical_formula_structural   HgH18(C11N4)2
_chemical_formula_sum   'Hg2 H36 C44 N16'
_cell_volume   1505.12450304
_cell_formula_units_Z   2
loop_
 _symmetry_equiv_pos_site_id
 _symmetry_equiv_pos_as_xyz
  1  'x, y, z'
loop_
 _atom_site_type_symbol
 _atom_site_label
 _atom_site_symmetry_multiplicity
 _atom_site_fract_x
 _atom_site_fract_y
 _atom_site_fract_z
 _atom_site_occupancy
  Hg  Hg0  1  0.99999000  0.00000000  0.50001000  1.0
  Hg  Hg1  1  0.49999000  0.00000000  0.00000000  1.0
  H  H2  1  0.26669000  0.11924000  0.82790000  1.0
  H  H3  1  0.23331000  0.88077000  0.32790000  1.0
  H  H4  1  0.73333000  0.88076000  0.17210000  1.0
  H  H5  1  0.76669000  0.11923000  0.67211000  1.0
  H  H6  1  0.12997000  0.07622000  0.67319000  1.0
  H  H7  1  0.37004000  0.92380000  0.17319000  1.0
  H  H8  1  0.87004000  0.92378000  0.32681000  1.0
  H  H9  1  0.62997000  0.07621000  0.82682000  1.0
  H  H10  1  0.32481000  0.73553000  0.65707000  1.0
  H  H11  1  0.17517000  0.26448000  0.15706000  1.0
  H  H12  1  0.67518000  0.26446000  0.34293000  1.0
  H  H13  1  0.82482000  0.73553000  0.84294000  1.0
  H  H14  1  0.44893000  0.79241000  0.80965000  1.0
  H  H15  1  0.05107000  0.20758000  0.30963000  1.0
  H  H16  1  0.55106000  0.20757000  0.19034000  1.0
  H  H17  1  0.94893000  0.79242000  0.69037000  1.0
  H  H18  1  0.17466000  0.69522000  0.55930000  1.0
  H  H19  1  0.32535000  0.30480000  0.05929000  1.0
  H  H20  1  0.82534000  0.30479000  0.44069000  1.0
  H  H21  1  0.67466000  0.69520000  0.94070000  1.0
  H  H22  1  0.80310000  0.48457000  0.26811000  1.0
  H  H23  1  0.69690000  0.51543000  0.76811000  1.0
  H  H24  1  0.19690000  0.51543000  0.73188000  1.0
  H  H25  1  0.30310000  0.48456000  0.23189000  1.0
  H  H26  1  0.83193000  0.68281000  0.34810000  1.0
  H  H27  1  0.66807000  0.31719000  0.84809000  1.0
  H  H28  1  0.16807000  0.31719000  0.65190000  1.0
  H  H29  1  0.33193000  0.68280000  0.15191000  1.0
  H  H30  1  0.21897000  0.57058000  0.43525000  1.0
  H  H31  1  0.28105000  0.42943000  0.93525000  1.0
  H  H32  1  0.78103000  0.42943000  0.56475000  1.0
  H  H33  1  0.71896000  0.57058000  0.06476000  1.0
  H  H34  1  0.17141000  0.37722000  0.35665000  1.0
  H  H35  1  0.32861000  0.62278000  0.85665000  1.0
  H  H36  1  0.82860000  0.62278000  0.64335000  1.0
  H  H37  1  0.67141000  0.37723000  0.14337000  1.0
  C  C38  1  0.27532000  0.03451000  0.78790000  1.0
  C  C39  1  0.22468000  0.96549000  0.28790000  1.0
  C  C40  1  0.72469000  0.96548000  0.21209000  1.0
  C  C41  1  0.77531000  0.03451000  0.71210000  1.0
  C  C42  1  0.20007000  0.01078000  0.70118000  1.0
  C  C43  1  0.29993000  0.98923000  0.20117000  1.0
  C  C44  1  0.79993000  0.98921000  0.29882000  1.0
  C  C45  1  0.70007000  0.01078000  0.79883000  1.0
  C  C46  1  0.21264000  0.90067000  0.65089000  1.0
  C  C47  1  0.28736000  0.09934000  0.15088000  1.0
  C  C48  1  0.78735000  0.09932000  0.34911000  1.0
  C  C49  1  0.71264000  0.90067000  0.84912000  1.0
  C  C50  1  0.30545000  0.82130000  0.69196000  1.0
  C  C51  1  0.19454000  0.17871000  0.19196000  1.0
  C  C52  1  0.69453000  0.17868000  0.30803000  1.0
  C  C53  1  0.80545000  0.82130000  0.80805000  1.0
  C  C54  1  0.37608000  0.85359000  0.77895000  1.0
  C  C55  1  0.12393000  0.14641000  0.27894000  1.0
  C  C56  1  0.62392000  0.14640000  0.22104000  1.0
  C  C57  1  0.87607000  0.85359000  0.72106000  1.0
  C  C58  1  0.12144000  0.76903000  0.52370000  1.0
  C  C59  1  0.37856000  0.23097000  0.02370000  1.0
  C  C60  1  0.87856000  0.23097000  0.47630000  1.0
  C  C61  1  0.62143000  0.76902000  0.97631000  1.0
  C  C62  1  0.89430000  0.50623000  0.30668000  1.0
  C  C63  1  0.60571000  0.49377000  0.80668000  1.0
  C  C64  1  0.10570000  0.49377000  0.69331000  1.0
  C  C65  1  0.39431000  0.50623000  0.19333000  1.0
  C  C66  1  0.90996000  0.61723000  0.35077000  1.0
  C  C67  1  0.59005000  0.38277000  0.85076000  1.0
  C  C68  1  0.09004000  0.38277000  0.64922000  1.0
  C  C69  1  0.40995000  0.61722000  0.14924000  1.0
  C  C70  1  0.02709000  0.64440000  0.40166000  1.0
  C  C71  1  0.47291000  0.35559000  0.90166000  1.0
  C  C72  1  0.97290000  0.35561000  0.59834000  1.0
  C  C73  1  0.52709000  0.64440000  0.09834000  1.0
  C  C74  1  0.12384000  0.55555000  0.40091000  1.0
  C  C75  1  0.37617000  0.44445000  0.90091000  1.0
  C  C76  1  0.87615000  0.44446000  0.59909000  1.0
  C  C77  1  0.62385000  0.55555000  0.09910000  1.0
  C  C78  1  0.09757000  0.44713000  0.35534000  1.0
  C  C79  1  0.40244000  0.55288000  0.85533000  1.0
  C  C80  1  0.90243000  0.55287000  0.64467000  1.0
  C  C81  1  0.59758000  0.44713000  0.14467000  1.0
  N  N82  1  0.36191000  0.95771000  0.82780000  1.0
  N  N83  1  0.13809000  0.04229000  0.32779000  1.0
  N  N84  1  0.63809000  0.04228000  0.17219000  1.0
  N  N85  1  0.86191000  0.95771000  0.67221000  1.0
  N  N86  1  0.13577000  0.87690000  0.56546000  1.0
  N  N87  1  0.36423000  0.12311000  0.06545000  1.0
  N  N88  1  0.86423000  0.12310000  0.43454000  1.0
  N  N89  1  0.63576000  0.87689000  0.93455000  1.0
  N  N90  1  0.04009000  0.75462000  0.44703000  1.0
  N  N91  1  0.45992000  0.24539000  0.94703000  1.0
  N  N92  1  0.95990000  0.24538000  0.55296000  1.0
  N  N93  1  0.54008000  0.75462000  0.05297000  1.0
  N  N94  1  0.98515000  0.42015000  0.30839000  1.0
  N  N95  1  0.51486000  0.57985000  0.80840000  1.0
  N  N96  1  0.01485000  0.57985000  0.69161000  1.0
  N  N97  1  0.48516000  0.42015000  0.19162000  1.0
