# generated using pymatgen
data_CdH14C13(NCl)2
_symmetry_space_group_name_H-M   'P 1'
_cell_length_a   4.24425000
_cell_length_b   11.93510000
_cell_length_c   13.55080000
_cell_angle_alpha   108.24800000
_cell_angle_beta   89.99990000
_cell_angle_gamma   89.99930000
_symmetry_Int_Tables_number   1
_chemical_formula_structural   CdH14C13(NCl)2
_chemical_formula_sum   'Cd2 H28 C26 N4 Cl4'
_cell_volume   651.90301851
_cell_formula_units_Z   2
loop_
 _symmetry_equiv_pos_site_id
 _symmetry_equiv_pos_as_xyz
  1  'x, y, z'
loop_
 _atom_site_type_symbol
 _atom_site_label
 _atom_site_symmetry_multiplicity
 _atom_site_fract_x
 _atom_site_fract_y
 _atom_site_fract_z
 _atom_site_occupancy
  Cd  Cd0  1  0.04968000  0.25000000  0.50000000  1.0
  Cd  Cd1  1  0.95032000  0.75000000  0.50000000  1.0
  H  H2  1  0.28848000  0.11497000  0.61623000  1.0
  H  H3  1  0.28847000  0.38503000  0.38377000  1.0
  H  H4  1  0.71152000  0.88504000  0.38377000  1.0
  H  H5  1  0.71154000  0.61496000  0.61623000  1.0
  H  H6  1  0.40026000  0.25517000  0.66518000  1.0
  H  H7  1  0.40025000  0.24483000  0.33482000  1.0
  H  H8  1  0.59974000  0.74483000  0.33482000  1.0
  H  H9  1  0.59975000  0.75517000  0.66518000  1.0
  H  H10  1  0.05166000  0.40393000  0.79124000  1.0
  H  H11  1  0.05164000  0.09607000  0.20876000  1.0
  H  H12  1  0.94832000  0.59607000  0.20876000  1.0
  H  H13  1  0.94835000  0.90393000  0.79124000  1.0
  H  H14  1  0.70938000  0.42458000  0.94376000  1.0
  H  H15  1  0.70938000  0.07543000  0.05623000  1.0
  H  H16  1  0.29059000  0.57542000  0.05623000  1.0
  H  H17  1  0.29061000  0.92458000  0.94376000  1.0
  H  H18  1  0.54405000  0.05019000  0.83989000  1.0
  H  H19  1  0.54404000  0.44982000  0.16011000  1.0
  H  H20  1  0.45597000  0.94981000  0.16011000  1.0
  H  H21  1  0.45596000  0.55018000  0.83989000  1.0
  H  H22  1  0.89765000  0.02898000  0.68935000  1.0
  H  H23  1  0.89764000  0.47102000  0.31065000  1.0
  H  H24  1  0.10236000  0.97102000  0.31065000  1.0
  H  H25  1  0.10237000  0.52898000  0.68935000  1.0
  H  H26  1  0.25382000  0.32719000  0.01517000  1.0
  H  H27  1  0.25383000  0.17283000  0.98483000  1.0
  H  H28  1  0.74617000  0.67281000  0.98483000  1.0
  H  H29  1  0.74618000  0.82717000  0.01517000  1.0
  C  C30  1  0.00303000  0.21423000  0.73183000  1.0
  C  C31  1  0.00301000  0.28577000  0.26817000  1.0
  C  C32  1  0.99698000  0.78577000  0.26817000  1.0
  C  C33  1  0.99699000  0.71423000  0.73183000  1.0
  C  C34  1  0.94315000  0.32606000  0.80245000  1.0
  C  C35  1  0.94314000  0.17395000  0.19755000  1.0
  C  C36  1  0.05684000  0.67395000  0.19755000  1.0
  C  C37  1  0.05686000  0.82605000  0.80245000  1.0
  C  C38  1  0.74896000  0.33714000  0.88801000  1.0
  C  C39  1  0.74895000  0.16286000  0.11199000  1.0
  C  C40  1  0.25103000  0.66286000  0.11199000  1.0
  C  C41  1  0.25106000  0.83713000  0.88800000  1.0
  C  C42  1  0.60710000  0.23844000  0.90460000  1.0
  C  C43  1  0.60710000  0.26157000  0.09540000  1.0
  C  C44  1  0.39289000  0.76156000  0.09540000  1.0
  C  C45  1  0.39291000  0.73843000  0.90460000  1.0
  C  C46  1  0.66059000  0.12809000  0.83112000  1.0
  C  C47  1  0.66058000  0.37192000  0.16888000  1.0
  C  C48  1  0.33942000  0.87191000  0.16888000  1.0
  C  C49  1  0.33942000  0.62808000  0.83112000  1.0
  C  C50  1  0.85649000  0.11550000  0.74572000  1.0
  C  C51  1  0.85648000  0.38450000  0.25428000  1.0
  C  C52  1  0.14352000  0.88450000  0.25427000  1.0
  C  C53  1  0.14353000  0.61550000  0.74572000  1.0
  C  C54  1  0.40902000  0.25001000  0.00000000  1.0
  C  C55  1  0.59098000  0.74999000  0.00000000  1.0
  N  N56  1  0.20850000  0.20041000  0.64546000  1.0
  N  N57  1  0.20849000  0.29959000  0.35454000  1.0
  N  N58  1  0.79150000  0.79960000  0.35454000  1.0
  N  N59  1  0.79151000  0.70040000  0.64546000  1.0
  Cl  Cl60  1  0.61416000  0.09781000  0.42259000  1.0
  Cl  Cl61  1  0.61416000  0.40219000  0.57741000  1.0
  Cl  Cl62  1  0.38584000  0.90219000  0.57741000  1.0
  Cl  Cl63  1  0.38584000  0.59781000  0.42259000  1.0
