# generated using pymatgen
data_Zr3H11C39O16
_symmetry_space_group_name_H-M   'P 1'
_cell_length_a   16.82650000
_cell_length_b   16.82570000
_cell_length_c   16.83190000
_cell_angle_alpha   92.71360000
_cell_angle_beta   92.68640000
_cell_angle_gamma   92.70580000
_symmetry_Int_Tables_number   1
_chemical_formula_structural   Zr3H11C39O16
_chemical_formula_sum   'Zr6 H22 C78 O32'
_cell_volume   4748.99559849
_cell_formula_units_Z   2
loop_
 _symmetry_equiv_pos_site_id
 _symmetry_equiv_pos_as_xyz
  1  'x, y, z'
loop_
 _atom_site_type_symbol
 _atom_site_label
 _atom_site_symmetry_multiplicity
 _atom_site_fract_x
 _atom_site_fract_y
 _atom_site_fract_z
 _atom_site_occupancy
  Zr  Zr0  1  0.84300000  0.80184000  0.95755000  1.0
  Zr  Zr1  1  0.00708000  0.75113000  0.84471000  1.0
  Zr  Zr2  1  0.92622000  0.99836000  0.99075000  1.0
  Zr  Zr3  1  0.89385000  0.91473000  0.79368000  1.0
  Zr  Zr4  1  0.04004000  0.83480000  0.04102000  1.0
  Zr  Zr5  1  0.09013000  0.94845000  0.87742000  1.0
  H  H6  1  0.49605000  0.95414000  0.07914000  1.0
  H  H7  1  0.35027000  0.90105000  0.27593000  1.0
  H  H8  1  0.60691000  0.91097000  0.30857000  1.0
  H  H9  1  0.32794000  0.84224000  0.52269000  1.0
  H  H10  1  0.58376000  0.85849000  0.56376000  1.0
  H  H11  1  0.43249000  0.80511000  0.75633000  1.0
  H  H12  1  0.00231000  0.26555000  0.55822000  1.0
  H  H13  1  0.99189000  0.23340000  0.30161000  1.0
  H  H14  1  0.04553000  0.03626000  0.44669000  1.0
  H  H15  1  0.93277000  0.47950000  0.27841000  1.0
  H  H16  1  0.95068000  0.52137000  0.53408000  1.0
  H  H17  1  0.89783000  0.71393000  0.38265000  1.0
  H  H18  1  0.35798000  0.51533000  0.95321000  1.0
  H  H19  1  0.32546000  0.25867000  0.94292000  1.0
  H  H20  1  0.12857000  0.40419000  0.99651000  1.0
  H  H21  1  0.80602000  0.33996000  0.84794000  1.0
  H  H22  1  0.61384000  0.49182000  0.90138000  1.0
  H  H23  1  0.57151000  0.23611000  0.88325000  1.0
  H  H24  1  0.84401000  0.75161000  0.79443000  1.0
  H  H25  1  0.89715000  0.88183000  0.10491000  1.0
  H  H26  1  0.97340000  0.06240000  0.84812000  1.0
  H  H27  1  0.15434000  0.80575000  0.92462000  1.0
  C  C28  1  0.56004000  0.93415000  0.19036000  1.0
  C  C29  1  0.49094000  0.94110000  0.14147000  1.0
  C  C30  1  0.41543000  0.92928000  0.17217000  1.0
  C  C31  1  0.40891000  0.91108000  0.25246000  1.0
  C  C32  1  0.47784000  0.90493000  0.30217000  1.0
  C  C33  1  0.55347000  0.91664000  0.27063000  1.0
  C  C34  1  0.37144000  0.82178000  0.64265000  1.0
  C  C35  1  0.38034000  0.83839000  0.56248000  1.0
  C  C36  1  0.45688000  0.85150000  0.53336000  1.0
  C  C37  1  0.52445000  0.84757000  0.58542000  1.0
  C  C38  1  0.51568000  0.83041000  0.66573000  1.0
  C  C39  1  0.43926000  0.81734000  0.69402000  1.0
  C  C40  1  0.02579000  0.14746000  0.51101000  1.0
  C  C41  1  0.00795000  0.22772000  0.50466000  1.0
  C  C42  1  0.99598000  0.25936000  0.42914000  1.0
  C  C43  1  0.00202000  0.20972000  0.36012000  1.0
  C  C44  1  0.02037000  0.12943000  0.36640000  1.0
  C  C45  1  0.03251000  0.09863000  0.44179000  1.0
  C  C46  1  0.91335000  0.59984000  0.32181000  1.0
  C  C47  1  0.92947000  0.51952000  0.33078000  1.0
  C  C48  1  0.94288000  0.49062000  0.40735000  1.0
  C  C49  1  0.93962000  0.54295000  0.47481000  1.0
  C  C50  1  0.92298000  0.62339000  0.46601000  1.0
  C  C51  1  0.90963000  0.65150000  0.38958000  1.0
  C  C52  1  0.23978000  0.46836000  0.97661000  1.0
  C  C53  1  0.32004000  0.46186000  0.95887000  1.0
  C  C54  1  0.35158000  0.38623000  0.94694000  1.0
  C  C55  1  0.30187000  0.31724000  0.95298000  1.0
  C  C56  1  0.22158000  0.32370000  0.97127000  1.0
  C  C57  1  0.19090000  0.39919000  0.98339000  1.0
  C  C58  1  0.69187000  0.27929000  0.86360000  1.0
  C  C59  1  0.74362000  0.34696000  0.85983000  1.0
  C  C60  1  0.71560000  0.42345000  0.87326000  1.0
  C  C61  1  0.63524000  0.43245000  0.89019000  1.0
  C  C62  1  0.58281000  0.36504000  0.89348000  1.0
  C  C63  1  0.61161000  0.28842000  0.87988000  1.0
  C  C64  1  0.75809000  0.93359000  0.06284000  1.0
  C  C65  1  0.85783000  0.62558000  0.88179000  1.0
  C  C66  1  0.71771000  0.83844000  0.80798000  1.0
  C  C67  1  0.91049000  0.72249000  0.12107000  1.0
  C  C68  1  0.17045000  0.81913000  0.76517000  1.0
  C  C69  1  0.07963000  0.12158000  0.96230000  1.0
  C  C70  1  0.93158000  0.76539000  0.66833000  1.0
  C  C71  1  0.11233000  0.66650000  0.97671000  1.0
  C  C72  1  0.01126000  0.98833000  0.16380000  1.0
  C  C73  1  0.81381000  0.07803000  0.86110000  1.0
  C  C74  1  0.02580000  0.02029000  0.70916000  1.0
  C  C75  1  0.21303000  0.92010000  0.03089000  1.0
  C  C76  1  0.72502000  0.20357000  0.85449000  1.0
  C  C77  1  0.76150000  0.14279000  0.85096000  1.0
  C  C78  1  0.76917000  0.49099000  0.87195000  1.0
  C  C79  1  0.81537000  0.54905000  0.87266000  1.0
  C  C80  1  0.12410000  0.19675000  0.97485000  1.0
  C  C81  1  0.16997000  0.25496000  0.97452000  1.0
  C  C82  1  0.20339000  0.54252000  0.98447000  1.0
  C  C83  1  0.16392000  0.60132000  0.98757000  1.0
  C  C84  1  0.43250000  0.37961000  0.92802000  1.0
  C  C85  1  0.50195000  0.37354000  0.91169000  1.0
  C  C86  1  0.90422000  0.63326000  0.24627000  1.0
  C  C87  1  0.90052000  0.67014000  0.18578000  1.0
  C  C88  1  0.92186000  0.67688000  0.53365000  1.0
  C  C89  1  0.92274000  0.72296000  0.59180000  1.0
  C  C90  1  0.02383000  0.03266000  0.23897000  1.0
  C  C91  1  0.02361000  0.07810000  0.29750000  1.0
  C  C92  1  0.03669000  0.07184000  0.64403000  1.0
  C  C93  1  0.03367000  0.11112000  0.58514000  1.0
  C  C94  1  0.96080000  0.40971000  0.41591000  1.0
  C  C95  1  0.97702000  0.34029000  0.42246000  1.0
  C  C96  1  0.29587000  0.81293000  0.67612000  1.0
  C  C97  1  0.23521000  0.80929000  0.71277000  1.0
  C  C98  1  0.64128000  0.82919000  0.76537000  1.0
  C  C99  1  0.58332000  0.82866000  0.71910000  1.0
  C  C100  1  0.34665000  0.93266000  0.12072000  1.0
  C  C101  1  0.28817000  0.93290000  0.07524000  1.0
  C  C102  1  0.63426000  0.94162000  0.15407000  1.0
  C  C103  1  0.69309000  0.94435000  0.11465000  1.0
  C  C104  1  0.46518000  0.86986000  0.45254000  1.0
  C  C105  1  0.47115000  0.88610000  0.38308000  1.0
  O  O106  1  0.80830000  0.99097000  0.05467000  1.0
  O  O107  1  0.92492000  0.63703000  0.85146000  1.0
  O  O108  1  0.72901000  0.80820000  0.87510000  1.0
  O  O109  1  0.85275000  0.73154000  0.07164000  1.0
  O  O110  1  0.98015000  0.75720000  0.12206000  1.0
  O  O111  1  0.76964000  0.87801000  0.77000000  1.0
  O  O112  1  0.81977000  0.67747000  0.92135000  1.0
  O  O113  1  0.75820000  0.86333000  0.02964000  1.0
  O  O114  1  0.96276000  0.77663000  0.95512000  1.0
  O  O115  1  0.86837000  0.91228000  0.91334000  1.0
  O  O116  1  0.87892000  0.78662000  0.82942000  1.0
  O  O117  1  0.91596000  0.87992000  0.05128000  1.0
  O  O118  1  0.12115000  0.76126000  0.77428000  1.0
  O  O119  1  0.01194000  0.11069000  0.99162000  1.0
  O  O120  1  0.90108000  0.83241000  0.67969000  1.0
  O  O121  1  0.10415000  0.71680000  0.03400000  1.0
  O  O122  1  0.04079000  0.92073000  0.15289000  1.0
  O  O123  1  0.82299000  0.02852000  0.80343000  1.0
  O  O124  1  0.08302000  0.01239000  0.75956000  1.0
  O  O125  1  0.20211000  0.94954000  0.96329000  1.0
  O  O126  1  0.95555000  0.98706000  0.70921000  1.0
  O  O127  1  0.16263000  0.87635000  0.06649000  1.0
  O  O128  1  0.97100000  0.72741000  0.72032000  1.0
  O  O129  1  0.84844000  0.07916000  0.93078000  1.0
  O  O130  1  0.96763000  0.02393000  0.11334000  1.0
  O  O131  1  0.07937000  0.66666667  0.90640000  1.0
  O  O132  1  0.17139000  0.88876000  0.79997000  1.0
  O  O133  1  0.11536000  0.07104000  0.91879000  1.0
  O  O134  1  0.03156000  0.94001000  0.98254000  1.0
  O  O135  1  0.00439000  0.87085000  0.81936000  1.0
  O  O136  1  0.97152000  0.00874000  0.86686000  1.0
  O  O137  1  0.10066000  0.82444000  0.92267000  1.0
