# generated using pymatgen
data_Ni2H60W(C8N5)4
_symmetry_space_group_name_H-M   'P 1'
_cell_length_a   15.48671113
_cell_length_b   15.48590000
_cell_length_c   15.48810000
_cell_angle_alpha   105.72400000
_cell_angle_beta   105.70778523
_cell_angle_gamma   117.26034262
_symmetry_Int_Tables_number   1
_chemical_formula_structural   Ni2H60W(C8N5)4
_chemical_formula_sum   'Ni4 H120 W2 C64 N40'
_cell_volume   2819.68833322
_cell_formula_units_Z   2
loop_
 _symmetry_equiv_pos_site_id
 _symmetry_equiv_pos_as_xyz
  1  'x, y, z'
loop_
 _atom_site_type_symbol
 _atom_site_label
 _atom_site_symmetry_multiplicity
 _atom_site_fract_x
 _atom_site_fract_y
 _atom_site_fract_z
 _atom_site_occupancy
  Ni  Ni0  1  0.50000000  0.50000000  0.00000000  1.0
  Ni  Ni1  1  0.50000000  0.50000000  0.50000000  1.0
  Ni  Ni2  1  0.00001000  0.50001000  0.50001000  1.0
  Ni  Ni3  1  0.50000000  0.00000000  0.00000000  1.0
  H  H4  1  0.45832000  0.61149000  0.17001000  1.0
  H  H5  1  0.28833000  0.45838000  0.34689000  1.0
  H  H6  1  0.94144000  0.28827000  0.32997000  1.0
  H  H7  1  0.61159000  0.94168000  0.15322000  1.0
  H  H8  1  0.54168000  0.38851000  0.82999000  1.0
  H  H9  1  0.71167000  0.54162000  0.65311000  1.0
  H  H10  1  0.05856000  0.71173000  0.67003000  1.0
  H  H11  1  0.38840000  0.05832000  0.84678000  1.0
  H  H12  1  0.37873000  0.64911000  0.10413000  1.0
  H  H13  1  0.27469000  0.37879000  0.22971000  1.0
  H  H14  1  0.04493000  0.27456000  0.39583000  1.0
  H  H15  1  0.64904000  0.04516000  0.27037000  1.0
  H  H16  1  0.62127000  0.35089000  0.89588000  1.0
  H  H17  1  0.72531000  0.62121000  0.77029000  1.0
  H  H18  1  0.95507000  0.72544000  0.60417000  1.0
  H  H19  1  0.35095000  0.95483000  0.72962000  1.0
  H  H20  1  0.33263000  0.41777000  0.08530000  1.0
  H  H21  1  0.24738000  0.33269000  0.41494000  1.0
  H  H22  1  0.83246000  0.24738000  0.41474000  1.0
  H  H23  1  0.41789000  0.83254000  0.08518000  1.0
  H  H24  1  0.66737000  0.58224000  0.91470000  1.0
  H  H25  1  0.75262000  0.66731000  0.58506000  1.0
  H  H26  1  0.16754000  0.75262000  0.58525000  1.0
  H  H27  1  0.58210000  0.16745000  0.91481000  1.0
  H  H28  1  0.22666000  0.42956000  0.01955000  1.0
  H  H29  1  0.20715000  0.22669000  0.29718000  1.0
  H  H30  1  0.90996000  0.20708000  0.48045000  1.0
  H  H31  1  0.42959000  0.91007000  0.20292000  1.0
  H  H32  1  0.77334000  0.57044000  0.98045000  1.0
  H  H33  1  0.79285000  0.77331000  0.70283000  1.0
  H  H34  1  0.09004000  0.79292000  0.51955000  1.0
  H  H35  1  0.57041000  0.08993000  0.79709000  1.0
  H  H36  1  0.25221000  0.18516000  0.87331000  1.0
  H  H37  1  0.37890000  0.25217000  0.56701000  1.0
  H  H38  1  0.81193000  0.37896000  0.62679000  1.0
  H  H39  1  0.18519000  0.81172000  0.93299000  1.0
  H  H40  1  0.74779000  0.81484000  0.12669000  1.0
  H  H41  1  0.62110000  0.74783000  0.43299000  1.0
  H  H42  1  0.18807000  0.62104000  0.37321000  1.0
  H  H43  1  0.81481000  0.18828000  0.06701000  1.0
  H  H44  1  0.34547000  0.28034000  0.00310000  1.0
  H  H45  1  0.34240000  0.34549000  0.56513000  1.0
  H  H46  1  0.77732000  0.34247000  0.49700000  1.0
  H  H47  1  0.28042000  0.77710000  0.93496000  1.0
  H  H48  1  0.65453000  0.71966000  0.99690000  1.0
  H  H49  1  0.65760000  0.65451000  0.43486000  1.0
  H  H50  1  0.22268000  0.65753000  0.50300000  1.0
  H  H51  1  0.71958000  0.22290000  0.06504000  1.0
  H  H52  1  0.57702000  0.78718000  0.16616000  1.0
  H  H53  1  0.41093000  0.57713000  0.28996000  1.0
  H  H54  1  0.12091000  0.41078000  0.33373000  1.0
  H  H55  1  0.78716000  0.12129000  0.21016000  1.0
  H  H56  1  0.42298000  0.21282000  0.83384000  1.0
  H  H57  1  0.58908000  0.42288000  0.71005000  1.0
  H  H58  1  0.87909000  0.58921000  0.66627000  1.0
  H  H59  1  0.21283000  0.87871000  0.78983000  1.0
  H  H60  1  0.50899000  0.71620000  0.03169000  1.0
  H  H61  1  0.47734000  0.50902000  0.29287000  1.0
  H  H62  1  0.18442000  0.47722000  0.46820000  1.0
  H  H63  1  0.71602000  0.18465000  0.20715000  1.0
  H  H64  1  0.49101000  0.28380000  0.96832000  1.0
  H  H65  1  0.52266000  0.49098000  0.70713000  1.0
  H  H66  1  0.81558000  0.52278000  0.53180000  1.0
  H  H67  1  0.28398000  0.81536000  0.79286000  1.0
  H  H68  1  0.23261000  0.35518000  0.80589000  1.0
  H  H69  1  0.42672000  0.23256000  0.37739000  1.0
  H  H70  1  0.04931000  0.42669000  0.69413000  1.0
  H  H71  1  0.35509000  0.04924000  0.12246000  1.0
  H  H72  1  0.76738000  0.64481000  0.19410000  1.0
  H  H73  1  0.57328000  0.76744000  0.62261000  1.0
  H  H74  1  0.95069000  0.57331000  0.30586000  1.0
  H  H75  1  0.64491000  0.95077000  0.87754000  1.0
  H  H76  1  0.13547000  0.34310000  0.84806000  1.0
  H  H77  1  0.28742000  0.13542000  0.29238000  1.0
  H  H78  1  0.99503000  0.28738000  0.65197000  1.0
  H  H79  1  0.34302000  0.99507000  0.20757000  1.0
  H  H80  1  0.86453000  0.65690000  0.15194000  1.0
  H  H81  1  0.71257000  0.86457000  0.70761000  1.0
  H  H82  1  0.00497000  0.71262000  0.34802000  1.0
  H  H83  1  0.65698000  0.00493000  0.79244000  1.0
  H  H84  1  0.05213000  0.18724000  0.68128000  1.0
  H  H85  1  0.37087000  0.05204000  0.36485000  1.0
  H  H86  1  0.00597000  0.37082000  0.81877000  1.0
  H  H87  1  0.18716000  0.00597000  0.13506000  1.0
  H  H88  1  0.94787000  0.81276000  0.31872000  1.0
  H  H89  1  0.62913000  0.94796000  0.63516000  1.0
  H  H90  1  0.99403000  0.62917000  0.18122000  1.0
  H  H91  1  0.81284000  0.99404000  0.86494000  1.0
  H  H92  1  0.04036000  0.13836000  0.77271000  1.0
  H  H93  1  0.26770000  0.04029000  0.40200000  1.0
  H  H94  1  0.86567000  0.26768000  0.72737000  1.0
  H  H95  1  0.13829000  0.86565000  0.09799000  1.0
  H  H96  1  0.95964000  0.86165000  0.22729000  1.0
  H  H97  1  0.73230000  0.95971000  0.59800000  1.0
  H  H98  1  0.13433000  0.73231000  0.27262000  1.0
  H  H99  1  0.86170000  0.13434000  0.90200000  1.0
  H  H100  1  0.13871000  0.14979000  0.72926000  1.0
  H  H101  1  0.40946000  0.13863000  0.48885000  1.0
  H  H102  1  0.92060000  0.40948000  0.77082000  1.0
  H  H103  1  0.14974000  0.92049000  0.01107000  1.0
  H  H104  1  0.86129000  0.85021000  0.27074000  1.0
  H  H105  1  0.59054000  0.86138000  0.51116000  1.0
  H  H106  1  0.07941000  0.59052000  0.22918000  1.0
  H  H107  1  0.85026000  0.07951000  0.98893000  1.0
  H  H108  1  0.33721000  0.52139000  0.95162000  1.0
  H  H109  1  0.38559000  0.33721000  0.31585000  1.0
  H  H110  1  0.06973000  0.38552000  0.54833000  1.0
  H  H111  1  0.52125000  0.06980000  0.18410000  1.0
  H  H112  1  0.66279000  0.47862000  0.04838000  1.0
  H  H113  1  0.61440000  0.66278000  0.68414000  1.0
  H  H114  1  0.93027000  0.61448000  0.45167000  1.0
  H  H115  1  0.47875000  0.93021000  0.81590000  1.0
  H  H116  1  0.63884000  0.67102000  0.16578000  1.0
  H  H117  1  0.47307000  0.63890000  0.46788000  1.0
  H  H118  1  0.00518000  0.47302000  0.33414000  1.0
  H  H119  1  0.67103000  0.00541000  0.03224000  1.0
  H  H120  1  0.36116000  0.32898000  0.83423000  1.0
  H  H121  1  0.52692000  0.36109000  0.53211000  1.0
  H  H122  1  0.99482000  0.52698000  0.66586000  1.0
  H  H123  1  0.32897000  0.99459000  0.96776000  1.0
  W  W124  1  0.62490000  0.37485000  0.24992000  1.0
  W  W125  1  0.37511000  0.62515000  0.75009000  1.0
  C  C126  1  0.55989000  0.43945000  0.17026000  1.0
  C  C127  1  0.38972000  0.56004000  0.62049000  1.0
  C  C128  1  0.76914000  0.38956000  0.32971000  1.0
  C  C129  1  0.43967000  0.76933000  0.87967000  1.0
  C  C130  1  0.44010000  0.56054000  0.82973000  1.0
  C  C131  1  0.61029000  0.43997000  0.37951000  1.0
  C  C132  1  0.23086000  0.61044000  0.67029000  1.0
  C  C133  1  0.56033000  0.23067000  0.12033000  1.0
  C  C134  1  0.71549000  0.41291000  0.16539000  1.0
  C  C135  1  0.55020000  0.71566000  0.80253000  1.0
  C  C136  1  0.74751000  0.54996000  0.33442000  1.0
  C  C137  1  0.41318000  0.74770000  0.69750000  1.0
  C  C138  1  0.28452000  0.58710000  0.83461000  1.0
  C  C139  1  0.44981000  0.28434000  0.19748000  1.0
  C  C140  1  0.25249000  0.45004000  0.66558000  1.0
  C  C141  1  0.58682000  0.25230000  0.30250000  1.0
  C  C142  1  0.43287000  0.62164000  0.10201000  1.0
  C  C143  1  0.33089000  0.43292000  0.31130000  1.0
  C  C144  1  0.01957000  0.33081000  0.39794000  1.0
  C  C145  1  0.62163000  0.01978000  0.18878000  1.0
  C  C146  1  0.56713000  0.37836000  0.89799000  1.0
  C  C147  1  0.66911000  0.56707000  0.68870000  1.0
  C  C148  1  0.98043000  0.66919000  0.60206000  1.0
  C  C149  1  0.37837000  0.98022000  0.81122000  1.0
  C  C150  1  0.29193000  0.41929000  0.01612000  1.0
  C  C151  1  0.27584000  0.29196000  0.37270000  1.0
  C  C152  1  0.90315000  0.27581000  0.48390000  1.0
  C  C153  1  0.41931000  0.90321000  0.12738000  1.0
  C  C154  1  0.70807000  0.58071000  0.98388000  1.0
  C  C155  1  0.72416000  0.70804000  0.62730000  1.0
  C  C156  1  0.09685000  0.72419000  0.51610000  1.0
  C  C157  1  0.58069000  0.09680000  0.87263000  1.0
  C  C158  1  0.30663000  0.27292000  0.92828000  1.0
  C  C159  1  0.37836000  0.30662000  0.53369000  1.0
  C  C160  1  0.84471000  0.37840000  0.57181000  1.0
  C  C161  1  0.27294000  0.84450000  0.96631000  1.0
  C  C162  1  0.69337000  0.72708000  0.07172000  1.0
  C  C163  1  0.62165000  0.69339000  0.46631000  1.0
  C  C164  1  0.15529000  0.62159000  0.42819000  1.0
  C  C165  1  0.72706000  0.15550000  0.03369000  1.0
  C  C166  1  0.53397000  0.70675000  0.10016000  1.0
  C  C167  1  0.43385000  0.53403000  0.32730000  1.0
  C  C168  1  0.10650000  0.43374000  0.39973000  1.0
  C  C169  1  0.70669000  0.10677000  0.17277000  1.0
  C  C170  1  0.46603000  0.29325000  0.89984000  1.0
  C  C171  1  0.56615000  0.46596000  0.67270000  1.0
  C  C172  1  0.89350000  0.56626000  0.60027000  1.0
  C  C173  1  0.29331000  0.89323000  0.82724000  1.0
  C  C174  1  0.17931000  0.30622000  0.83326000  1.0
  C  C175  1  0.34607000  0.17927000  0.37308000  1.0
  C  C176  1  0.97298000  0.34606000  0.66679000  1.0
  C  C177  1  0.30614000  0.97293000  0.12684000  1.0
  C  C178  1  0.82069000  0.69379000  0.16674000  1.0
  C  C179  1  0.65393000  0.82073000  0.62692000  1.0
  C  C180  1  0.02702000  0.65394000  0.33320000  1.0
  C  C181  1  0.69386000  0.02707000  0.87316000  1.0
  C  C182  1  0.09799000  0.18840000  0.74993000  1.0
  C  C183  1  0.34808000  0.09792000  0.40956000  1.0
  C  C184  1  0.93850000  0.34807000  0.75014000  1.0
  C  C185  1  0.18833000  0.93845000  0.09038000  1.0
  C  C186  1  0.90202000  0.81161000  0.25008000  1.0
  C  C187  1  0.65192000  0.90208000  0.59044000  1.0
  C  C188  1  0.06151000  0.65194000  0.24987000  1.0
  C  C189  1  0.81167000  0.06155000  0.90962000  1.0
  N  N190  1  0.52769000  0.47649000  0.12382000  1.0
  N  N191  1  0.40386000  0.52767000  0.55122000  1.0
  N  N192  1  0.85266000  0.40399000  0.37638000  1.0
  N  N193  1  0.47694000  0.85276000  0.94914000  1.0
  N  N194  1  0.47231000  0.52350000  0.87618000  1.0
  N  N195  1  0.59613000  0.47233000  0.44878000  1.0
  N  N196  1  0.14734000  0.59601000  0.62363000  1.0
  N  N197  1  0.52306000  0.14724000  0.05086000  1.0
  N  N198  1  0.76218000  0.43151000  0.11714000  1.0
  N  N199  1  0.64512000  0.76223000  0.83062000  1.0
  N  N200  1  0.81439000  0.64487000  0.38277000  1.0
  N  N201  1  0.43169000  0.81449000  0.66933000  1.0
  N  N202  1  0.23783000  0.56849000  0.88286000  1.0
  N  N203  1  0.35489000  0.23777000  0.16940000  1.0
  N  N204  1  0.18562000  0.35514000  0.61723000  1.0
  N  N205  1  0.56831000  0.18552000  0.33067000  1.0
  N  N206  1  0.37624000  0.51554000  0.01287000  1.0
  N  N207  1  0.36339000  0.37626000  0.36074000  1.0
  N  N208  1  0.00264000  0.36334000  0.48711000  1.0
  N  N209  1  0.51549000  0.00273000  0.13927000  1.0
  N  N210  1  0.62376000  0.48446000  0.98713000  1.0
  N  N211  1  0.63661000  0.62374000  0.63926000  1.0
  N  N212  1  0.99736000  0.63666000  0.51289000  1.0
  N  N213  1  0.48450000  0.99726000  0.86072000  1.0
  N  N214  1  0.24179000  0.31607000  0.93014000  1.0
  N  N215  1  0.31168000  0.24178000  0.42573000  1.0
  N  N216  1  0.88597000  0.31169000  0.56992000  1.0
  N  N217  1  0.31605000  0.88588000  0.07429000  1.0
  N  N218  1  0.75821000  0.68393000  0.06986000  1.0
  N  N219  1  0.68832000  0.75822000  0.57427000  1.0
  N  N220  1  0.11403000  0.68831000  0.43007000  1.0
  N  N221  1  0.68395000  0.11412000  0.92571000  1.0
  N  N222  1  0.60481000  0.66834000  0.09759000  1.0
  N  N223  1  0.50721000  0.60486000  0.43653000  1.0
  N  N224  1  0.07066000  0.50715000  0.40231000  1.0
  N  N225  1  0.66833000  0.07090000  0.06354000  1.0
  N  N226  1  0.39519000  0.33166000  0.90240000  1.0
  N  N227  1  0.49279000  0.39514000  0.56347000  1.0
  N  N228  1  0.92934000  0.49285000  0.59769000  1.0
  N  N229  1  0.33167000  0.92911000  0.93646000  1.0
