# generated using pymatgen
data_CuPH11(C3O2)2
_symmetry_space_group_name_H-M   'P 1'
_cell_length_a   5.86216000
_cell_length_b   5.95693000
_cell_length_c   12.28700000
_cell_angle_alpha   84.12280000
_cell_angle_beta   78.48190000
_cell_angle_gamma   77.60340000
_symmetry_Int_Tables_number   1
_chemical_formula_structural   CuPH11(C3O2)2
_chemical_formula_sum   'Cu2 P2 H22 C12 O8'
_cell_volume   409.82973795
_cell_formula_units_Z   2
loop_
 _symmetry_equiv_pos_site_id
 _symmetry_equiv_pos_as_xyz
  1  'x, y, z'
loop_
 _atom_site_type_symbol
 _atom_site_label
 _atom_site_symmetry_multiplicity
 _atom_site_fract_x
 _atom_site_fract_y
 _atom_site_fract_z
 _atom_site_occupancy
  Cu  Cu0  1  0.21777000  0.77681000  0.01267000  1.0
  Cu  Cu1  1  0.78223000  0.22320000  0.98734000  1.0
  P  P2  1  0.30492000  0.31771000  0.92156000  1.0
  P  P3  1  0.69508000  0.68230000  0.07844000  1.0
  H  H4  1  0.68036000  0.92575000  0.89001000  1.0
  H  H5  1  0.31964000  0.07426000  0.10999000  1.0
  H  H6  1  0.72324000  0.50078000  0.79257000  1.0
  H  H7  1  0.27675000  0.49924000  0.20743000  1.0
  H  H8  1  0.49713000  0.54148000  0.71287000  1.0
  H  H9  1  0.50287000  0.45852000  0.28712000  1.0
  H  H10  1  0.89109000  0.49023000  0.58830000  1.0
  H  H11  1  0.10891000  0.50976000  0.41169000  1.0
  H  H12  1  0.98745000  0.22362000  0.65929000  1.0
  H  H13  1  0.01255000  0.77638000  0.34072000  1.0
  H  H14  1  0.85936000  0.15954000  0.48419000  1.0
  H  H15  1  0.14064000  0.84043000  0.51582000  1.0
  H  H16  1  0.57513000  0.32674000  0.53077000  1.0
  H  H17  1  0.42488000  0.67324000  0.46922000  1.0
  H  H18  1  0.57119000  0.90581000  0.57272000  1.0
  H  H19  1  0.42881000  0.09417000  0.42729000  1.0
  H  H20  1  0.79939000  0.88046000  0.65052000  1.0
  H  H21  1  0.20060000  0.11953000  0.34950000  1.0
  H  H22  1  0.39906000  0.92409000  0.77583000  1.0
  H  H23  1  0.60093000  0.07592000  0.22418000  1.0
  H  H24  1  0.30006000  0.18254000  0.70160000  1.0
  H  H25  1  0.69993000  0.81746000  0.29840000  1.0
  C  C26  1  0.54661000  0.21361000  0.80250000  1.0
  C  C27  1  0.45340000  0.78640000  0.19750000  1.0
  C  C28  1  0.64732000  0.41461000  0.73725000  1.0
  C  C29  1  0.35269000  0.58539000  0.26274000  1.0
  C  C30  1  0.83075000  0.33835000  0.63368000  1.0
  C  C31  1  0.16925000  0.66164000  0.36632000  1.0
  C  C32  1  0.72826000  0.21033000  0.55932000  1.0
  C  C33  1  0.27174000  0.78965000  0.44068000  1.0
  C  C34  1  0.64593000  0.00063000  0.62458000  1.0
  C  C35  1  0.35407000  0.99936000  0.37542000  1.0
  C  C36  1  0.45928000  0.07299000  0.72748000  1.0
  C  C37  1  0.54072000  0.92702000  0.27253000  1.0
  O  O38  1  0.19988000  0.57396000  0.90044000  1.0
  O  O39  1  0.80014000  0.42606000  0.09956000  1.0
  O  O40  1  0.43155000  0.26953000  0.02501000  1.0
  O  O41  1  0.56845000  0.73049000  0.97499000  1.0
  O  O42  1  0.12269000  0.16057000  0.93253000  1.0
  O  O43  1  0.87731000  0.83945000  0.06747000  1.0
  O  O44  1  0.73874000  0.06762000  0.85194000  1.0
  O  O45  1  0.26126000  0.93240000  0.14806000  1.0
