# generated using pymatgen
data_Al3H43C60(N3O7)2
_symmetry_space_group_name_H-M   'P 1'
_cell_length_a   12.68983117
_cell_length_b   12.70190000
_cell_length_c   26.87560000
_cell_angle_alpha   89.99360000
_cell_angle_beta   89.90485852
_cell_angle_gamma   119.93521479
_symmetry_Int_Tables_number   1
_chemical_formula_structural   Al3H43C60(N3O7)2
_chemical_formula_sum   'Al6 H86 C120 N12 O28'
_cell_volume   3754.01172738
_cell_formula_units_Z   2
loop_
 _symmetry_equiv_pos_site_id
 _symmetry_equiv_pos_as_xyz
  1  'x, y, z'
loop_
 _atom_site_type_symbol
 _atom_site_label
 _atom_site_symmetry_multiplicity
 _atom_site_fract_x
 _atom_site_fract_y
 _atom_site_fract_z
 _atom_site_occupancy
  Al  Al0  1  0.23454000  0.76805000  0.74936000  1.0
  Al  Al1  1  0.47642000  0.74756000  0.74959000  1.0
  Al  Al2  1  0.23683000  0.51651000  0.74973000  1.0
  Al  Al3  1  0.46984000  0.23008000  0.24907000  1.0
  Al  Al4  1  0.73364000  0.25557000  0.25017000  1.0
  Al  Al5  1  0.72060000  0.48455000  0.24967000  1.0
  H  H6  1  0.62870000  0.64603000  0.12923000  1.0
  H  H7  1  0.13446000  0.41179000  0.88720000  1.0
  H  H8  1  0.62394000  0.62902000  0.63568000  1.0
  H  H9  1  0.27804000  0.84589000  0.88773000  1.0
  H  H10  1  0.44525000  0.26105000  0.10500000  1.0
  H  H11  1  0.03094000  0.66571000  0.36133000  1.0
  H  H12  1  0.75036000  0.17246000  0.10963000  1.0
  H  H13  1  0.33188000  0.36770000  0.36668000  1.0
  H  H14  1  0.82190000  0.57819000  0.11013000  1.0
  H  H15  1  0.62327000  0.95393000  0.36389000  1.0
  H  H16  1  0.20271000  0.74997000  0.60265000  1.0
  H  H17  1  0.84288000  0.27997000  0.38237000  1.0
  H  H18  1  0.37716000  0.34581000  0.86130000  1.0
  H  H19  1  0.55075000  0.80562000  0.60826000  1.0
  H  H20  1  0.95612000  0.61937000  0.86500000  1.0
  H  H21  1  0.24082000  0.42018000  0.61101000  1.0
  H  H22  1  0.66387000  0.04711000  0.86312000  1.0
  H  H23  1  0.39131000  0.17724000  0.01901000  1.0
  H  H24  1  0.16692000  0.80191000  0.42826000  1.0
  H  H25  1  0.83449000  0.20307000  0.02342000  1.0
  H  H26  1  0.19228000  0.34339000  0.43643000  1.0
  H  H27  1  0.80026000  0.63771000  0.02504000  1.0
  H  H28  1  0.36480000  0.97814000  0.13342000  1.0
  H  H29  1  0.62607000  0.82224000  0.43336000  1.0
  H  H30  1  0.22853000  0.83276000  0.51650000  1.0
  H  H31  1  0.36851000  0.20792000  0.92980000  1.0
  H  H32  1  0.60079000  0.77065000  0.52260000  1.0
  H  H33  1  0.84232000  0.64649000  0.93495000  1.0
  H  H34  1  0.15924000  0.35319000  0.52621000  1.0
  H  H35  1  0.80311000  0.16583000  0.93326000  1.0
  H  H36  1  0.64051000  0.80308000  0.09574000  1.0
  H  H37  1  0.83835000  0.80177000  0.09026000  1.0
  H  H38  1  0.85068000  0.94811000  0.09543000  1.0
  H  H39  1  0.71709000  0.57743000  0.38694000  1.0
  H  H40  1  0.86588000  0.89360000  0.03643000  1.0
  H  H41  1  0.79873000  0.15771000  0.42793000  1.0
  H  H42  1  0.83090000  0.99804000  0.44499000  1.0
  H  H43  1  0.91165000  0.06924000  0.50040000  1.0
  H  H44  1  0.98144000  0.12587000  0.44145000  1.0
  H  H45  1  0.21213000  0.83283000  0.10097000  1.0
  H  H46  1  0.20638000  0.02736000  0.09402000  1.0
  H  H47  1  0.06262000  0.89149000  0.10209000  1.0
  H  H48  1  0.11002000  0.95687000  0.04189000  1.0
  H  H49  1  0.83862000  0.63941000  0.43489000  1.0
  H  H50  1  0.98604000  0.36073000  0.13503000  1.0
  H  H51  1  0.86892000  0.85050000  0.44630000  1.0
  H  H52  1  0.99867000  0.83304000  0.45652000  1.0
  H  H53  1  0.91282000  0.83827000  0.50802000  1.0
  H  H54  1  0.07960000  0.31444000  0.10770000  1.0
  H  H55  1  0.15896000  0.19460000  0.10152000  1.0
  H  H56  1  0.21456000  0.24682000  0.04015000  1.0
  H  H57  1  0.06047000  0.13160000  0.04933000  1.0
  H  H58  1  0.38031000  0.22816000  0.43708000  1.0
  H  H59  1  0.16949000  0.14624000  0.43232000  1.0
  H  H60  1  0.14775000  0.04009000  0.47996000  1.0
  H  H61  1  0.42502000  0.14302000  0.38361000  1.0
  H  H62  1  0.19623000  0.02364000  0.41931000  1.0
  H  H63  1  0.95614000  0.22707000  0.59531000  1.0
  H  H64  1  0.78292000  0.02972000  0.59117000  1.0
  H  H65  1  0.74285000  0.06893000  0.53335000  1.0
  H  H66  1  0.72874000  0.13549000  0.58925000  1.0
  H  H67  1  0.70366000  0.90771000  0.99088000  1.0
  H  H68  1  0.86588000  0.89475000  0.94266000  1.0
  H  H69  1  0.80704000  0.98092000  0.91344000  1.0
  H  H70  1  0.75736000  0.83012000  0.89390000  1.0
  H  H71  1  0.30236000  0.18319000  0.54099000  1.0
  H  H72  1  0.99831000  0.36708000  0.62830000  1.0
  H  H73  1  0.34470000  0.24480000  0.62724000  1.0
  H  H74  1  0.47815000  0.31180000  0.58926000  1.0
  H  H75  1  0.44616000  0.18694000  0.62867000  1.0
  H  H76  1  0.22848000  0.37920000  0.94614000  1.0
  H  H77  1  0.02451000  0.13304000  0.96634000  1.0
  H  H78  1  0.14891000  0.17571000  0.92503000  1.0
  H  H79  1  0.03137000  0.20883000  0.90962000  1.0
  H  H80  1  0.76650000  0.70955000  0.60449000  1.0
  H  H81  1  0.96241000  0.73912000  0.60068000  1.0
  H  H82  1  0.93669000  0.68069000  0.53874000  1.0
  H  H83  1  0.57019000  0.73252000  0.88405000  1.0
  H  H84  1  0.86537000  0.58042000  0.58945000  1.0
  H  H85  1  0.10210000  0.79103000  0.99466000  1.0
  H  H86  1  0.10223000  0.96155000  0.95080000  1.0
  H  H87  1  0.03635000  0.82629000  0.91396000  1.0
  H  H88  1  0.18791000  0.94250000  0.90281000  1.0
  H  H89  1  0.36708000  0.00788000  0.63085000  1.0
  H  H90  1  0.16410000  0.89628000  0.77751000  1.0
  H  H91  1  0.27185000  0.14302000  0.21816000  1.0
  C  C92  1  0.43964000  0.88937000  0.82011000  1.0
  C  C93  1  0.57463000  0.11535000  0.17835000  1.0
  C  C94  1  0.26951000  0.38764000  0.46174000  1.0
  C  C95  1  0.85295000  0.59843000  0.01017000  1.0
  C  C96  1  0.58691000  0.86146000  0.45836000  1.0
  C  C97  1  0.16817000  0.74163000  0.50234000  1.0
  C  C98  1  0.41075000  0.28545000  0.95506000  1.0
  C  C99  1  0.57222000  0.83218000  0.50770000  1.0
  C  C100  1  0.87630000  0.60326000  0.96040000  1.0
  C  C101  1  0.25117000  0.39381000  0.51137000  1.0
  C  C102  1  0.72541000  0.12674000  0.95863000  1.0
  C  C103  1  0.81653000  0.86670000  0.07201000  1.0
  C  C104  1  0.87340000  0.44300000  0.31807000  1.0
  C  C105  1  0.89435000  0.08553000  0.46195000  1.0
  C  C106  1  0.14146000  0.93879000  0.07724000  1.0
  C  C107  1  0.90680000  0.80594000  0.46967000  1.0
  C  C108  1  0.13620000  0.21592000  0.06488000  1.0
  C  C109  1  0.20475000  0.09011000  0.44791000  1.0
  C  C110  1  0.78442000  0.10386000  0.56967000  1.0
  C  C111  1  0.78339000  0.88986000  0.92643000  1.0
  C  C112  1  0.40472000  0.22530000  0.60446000  1.0
  C  C113  1  0.08675000  0.20412000  0.94045000  1.0
  C  C114  1  0.89467000  0.67249000  0.57514000  1.0
  C  C115  1  0.54684000  0.43001000  0.17530000  1.0
  C  C116  1  0.12034000  0.89454000  0.93205000  1.0
  C  C117  1  0.51518000  0.50719000  0.96759000  1.0
  C  C118  1  0.04918000  0.52135000  0.51761000  1.0
  C  C119  1  0.50388000  0.00927000  0.97157000  1.0
  C  C120  1  0.47243000  0.50906000  0.52568000  1.0
  C  C121  1  0.98513000  0.49023000  0.97305000  1.0
  C  C122  1  0.48120000  0.96161000  0.52224000  1.0
  C  C123  1  0.01197000  0.50351000  0.46714000  1.0
  C  C124  1  0.41124000  0.54567000  0.68026000  1.0
  C  C125  1  0.52298000  0.48911000  0.01929000  1.0
  C  C126  1  0.49281000  0.98812000  0.47060000  1.0
  C  C127  1  0.96002000  0.48376000  0.02480000  1.0
  C  C128  1  0.49140000  0.49834000  0.47432000  1.0
  C  C129  1  0.52218000  0.02924000  0.02352000  1.0
  C  C130  1  0.62996000  0.73050000  0.98095000  1.0
  C  C131  1  0.93749000  0.29723000  0.53084000  1.0
  C  C132  1  0.27992000  0.89798000  0.98554000  1.0
  C  C133  1  0.69691000  0.62951000  0.53857000  1.0
  C  C134  1  0.09000000  0.37110000  0.98706000  1.0
  C  C135  1  0.09946000  0.54513000  0.82022000  1.0
  C  C136  1  0.38428000  0.08862000  0.53473000  1.0
  C  C137  1  0.90312000  0.27930000  0.48078000  1.0
  C  C138  1  0.62976000  0.71231000  0.03201000  1.0
  C  C139  1  0.38619000  0.10458000  0.48353000  1.0
  C  C140  1  0.06575000  0.36381000  0.03801000  1.0
  C  C141  1  0.71535000  0.61814000  0.48789000  1.0
  C  C142  1  0.29827000  0.91189000  0.03657000  1.0
  C  C143  1  0.54112000  0.64212000  0.89854000  1.0
  C  C144  1  0.03277000  0.44070000  0.60119000  1.0
  C  C145  1  0.36824000  0.90679000  0.90241000  1.0
  C  C146  1  0.45010000  0.88099000  0.67798000  1.0
  C  C147  1  0.55100000  0.58084000  0.60888000  1.0
  C  C148  1  0.08144000  0.44950000  0.90314000  1.0
  C  C149  1  0.41612000  0.98084000  0.60544000  1.0
  C  C150  1  0.89908000  0.36921000  0.39891000  1.0
  C  C151  1  0.58416000  0.57061000  0.10317000  1.0
  C  C152  1  0.46104000  0.08952000  0.40043000  1.0
  C  C153  1  0.96715000  0.41337000  0.10811000  1.0
  C  C154  1  0.62735000  0.53769000  0.40406000  1.0
  C  C155  1  0.44000000  0.00631000  0.10729000  1.0
  C  C156  1  0.53557000  0.45245000  0.12169000  1.0
  C  C157  1  0.43813000  0.56676000  0.81812000  1.0
  C  C158  1  0.92985000  0.46979000  0.36824000  1.0
  C  C159  1  0.55822000  0.07507000  0.12574000  1.0
  C  C160  1  0.52727000  0.46999000  0.37301000  1.0
  C  C161  1  0.90614000  0.47120000  0.12696000  1.0
  C  C162  1  0.52959000  0.05646000  0.37018000  1.0
  C  C163  1  0.10051000  0.55865000  0.61975000  1.0
  C  C164  1  0.47123000  0.54146000  0.86801000  1.0
  C  C165  1  0.46412000  0.91099000  0.62426000  1.0
  C  C166  1  0.04953000  0.51750000  0.87191000  1.0
  C  C167  1  0.43228000  0.52543000  0.62767000  1.0
  C  C168  1  0.12481000  0.57816000  0.67406000  1.0
  C  C169  1  0.46849000  0.94264000  0.87090000  1.0
  C  C170  1  0.56509000  0.62740000  0.94816000  1.0
  C  C171  1  0.00666000  0.41899000  0.55028000  1.0
  C  C172  1  0.38326000  0.94042000  0.95248000  1.0
  C  C173  1  0.57439000  0.57371000  0.55825000  1.0
  C  C174  1  0.05146000  0.43503000  0.95413000  1.0
  C  C175  1  0.42859000  0.01231000  0.55499000  1.0
  C  C176  1  0.93565000  0.38278000  0.44884000  1.0
  C  C177  1  0.57725000  0.59163000  0.05223000  1.0
  C  C178  1  0.44457000  0.05988000  0.45107000  1.0
  C  C179  1  0.55565000  0.11003000  0.31945000  1.0
  C  C180  1  0.99853000  0.42079000  0.05772000  1.0
  C  C181  1  0.61271000  0.55077000  0.45521000  1.0
  C  C182  1  0.41924000  0.97927000  0.05647000  1.0
  C  C183  1  0.42910000  0.42340000  0.88575000  1.0
  C  C184  1  0.14849000  0.65869000  0.58760000  1.0
  C  C185  1  0.58659000  0.01810000  0.88822000  1.0
  C  C186  1  0.33279000  0.46103000  0.59613000  1.0
  C  C187  1  0.98066000  0.56741000  0.88999000  1.0
  C  C188  1  0.51674000  0.86228000  0.59280000  1.0
  C  C189  1  0.00533000  0.58797000  0.38574000  1.0
  C  C190  1  0.86534000  0.45189000  0.17959000  1.0
  C  C191  1  0.48121000  0.35215000  0.08971000  1.0
  C  C192  1  0.57355000  0.98252000  0.38837000  1.0
  C  C193  1  0.87183000  0.53596000  0.09525000  1.0
  C  C194  1  0.40871000  0.41972000  0.39146000  1.0
  C  C195  1  0.65930000  0.11820000  0.09427000  1.0
  C  C196  1  0.45220000  0.40470000  0.93515000  1.0
  C  C197  1  0.12442000  0.64142000  0.53639000  1.0
  C  C198  1  0.60585000  0.05312000  0.93844000  1.0
  C  C199  1  0.35135000  0.45391000  0.54504000  1.0
  C  C200  1  0.94626000  0.55294000  0.94026000  1.0
  C  C201  1  0.54980000  0.44501000  0.32099000  1.0
  C  C202  1  0.52225000  0.88334000  0.54145000  1.0
  C  C203  1  0.05038000  0.60580000  0.43464000  1.0
  C  C204  1  0.47578000  0.36891000  0.03841000  1.0
  C  C205  1  0.55122000  0.94342000  0.43820000  1.0
  C  C206  1  0.89510000  0.54030000  0.04407000  1.0
  C  C207  1  0.38953000  0.43629000  0.44163000  1.0
  C  C208  1  0.64266000  0.09816000  0.04281000  1.0
  C  C209  1  0.42306000  0.26842000  0.00439000  1.0
  C  C210  1  0.13310000  0.72453000  0.45364000  1.0
  C  C211  1  0.74299000  0.14746000  0.00862000  1.0
  N  N212  1  0.68628000  0.81713000  0.06302000  1.0
  N  N213  1  0.15772000  0.31817000  0.96749000  1.0
  N  N214  1  0.79374000  0.69651000  0.57073000  1.0
  N  N215  1  0.16261000  0.83457000  0.96646000  1.0
  N  N216  1  0.83889000  0.16215000  0.46106000  1.0
  N  N217  1  0.19426000  0.86082000  0.06815000  1.0
  N  N218  1  0.83316000  0.67371000  0.46827000  1.0
  N  N219  1  0.10298000  0.30898000  0.07228000  1.0
  N  N220  1  0.33011000  0.16924000  0.46470000  1.0
  N  N221  1  0.91017000  0.20017000  0.56270000  1.0
  N  N222  1  0.68353000  0.84794000  0.96213000  1.0
  N  N223  1  0.33256000  0.14051000  0.56466000  1.0
  O  O224  1  0.11824000  0.64240000  0.79987000  1.0
  O  O225  1  0.47364000  0.32514000  0.19188000  1.0
  O  O226  1  0.65505000  0.13110000  0.29762000  1.0
  O  O227  1  0.83503000  0.52598000  0.19840000  1.0
  O  O228  1  0.33351000  0.85710000  0.80473000  1.0
  O  O229  1  0.49320000  0.63982000  0.70248000  1.0
  O  O230  1  0.12606000  0.46766000  0.80049000  1.0
  O  O231  1  0.36442000  0.88090000  0.70178000  1.0
  O  O232  1  0.51348000  0.67102000  0.79939000  1.0
  O  O233  1  0.12020000  0.49078000  0.70034000  1.0
  O  O234  1  0.48005000  0.13775000  0.30234000  1.0
  O  O235  1  0.52682000  0.85231000  0.69668000  1.0
  O  O236  1  0.85611000  0.35933000  0.20238000  1.0
  O  O237  1  0.65200000  0.52519000  0.30106000  1.0
  O  O238  1  0.48958000  0.12319000  0.19913000  1.0
  O  O239  1  0.84621000  0.33893000  0.29979000  1.0
  O  O240  1  0.63228000  0.51590000  0.20103000  1.0
  O  O241  1  0.31687000  0.67618000  0.75002000  1.0
  O  O242  1  0.64334000  0.32483000  0.24949000  1.0
  O  O243  1  0.33737000  0.49029000  0.79828000  1.0
  O  O244  1  0.15170000  0.68132000  0.69094000  1.0
  O  O245  1  0.51901000  0.87357000  0.79641000  1.0
  O  O246  1  0.30768000  0.47047000  0.69971000  1.0
  O  O247  1  0.47273000  0.34703000  0.30063000  1.0
  O  O248  1  0.67873000  0.14602000  0.19855000  1.0
  O  O249  1  0.84845000  0.51840000  0.29726000  1.0
  O  O250  1  0.15347000  0.84685000  0.74856000  1.0
  O  O251  1  0.30991000  0.14378000  0.24938000  1.0
