# generated using pymatgen
data_AgPH20C18N4(OF)2
_symmetry_space_group_name_H-M   'P 1'
_cell_length_a   7.97409000
_cell_length_b   11.01080000
_cell_length_c   12.36940000
_cell_angle_alpha   105.25700000
_cell_angle_beta   104.95600000
_cell_angle_gamma   102.61500000
_symmetry_Int_Tables_number   1
_chemical_formula_structural   AgPH20C18N4(OF)2
_chemical_formula_sum   'Ag2 P2 H40 C36 N8 O4 F4'
_cell_volume   963.33450434
_cell_formula_units_Z   2
loop_
 _symmetry_equiv_pos_site_id
 _symmetry_equiv_pos_as_xyz
  1  'x, y, z'
loop_
 _atom_site_type_symbol
 _atom_site_label
 _atom_site_symmetry_multiplicity
 _atom_site_fract_x
 _atom_site_fract_y
 _atom_site_fract_z
 _atom_site_occupancy
  Ag  Ag0  1  0.42750000  0.24222000  0.16181000  1.0
  Ag  Ag1  1  0.57251000  0.75777000  0.83819000  1.0
  P  P2  1  0.25991000  0.89902000  0.22498000  1.0
  P  P3  1  0.74008000  0.10098000  0.77502000  1.0
  H  H4  1  0.65531000  0.51801000  0.34372000  1.0
  H  H5  1  0.34469000  0.48199000  0.65628000  1.0
  H  H6  1  0.81838000  0.52490000  0.70462000  1.0
  H  H7  1  0.18161000  0.47510000  0.29538000  1.0
  H  H8  1  0.66551000  0.27880000  0.62687000  1.0
  H  H9  1  0.33449000  0.72120000  0.37313000  1.0
  H  H10  1  0.50808000  0.16508000  0.40819000  1.0
  H  H11  1  0.49192000  0.83492000  0.59180000  1.0
  H  H12  1  0.86090000  0.74048000  0.65953000  1.0
  H  H13  1  0.13911000  0.25953000  0.34047000  1.0
  H  H14  1  0.90946000  0.92700000  0.61501000  1.0
  H  H15  1  0.09054000  0.07301000  0.38498000  1.0
  H  H16  1  0.66358000  0.89909000  0.43034000  1.0
  H  H17  1  0.33642000  0.10092000  0.56966000  1.0
  H  H18  1  0.81123000  0.87428000  0.34708000  1.0
  H  H19  1  0.18877000  0.12572000  0.65292000  1.0
  H  H20  1  0.13283000  0.87021000  0.45129000  1.0
  H  H21  1  0.86717000  0.12979000  0.54871000  1.0
  H  H22  1  0.20177000  0.89334000  0.60508000  1.0
  H  H23  1  0.79824000  0.10667000  0.39492000  1.0
  H  H24  1  0.75783000  0.34009000  0.07410000  1.0
  H  H25  1  0.24217000  0.65990000  0.92590000  1.0
  H  H26  1  0.11271000  0.09597000  0.10789000  1.0
  H  H27  1  0.88729000  0.90403000  0.89212000  1.0
  H  H28  1  0.87754000  0.94570000  0.14911000  1.0
  H  H29  1  0.12246000  0.05429000  0.85089000  1.0
  H  H30  1  0.58656000  0.00208000  0.15334000  1.0
  H  H31  1  0.41344000  0.99792000  0.84666000  1.0
  H  H32  1  0.01321000  0.39060000  0.01706000  1.0
  H  H33  1  0.98679000  0.60939000  0.98294000  1.0
  H  H34  1  0.24575000  0.49266000  0.99987000  1.0
  H  H35  1  0.75425000  0.50734000  0.00013000  1.0
  H  H36  1  0.60103000  0.48079000  0.15934000  1.0
  H  H37  1  0.39897000  0.51921000  0.84066000  1.0
  H  H38  1  0.47939000  0.59136000  0.20128000  1.0
  H  H39  1  0.52061000  0.40864000  0.79872000  1.0
  H  H40  1  0.53490000  0.69768000  0.05440000  1.0
  H  H41  1  0.46510000  0.30231000  0.94560000  1.0
  H  H42  1  0.74414000  0.70056000  0.15036000  1.0
  H  H43  1  0.25586000  0.29944000  0.84964000  1.0
  C  C44  1  0.66014000  0.46601000  0.40758000  1.0
  C  C45  1  0.33986000  0.53399000  0.59242000  1.0
  C  C46  1  0.75059000  0.53921000  0.52836000  1.0
  C  C47  1  0.24941000  0.46079000  0.47164000  1.0
  C  C48  1  0.75183000  0.47134000  0.60947000  1.0
  C  C49  1  0.24816000  0.52866000  0.39052000  1.0
  C  C50  1  0.66614000  0.33536000  0.56690000  1.0
  C  C51  1  0.33386000  0.66464000  0.43309000  1.0
  C  C52  1  0.57869000  0.27094000  0.44498000  1.0
  C  C53  1  0.42130000  0.72906000  0.55501000  1.0
  C  C54  1  0.82935000  0.68322000  0.56485000  1.0
  C  C55  1  0.17066000  0.31678000  0.43515000  1.0
  C  C56  1  0.92013000  0.88095000  0.52679000  1.0
  C  C57  1  0.07987000  0.11905000  0.47321000  1.0
  C  C58  1  0.80652000  0.92723000  0.43471000  1.0
  C  C59  1  0.19349000  0.07277000  0.56529000  1.0
  C  C60  1  0.12108000  0.92361000  0.53622000  1.0
  C  C61  1  0.87892000  0.07639000  0.46378000  1.0
  C  C62  1  0.78900000  0.25392000  0.09166000  1.0
  C  C63  1  0.21100000  0.74608000  0.90834000  1.0
  C  C64  1  0.95448000  0.23214000  0.08756000  1.0
  C  C65  1  0.04552000  0.76786000  0.91244000  1.0
  C  C66  1  0.98706000  0.11935000  0.10956000  1.0
  C  C67  1  0.01294000  0.88064000  0.89044000  1.0
  C  C68  1  0.85471000  0.03438000  0.13269000  1.0
  C  C69  1  0.14530000  0.96561000  0.86731000  1.0
  C  C70  1  0.69465000  0.06477000  0.13531000  1.0
  C  C71  1  0.30535000  0.93522000  0.86470000  1.0
  C  C72  1  0.07701000  0.32647000  0.05707000  1.0
  C  C73  1  0.92299000  0.67353000  0.94293000  1.0
  C  C74  1  0.33965000  0.43765000  0.02841000  1.0
  C  C75  1  0.66035000  0.56234000  0.97159000  1.0
  C  C76  1  0.51293000  0.53685000  0.12580000  1.0
  C  C77  1  0.48707000  0.46314000  0.87420000  1.0
  C  C78  1  0.61671000  0.63462000  0.07994000  1.0
  C  C79  1  0.38330000  0.36538000  0.92005000  1.0
  N  N80  1  0.57503000  0.33560000  0.36610000  1.0
  N  N81  1  0.42497000  0.66440000  0.63389000  1.0
  N  N82  1  0.85265000  0.73795000  0.48851000  1.0
  N  N83  1  0.14735000  0.26206000  0.51149000  1.0
  N  N84  1  0.66253000  0.17393000  0.11600000  1.0
  N  N85  1  0.33747000  0.82606000  0.88400000  1.0
  N  N86  1  0.24683000  0.34027000  0.07244000  1.0
  N  N87  1  0.75317000  0.65973000  0.92756000  1.0
  O  O88  1  0.32162000  0.01197000  0.18484000  1.0
  O  O89  1  0.67836000  0.98803000  0.81515000  1.0
  O  O90  1  0.06665000  0.82803000  0.20193000  1.0
  O  O91  1  0.93336000  0.17197000  0.79808000  1.0
  F  F92  1  0.35845000  0.79126000  0.18248000  1.0
  F  F93  1  0.64155000  0.20873000  0.81752000  1.0
  F  F94  1  0.37086000  0.94303000  0.36428000  1.0
  F  F95  1  0.62915000  0.05697000  0.63572000  1.0
