# generated using pymatgen
data_SnH13C9NO4
_symmetry_space_group_name_H-M   'P 1'
_cell_length_a   6.53793000
_cell_length_b   10.01320000
_cell_length_c   19.68800000
_cell_angle_alpha   90.00000000
_cell_angle_beta   93.33380000
_cell_angle_gamma   90.00000000
_symmetry_Int_Tables_number   1
_chemical_formula_structural   SnH13C9NO4
_chemical_formula_sum   'Sn4 H52 C36 N4 O16'
_cell_volume   1286.70554329
_cell_formula_units_Z   4
loop_
 _symmetry_equiv_pos_site_id
 _symmetry_equiv_pos_as_xyz
  1  'x, y, z'
loop_
 _atom_site_type_symbol
 _atom_site_label
 _atom_site_symmetry_multiplicity
 _atom_site_fract_x
 _atom_site_fract_y
 _atom_site_fract_z
 _atom_site_occupancy
  Sn  Sn0  1  0.43300000  0.44077000  0.72095000  1.0
  Sn  Sn1  1  0.43300000  0.05923000  0.22095000  1.0
  Sn  Sn2  1  0.56700000  0.55922000  0.27905000  1.0
  Sn  Sn3  1  0.56700000  0.94077000  0.77905000  1.0
  H  H4  1  0.37358000  0.63120000  0.62317000  1.0
  H  H5  1  0.37357000  0.86880000  0.12317000  1.0
  H  H6  1  0.62642000  0.36880000  0.37683000  1.0
  H  H7  1  0.62642000  0.13120000  0.87683000  1.0
  H  H8  1  0.18895000  0.65187000  0.68611000  1.0
  H  H9  1  0.18895000  0.84813000  0.18611000  1.0
  H  H10  1  0.81105000  0.34813000  0.31389000  1.0
  H  H11  1  0.81106000  0.15187000  0.81389000  1.0
  H  H12  1  0.15644000  0.52227000  0.62277000  1.0
  H  H13  1  0.15643000  0.97773000  0.12277000  1.0
  H  H14  1  0.84356000  0.47772000  0.37723000  1.0
  H  H15  1  0.84357000  0.02227000  0.87723000  1.0
  H  H16  1  0.83816000  0.42062000  0.76237000  1.0
  H  H17  1  0.83817000  0.07938000  0.26236000  1.0
  H  H18  1  0.16184000  0.57938000  0.23763000  1.0
  H  H19  1  0.16184000  0.92063000  0.73764000  1.0
  H  H20  1  0.81078000  0.51398000  0.68538000  1.0
  H  H21  1  0.81078000  0.98602000  0.18537000  1.0
  H  H22  1  0.18923000  0.48601000  0.31462000  1.0
  H  H23  1  0.18924000  0.01399000  0.81462000  1.0
  H  H24  1  0.79214000  0.33489000  0.68321000  1.0
  H  H25  1  0.79214000  0.16511000  0.18320000  1.0
  H  H26  1  0.20786000  0.66511000  0.31679000  1.0
  H  H27  1  0.20787000  0.83490000  0.81680000  1.0
  H  H28  1  0.38999000  0.29487000  0.83541000  1.0
  H  H29  1  0.38999000  0.20513000  0.33541000  1.0
  H  H30  1  0.61002000  0.70513000  0.16459000  1.0
  H  H31  1  0.61002000  0.79487000  0.66459000  1.0
  H  H32  1  0.17716000  0.26496000  0.77605000  1.0
  H  H33  1  0.17716000  0.23504000  0.27605000  1.0
  H  H34  1  0.82285000  0.73504000  0.22394000  1.0
  H  H35  1  0.82285000  0.76496000  0.72395000  1.0
  H  H36  1  0.18819000  0.41565000  0.82624000  1.0
  H  H37  1  0.18820000  0.08435000  0.32624000  1.0
  H  H38  1  0.81181000  0.58435000  0.17376000  1.0
  H  H39  1  0.81181000  0.91565000  0.67376000  1.0
  H  H40  1  0.48935000  0.02839000  0.57690000  1.0
  H  H41  1  0.48936000  0.47160000  0.07690000  1.0
  H  H42  1  0.51064000  0.97161000  0.42310000  1.0
  H  H43  1  0.51064000  0.52840000  0.92310000  1.0
  H  H44  1  0.28237000  0.97210000  0.62377000  1.0
  H  H45  1  0.28237000  0.52790000  0.12376000  1.0
  H  H46  1  0.71763000  0.02790000  0.37623000  1.0
  H  H47  1  0.71763000  0.47211000  0.87624000  1.0
  H  H48  1  0.06732000  0.29870000  0.41218000  1.0
  H  H49  1  0.06731000  0.20131000  0.91218000  1.0
  H  H50  1  0.93268000  0.70130000  0.58782000  1.0
  H  H51  1  0.93267000  0.79870000  0.08782000  1.0
  H  H52  1  0.75180000  0.23399000  0.49046000  1.0
  H  H53  1  0.75180000  0.26600000  0.99046000  1.0
  H  H54  1  0.24819000  0.76600000  0.50954000  1.0
  H  H55  1  0.24818000  0.73401000  0.00954000  1.0
  C  C56  1  0.26720000  0.57907000  0.65515000  1.0
  C  C57  1  0.26719000  0.92093000  0.15515000  1.0
  C  C58  1  0.73281000  0.42093000  0.34484000  1.0
  C  C59  1  0.73281000  0.07907000  0.84485000  1.0
  C  C60  1  0.75829000  0.42520000  0.71192000  1.0
  C  C61  1  0.75829000  0.07480000  0.21191000  1.0
  C  C62  1  0.24172000  0.57480000  0.28808000  1.0
  C  C63  1  0.24172000  0.92521000  0.78809000  1.0
  C  C64  1  0.27741000  0.34178000  0.79959000  1.0
  C  C65  1  0.27742000  0.15822000  0.29959000  1.0
  C  C66  1  0.72259000  0.65822000  0.20041000  1.0
  C  C67  1  0.72259000  0.84178000  0.70041000  1.0
  C  C68  1  0.40690000  0.16433000  0.65472000  1.0
  C  C69  1  0.40690000  0.33567000  0.15472000  1.0
  C  C70  1  0.59310000  0.83567000  0.34528000  1.0
  C  C71  1  0.59310000  0.66433000  0.84528000  1.0
  C  C72  1  0.34890000  0.06009000  0.60027000  1.0
  C  C73  1  0.34890000  0.43991000  0.10026000  1.0
  C  C74  1  0.65110000  0.93991000  0.39973000  1.0
  C  C75  1  0.65110000  0.56009000  0.89974000  1.0
  C  C76  1  0.26210000  0.18351000  0.49115000  1.0
  C  C77  1  0.26212000  0.31648000  0.99115000  1.0
  C  C78  1  0.73788000  0.81648000  0.50885000  1.0
  C  C79  1  0.73787000  0.68352000  0.00885000  1.0
  C  C80  1  0.06974000  0.24199000  0.45922000  1.0
  C  C81  1  0.06974000  0.25801000  0.95922000  1.0
  C  C82  1  0.93025000  0.75801000  0.54078000  1.0
  C  C83  1  0.93024000  0.74200000  0.04078000  1.0
  C  C84  1  0.91403000  0.21093000  0.49771000  1.0
  C  C85  1  0.91403000  0.28906000  0.99771000  1.0
  C  C86  1  0.08596000  0.78906000  0.50229000  1.0
  C  C87  1  0.08596000  0.71094000  0.00229000  1.0
  C  C88  1  0.99708000  0.13020000  0.55696000  1.0
  C  C89  1  0.99709000  0.36979000  0.05695000  1.0
  C  C90  1  0.00292000  0.86980000  0.44304000  1.0
  C  C91  1  0.00290000  0.63022000  0.94305000  1.0
  N  N92  1  0.20613000  0.11115000  0.54792000  1.0
  N  N93  1  0.20614000  0.38884000  0.04792000  1.0
  N  N94  1  0.79386000  0.88885000  0.45208000  1.0
  N  N95  1  0.79385000  0.61116000  0.95209000  1.0
  O  O96  1  0.35726000  0.28490000  0.64049000  1.0
  O  O97  1  0.35726000  0.21509000  0.14049000  1.0
  O  O98  1  0.64274000  0.71510000  0.35951000  1.0
  O  O99  1  0.64275000  0.78491000  0.85951000  1.0
  O  O100  1  0.50180000  0.12903000  0.70939000  1.0
  O  O101  1  0.50180000  0.37097000  0.20938000  1.0
  O  O102  1  0.49820000  0.87097000  0.29061000  1.0
  O  O103  1  0.49820000  0.62903000  0.79061000  1.0
  O  O104  1  0.43723000  0.19454000  0.47263000  1.0
  O  O105  1  0.43723000  0.30545000  0.97263000  1.0
  O  O106  1  0.56277000  0.80546000  0.52737000  1.0
  O  O107  1  0.56276000  0.69455000  0.02737000  1.0
  O  O108  1  0.90597000  0.08750000  0.60512000  1.0
  O  O109  1  0.90597000  0.41250000  0.10513000  1.0
  O  O110  1  0.09403000  0.91249000  0.39488000  1.0
  O  O111  1  0.09404000  0.58750000  0.89488000  1.0
