# generated using pymatgen
data_TbH6C4O6F
_symmetry_space_group_name_H-M   'P 1'
_cell_length_a   6.73930000
_cell_length_b   6.73932000
_cell_length_c   8.87073000
_cell_angle_alpha   108.86300000
_cell_angle_beta   108.86300000
_cell_angle_gamma   93.87050000
_symmetry_Int_Tables_number   1
_chemical_formula_structural   TbH6C4O6F
_chemical_formula_sum   'Tb2 H12 C8 O12 F2'
_cell_volume   354.06015894
_cell_formula_units_Z   2
loop_
 _symmetry_equiv_pos_site_id
 _symmetry_equiv_pos_as_xyz
  1  'x, y, z'
loop_
 _atom_site_type_symbol
 _atom_site_label
 _atom_site_symmetry_multiplicity
 _atom_site_fract_x
 _atom_site_fract_y
 _atom_site_fract_z
 _atom_site_occupancy
  Tb  Tb0  1  0.09806000  0.09807000  0.73655000  1.0
  Tb  Tb1  1  0.90194000  0.90194000  0.26345000  1.0
  H  H2  1  0.23254000  0.55152000  0.55411000  1.0
  H  H3  1  0.44847000  0.76746000  0.44589000  1.0
  H  H4  1  0.76747000  0.44848000  0.44590000  1.0
  H  H5  1  0.55152000  0.23253000  0.55411000  1.0
  H  H6  1  0.44334000  0.66056000  0.75951000  1.0
  H  H7  1  0.33945000  0.55666000  0.24048000  1.0
  H  H8  1  0.55667000  0.33944000  0.24048000  1.0
  H  H9  1  0.66056000  0.44333000  0.75952000  1.0
  H  H10  1  0.09267000  0.24782000  0.08805000  1.0
  H  H11  1  0.75217000  0.90732000  0.91197000  1.0
  H  H12  1  0.90735000  0.75216000  0.91195000  1.0
  H  H13  1  0.24784000  0.09267000  0.08804000  1.0
  C  C14  1  0.13484000  0.59426000  0.76925000  1.0
  C  C15  1  0.40574000  0.86516000  0.23074000  1.0
  C  C16  1  0.86517000  0.40574000  0.23075000  1.0
  C  C17  1  0.59426000  0.13483000  0.76925000  1.0
  C  C18  1  0.29461000  0.54160000  0.68178000  1.0
  C  C19  1  0.45840000  0.70538000  0.31822000  1.0
  C  C20  1  0.70539000  0.45841000  0.31822000  1.0
  C  C21  1  0.54159000  0.29462000  0.68178000  1.0
  O  O22  1  0.07545000  0.46371000  0.82877000  1.0
  O  O23  1  0.53629000  0.92453000  0.17123000  1.0
  O  O24  1  0.92456000  0.53630000  0.17124000  1.0
  O  O25  1  0.46370000  0.07545000  0.82876000  1.0
  O  O26  1  0.06768000  0.76864000  0.78056000  1.0
  O  O27  1  0.23138000  0.93231000  0.21944000  1.0
  O  O28  1  0.93232000  0.23136000  0.21943000  1.0
  O  O29  1  0.76862000  0.06769000  0.78057000  1.0
  O  O30  1  0.33132000  0.33133000  0.67078000  1.0
  O  O31  1  0.66868000  0.66867000  0.32922000  1.0
  O  O32  1  0.20409000  0.20408000  0.04031000  1.0
  O  O33  1  0.79589000  0.79594000  0.95969000  1.0
  F  F34  1  0.12985000  0.87015000  0.50000000  1.0
  F  F35  1  0.87014000  0.12986000  0.50000000  1.0
