# generated using pymatgen
data_CuH18C24(NO2)4
_symmetry_space_group_name_H-M   'P 1'
_cell_length_a   6.96557000
_cell_length_b   7.98551000
_cell_length_c   10.60500000
_cell_angle_alpha   99.53590000
_cell_angle_beta   105.09000000
_cell_angle_gamma   109.80300000
_symmetry_Int_Tables_number   1
_chemical_formula_structural   CuH18C24(NO2)4
_chemical_formula_sum   'Cu1 H18 C24 N4 O8'
_cell_volume   514.51691610
_cell_formula_units_Z   1
loop_
 _symmetry_equiv_pos_site_id
 _symmetry_equiv_pos_as_xyz
  1  'x, y, z'
loop_
 _atom_site_type_symbol
 _atom_site_label
 _atom_site_symmetry_multiplicity
 _atom_site_fract_x
 _atom_site_fract_y
 _atom_site_fract_z
 _atom_site_occupancy
  Cu  Cu0  1  0.00000000  0.00000000  0.00000000  1.0
  H  H1  1  0.29380000  0.37032000  0.48575000  1.0
  H  H2  1  0.70618000  0.62967000  0.51424000  1.0
  H  H3  1  0.01243000  0.56709000  0.16415000  1.0
  H  H4  1  0.98757000  0.43292000  0.83584000  1.0
  H  H5  1  0.38683000  0.66212000  0.65511000  1.0
  H  H6  1  0.61316000  0.33787000  0.34489000  1.0
  H  H7  1  0.11458000  0.86684000  0.32829000  1.0
  H  H8  1  0.88544000  0.13317000  0.67171000  1.0
  H  H9  1  0.52400000  0.92205000  0.78099000  1.0
  H  H10  1  0.47600000  0.07795000  0.21901000  1.0
  H  H11  1  0.17597000  0.10047000  0.47571000  1.0
  H  H12  1  0.82403000  0.89953000  0.52430000  1.0
  H  H13  1  0.36511000  0.37821000  0.72602000  1.0
  H  H14  1  0.63490000  0.62179000  0.27399000  1.0
  H  H15  1  0.73409000  0.24461000  0.97227000  1.0
  H  H16  1  0.26591000  0.75539000  0.02774000  1.0
  H  H17  1  0.65278000  0.42709000  0.94050000  1.0
  H  H18  1  0.34722000  0.57291000  0.05950000  1.0
  C  C19  1  0.10462000  0.26734000  0.21994000  1.0
  C  C20  1  0.89539000  0.73266000  0.78006000  1.0
  C  C21  1  0.14607000  0.44744000  0.31477000  1.0
  C  C22  1  0.85392000  0.55256000  0.68523000  1.0
  C  C23  1  0.24979000  0.47797000  0.45341000  1.0
  C  C24  1  0.75019000  0.52202000  0.54658000  1.0
  C  C25  1  0.09437000  0.58824000  0.27165000  1.0
  C  C26  1  0.90563000  0.41176000  0.72835000  1.0
  C  C27  1  0.30547000  0.64356000  0.54797000  1.0
  C  C28  1  0.69451000  0.35643000  0.45204000  1.0
  C  C29  1  0.15061000  0.75727000  0.36479000  1.0
  C  C30  1  0.84938000  0.24273000  0.63521000  1.0
  C  C31  1  0.25805000  0.78423000  0.50275000  1.0
  C  C32  1  0.74194000  0.21576000  0.49726000  1.0
  C  C33  1  0.45052000  0.00520000  0.73226000  1.0
  C  C34  1  0.54948000  0.99479000  0.26775000  1.0
  C  C35  1  0.26928000  0.10418000  0.57639000  1.0
  C  C36  1  0.73072000  0.89582000  0.42361000  1.0
  C  C37  1  0.36419000  0.24101000  0.69660000  1.0
  C  C38  1  0.63582000  0.75899000  0.30340000  1.0
  C  C39  1  0.59366000  0.27887000  0.93365000  1.0
  C  C40  1  0.40634000  0.72113000  0.06635000  1.0
  C  C41  1  0.45414000  0.23578000  0.02485000  1.0
  C  C42  1  0.54586000  0.76422000  0.97515000  1.0
  N  N43  1  0.32346000  0.95724000  0.60034000  1.0
  N  N44  1  0.67654000  0.04276000  0.39966000  1.0
  N  N45  1  0.47625000  0.17662000  0.79095000  1.0
  N  N46  1  0.52376000  0.82338000  0.20905000  1.0
  O  O47  1  0.04125000  0.25318000  0.09107000  1.0
  O  O48  1  0.95874000  0.74682000  0.90893000  1.0
  O  O49  1  0.13668000  0.14124000  0.26791000  1.0
  O  O50  1  0.86336000  0.85877000  0.73209000  1.0
  O  O51  1  0.28382000  0.08397000  0.97290000  1.0
  O  O52  1  0.71618000  0.91603000  0.02711000  1.0
  O  O53  1  0.52542000  0.34699000  0.14031000  1.0
  O  O54  1  0.47457000  0.65301000  0.85969000  1.0
