# generated using pymatgen
data_ZnH12C22(NO)4
_symmetry_space_group_name_H-M   'P 1'
_cell_length_a   9.89551000
_cell_length_b   10.89460000
_cell_length_c   10.98550000
_cell_angle_alpha   90.10420000
_cell_angle_beta   99.39550000
_cell_angle_gamma   90.79240000
_symmetry_Int_Tables_number   1
_chemical_formula_structural   ZnH12C22(NO)4
_chemical_formula_sum   'Zn2 H24 C44 N8 O8'
_cell_volume   1168.31125265
_cell_formula_units_Z   2
loop_
 _symmetry_equiv_pos_site_id
 _symmetry_equiv_pos_as_xyz
  1  'x, y, z'
loop_
 _atom_site_type_symbol
 _atom_site_label
 _atom_site_symmetry_multiplicity
 _atom_site_fract_x
 _atom_site_fract_y
 _atom_site_fract_z
 _atom_site_occupancy
  Zn  Zn0  1  0.64872000  0.50650000  0.51986000  1.0
  Zn  Zn1  1  0.35284000  0.49363000  0.48086000  1.0
  H  H2  1  0.32598000  0.61345000  0.09124000  1.0
  H  H3  1  0.27809000  0.88994000  0.39290000  1.0
  H  H4  1  0.70694000  0.34892000  0.23189000  1.0
  H  H5  1  0.66123000  0.79867000  0.71125000  1.0
  H  H6  1  0.19080000  0.53071000  0.25148000  1.0
  H  H7  1  0.05495000  0.68287000  0.11255000  1.0
  H  H8  1  0.89164000  0.83258000  0.07640000  1.0
  H  H9  1  0.74056000  0.81880000  0.14607000  1.0
  H  H10  1  0.87876000  0.91364000  0.21371000  1.0
  H  H11  1  0.66697000  0.76535000  0.33534000  1.0
  H  H12  1  0.75109000  0.74030000  0.48831000  1.0
  H  H13  1  0.80552000  0.86166000  0.39989000  1.0
  H  H14  1  0.09386000  0.42344000  0.04923000  1.0
  H  H15  1  0.03467000  0.31591000  0.93184000  1.0
  H  H16  1  0.03880000  0.47461000  0.89522000  1.0
  H  H17  1  0.06721000  0.96553000  0.62643000  1.0
  H  H18  1  0.03673000  0.11416000  0.56151000  1.0
  H  H19  1  0.05537000  0.09248000  0.72374000  1.0
  H  H20  1  0.31183000  0.70300000  0.77545000  1.0
  H  H21  1  0.20932000  0.57838000  0.80751000  1.0
  H  H22  1  0.23533000  0.70402000  0.91206000  1.0
  H  H23  1  0.28339000  0.21223000  0.30965000  1.0
  H  H24  1  0.19442000  0.06859000  0.29571000  1.0
  H  H25  1  0.19042000  0.16435000  0.42488000  1.0
  C  C26  1  0.45710000  0.73422000  0.51043000  1.0
  C  C27  1  0.50498000  0.50464000  0.26289000  1.0
  C  C28  1  0.51021000  0.26389000  0.48369000  1.0
  C  C29  1  0.50770000  0.51641000  0.73579000  1.0
  C  C30  1  0.72379000  0.38768000  0.14420000  1.0
  C  C31  1  0.68823000  0.88111000  0.66481000  1.0
  C  C32  1  0.83851000  0.35418000  0.09532000  1.0
  C  C33  1  0.81735000  0.93349000  0.69822000  1.0
  C  C34  1  0.87563000  0.41976000  0.99281000  1.0
  C  C35  1  0.86275000  0.02763000  0.62358000  1.0
  C  C36  1  0.77495000  0.49084000  0.92367000  1.0
  C  C37  1  0.76268000  0.08950000  0.54261000  1.0
  C  C38  1  0.63906000  0.50023000  0.95449000  1.0
  C  C39  1  0.61943000  0.05413000  0.52818000  1.0
  C  C40  1  0.62639000  0.46803000  0.07840000  1.0
  C  C41  1  0.59202000  0.93310000  0.56974000  1.0
  C  C42  1  0.51067000  0.51152000  0.12735000  1.0
  C  C43  1  0.46840000  0.87183000  0.51320000  1.0
  C  C44  1  0.40992000  0.57421000  0.05155000  1.0
  C  C45  1  0.36867000  0.93852000  0.44038000  1.0
  C  C46  1  0.40822000  0.58542000  0.92295000  1.0
  C  C47  1  0.37939000  0.06739000  0.42806000  1.0
  C  C48  1  0.52008000  0.54115000  0.87230000  1.0
  C  C49  1  0.50470000  0.12598000  0.47371000  1.0
  C  C50  1  0.09805000  0.57121000  0.27441000  1.0
  C  C51  1  0.02448000  0.65656000  0.20014000  1.0
  C  C52  1  0.91470000  0.72009000  0.23925000  1.0
  C  C53  1  0.86779000  0.68667000  0.34832000  1.0
  C  C54  1  0.92691000  0.58328000  0.41517000  1.0
  C  C55  1  0.05438000  0.53750000  0.38567000  1.0
  C  C56  1  0.08566000  0.42155000  0.56359000  1.0
  C  C57  1  0.94539000  0.44170000  0.57415000  1.0
  C  C58  1  0.85310000  0.82604000  0.16421000  1.0
  C  C59  1  0.76686000  0.76623000  0.39595000  1.0
  C  C60  1  0.88876000  0.36681000  0.66008000  1.0
  C  C61  1  0.92103000  0.25278000  0.14075000  1.0
  C  C62  1  0.91077000  0.89156000  0.80204000  1.0
  C  C63  1  0.01820000  0.40881000  0.96528000  1.0
  C  C64  1  0.01315000  0.05215000  0.63351000  1.0
  C  C65  1  0.81612000  0.56495000  0.82914000  1.0
  C  C66  1  0.81384000  0.17647000  0.46413000  1.0
  C  C67  1  0.28527000  0.64655000  0.85067000  1.0
  C  C68  1  0.25646000  0.13165000  0.36060000  1.0
  C  C69  1  0.16700000  0.34976000  0.65567000  1.0
  N  N70  1  0.13685000  0.46749000  0.46846000  1.0
  N  N71  1  0.87027000  0.52540000  0.50640000  1.0
  N  N72  1  0.85249000  0.29742000  0.72930000  1.0
  N  N73  1  0.98564000  0.16443000  0.16389000  1.0
  N  N74  1  0.98939000  0.86466000  0.88887000  1.0
  N  N75  1  0.86227000  0.62803000  0.75974000  1.0
  N  N76  1  0.87349000  0.23907000  0.40383000  1.0
  N  N77  1  0.22281000  0.28930000  0.73556000  1.0
  O  O78  1  0.56659000  0.67603000  0.54870000  1.0
  O  O79  1  0.61686000  0.53020000  0.33354000  1.0
  O  O80  1  0.34346000  0.68348000  0.46406000  1.0
  O  O81  1  0.39114000  0.47964000  0.29737000  1.0
  O  O82  1  0.62258000  0.32074000  0.48041000  1.0
  O  O83  1  0.61275000  0.47560000  0.69577000  1.0
  O  O84  1  0.39947000  0.31403000  0.50102000  1.0
  O  O85  1  0.39081000  0.52939000  0.66944000  1.0
