# generated using pymatgen
data_ZnH4C8INO4
_symmetry_space_group_name_H-M   'P 1'
_cell_length_a   7.36906000
_cell_length_b   9.11045000
_cell_length_c   13.29780000
_cell_angle_alpha   86.48420000
_cell_angle_beta   77.29800000
_cell_angle_gamma   80.33130000
_symmetry_Int_Tables_number   1
_chemical_formula_structural   ZnH4C8INO4
_chemical_formula_sum   'Zn2 H8 C16 I2 N2 O8'
_cell_volume   858.25817787
_cell_formula_units_Z   2
loop_
 _symmetry_equiv_pos_site_id
 _symmetry_equiv_pos_as_xyz
  1  'x, y, z'
loop_
 _atom_site_type_symbol
 _atom_site_label
 _atom_site_symmetry_multiplicity
 _atom_site_fract_x
 _atom_site_fract_y
 _atom_site_fract_z
 _atom_site_occupancy
  Zn  Zn0  1  0.69971000  0.47595000  0.48043000  1.0
  Zn  Zn1  1  0.30773000  0.58166000  0.51955000  1.0
  H  H2  1  0.81538000  0.60086000  0.15999000  1.0
  H  H3  1  0.19476000  0.46220000  0.83990000  1.0
  H  H4  1  0.15619000  0.43759000  0.02834000  1.0
  H  H5  1  0.85362000  0.62721000  0.97152000  1.0
  H  H6  1  0.91559000  0.67427000  0.51853000  1.0
  H  H7  1  0.09185000  0.38410000  0.48153000  1.0
  H  H8  1  0.28619000  0.07244000  0.52167000  1.0
  H  H9  1  0.71842000  0.98602000  0.47805000  1.0
  C  C10  1  0.47151000  0.24320000  0.50576000  1.0
  C  C11  1  0.70604000  0.57679000  0.12295000  1.0
  C  C12  1  0.60565000  0.56744000  0.85861000  1.0
  C  C13  1  0.40474000  0.49548000  0.14101000  1.0
  C  C14  1  0.58814000  0.55675000  0.96819000  1.0
  C  C15  1  0.42230000  0.50697000  0.03139000  1.0
  C  C16  1  0.43327000  0.08802000  0.50726000  1.0
  C  C17  1  0.57136000  0.97032000  0.49190000  1.0
  C  C18  1  0.53300000  0.81504000  0.49397000  1.0
  C  C19  1  0.47671000  0.53127000  0.69868000  1.0
  C  C20  1  0.53493000  0.52795000  0.30093000  1.0
  C  C21  1  0.54320000  0.53097000  0.18699000  1.0
  C  C22  1  0.46759000  0.53102000  0.81267000  1.0
  C  C23  1  0.28283000  0.47363000  0.98185000  1.0
  C  C24  1  0.72732000  0.59044000  0.01789000  1.0
  C  C25  1  0.30422000  0.48636000  0.87678000  1.0
  I  I26  1  0.16270000  0.41552000  0.22962000  1.0
  I  I27  1  0.84765000  0.64698000  0.76946000  1.0
  N  N28  1  0.02740000  0.58580000  0.51396000  1.0
  N  N29  1  0.97993000  0.47255000  0.48587000  1.0
  O  O30  1  0.64156000  0.26452000  0.49126000  1.0
  O  O31  1  0.36299000  0.79413000  0.50720000  1.0
  O  O32  1  0.32684000  0.34573000  0.51956000  1.0
  O  O33  1  0.67729000  0.71214000  0.48208000  1.0
  O  O34  1  0.63337000  0.48374000  0.64003000  1.0
  O  O35  1  0.37775000  0.57189000  0.36028000  1.0
  O  O36  1  0.32134000  0.57473000  0.67021000  1.0
  O  O37  1  0.69082000  0.48524000  0.32898000  1.0
