# generated using pymatgen
data_ZnH28C37(N2O3)2
_symmetry_space_group_name_H-M   'P 1'
_cell_length_a   11.67180000
_cell_length_b   15.38170000
_cell_length_c   26.85070000
_cell_angle_alpha   90.00010000
_cell_angle_beta   89.99990000
_cell_angle_gamma   89.99990000
_symmetry_Int_Tables_number   1
_chemical_formula_structural   ZnH28C37(N2O3)2
_chemical_formula_sum   'Zn4 H112 C148 N16 O24'
_cell_volume   4820.56325718
_cell_formula_units_Z   4
loop_
 _symmetry_equiv_pos_site_id
 _symmetry_equiv_pos_as_xyz
  1  'x, y, z'
loop_
 _atom_site_type_symbol
 _atom_site_label
 _atom_site_symmetry_multiplicity
 _atom_site_fract_x
 _atom_site_fract_y
 _atom_site_fract_z
 _atom_site_occupancy
  Zn  Zn0  1  0.47042000  0.56546000  0.29638000  1.0
  Zn  Zn1  1  0.02958000  0.43454000  0.79638000  1.0
  Zn  Zn2  1  0.52958000  0.06546000  0.20362000  1.0
  Zn  Zn3  1  0.97042000  0.93454000  0.70362000  1.0
  H  H4  1  0.46107000  0.48251000  0.44940000  1.0
  H  H5  1  0.03893000  0.51749000  0.94940000  1.0
  H  H6  1  0.53893000  0.98251000  0.05060000  1.0
  H  H7  1  0.96107000  0.01749000  0.55060000  1.0
  H  H8  1  0.75577000  0.51989000  0.70109000  1.0
  H  H9  1  0.74423000  0.48011000  0.20109000  1.0
  H  H10  1  0.24423000  0.01989000  0.79891000  1.0
  H  H11  1  0.25577000  0.98011000  0.29891000  1.0
  H  H12  1  0.72201000  0.67141000  0.40246000  1.0
  H  H13  1  0.77799000  0.32859000  0.90246000  1.0
  H  H14  1  0.27799000  0.17142000  0.09754000  1.0
  H  H15  1  0.22201000  0.82859000  0.59754000  1.0
  H  H16  1  0.87093000  0.75408000  0.44515000  1.0
  H  H17  1  0.62907000  0.24592000  0.94515000  1.0
  H  H18  1  0.12907000  0.25408000  0.05485000  1.0
  H  H19  1  0.37093000  0.74592000  0.55485000  1.0
  H  H20  1  0.98624000  0.78556000  0.52118000  1.0
  H  H21  1  0.51376000  0.21444000  0.02118000  1.0
  H  H22  1  0.01376000  0.28556000  0.97882000  1.0
  H  H23  1  0.48624000  0.71444000  0.47882000  1.0
  H  H24  1  0.94602000  0.70341000  0.59955000  1.0
  H  H25  1  0.55398000  0.29659000  0.09955000  1.0
  H  H26  1  0.05398000  0.20341000  0.90045000  1.0
  H  H27  1  0.44602000  0.79659000  0.40045000  1.0
  H  H28  1  0.79590000  0.59248000  0.60250000  1.0
  H  H29  1  0.70410000  0.40752000  0.10250000  1.0
  H  H30  1  0.20410000  0.09247000  0.89750000  1.0
  H  H31  1  0.29590000  0.90753000  0.39750000  1.0
  H  H32  1  0.96686000  0.30029000  0.65205000  1.0
  H  H33  1  0.53314000  0.69971000  0.15205000  1.0
  H  H34  1  0.03314000  0.80029000  0.84795000  1.0
  H  H35  1  0.46686000  0.19971000  0.34795000  1.0
  H  H36  1  0.96768000  0.20389000  0.57870000  1.0
  H  H37  1  0.53232000  0.79612000  0.07870000  1.0
  H  H38  1  0.03232000  0.70388000  0.92129000  1.0
  H  H39  1  0.46768000  0.29611000  0.42129000  1.0
  H  H40  1  0.88965000  0.16245000  0.49627000  1.0
  H  H41  1  0.61036000  0.83755000  0.99627000  1.0
  H  H42  1  0.11036000  0.66244000  0.00373000  1.0
  H  H43  1  0.38965000  0.33755000  0.50373000  1.0
  H  H44  1  0.72733000  0.24782000  0.45950000  1.0
  H  H45  1  0.77267000  0.75218000  0.95950000  1.0
  H  H46  1  0.27267000  0.74782000  0.04050000  1.0
  H  H47  1  0.22733000  0.25218000  0.54050000  1.0
  H  H48  1  0.64598000  0.37271000  0.50372000  1.0
  H  H49  1  0.85402000  0.62729000  0.00372000  1.0
  H  H50  1  0.35402000  0.87271000  0.99628000  1.0
  H  H51  1  0.14598000  0.12729000  0.49628000  1.0
  H  H52  1  0.59628000  0.53879000  0.60167000  1.0
  H  H53  1  0.90371000  0.46120000  0.10167000  1.0
  H  H54  1  0.40372000  0.03880000  0.89833000  1.0
  H  H55  1  0.09628000  0.96121000  0.39833000  1.0
  H  H56  1  0.54604000  0.45393000  0.56363000  1.0
  H  H57  1  0.95396000  0.54607000  0.06363000  1.0
  H  H58  1  0.45396000  0.95392000  0.93637000  1.0
  H  H59  1  0.04604000  0.04607000  0.43637000  1.0
  H  H60  1  0.47029000  0.41877000  0.21168000  1.0
  H  H61  1  0.02971000  0.58123000  0.71168000  1.0
  H  H62  1  0.52972000  0.91877000  0.28832000  1.0
  H  H63  1  0.97029000  0.08122000  0.78832000  1.0
  H  H64  1  0.31301000  0.42333000  0.35308000  1.0
  H  H65  1  0.18699000  0.57667000  0.85308000  1.0
  H  H66  1  0.68699000  0.92332000  0.14692000  1.0
  H  H67  1  0.81301000  0.07667000  0.64692000  1.0
  H  H68  1  0.24443000  0.27343000  0.30264000  1.0
  H  H69  1  0.25557000  0.72657000  0.80264000  1.0
  H  H70  1  0.75557000  0.77343000  0.19736000  1.0
  H  H71  1  0.74443000  0.22657000  0.69736000  1.0
  H  H72  1  0.36964000  0.19992000  0.22211000  1.0
  H  H73  1  0.13036000  0.80008000  0.72211000  1.0
  H  H74  1  0.63036000  0.69991000  0.27789000  1.0
  H  H75  1  0.86964000  0.30008000  0.77789000  1.0
  H  H76  1  0.40480000  0.27947000  0.17746000  1.0
  H  H77  1  0.09520000  0.72053000  0.67746000  1.0
  H  H78  1  0.59520000  0.77947000  0.32254000  1.0
  H  H79  1  0.90480000  0.22052000  0.82254000  1.0
  H  H80  1  0.21047000  0.11863000  0.19576000  1.0
  H  H81  1  0.28953000  0.88137000  0.69576000  1.0
  H  H82  1  0.78953000  0.61863000  0.30424000  1.0
  H  H83  1  0.71047000  0.38136000  0.80424000  1.0
  H  H84  1  0.01685000  0.10871000  0.15766000  1.0
  H  H85  1  0.48315000  0.89130000  0.65766000  1.0
  H  H86  1  0.98315000  0.60870000  0.34234000  1.0
  H  H87  1  0.51685000  0.39129000  0.84234000  1.0
  H  H88  1  0.01738000  0.38572000  0.13395000  1.0
  H  H89  1  0.48262000  0.61429000  0.63395000  1.0
  H  H90  1  0.98262000  0.88572000  0.36605000  1.0
  H  H91  1  0.51738000  0.11428000  0.86605000  1.0
  H  H92  1  0.21000000  0.39575000  0.17206000  1.0
  H  H93  1  0.29000000  0.60425000  0.67206000  1.0
  H  H94  1  0.79000000  0.89575000  0.32794000  1.0
  H  H95  1  0.71000000  0.10425000  0.82794000  1.0
  H  H96  1  0.86840000  0.30233000  0.09880000  1.0
  H  H97  1  0.63160000  0.69767000  0.59880000  1.0
  H  H98  1  0.13160000  0.80233000  0.40120000  1.0
  H  H99  1  0.36840000  0.19767000  0.90120000  1.0
  H  H100  1  0.88826000  0.18960000  0.08917000  1.0
  H  H101  1  0.61174000  0.81041000  0.58917000  1.0
  H  H102  1  0.11174000  0.68959000  0.41083000  1.0
  H  H103  1  0.38826000  0.31041000  0.91083000  1.0
  H  H104  1  0.81189000  0.33026000  0.20296000  1.0
  H  H105  1  0.68811000  0.66975000  0.70296000  1.0
  H  H106  1  0.18811000  0.83025000  0.29704000  1.0
  H  H107  1  0.31189000  0.16974000  0.79704000  1.0
  H  H108  1  0.63321000  0.24187000  0.25064000  1.0
  H  H109  1  0.86679000  0.75813000  0.75064000  1.0
  H  H110  1  0.36679000  0.74186000  0.24937000  1.0
  H  H111  1  0.13321000  0.25813000  0.74936000  1.0
  H  H112  1  0.73036000  0.10204000  0.12235000  1.0
  H  H113  1  0.76964000  0.89796000  0.62235000  1.0
  H  H114  1  0.26964000  0.60204000  0.37765000  1.0
  H  H115  1  0.23036000  0.39796000  0.87765000  1.0
  C  C116  1  0.54487000  0.56134000  0.39217000  1.0
  C  C117  1  0.95513000  0.43866000  0.89217000  1.0
  C  C118  1  0.45513000  0.06134000  0.10783000  1.0
  C  C119  1  0.04487000  0.93866000  0.60783000  1.0
  C  C120  1  0.70297000  0.63703000  0.43695000  1.0
  C  C121  1  0.79703000  0.36297000  0.93695000  1.0
  C  C122  1  0.29703000  0.13703000  0.06305000  1.0
  C  C123  1  0.20297000  0.86297000  0.56305000  1.0
  C  C124  1  0.61402000  0.57772000  0.43765000  1.0
  C  C125  1  0.88598000  0.42228000  0.93765000  1.0
  C  C126  1  0.38598000  0.07772000  0.06235000  1.0
  C  C127  1  0.11402000  0.92228000  0.56235000  1.0
  C  C128  1  0.58745000  0.53249000  0.48299000  1.0
  C  C129  1  0.91254000  0.46751000  0.98299000  1.0
  C  C130  1  0.41255000  0.03249000  0.01701000  1.0
  C  C131  1  0.08746000  0.96751000  0.51701000  1.0
  C  C132  1  0.65358000  0.54412000  0.52586000  1.0
  C  C133  1  0.84642000  0.45588000  0.02586000  1.0
  C  C134  1  0.34642000  0.04412000  0.97414000  1.0
  C  C135  1  0.15358000  0.95588000  0.47414000  1.0
  C  C136  1  0.74451000  0.60621000  0.52495000  1.0
  C  C137  1  0.75549000  0.39379000  0.02495000  1.0
  C  C138  1  0.25549000  0.10621000  0.97505000  1.0
  C  C139  1  0.24451000  0.89379000  0.47505000  1.0
  C  C140  1  0.76838000  0.65411000  0.47999000  1.0
  C  C141  1  0.73162000  0.34590000  0.97999000  1.0
  C  C142  1  0.23162000  0.15411000  0.02001000  1.0
  C  C143  1  0.26838000  0.84590000  0.52001000  1.0
  C  C144  1  0.85601000  0.71828000  0.47964000  1.0
  C  C145  1  0.64399000  0.28172000  0.97964000  1.0
  C  C146  1  0.14399000  0.21828000  0.02036000  1.0
  C  C147  1  0.35601000  0.78172000  0.52036000  1.0
  C  C148  1  0.91961000  0.73586000  0.52169000  1.0
  C  C149  1  0.58039000  0.26414000  0.02169000  1.0
  C  C150  1  0.08039000  0.23586000  0.97830000  1.0
  C  C151  1  0.41962000  0.76414000  0.47831000  1.0
  C  C152  1  0.89678000  0.68899000  0.56595000  1.0
  C  C153  1  0.60323000  0.31101000  0.06595000  1.0
  C  C154  1  0.10322000  0.18899000  0.93405000  1.0
  C  C155  1  0.39678000  0.81102000  0.43405000  1.0
  C  C156  1  0.81239000  0.62607000  0.56760000  1.0
  C  C157  1  0.68761000  0.37393000  0.06760000  1.0
  C  C158  1  0.18761000  0.12608000  0.93240000  1.0
  C  C159  1  0.31239000  0.87393000  0.43240000  1.0
  C  C160  1  0.89379000  0.42859000  0.71252000  1.0
  C  C161  1  0.60621000  0.57141000  0.21252000  1.0
  C  C162  1  0.10621000  0.92859000  0.78748000  1.0
  C  C163  1  0.39378000  0.07141000  0.28748000  1.0
  C  C164  1  0.89581000  0.33667000  0.63588000  1.0
  C  C165  1  0.60419000  0.66333000  0.13588000  1.0
  C  C166  1  0.10419000  0.83667000  0.86412000  1.0
  C  C167  1  0.39581000  0.16333000  0.36412000  1.0
  C  C168  1  0.84844000  0.40461000  0.66282000  1.0
  C  C169  1  0.65156000  0.59540000  0.16282000  1.0
  C  C170  1  0.15156000  0.90460000  0.83718000  1.0
  C  C171  1  0.34844000  0.09539000  0.33718000  1.0
  C  C172  1  0.75547000  0.45353000  0.64176000  1.0
  C  C173  1  0.74453000  0.54647000  0.14176000  1.0
  C  C174  1  0.24453000  0.95353000  0.85824000  1.0
  C  C175  1  0.25547000  0.04646000  0.35824000  1.0
  C  C176  1  0.71488000  0.43584000  0.59398000  1.0
  C  C177  1  0.78512000  0.56416000  0.09398000  1.0
  C  C178  1  0.28512000  0.93584000  0.90602000  1.0
  C  C179  1  0.21487000  0.06416000  0.40602000  1.0
  C  C180  1  0.76073000  0.36357000  0.56741000  1.0
  C  C181  1  0.73927000  0.63643000  0.06741000  1.0
  C  C182  1  0.23927000  0.86357000  0.93259000  1.0
  C  C183  1  0.26073000  0.13643000  0.43259000  1.0
  C  C184  1  0.85295000  0.31340000  0.58863000  1.0
  C  C185  1  0.64705000  0.68660000  0.08863000  1.0
  C  C186  1  0.14705000  0.81340000  0.91137000  1.0
  C  C187  1  0.35295000  0.18659000  0.41137000  1.0
  C  C188  1  0.89806000  0.24126000  0.56192000  1.0
  C  C189  1  0.60194000  0.75874000  0.06192000  1.0
  C  C190  1  0.10194000  0.74125000  0.93808000  1.0
  C  C191  1  0.39806000  0.25874000  0.43808000  1.0
  C  C192  1  0.85443000  0.21816000  0.51611000  1.0
  C  C193  1  0.64558000  0.78184000  0.01611000  1.0
  C  C194  1  0.14558000  0.71816000  0.98389000  1.0
  C  C195  1  0.35443000  0.28183000  0.48389000  1.0
  C  C196  1  0.76302000  0.26677000  0.49546000  1.0
  C  C197  1  0.73698000  0.73323000  0.99546000  1.0
  C  C198  1  0.23698000  0.76677000  0.00454000  1.0
  C  C199  1  0.26302000  0.23323000  0.50454000  1.0
  C  C200  1  0.71745000  0.33743000  0.52019000  1.0
  C  C201  1  0.78255000  0.66257000  0.02019000  1.0
  C  C202  1  0.28255000  0.83743000  0.97981000  1.0
  C  C203  1  0.21745000  0.16257000  0.47981000  1.0
  C  C204  1  0.62211000  0.49319000  0.57229000  1.0
  C  C205  1  0.87789000  0.50681000  0.07229000  1.0
  C  C206  1  0.37789000  0.99319000  0.92771000  1.0
  C  C207  1  0.12211000  0.00681000  0.42771000  1.0
  C  C208  1  0.41705000  0.40153000  0.24324000  1.0
  C  C209  1  0.08295000  0.59847000  0.74324000  1.0
  C  C210  1  0.58295000  0.90153000  0.25676000  1.0
  C  C211  1  0.91705000  0.09847000  0.75676000  1.0
  C  C212  1  0.33288000  0.40097000  0.31583000  1.0
  C  C213  1  0.16712000  0.59903000  0.81583000  1.0
  C  C214  1  0.66712000  0.90097000  0.18417000  1.0
  C  C215  1  0.83288000  0.09903000  0.68417000  1.0
  C  C216  1  0.29928000  0.32677000  0.29153000  1.0
  C  C217  1  0.20072000  0.67323000  0.79153000  1.0
  C  C218  1  0.70072000  0.82677000  0.20847000  1.0
  C  C219  1  0.79928000  0.17323000  0.70847000  1.0
  C  C220  1  0.34290000  0.26252000  0.20676000  1.0
  C  C221  1  0.15710000  0.73748000  0.70676000  1.0
  C  C222  1  0.65710000  0.76252000  0.29324000  1.0
  C  C223  1  0.84290000  0.23747000  0.79324000  1.0
  C  C224  1  0.22314000  0.25755000  0.18601000  1.0
  C  C225  1  0.27685000  0.74245000  0.68601000  1.0
  C  C226  1  0.77686000  0.75755000  0.31399000  1.0
  C  C227  1  0.72314000  0.24245000  0.81399000  1.0
  C  C228  1  0.16723000  0.17721000  0.18263000  1.0
  C  C229  1  0.33278000  0.82280000  0.68263000  1.0
  C  C230  1  0.83277000  0.67720000  0.31737000  1.0
  C  C231  1  0.66722000  0.32280000  0.81737000  1.0
  C  C232  1  0.05901000  0.17183000  0.16087000  1.0
  C  C233  1  0.44099000  0.82817000  0.66087000  1.0
  C  C234  1  0.94099000  0.67183000  0.33913000  1.0
  C  C235  1  0.55901000  0.32817000  0.83913000  1.0
  C  C236  1  0.00502000  0.24649000  0.14251000  1.0
  C  C237  1  0.49498000  0.75351000  0.64251000  1.0
  C  C238  1  0.99498000  0.74649000  0.35749000  1.0
  C  C239  1  0.50502000  0.25351000  0.85749000  1.0
  C  C240  1  0.05971000  0.32702000  0.14736000  1.0
  C  C241  1  0.44030000  0.67298000  0.64736000  1.0
  C  C242  1  0.94030000  0.82702000  0.35264000  1.0
  C  C243  1  0.55971000  0.17298000  0.85264000  1.0
  C  C244  1  0.16808000  0.33254000  0.16882000  1.0
  C  C245  1  0.33192000  0.66746000  0.66881000  1.0
  C  C246  1  0.83192000  0.83254000  0.33119000  1.0
  C  C247  1  0.66808000  0.16746000  0.83119000  1.0
  C  C248  1  0.88956000  0.24103000  0.11755000  1.0
  C  C249  1  0.61043000  0.75897000  0.61755000  1.0
  C  C250  1  0.11043000  0.74103000  0.38245000  1.0
  C  C251  1  0.38957000  0.25897000  0.88245000  1.0
  C  C252  1  0.76867000  0.26992000  0.19432000  1.0
  C  C253  1  0.73133000  0.73008000  0.69432000  1.0
  C  C254  1  0.23133000  0.76992000  0.30568000  1.0
  C  C255  1  0.26867000  0.23008000  0.80568000  1.0
  C  C256  1  0.68054000  0.22614000  0.21711000  1.0
  C  C257  1  0.81946000  0.77386000  0.71711000  1.0
  C  C258  1  0.31946000  0.72614000  0.28289000  1.0
  C  C259  1  0.18054000  0.27386000  0.78289000  1.0
  C  C260  1  0.72876000  0.15068000  0.15159000  1.0
  C  C261  1  0.77124000  0.84932000  0.65159000  1.0
  C  C262  1  0.27124000  0.65068000  0.34841000  1.0
  C  C263  1  0.22876000  0.34932000  0.84841000  1.0
  N  N264  1  0.40634000  0.44704000  0.28524000  1.0
  N  N265  1  0.09366000  0.55296000  0.78524000  1.0
  N  N266  1  0.59367000  0.94704000  0.21476000  1.0
  N  N267  1  0.90634000  0.05296000  0.71476000  1.0
  N  N268  1  0.35361000  0.32817000  0.24580000  1.0
  N  N269  1  0.14639000  0.67183000  0.74580000  1.0
  N  N270  1  0.64639000  0.82817000  0.25420000  1.0
  N  N271  1  0.85361000  0.17182000  0.75420000  1.0
  N  N272  1  0.65662000  0.15190000  0.19003000  1.0
  N  N273  1  0.84339000  0.84811000  0.69003000  1.0
  N  N274  1  0.34338000  0.65189000  0.30997000  1.0
  N  N275  1  0.15662000  0.34810000  0.80997000  1.0
  N  N276  1  0.79810000  0.22109000  0.15308000  1.0
  N  N277  1  0.70190000  0.77891000  0.65308000  1.0
  N  N278  1  0.20190000  0.72109000  0.34692000  1.0
  N  N279  1  0.29810000  0.27891000  0.84692000  1.0
  O  O280  1  0.58083000  0.59252000  0.35051000  1.0
  O  O281  1  0.91917000  0.40748000  0.85050000  1.0
  O  O282  1  0.41917000  0.09252000  0.14950000  1.0
  O  O283  1  0.08083000  0.90748000  0.64950000  1.0
  O  O284  1  0.45233000  0.51735000  0.39553000  1.0
  O  O285  1  0.04767000  0.48265000  0.89553000  1.0
  O  O286  1  0.54767000  0.01735000  0.10447000  1.0
  O  O287  1  0.95233000  0.98265000  0.60447000  1.0
  O  O288  1  0.49787000  0.47649000  0.48387000  1.0
  O  O289  1  0.00213000  0.52351000  0.98387000  1.0
  O  O290  1  0.50213000  0.97649000  0.01613000  1.0
  O  O291  1  0.99787000  0.02351000  0.51613000  1.0
  O  O292  1  0.97931000  0.38545000  0.73036000  1.0
  O  O293  1  0.52069000  0.61455000  0.23036000  1.0
  O  O294  1  0.02069000  0.88545000  0.76964000  1.0
  O  O295  1  0.47930000  0.11455000  0.26964000  1.0
  O  O296  1  0.84797000  0.49120000  0.73669000  1.0
  O  O297  1  0.65203000  0.50880000  0.23669000  1.0
  O  O298  1  0.15203000  0.99120000  0.76331000  1.0
  O  O299  1  0.34796000  0.00880000  0.26331000  1.0
  O  O300  1  0.70915000  0.51991000  0.66840000  1.0
  O  O301  1  0.79085000  0.48009000  0.16840000  1.0
  O  O302  1  0.29085000  0.01991000  0.83160000  1.0
  O  O303  1  0.20915000  0.98009000  0.33160000  1.0
