# generated using pymatgen
data_CoH20C19N2O9
_symmetry_space_group_name_H-M   'P 1'
_cell_length_a   7.28471000
_cell_length_b   10.70420000
_cell_length_c   13.14400000
_cell_angle_alpha   71.84720000
_cell_angle_beta   80.47120000
_cell_angle_gamma   84.24960000
_symmetry_Int_Tables_number   1
_chemical_formula_structural   CoH20C19N2O9
_chemical_formula_sum   'Co2 H40 C38 N4 O18'
_cell_volume   959.18667967
_cell_formula_units_Z   2
loop_
 _symmetry_equiv_pos_site_id
 _symmetry_equiv_pos_as_xyz
  1  'x, y, z'
loop_
 _atom_site_type_symbol
 _atom_site_label
 _atom_site_symmetry_multiplicity
 _atom_site_fract_x
 _atom_site_fract_y
 _atom_site_fract_z
 _atom_site_occupancy
  Co  Co0  1  0.55368000  0.12209000  0.29895000  1.0
  Co  Co1  1  0.44631000  0.87792000  0.70106000  1.0
  H  H2  1  0.33191000  0.08516000  0.49106000  1.0
  H  H3  1  0.66809000  0.91486000  0.50895000  1.0
  H  H4  1  0.19881000  0.10421000  0.39665000  1.0
  H  H5  1  0.80118000  0.89580000  0.60335000  1.0
  H  H6  1  0.81489000  0.04674000  0.18675000  1.0
  H  H7  1  0.18511000  0.95327000  0.81324000  1.0
  H  H8  1  0.89614000  0.13796000  0.23883000  1.0
  H  H9  1  0.10385000  0.86204000  0.76117000  1.0
  H  H10  1  0.36113000  0.87656000  0.31586000  1.0
  H  H11  1  0.63886000  0.12342000  0.68414000  1.0
  H  H12  1  0.18596000  0.79507000  0.20459000  1.0
  H  H13  1  0.81409000  0.20490000  0.79540000  1.0
  H  H14  1  0.14281000  0.93772000  0.01640000  1.0
  H  H15  1  0.85723000  0.06227000  0.98359000  1.0
  H  H16  1  0.46172000  0.22481000  0.06824000  1.0
  H  H17  1  0.53827000  0.77519000  0.93178000  1.0
  H  H18  1  0.72600000  0.38075000  0.21574000  1.0
  H  H19  1  0.27397000  0.61927000  0.78425000  1.0
  H  H20  1  0.64656000  0.61568000  0.11517000  1.0
  H  H21  1  0.35342000  0.38433000  0.88480000  1.0
  H  H22  1  0.32805000  0.67705000  0.06205000  1.0
  H  H23  1  0.67192000  0.32294000  0.93791000  1.0
  H  H24  1  0.18782000  0.27458000  0.22645000  1.0
  H  H25  1  0.81216000  0.72542000  0.77356000  1.0
  H  H26  1  0.93362000  0.12504000  0.57053000  1.0
  H  H27  1  0.06637000  0.87496000  0.42948000  1.0
  H  H28  1  0.05748000  0.25782000  0.47619000  1.0
  H  H29  1  0.94253000  0.74218000  0.52381000  1.0
  H  H30  1  0.60897000  0.47723000  0.62260000  1.0
  H  H31  1  0.39103000  0.52279000  0.37739000  1.0
  H  H32  1  0.57244000  0.71555000  0.52606000  1.0
  H  H33  1  0.42758000  0.28446000  0.47394000  1.0
  H  H34  1  0.92351000  0.65517000  0.24586000  1.0
  H  H35  1  0.07653000  0.34484000  0.75414000  1.0
  H  H36  1  0.95733000  0.41858000  0.33998000  1.0
  H  H37  1  0.04271000  0.58143000  0.66003000  1.0
  H  H38  1  0.23815000  0.15188000  0.87615000  1.0
  H  H39  1  0.76186000  0.84810000  0.12386000  1.0
  H  H40  1  0.04464000  0.58857000  0.06149000  1.0
  H  H41  1  0.95530000  0.41141000  0.93852000  1.0
  C  C42  1  0.34199000  0.93606000  0.23421000  1.0
  C  C43  1  0.65802000  0.06392000  0.76581000  1.0
  C  C44  1  0.24493000  0.89141000  0.17078000  1.0
  C  C45  1  0.75509000  0.10858000  0.82922000  1.0
  C  C46  1  0.21989000  0.97067000  0.06696000  1.0
  C  C47  1  0.78015000  0.02931000  0.93304000  1.0
  C  C48  1  0.29443000  0.09536000  0.02941000  1.0
  C  C49  1  0.70559000  0.90463000  0.97060000  1.0
  C  C50  1  0.39693000  0.13056000  0.09684000  1.0
  C  C51  1  0.60307000  0.86942000  0.90318000  1.0
  C  C52  1  0.58727000  0.41177000  0.19400000  1.0
  C  C53  1  0.41269000  0.58824000  0.80599000  1.0
  C  C54  1  0.54346000  0.54145000  0.13686000  1.0
  C  C55  1  0.45651000  0.45856000  0.86312000  1.0
  C  C56  1  0.36564000  0.57629000  0.10785000  1.0
  C  C57  1  0.63431000  0.42372000  0.89212000  1.0
  C  C58  1  0.23604000  0.47891000  0.13833000  1.0
  C  C59  1  0.76393000  0.52109000  0.86166000  1.0
  C  C60  1  0.28779000  0.35161000  0.19937000  1.0
  C  C61  1  0.71218000  0.64840000  0.80063000  1.0
  C  C62  1  0.85882000  0.17808000  0.41160000  1.0
  C  C63  1  0.14116000  0.82193000  0.58840000  1.0
  C  C64  1  0.91978000  0.21596000  0.50347000  1.0
  C  C65  1  0.08022000  0.78404000  0.49653000  1.0
  C  C66  1  0.78574000  0.43248000  0.48864000  1.0
  C  C67  1  0.21428000  0.56753000  0.51136000  1.0
  C  C68  1  0.67973000  0.51804000  0.54045000  1.0
  C  C69  1  0.32028000  0.48197000  0.45955000  1.0
  C  C70  1  0.66110000  0.65134000  0.48630000  1.0
  C  C71  1  0.33892000  0.34866000  0.51370000  1.0
  C  C72  1  0.74933000  0.70318000  0.37931000  1.0
  C  C73  1  0.25070000  0.29682000  0.62069000  1.0
  C  C74  1  0.85469000  0.61654000  0.32862000  1.0
  C  C75  1  0.14534000  0.38346000  0.67138000  1.0
  C  C76  1  0.87377000  0.48247000  0.38195000  1.0
  C  C77  1  0.12626000  0.51753000  0.61806000  1.0
  C  C78  1  0.73651000  0.84646000  0.32200000  1.0
  C  C79  1  0.26352000  0.15356000  0.67800000  1.0
  N  N80  1  0.41801000  0.05459000  0.19714000  1.0
  N  N81  1  0.58197000  0.94541000  0.80287000  1.0
  N  N82  1  0.46111000  0.31846000  0.22492000  1.0
  N  N83  1  0.53888000  0.68152000  0.77509000  1.0
  O  O84  1  0.27212000  0.18667000  0.93420000  1.0
  O  O85  1  0.72792000  0.81331000  0.06581000  1.0
  O  O86  1  0.05926000  0.50032000  0.11173000  1.0
  O  O87  1  0.94069000  0.49965000  0.88827000  1.0
  O  O88  1  0.68957000  0.19476000  0.39817000  1.0
  O  O89  1  0.31043000  0.80525000  0.60183000  1.0
  O  O90  1  0.99003000  0.12980000  0.35482000  1.0
  O  O91  1  0.00996000  0.87020000  0.64518000  1.0
  O  O92  1  0.79341000  0.30268000  0.54771000  1.0
  O  O93  1  0.20661000  0.69732000  0.45229000  1.0
  O  O94  1  0.80033000  0.88805000  0.22082000  1.0
  O  O95  1  0.19967000  0.11195000  0.77917000  1.0
  O  O96  1  0.66495000  0.92589000  0.37546000  1.0
  O  O97  1  0.33508000  0.07412000  0.62454000  1.0
  O  O98  1  0.32895000  0.08554000  0.41538000  1.0
  O  O99  1  0.67105000  0.91447000  0.58462000  1.0
  O  O100  1  0.80953000  0.14168000  0.18618000  1.0
  O  O101  1  0.19046000  0.85833000  0.81382000  1.0
