# generated using pymatgen
data_ZnH8C14(S2N3)2
_symmetry_space_group_name_H-M   'P 1'
_cell_length_a   10.89920000
_cell_length_b   12.55680000
_cell_length_c   13.77640000
_cell_angle_alpha   103.78800000
_cell_angle_beta   90.00000000
_cell_angle_gamma   90.00000000
_symmetry_Int_Tables_number   1
_chemical_formula_structural   ZnH8C14(S2N3)2
_chemical_formula_sum   'Zn4 H32 C56 S16 N24'
_cell_volume   1831.09534677
_cell_formula_units_Z   4
loop_
 _symmetry_equiv_pos_site_id
 _symmetry_equiv_pos_as_xyz
  1  'x, y, z'
loop_
 _atom_site_type_symbol
 _atom_site_label
 _atom_site_symmetry_multiplicity
 _atom_site_fract_x
 _atom_site_fract_y
 _atom_site_fract_z
 _atom_site_occupancy
  Zn  Zn0  1  0.99041000  0.45558000  0.17991000  1.0
  Zn  Zn1  1  0.49041000  0.04442000  0.32010000  1.0
  Zn  Zn2  1  0.00959000  0.54441000  0.82009000  1.0
  Zn  Zn3  1  0.50959000  0.95558000  0.67990000  1.0
  H  H4  1  0.67083000  0.25789000  0.96192000  1.0
  H  H5  1  0.17083000  0.24212000  0.53807000  1.0
  H  H6  1  0.32916000  0.74211000  0.03807000  1.0
  H  H7  1  0.82917000  0.75787000  0.46194000  1.0
  H  H8  1  0.53178000  0.17095000  0.82439000  1.0
  H  H9  1  0.03179000  0.32906000  0.67561000  1.0
  H  H10  1  0.46821000  0.82905000  0.17560000  1.0
  H  H11  1  0.96821000  0.67094000  0.32441000  1.0
  H  H12  1  0.80447000  0.93415000  0.96497000  1.0
  H  H13  1  0.30447000  0.56586000  0.53503000  1.0
  H  H14  1  0.19553000  0.06586000  0.03503000  1.0
  H  H15  1  0.69553000  0.43413000  0.46497000  1.0
  H  H16  1  0.65991000  0.85882000  0.82594000  1.0
  H  H17  1  0.15991000  0.64120000  0.67406000  1.0
  H  H18  1  0.34010000  0.14118000  0.17406000  1.0
  H  H19  1  0.84009000  0.35880000  0.32594000  1.0
  H  H20  1  0.36860000  0.69493000  0.24213000  1.0
  H  H21  1  0.86860000  0.80508000  0.25788000  1.0
  H  H22  1  0.63140000  0.30508000  0.75787000  1.0
  H  H23  1  0.13140000  0.19492000  0.74212000  1.0
  H  H24  1  0.15130000  0.64532000  0.25221000  1.0
  H  H25  1  0.65131000  0.85469000  0.24780000  1.0
  H  H26  1  0.84870000  0.35469000  0.74778000  1.0
  H  H27  1  0.34869000  0.14532000  0.75220000  1.0
  H  H28  1  0.21591000  0.32164000  0.10212000  1.0
  H  H29  1  0.71591000  0.17836000  0.39789000  1.0
  H  H30  1  0.78409000  0.67836000  0.89788000  1.0
  H  H31  1  0.28408000  0.82164000  0.60212000  1.0
  H  H32  1  0.43680000  0.35958000  0.07967000  1.0
  H  H33  1  0.93680000  0.14042000  0.42033000  1.0
  H  H34  1  0.56320000  0.64042000  0.92033000  1.0
  H  H35  1  0.06319000  0.85958000  0.57967000  1.0
  C  C36  1  0.99177000  0.21952000  0.18277000  1.0
  C  C37  1  0.49178000  0.28048000  0.31723000  1.0
  C  C38  1  0.00823000  0.78047000  0.81723000  1.0
  C  C39  1  0.50823000  0.71952000  0.68278000  1.0
  C  C40  1  0.84003000  0.15631000  0.04915000  1.0
  C  C41  1  0.34003000  0.34370000  0.45085000  1.0
  C  C42  1  0.15997000  0.84370000  0.95085000  1.0
  C  C43  1  0.65997000  0.65629000  0.54915000  1.0
  C  C44  1  0.75199000  0.10357000  0.97366000  1.0
  C  C45  1  0.25199000  0.39644000  0.52633000  1.0
  C  C46  1  0.24801000  0.89643000  0.02633000  1.0
  C  C47  1  0.74800000  0.60355000  0.47367000  1.0
  C  C48  1  0.67103000  0.16925000  0.93368000  1.0
  C  C49  1  0.17102000  0.33076000  0.56632000  1.0
  C  C50  1  0.32898000  0.83075000  0.06632000  1.0
  C  C51  1  0.82897000  0.66924000  0.43369000  1.0
  C  C52  1  0.59345000  0.12034000  0.85670000  1.0
  C  C53  1  0.09346000  0.37967000  0.64329000  1.0
  C  C54  1  0.40655000  0.87965000  0.14329000  1.0
  C  C55  1  0.90655000  0.62033000  0.35672000  1.0
  C  C56  1  0.74510000  0.98948000  0.93634000  1.0
  C  C57  1  0.24510000  0.51053000  0.56366000  1.0
  C  C58  1  0.25490000  0.01052000  0.06366000  1.0
  C  C59  1  0.75490000  0.48947000  0.43634000  1.0
  C  C60  1  0.66461000  0.94671000  0.85858000  1.0
  C  C61  1  0.16461000  0.55330000  0.64142000  1.0
  C  C62  1  0.33539000  0.05329000  0.14142000  1.0
  C  C63  1  0.83538000  0.44669000  0.35858000  1.0
  C  C64  1  0.76417000  0.58822000  0.11755000  1.0
  C  C65  1  0.26418000  0.91178000  0.38245000  1.0
  C  C66  1  0.23583000  0.41179000  0.88245000  1.0
  C  C67  1  0.73582000  0.08821000  0.61755000  1.0
  C  C68  1  0.54800000  0.56307000  0.14327000  1.0
  C  C69  1  0.04801000  0.93693000  0.35674000  1.0
  C  C70  1  0.45200000  0.43693000  0.85673000  1.0
  C  C71  1  0.95199000  0.06307000  0.64326000  1.0
  C  C72  1  0.42158000  0.53204000  0.15678000  1.0
  C  C73  1  0.92158000  0.96796000  0.34323000  1.0
  C  C74  1  0.57842000  0.46796000  0.84322000  1.0
  C  C75  1  0.07842000  0.03204000  0.65677000  1.0
  C  C76  1  0.33868000  0.61192000  0.20744000  1.0
  C  C77  1  0.83868000  0.88808000  0.29257000  1.0
  C  C78  1  0.66132000  0.38808000  0.79255000  1.0
  C  C79  1  0.16132000  0.11192000  0.70743000  1.0
  C  C80  1  0.21691000  0.58377000  0.21482000  1.0
  C  C81  1  0.71691000  0.91624000  0.28519000  1.0
  C  C82  1  0.78310000  0.41624000  0.78518000  1.0
  C  C83  1  0.28309000  0.08377000  0.71481000  1.0
  C  C84  1  0.25376000  0.40334000  0.13097000  1.0
  C  C85  1  0.75376000  0.09666000  0.36904000  1.0
  C  C86  1  0.74624000  0.59666000  0.86903000  1.0
  C  C87  1  0.24624000  0.90334000  0.63096000  1.0
  C  C88  1  0.37691000  0.42513000  0.11908000  1.0
  C  C89  1  0.87691000  0.07487000  0.38092000  1.0
  C  C90  1  0.62309000  0.57487000  0.88091000  1.0
  C  C91  1  0.12308000  0.92513000  0.61908000  1.0
  S  S92  1  0.92482000  0.09203000  0.12611000  1.0
  S  S93  1  0.42483000  0.40797000  0.37388000  1.0
  S  S94  1  0.07517000  0.90797000  0.87388000  1.0
  S  S95  1  0.57516000  0.59203000  0.62612000  1.0
  S  S96  1  0.09243000  0.24334000  0.27648000  1.0
  S  S97  1  0.59243000  0.25666000  0.22352000  1.0
  S  S98  1  0.90757000  0.75666000  0.72351000  1.0
  S  S99  1  0.40757000  0.74334000  0.77649000  1.0
  S  S100  1  0.67252000  0.47466000  0.12054000  1.0
  S  S101  1  0.17252000  0.02534000  0.37947000  1.0
  S  S102  1  0.32748000  0.52535000  0.87946000  1.0
  S  S103  1  0.82748000  0.97466000  0.62054000  1.0
  S  S104  1  0.91914000  0.58266000  0.09499000  1.0
  S  S105  1  0.41914000  0.91733000  0.40501000  1.0
  S  S106  1  0.08086000  0.41734000  0.90501000  1.0
  S  S107  1  0.58086000  0.08266000  0.59499000  1.0
  N  N108  1  0.94585000  0.29683000  0.13765000  1.0
  N  N109  1  0.44585000  0.20317000  0.36235000  1.0
  N  N110  1  0.05415000  0.70316000  0.86235000  1.0
  N  N111  1  0.55415000  0.79683000  0.63765000  1.0
  N  N112  1  0.86255000  0.26198000  0.06535000  1.0
  N  N113  1  0.36255000  0.23803000  0.43465000  1.0
  N  N114  1  0.13745000  0.73802000  0.93465000  1.0
  N  N115  1  0.63745000  0.76197000  0.56535000  1.0
  N  N116  1  0.59116000  0.01073000  0.81778000  1.0
  N  N117  1  0.09116000  0.48928000  0.68222000  1.0
  N  N118  1  0.40884000  0.98927000  0.18222000  1.0
  N  N119  1  0.90884000  0.51072000  0.31779000  1.0
  N  N120  1  0.69899000  0.68082000  0.13215000  1.0
  N  N121  1  0.19899000  0.81918000  0.36785000  1.0
  N  N122  1  0.30101000  0.31918000  0.86785000  1.0
  N  N123  1  0.80100000  0.18082000  0.63215000  1.0
  N  N124  1  0.57864000  0.66600000  0.14662000  1.0
  N  N125  1  0.07864000  0.83400000  0.35339000  1.0
  N  N126  1  0.42136000  0.33400000  0.85338000  1.0
  N  N127  1  0.92135000  0.16600000  0.64661000  1.0
  N  N128  1  0.17409000  0.48135000  0.17699000  1.0
  N  N129  1  0.67409000  0.01865000  0.32302000  1.0
  N  N130  1  0.82591000  0.51865000  0.82301000  1.0
  N  N131  1  0.32590000  0.98135000  0.67698000  1.0
