# generated using pymatgen
data_CuH11C15(N2O)2
_symmetry_space_group_name_H-M   'P 1'
_cell_length_a   9.25254000
_cell_length_b   12.13810000
_cell_length_c   14.74420000
_cell_angle_alpha   75.74300000
_cell_angle_beta   89.96140000
_cell_angle_gamma   67.62200000
_symmetry_Int_Tables_number   1
_chemical_formula_structural   CuH11C15(N2O)2
_chemical_formula_sum   'Cu4 H44 C60 N16 O8'
_cell_volume   1476.00754709
_cell_formula_units_Z   4
loop_
 _symmetry_equiv_pos_site_id
 _symmetry_equiv_pos_as_xyz
  1  'x, y, z'
loop_
 _atom_site_type_symbol
 _atom_site_label
 _atom_site_symmetry_multiplicity
 _atom_site_fract_x
 _atom_site_fract_y
 _atom_site_fract_z
 _atom_site_occupancy
  Cu  Cu0  1  0.31935000  0.06847000  0.04560000  1.0
  Cu  Cu1  1  0.38831000  0.93142000  0.45405000  1.0
  Cu  Cu2  1  0.68064000  0.93153000  0.95440000  1.0
  Cu  Cu3  1  0.61167000  0.06858000  0.54596000  1.0
  H  H4  1  0.23115000  0.39695000  0.20005000  1.0
  H  H5  1  0.62775000  0.60327000  0.30004000  1.0
  H  H6  1  0.76885000  0.60304000  0.79995000  1.0
  H  H7  1  0.37230000  0.39674000  0.69994000  1.0
  H  H8  1  0.06273000  0.61007000  0.09902000  1.0
  H  H9  1  0.67240000  0.39004000  0.40116000  1.0
  H  H10  1  0.93727000  0.38991000  0.90098000  1.0
  H  H11  1  0.32764000  0.60998000  0.59883000  1.0
  H  H12  1  0.81440000  0.17804000  0.19536000  1.0
  H  H13  1  0.99053000  0.82455000  0.30423000  1.0
  H  H14  1  0.18559000  0.82194000  0.80464000  1.0
  H  H15  1  0.00950000  0.17544000  0.69576000  1.0
  H  H16  1  0.36434000  0.13553000  0.22492000  1.0
  H  H17  1  0.50012000  0.86363000  0.27493000  1.0
  H  H18  1  0.63564000  0.86447000  0.77508000  1.0
  H  H19  1  0.49990000  0.13637000  0.72509000  1.0
  H  H20  1  0.91711000  0.21229000  0.33941000  1.0
  H  H21  1  0.12730000  0.78988000  0.16010000  1.0
  H  H22  1  0.08288000  0.78769000  0.66059000  1.0
  H  H23  1  0.87273000  0.21012000  0.83990000  1.0
  H  H24  1  0.81721000  0.69728000  0.33390000  1.0
  H  H25  1  0.51415000  0.30264000  0.16643000  1.0
  H  H26  1  0.18277000  0.30272000  0.66608000  1.0
  H  H27  1  0.48585000  0.69736000  0.83359000  1.0
  H  H28  1  0.99270000  0.13011000  0.06982000  1.0
  H  H29  1  0.12192000  0.87145000  0.42986000  1.0
  H  H30  1  0.00729000  0.86988000  0.93018000  1.0
  H  H31  1  0.87809000  0.12855000  0.57014000  1.0
  H  H32  1  0.35324000  0.44985000  0.43129000  1.0
  H  H33  1  0.80318000  0.55010000  0.06920000  1.0
  H  H34  1  0.64673000  0.55016000  0.56870000  1.0
  H  H35  1  0.19682000  0.44990000  0.93078000  1.0
  H  H36  1  0.46391000  0.33148000  0.53319000  1.0
  H  H37  1  0.79615000  0.66841000  0.96736000  1.0
  H  H38  1  0.53606000  0.66854000  0.46681000  1.0
  H  H39  1  0.20383000  0.33161000  0.03262000  1.0
  H  H40  1  0.26075000  0.42231000  0.53501000  1.0
  H  H41  1  0.68378000  0.57763000  0.96531000  1.0
  H  H42  1  0.73920000  0.57771000  0.46498000  1.0
  H  H43  1  0.31621000  0.42239000  0.03466000  1.0
  H  H44  1  0.98286000  0.48258000  0.43600000  1.0
  H  H45  1  0.46514000  0.51740000  0.06430000  1.0
  H  H46  1  0.01711000  0.51742000  0.56399000  1.0
  H  H47  1  0.53487000  0.48261000  0.93571000  1.0
  C  C48  1  0.14709000  0.18026000  0.29031000  1.0
  C  C49  1  0.32651000  0.82010000  0.20947000  1.0
  C  C50  1  0.85290000  0.81974000  0.70969000  1.0
  C  C51  1  0.67350000  0.17989000  0.79054000  1.0
  C  C52  1  0.13918000  0.46269000  0.22848000  1.0
  C  C53  1  0.60157000  0.53742000  0.27168000  1.0
  C  C54  1  0.86082000  0.53729000  0.77151000  1.0
  C  C55  1  0.39849000  0.46259000  0.72833000  1.0
  C  C56  1  0.82491000  0.79310000  0.15095000  1.0
  C  C57  1  0.61811000  0.20668000  0.34932000  1.0
  C  C58  1  0.17510000  0.20689000  0.84903000  1.0
  C  C59  1  0.38189000  0.79335000  0.65071000  1.0
  C  C60  1  0.04623000  0.58052000  0.17297000  1.0
  C  C61  1  0.62639000  0.41956000  0.32723000  1.0
  C  C62  1  0.95378000  0.41946000  0.82702000  1.0
  C  C63  1  0.37364000  0.58047000  0.67278000  1.0
  C  C64  1  0.93384000  0.17311000  0.20316000  1.0
  C  C65  1  0.10550000  0.82868000  0.29653000  1.0
  C  C66  1  0.06616000  0.82688000  0.79684000  1.0
  C  C67  1  0.89452000  0.17132000  0.70348000  1.0
  C  C68  1  0.92997000  0.66493000  0.21095000  1.0
  C  C69  1  0.59460000  0.33506000  0.28930000  1.0
  C  C70  1  0.07003000  0.33504000  0.78903000  1.0
  C  C71  1  0.40544000  0.66498000  0.71071000  1.0
  C  C72  1  0.31294000  0.28368000  0.45891000  1.0
  C  C73  1  0.59685000  0.71636000  0.04129000  1.0
  C  C74  1  0.68704000  0.71633000  0.54109000  1.0
  C  C75  1  0.40315000  0.28366000  0.95869000  1.0
  C  C76  1  0.24083000  0.14830000  0.21868000  1.0
  C  C77  1  0.38891000  0.85150000  0.28116000  1.0
  C  C78  1  0.75916000  0.85169000  0.78132000  1.0
  C  C79  1  0.61109000  0.14850000  0.71884000  1.0
  C  C80  1  0.99100000  0.19189000  0.28318000  1.0
  C  C81  1  0.18135000  0.80960000  0.21647000  1.0
  C  C82  1  0.00900000  0.80810000  0.71683000  1.0
  C  C83  1  0.81867000  0.19039000  0.78353000  1.0
  C  C84  1  0.90849000  0.62965000  0.30616000  1.0
  C  C85  1  0.53779000  0.37032000  0.19414000  1.0
  C  C86  1  0.09151000  0.37035000  0.69382000  1.0
  C  C87  1  0.46220000  0.62970000  0.80588000  1.0
  C  C88  1  0.22071000  0.19751000  0.37098000  1.0
  C  C89  1  0.41759000  0.80257000  0.12885000  1.0
  C  C90  1  0.77927000  0.80250000  0.62902000  1.0
  C  C91  1  0.58243000  0.19743000  0.87115000  1.0
  C  C92  1  0.03248000  0.14436000  0.13393000  1.0
  C  C93  1  0.17601000  0.85680000  0.36582000  1.0
  C  C94  1  0.96751000  0.85563000  0.86608000  1.0
  C  C95  1  0.82400000  0.14319000  0.63418000  1.0
  C  C96  1  0.11548000  0.42938000  0.32317000  1.0
  C  C97  1  0.54456000  0.57071000  0.17700000  1.0
  C  C98  1  0.88451000  0.57062000  0.67682000  1.0
  C  C99  1  0.45548000  0.42929000  0.82300000  1.0
  C  C100  1  0.34897000  0.37745000  0.49156000  1.0
  C  C101  1  0.72688000  0.62251000  0.00886000  1.0
  C  C102  1  0.65100000  0.62256000  0.50844000  1.0
  C  C103  1  0.27310000  0.37750000  0.99112000  1.0
  C  C104  1  0.00033000  0.51232000  0.36230000  1.0
  C  C105  1  0.51227000  0.48768000  0.13799000  1.0
  C  C106  1  0.99966000  0.48767000  0.63769000  1.0
  C  C107  1  0.48774000  0.51232000  0.86203000  1.0
  N  N108  1  0.21037000  0.30970000  0.38171000  1.0
  N  N109  1  0.51985000  0.69037000  0.11838000  1.0
  N  N110  1  0.78961000  0.69030000  0.61829000  1.0
  N  N111  1  0.48017000  0.30964000  0.88161000  1.0
  N  N112  1  0.32111000  0.10816000  0.43943000  1.0
  N  N113  1  0.42896000  0.89187000  0.06038000  1.0
  N  N114  1  0.67887000  0.89185000  0.56057000  1.0
  N  N115  1  0.57104000  0.10813000  0.93963000  1.0
  N  N116  1  0.18491000  0.13045000  0.14145000  1.0
  N  N117  1  0.31512000  0.86980000  0.35835000  1.0
  N  N118  1  0.81509000  0.86954000  0.85854000  1.0
  N  N119  1  0.68489000  0.13019000  0.64166000  1.0
  N  N120  1  0.38127000  0.16193000  0.49396000  1.0
  N  N121  1  0.54338000  0.83807000  0.00609000  1.0
  N  N122  1  0.61870000  0.83808000  0.50603000  1.0
  N  N123  1  0.45661000  0.16194000  0.99390000  1.0
  O  O124  1  0.86468000  0.82370000  0.06785000  1.0
  O  O125  1  0.68841000  0.17623000  0.43237000  1.0
  O  O126  1  0.13532000  0.17628000  0.93213000  1.0
  O  O127  1  0.31158000  0.82380000  0.56766000  1.0
  O  O128  1  0.70905000  0.85500000  0.18673000  1.0
  O  O129  1  0.56466000  0.14450000  0.31356000  1.0
  O  O130  1  0.29096000  0.14499000  0.81326000  1.0
  O  O131  1  0.43533000  0.85553000  0.68647000  1.0
