# generated using pymatgen
data_CdH7C11N2O5
_symmetry_space_group_name_H-M   'P 1'
_cell_length_a   8.24759000
_cell_length_b   8.38194000
_cell_length_c   8.76966000
_cell_angle_alpha   107.29300000
_cell_angle_beta   107.52200000
_cell_angle_gamma   103.06000000
_symmetry_Int_Tables_number   1
_chemical_formula_structural   CdH7C11N2O5
_chemical_formula_sum   'Cd2 H14 C22 N4 O10'
_cell_volume   517.79991954
_cell_formula_units_Z   2
loop_
 _symmetry_equiv_pos_site_id
 _symmetry_equiv_pos_as_xyz
  1  'x, y, z'
loop_
 _atom_site_type_symbol
 _atom_site_label
 _atom_site_symmetry_multiplicity
 _atom_site_fract_x
 _atom_site_fract_y
 _atom_site_fract_z
 _atom_site_occupancy
  Cd  Cd0  1  0.08413000  0.30667000  0.10032000  1.0
  Cd  Cd1  1  0.91587000  0.69333000  0.89968000  1.0
  H  H2  1  0.64906000  0.27689000  0.87373000  1.0
  H  H3  1  0.35094000  0.72311000  0.12627000  1.0
  H  H4  1  0.76638000  0.41672000  0.54720000  1.0
  H  H5  1  0.23362000  0.58327000  0.45279000  1.0
  H  H6  1  0.35382000  0.12667000  0.04396000  1.0
  H  H7  1  0.64617000  0.87333000  0.95603000  1.0
  H  H8  1  0.69959000  0.17224000  0.26277000  1.0
  H  H9  1  0.30041000  0.82775000  0.73722000  1.0
  H  H10  1  0.96650000  0.26363000  0.45101000  1.0
  H  H11  1  0.03351000  0.73637000  0.54899000  1.0
  H  H12  1  0.34662000  0.98865000  0.43921000  1.0
  H  H13  1  0.65338000  0.01135000  0.56079000  1.0
  H  H14  1  0.41891000  0.38617000  0.92259000  1.0
  H  H15  1  0.58109000  0.61383000  0.07741000  1.0
  C  C16  1  0.50271000  0.43079000  0.42907000  1.0
  C  C17  1  0.49729000  0.56921000  0.57093000  1.0
  C  C18  1  0.43706000  0.22108000  0.17664000  1.0
  C  C19  1  0.56294000  0.77892000  0.82336000  1.0
  C  C20  1  0.60612000  0.23996000  0.28479000  1.0
  C  C21  1  0.39388000  0.76004000  0.71521000  1.0
  C  C22  1  0.18457000  0.33741000  0.69789000  1.0
  C  C23  1  0.81544000  0.66260000  0.30211000  1.0
  C  C24  1  0.08755000  0.24176000  0.51890000  1.0
  C  C25  1  0.91245000  0.75824000  0.48110000  1.0
  C  C26  1  0.14482000  0.11386000  0.42862000  1.0
  C  C27  1  0.85518000  0.88614000  0.57138000  1.0
  C  C28  1  0.30300000  0.08699000  0.51327000  1.0
  C  C29  1  0.69700000  0.91300000  0.48673000  1.0
  C  C30  1  0.40795000  0.19306000  0.68974000  1.0
  C  C31  1  0.59206000  0.80694000  0.31026000  1.0
  C  C32  1  0.34440000  0.31301000  0.78303000  1.0
  C  C33  1  0.65560000  0.68699000  0.21697000  1.0
  C  C34  1  0.11616000  0.46146000  0.79981000  1.0
  C  C35  1  0.88384000  0.53854000  0.20018000  1.0
  C  C36  1  0.03673000  0.00494000  0.23867000  1.0
  C  C37  1  0.96327000  0.99506000  0.76133000  1.0
  N  N38  1  0.37302000  0.33984000  0.26605000  1.0
  N  N39  1  0.62698000  0.66016000  0.73394000  1.0
  N  N40  1  0.64454000  0.37064000  0.44182000  1.0
  N  N41  1  0.35545000  0.62936000  0.55817000  1.0
  O  O42  1  0.18779000  0.52669000  0.96569000  1.0
  O  O43  1  0.81221000  0.47331000  0.03431000  1.0
  O  O44  1  0.56753000  0.17242000  0.76407000  1.0
  O  O45  1  0.43247000  0.82758000  0.23593000  1.0
  O  O46  1  0.05922000  0.85695000  0.17692000  1.0
  O  O47  1  0.94078000  0.14305000  0.82308000  1.0
  O  O48  1  0.92984000  0.06271000  0.14937000  1.0
  O  O49  1  0.07016000  0.93729000  0.85063000  1.0
  O  O50  1  0.98392000  0.49990000  0.71508000  1.0
  O  O51  1  0.01608000  0.50010000  0.28493000  1.0
