# generated using pymatgen
data_GdH5C9O7
_symmetry_space_group_name_H-M   'P 1'
_cell_length_a   7.10648000
_cell_length_b   7.41858000
_cell_length_c   18.35550000
_cell_angle_alpha   97.20720000
_cell_angle_beta   90.00000000
_cell_angle_gamma   89.99990000
_symmetry_Int_Tables_number   1
_chemical_formula_structural   GdH5C9O7
_chemical_formula_sum   'Gd4 H20 C36 O28'
_cell_volume   960.05591743
_cell_formula_units_Z   4
loop_
 _symmetry_equiv_pos_site_id
 _symmetry_equiv_pos_as_xyz
  1  'x, y, z'
loop_
 _atom_site_type_symbol
 _atom_site_label
 _atom_site_symmetry_multiplicity
 _atom_site_fract_x
 _atom_site_fract_y
 _atom_site_fract_z
 _atom_site_occupancy
  Gd  Gd0  1  0.02241000  0.63271000  0.74351000  1.0
  Gd  Gd1  1  0.52241000  0.86729000  0.75649000  1.0
  Gd  Gd2  1  0.97759000  0.36729000  0.25649000  1.0
  Gd  Gd3  1  0.47759000  0.13271000  0.24351000  1.0
  H  H4  1  0.69062000  0.45324000  0.78436000  1.0
  H  H5  1  0.19062000  0.04676000  0.71564000  1.0
  H  H6  1  0.30938000  0.54676000  0.21564000  1.0
  H  H7  1  0.80938000  0.95324000  0.28436000  1.0
  H  H8  1  0.82707000  0.29501000  0.80146000  1.0
  H  H9  1  0.32707000  0.20499000  0.69854000  1.0
  H  H10  1  0.17294000  0.70499000  0.19854000  1.0
  H  H11  1  0.67294000  0.79501000  0.30146000  1.0
  H  H12  1  0.84217000  0.54253000  0.48064000  1.0
  H  H13  1  0.34217000  0.95747000  0.01936000  1.0
  H  H14  1  0.15783000  0.45747000  0.51936000  1.0
  H  H15  1  0.65782000  0.04253000  0.98064000  1.0
  H  H16  1  0.16787000  0.42038000  0.96696000  1.0
  H  H17  1  0.66787000  0.07962000  0.53304000  1.0
  H  H18  1  0.83213000  0.57962000  0.03304000  1.0
  H  H19  1  0.33213000  0.92038000  0.46696000  1.0
  H  H20  1  0.71479000  0.60024000  0.90626000  1.0
  H  H21  1  0.21479000  0.89976000  0.59374000  1.0
  H  H22  1  0.28521000  0.39976000  0.09374000  1.0
  H  H23  1  0.78521000  0.10024000  0.40626000  1.0
  C  C24  1  0.62111000  0.53574000  0.56065000  1.0
  C  C25  1  0.12111000  0.96426000  0.93935000  1.0
  C  C26  1  0.37889000  0.46426000  0.43935000  1.0
  C  C27  1  0.87889000  0.03574000  0.06065000  1.0
  C  C28  1  0.42738000  0.51088000  0.57132000  1.0
  C  C29  1  0.92738000  0.98912000  0.92868000  1.0
  C  C30  1  0.57262000  0.48912000  0.42868000  1.0
  C  C31  1  0.07262000  0.01088000  0.07132000  1.0
  C  C32  1  0.69190000  0.52510000  0.48921000  1.0
  C  C33  1  0.19189000  0.97490000  0.01079000  1.0
  C  C34  1  0.30810000  0.47490000  0.51079000  1.0
  C  C35  1  0.80810000  0.02510000  0.98921000  1.0
  C  C36  1  0.75546000  0.56954000  0.62312000  1.0
  C  C37  1  0.25546000  0.93046000  0.87688000  1.0
  C  C38  1  0.24454000  0.43046000  0.37688000  1.0
  C  C39  1  0.74454000  0.06954000  0.12312000  1.0
  C  C40  1  0.33129000  0.53575000  0.64432000  1.0
  C  C41  1  0.83129000  0.96426000  0.85568000  1.0
  C  C42  1  0.66871000  0.46425000  0.35568000  1.0
  C  C43  1  0.16871000  0.03574000  0.14432000  1.0
  C  C44  1  0.36214000  0.53200000  0.85326000  1.0
  C  C45  1  0.86213000  0.96800000  0.64674000  1.0
  C  C46  1  0.63787000  0.46800000  0.14674000  1.0
  C  C47  1  0.13787000  0.03200000  0.35326000  1.0
  C  C48  1  0.43428000  0.50980000  0.92839000  1.0
  C  C49  1  0.93428000  0.99020000  0.57161000  1.0
  C  C50  1  0.56572000  0.49020000  0.07161000  1.0
  C  C51  1  0.06572000  0.00980000  0.42839000  1.0
  C  C52  1  0.31319000  0.45491000  0.98178000  1.0
  C  C53  1  0.81318000  0.04509000  0.51822000  1.0
  C  C54  1  0.68682000  0.54509000  0.01822000  1.0
  C  C55  1  0.18682000  0.95491000  0.48178000  1.0
  C  C56  1  0.62162000  0.55492000  0.94734000  1.0
  C  C57  1  0.12162000  0.94508000  0.55266000  1.0
  C  C58  1  0.37838000  0.44508000  0.05265000  1.0
  C  C59  1  0.87838000  0.05492000  0.44735000  1.0
  O  O60  1  0.69356000  0.63102000  0.68752000  1.0
  O  O61  1  0.19356000  0.86898000  0.81248000  1.0
  O  O62  1  0.30644000  0.36898000  0.31248000  1.0
  O  O63  1  0.80644000  0.13102000  0.18752000  1.0
  O  O64  1  0.82013000  0.40451000  0.77597000  1.0
  O  O65  1  0.32013000  0.09549000  0.72403000  1.0
  O  O66  1  0.17987000  0.59549000  0.22403000  1.0
  O  O67  1  0.67987000  0.90452000  0.27597000  1.0
  O  O68  1  0.92891000  0.53870000  0.61358000  1.0
  O  O69  1  0.42890000  0.96130000  0.88642000  1.0
  O  O70  1  0.07109000  0.46130000  0.38642000  1.0
  O  O71  1  0.57109000  0.03870000  0.11358000  1.0
  O  O72  1  0.30784000  0.70120000  0.67468000  1.0
  O  O73  1  0.80784000  0.79880000  0.82532000  1.0
  O  O74  1  0.69216000  0.29880000  0.32532000  1.0
  O  O75  1  0.19216000  0.20120000  0.17468000  1.0
  O  O76  1  0.25316000  0.40663000  0.67083000  1.0
  O  O77  1  0.75316000  0.09337000  0.82917000  1.0
  O  O78  1  0.74684000  0.59337000  0.32917000  1.0
  O  O79  1  0.24684000  0.90663000  0.17083000  1.0
  O  O80  1  0.18765000  0.50953000  0.83958000  1.0
  O  O81  1  0.68765000  0.99047000  0.66042000  1.0
  O  O82  1  0.81235000  0.49047000  0.16042000  1.0
  O  O83  1  0.31235000  0.00953000  0.33958000  1.0
  O  O84  1  0.47954000  0.58217000  0.80636000  1.0
  O  O85  1  0.97954000  0.91783000  0.69364000  1.0
  O  O86  1  0.52046000  0.41783000  0.19364000  1.0
  O  O87  1  0.02047000  0.08217000  0.30636000  1.0
