# generated using pymatgen
data_ErH18(C2O)7
_symmetry_space_group_name_H-M   'P 1'
_cell_length_a   12.83100000
_cell_length_b   14.06750000
_cell_length_c   18.77030000
_cell_angle_alpha   90.00010000
_cell_angle_beta   89.99980000
_cell_angle_gamma   90.00000000
_symmetry_Int_Tables_number   1
_chemical_formula_structural   ErH18(C2O)7
_chemical_formula_sum   'Er8 H144 C112 O56'
_cell_volume   3388.04088623
_cell_formula_units_Z   8
loop_
 _symmetry_equiv_pos_site_id
 _symmetry_equiv_pos_as_xyz
  1  'x, y, z'
loop_
 _atom_site_type_symbol
 _atom_site_label
 _atom_site_symmetry_multiplicity
 _atom_site_fract_x
 _atom_site_fract_y
 _atom_site_fract_z
 _atom_site_occupancy
  Er  Er0  1  0.71676000  0.00379000  0.88983000  1.0
  Er  Er1  1  0.78323000  0.99621000  0.38983000  1.0
  Er  Er2  1  0.28321000  0.50379000  0.61017000  1.0
  Er  Er3  1  0.21679000  0.49621000  0.11016000  1.0
  Er  Er4  1  0.77252000  0.02074000  0.67197000  1.0
  Er  Er5  1  0.72748000  0.97925000  0.17197000  1.0
  Er  Er6  1  0.22748000  0.52076000  0.82803000  1.0
  Er  Er7  1  0.27254000  0.47926000  0.32804000  1.0
  H  H8  1  0.99349000  0.06810000  0.88156000  1.0
  H  H9  1  0.50650000  0.93190000  0.38156000  1.0
  H  H10  1  0.00651000  0.56810000  0.61844000  1.0
  H  H11  1  0.49349000  0.43190000  0.11844000  1.0
  H  H12  1  0.12326000  0.04171000  0.75083000  1.0
  H  H13  1  0.37674000  0.95829000  0.25083000  1.0
  H  H14  1  0.87673000  0.54171000  0.74917000  1.0
  H  H15  1  0.62327000  0.45829000  0.24917000  1.0
  H  H16  1  0.15308000  0.01330000  0.84028000  1.0
  H  H17  1  0.34691000  0.98670000  0.34028000  1.0
  H  H18  1  0.84692000  0.51331000  0.65972000  1.0
  H  H19  1  0.65309000  0.48670000  0.15972000  1.0
  H  H20  1  0.26696000  0.14840000  0.83242000  1.0
  H  H21  1  0.23304000  0.85160000  0.33242000  1.0
  H  H22  1  0.73304000  0.64840000  0.66758000  1.0
  H  H23  1  0.76697000  0.35160000  0.16757000  1.0
  H  H24  1  0.19859000  0.19329000  0.75825000  1.0
  H  H25  1  0.30140000  0.80671000  0.25825000  1.0
  H  H26  1  0.80140000  0.69329000  0.74175000  1.0
  H  H27  1  0.69860000  0.30671000  0.24175000  1.0
  H  H28  1  0.22438000  0.21653000  0.95337000  1.0
  H  H29  1  0.27562000  0.78348000  0.45338000  1.0
  H  H30  1  0.77562000  0.71652000  0.54662000  1.0
  H  H31  1  0.72438000  0.28347000  0.04662000  1.0
  H  H32  1  0.13215000  0.12309000  0.94522000  1.0
  H  H33  1  0.36785000  0.87690000  0.44523000  1.0
  H  H34  1  0.86785000  0.62310000  0.55477000  1.0
  H  H35  1  0.63215000  0.37690000  0.05477000  1.0
  H  H36  1  0.09094000  0.23674000  0.97397000  1.0
  H  H37  1  0.40907000  0.76326000  0.47397000  1.0
  H  H38  1  0.90907000  0.73674000  0.52603000  1.0
  H  H39  1  0.59094000  0.26326000  0.02603000  1.0
  H  H40  1  0.98819000  0.33346000  0.76868000  1.0
  H  H41  1  0.51181000  0.66655000  0.26867000  1.0
  H  H42  1  0.01181000  0.83345000  0.73133000  1.0
  H  H43  1  0.48819000  0.16654000  0.23132000  1.0
  H  H44  1  0.90736000  0.23618000  0.74516000  1.0
  H  H45  1  0.59264000  0.76382000  0.24516000  1.0
  H  H46  1  0.09264000  0.73618000  0.75485000  1.0
  H  H47  1  0.40736000  0.26382000  0.25485000  1.0
  H  H48  1  0.04033000  0.23444000  0.72145000  1.0
  H  H49  1  0.45966000  0.76556000  0.22145000  1.0
  H  H50  1  0.95967000  0.73444000  0.77855000  1.0
  H  H51  1  0.54034000  0.26555000  0.27855000  1.0
  H  H52  1  0.93550000  0.31798000  0.89943000  1.0
  H  H53  1  0.56450000  0.68202000  0.39944000  1.0
  H  H54  1  0.06450000  0.81799000  0.60057000  1.0
  H  H55  1  0.43551000  0.18201000  0.10057000  1.0
  H  H56  1  0.93485000  0.20349000  0.94078000  1.0
  H  H57  1  0.56515000  0.79652000  0.44078000  1.0
  H  H58  1  0.06515000  0.70349000  0.55922000  1.0
  H  H59  1  0.43485000  0.29651000  0.05922000  1.0
  H  H60  1  0.84900000  0.22755000  0.86995000  1.0
  H  H61  1  0.65100000  0.77246000  0.36995000  1.0
  H  H62  1  0.15101000  0.72754000  0.63005000  1.0
  H  H63  1  0.34900000  0.27245000  0.13005000  1.0
  H  H64  1  0.39875000  0.89545000  0.84739000  1.0
  H  H65  1  0.10124000  0.10455000  0.34740000  1.0
  H  H66  1  0.60125000  0.39545000  0.65260000  1.0
  H  H67  1  0.89876000  0.60454000  0.15261000  1.0
  H  H68  1  0.33558000  0.99680000  0.81408000  1.0
  H  H69  1  0.16443000  0.00320000  0.31409000  1.0
  H  H70  1  0.66443000  0.49680000  0.68591000  1.0
  H  H71  1  0.83559000  0.50320000  0.18592000  1.0
  H  H72  1  0.21145000  0.90159000  0.74919000  1.0
  H  H73  1  0.28856000  0.09841000  0.24919000  1.0
  H  H74  1  0.78855000  0.40160000  0.75080000  1.0
  H  H75  1  0.71145000  0.59840000  0.25080000  1.0
  H  H76  1  0.24602000  0.81484000  0.81288000  1.0
  H  H77  1  0.25397000  0.18516000  0.31289000  1.0
  H  H78  1  0.75398000  0.31484000  0.68711000  1.0
  H  H79  1  0.74603000  0.68515000  0.18712000  1.0
  H  H80  1  0.29303000  0.82051000  0.65924000  1.0
  H  H81  1  0.20697000  0.17949000  0.15925000  1.0
  H  H82  1  0.70697000  0.32051000  0.84075000  1.0
  H  H83  1  0.79303000  0.67948000  0.34076000  1.0
  H  H84  1  0.40355000  0.07528000  0.70803000  1.0
  H  H85  1  0.09645000  0.92471000  0.20804000  1.0
  H  H86  1  0.59644000  0.57529000  0.79196000  1.0
  H  H87  1  0.90357000  0.42472000  0.29198000  1.0
  H  H88  1  0.33869000  0.98569000  0.65862000  1.0
  H  H89  1  0.16131000  0.01430000  0.15862000  1.0
  H  H90  1  0.66130000  0.48570000  0.84138000  1.0
  H  H91  1  0.83871000  0.51431000  0.34139000  1.0
  H  H92  1  0.47249000  0.01153000  0.64149000  1.0
  H  H93  1  0.02751000  0.98847000  0.14150000  1.0
  H  H94  1  0.52751000  0.51152000  0.85850000  1.0
  H  H95  1  0.97251000  0.48849000  0.35852000  1.0
  H  H96  1  0.50537000  0.68702000  0.73395000  1.0
  H  H97  1  0.99464000  0.31298000  0.23395000  1.0
  H  H98  1  0.49464000  0.18701000  0.76606000  1.0
  H  H99  1  0.00535000  0.81299000  0.26605000  1.0
  H  H100  1  0.48641000  0.76049000  0.80951000  1.0
  H  H101  1  0.01360000  0.23950000  0.30952000  1.0
  H  H102  1  0.51360000  0.26049000  0.69048000  1.0
  H  H103  1  0.98639000  0.73951000  0.19048000  1.0
  H  H104  1  0.59425000  0.78032000  0.75174000  1.0
  H  H105  1  0.90575000  0.21968000  0.25175000  1.0
  H  H106  1  0.40575000  0.28031000  0.74826000  1.0
  H  H107  1  0.09424000  0.71970000  0.24825000  1.0
  H  H108  1  0.49383000  0.74683000  0.61488000  1.0
  H  H109  1  0.00617000  0.25316000  0.11489000  1.0
  H  H110  1  0.50617000  0.24684000  0.88511000  1.0
  H  H111  1  0.99384000  0.75319000  0.38511000  1.0
  H  H112  1  0.56699000  0.85246000  0.62822000  1.0
  H  H113  1  0.93301000  0.14754000  0.12823000  1.0
  H  H114  1  0.43300000  0.35246000  0.87177000  1.0
  H  H115  1  0.06701000  0.64756000  0.37177000  1.0
  H  H116  1  0.43871000  0.85940000  0.59309000  1.0
  H  H117  1  0.06129000  0.14059000  0.09309000  1.0
  H  H118  1  0.56129000  0.35941000  0.90691000  1.0
  H  H119  1  0.93873000  0.64061000  0.40691000  1.0
  H  H120  1  0.53155000  0.81103000  0.90920000  1.0
  H  H121  1  0.96844000  0.18897000  0.40920000  1.0
  H  H122  1  0.46845000  0.31103000  0.59081000  1.0
  H  H123  1  0.03156000  0.68896000  0.09080000  1.0
  H  H124  1  0.41779000  0.66812000  0.88781000  1.0
  H  H125  1  0.08219000  0.33189000  0.38780000  1.0
  H  H126  1  0.58219000  0.16810000  0.61220000  1.0
  H  H127  1  0.91780000  0.83188000  0.11220000  1.0
  H  H128  1  0.47416000  0.57539000  0.10233000  1.0
  H  H129  1  0.02584000  0.42460000  0.60234000  1.0
  H  H130  1  0.52584000  0.07541000  0.39766000  1.0
  H  H131  1  0.97414000  0.92458000  0.89767000  1.0
  H  H132  1  0.58826000  0.71695000  0.12302000  1.0
  H  H133  1  0.91176000  0.28304000  0.62302000  1.0
  H  H134  1  0.41177000  0.21698000  0.37698000  1.0
  H  H135  1  0.08823000  0.78302000  0.87698000  1.0
  H  H136  1  0.73251000  0.80005000  0.86684000  1.0
  H  H137  1  0.76750000  0.19994000  0.36684000  1.0
  H  H138  1  0.26749000  0.30005000  0.63315000  1.0
  H  H139  1  0.23252000  0.69994000  0.13316000  1.0
  H  H140  1  0.78614000  0.84366000  0.79667000  1.0
  H  H141  1  0.71386000  0.15634000  0.29667000  1.0
  H  H142  1  0.21384000  0.34366000  0.70333000  1.0
  H  H143  1  0.28616000  0.65633000  0.20333000  1.0
  H  H144  1  0.62041000  0.10402000  0.01750000  1.0
  H  H145  1  0.87958000  0.89598000  0.51751000  1.0
  H  H146  1  0.37957000  0.60402000  0.48250000  1.0
  H  H147  1  0.12043000  0.39598000  0.98249000  1.0
  H  H148  1  0.61052000  0.15718000  0.94153000  1.0
  H  H149  1  0.88947000  0.84281000  0.44153000  1.0
  H  H150  1  0.38946000  0.65718000  0.55847000  1.0
  H  H151  1  0.11054000  0.34281000  0.05847000  1.0
  C  C152  1  0.01096000  0.09612000  0.82831000  1.0
  C  C153  1  0.48903000  0.90388000  0.32831000  1.0
  C  C154  1  0.98904000  0.59612000  0.67170000  1.0
  C  C155  1  0.51097000  0.40388000  0.17169000  1.0
  C  C156  1  0.12293000  0.06956000  0.80538000  1.0
  C  C157  1  0.37707000  0.93044000  0.30538000  1.0
  C  C158  1  0.87707000  0.56956000  0.69462000  1.0
  C  C159  1  0.62294000  0.43044000  0.19462000  1.0
  C  C160  1  0.18850000  0.16099000  0.81091000  1.0
  C  C161  1  0.31150000  0.83901000  0.31092000  1.0
  C  C162  1  0.81150000  0.66099000  0.68909000  1.0
  C  C163  1  0.68850000  0.33901000  0.18908000  1.0
  C  C164  1  0.12541000  0.22773000  0.85953000  1.0
  C  C165  1  0.37459000  0.77227000  0.35953000  1.0
  C  C166  1  0.87459000  0.72773000  0.64047000  1.0
  C  C167  1  0.62541000  0.27227000  0.14047000  1.0
  C  C168  1  0.00867000  0.20781000  0.83526000  1.0
  C  C169  1  0.49133000  0.79219000  0.33526000  1.0
  C  C170  1  0.99134000  0.70781000  0.66474000  1.0
  C  C171  1  0.50867000  0.29219000  0.16474000  1.0
  C  C172  1  0.92844000  0.05562000  0.77918000  1.0
  C  C173  1  0.57156000  0.94439000  0.27918000  1.0
  C  C174  1  0.07155000  0.55561000  0.72082000  1.0
  C  C175  1  0.42845000  0.44439000  0.22082000  1.0
  C  C176  1  0.15369000  0.33212000  0.84882000  1.0
  C  C177  1  0.34630000  0.66788000  0.34882000  1.0
  C  C178  1  0.84631000  0.83212000  0.65118000  1.0
  C  C179  1  0.65370000  0.16788000  0.15118000  1.0
  C  C180  1  0.14394000  0.19977000  0.93773000  1.0
  C  C181  1  0.35606000  0.80023000  0.43773000  1.0
  C  C182  1  0.85607000  0.69977000  0.56227000  1.0
  C  C183  1  0.64394000  0.30023000  0.06227000  1.0
  C  C184  1  0.98569000  0.25566000  0.76343000  1.0
  C  C185  1  0.51431000  0.74434000  0.26344000  1.0
  C  C186  1  0.01431000  0.75566000  0.73656000  1.0
  C  C187  1  0.48569000  0.24434000  0.23656000  1.0
  C  C188  1  0.92796000  0.24117000  0.88985000  1.0
  C  C189  1  0.57204000  0.75883000  0.38985000  1.0
  C  C190  1  0.07205000  0.74117000  0.61015000  1.0
  C  C191  1  0.42797000  0.25883000  0.11015000  1.0
  C  C192  1  0.44534000  0.93143000  0.73974000  1.0
  C  C193  1  0.05466000  0.06856000  0.23974000  1.0
  C  C194  1  0.55465000  0.43144000  0.76026000  1.0
  C  C195  1  0.94535000  0.56857000  0.26027000  1.0
  C  C196  1  0.36347000  0.92570000  0.79932000  1.0
  C  C197  1  0.13653000  0.07430000  0.29932000  1.0
  C  C198  1  0.63654000  0.42569000  0.70068000  1.0
  C  C199  1  0.86348000  0.57430000  0.20069000  1.0
  C  C200  1  0.27709000  0.86087000  0.77081000  1.0
  C  C201  1  0.22291000  0.13913000  0.27082000  1.0
  C  C202  1  0.72291000  0.36087000  0.72918000  1.0
  C  C203  1  0.77709000  0.63913000  0.22919000  1.0
  C  C204  1  0.32670000  0.80097000  0.71110000  1.0
  C  C205  1  0.17330000  0.19902000  0.21111000  1.0
  C  C206  1  0.67330000  0.30097000  0.78889000  1.0
  C  C207  1  0.82670000  0.69903000  0.28890000  1.0
  C  C208  1  0.44608000  0.82729000  0.70746000  1.0
  C  C209  1  0.05393000  0.17270000  0.20746000  1.0
  C  C210  1  0.55393000  0.32730000  0.79254000  1.0
  C  C211  1  0.94607000  0.67271000  0.29254000  1.0
  C  C212  1  0.55302000  0.95643000  0.76920000  1.0
  C  C213  1  0.94698000  0.04356000  0.26920000  1.0
  C  C214  1  0.44698000  0.45644000  0.73080000  1.0
  C  C215  1  0.05303000  0.54357000  0.23081000  1.0
  C  C216  1  0.30972000  0.69464000  0.71807000  1.0
  C  C217  1  0.19027000  0.30537000  0.21807000  1.0
  C  C218  1  0.69027000  0.19463000  0.78192000  1.0
  C  C219  1  0.80971000  0.80536000  0.28193000  1.0
  C  C220  1  0.41341000  0.00511000  0.68330000  1.0
  C  C221  1  0.08659000  0.99489000  0.18331000  1.0
  C  C222  1  0.58659000  0.50512000  0.81669000  1.0
  C  C223  1  0.91342000  0.49489000  0.31671000  1.0
  C  C224  1  0.51154000  0.76020000  0.75386000  1.0
  C  C225  1  0.98847000  0.23980000  0.25387000  1.0
  C  C226  1  0.48847000  0.26019000  0.74613000  1.0
  C  C227  1  0.01152000  0.73981000  0.24613000  1.0
  C  C228  1  0.48850000  0.82171000  0.63134000  1.0
  C  C229  1  0.01150000  0.17828000  0.13135000  1.0
  C  C230  1  0.51150000  0.32172000  0.86865000  1.0
  C  C231  1  0.98851000  0.67831000  0.36865000  1.0
  C  C232  1  0.56836000  0.77061000  0.01664000  1.0
  C  C233  1  0.93164000  0.22939000  0.51664000  1.0
  C  C234  1  0.43165000  0.27062000  0.48336000  1.0
  C  C235  1  0.06835000  0.72938000  0.98336000  1.0
  C  C236  1  0.51986000  0.75746000  0.95044000  1.0
  C  C237  1  0.98012000  0.24254000  0.45044000  1.0
  C  C238  1  0.48013000  0.25746000  0.54956000  1.0
  C  C239  1  0.01987000  0.74253000  0.04955000  1.0
  C  C240  1  0.45669000  0.67859000  0.93881000  1.0
  C  C241  1  0.04330000  0.32142000  0.43880000  1.0
  C  C242  1  0.54329000  0.17859000  0.56120000  1.0
  C  C243  1  0.95670000  0.82140000  0.06120000  1.0
  C  C244  1  0.44148000  0.61163000  0.99319000  1.0
  C  C245  1  0.05850000  0.38837000  0.49318000  1.0
  C  C246  1  0.55850000  0.11163000  0.50683000  1.0
  C  C247  1  0.94147000  0.88835000  0.00682000  1.0
  C  C248  1  0.48875000  0.62600000  0.05973000  1.0
  C  C249  1  0.01125000  0.37400000  0.55973000  1.0
  C  C250  1  0.51125000  0.12600000  0.44027000  1.0
  C  C251  1  0.98873000  0.87398000  0.94027000  1.0
  C  C252  1  0.55172000  0.70484000  0.07148000  1.0
  C  C253  1  0.94829000  0.29516000  0.57148000  1.0
  C  C254  1  0.44830000  0.20485000  0.42851000  1.0
  C  C255  1  0.05169000  0.79514000  0.92852000  1.0
  C  C256  1  0.63714000  0.85523000  0.02851000  1.0
  C  C257  1  0.86286000  0.14478000  0.52850000  1.0
  C  C258  1  0.36286000  0.35523000  0.47150000  1.0
  C  C259  1  0.13715000  0.64478000  0.97149000  1.0
  C  C260  1  0.37313000  0.52674000  0.98086000  1.0
  C  C261  1  0.12686000  0.47326000  0.48086000  1.0
  C  C262  1  0.62686000  0.02674000  0.51915000  1.0
  C  C263  1  0.87312000  0.97325000  0.01914000  1.0
  O  O264  1  0.83933000  0.03010000  0.80499000  1.0
  O  O265  1  0.66067000  0.96990000  0.30499000  1.0
  O  O266  1  0.16066000  0.53010000  0.69502000  1.0
  O  O267  1  0.33933000  0.46990000  0.19502000  1.0
  O  O268  1  0.94439000  0.04748000  0.71292000  1.0
  O  O269  1  0.55560000  0.95254000  0.21292000  1.0
  O  O270  1  0.05561000  0.54747000  0.78709000  1.0
  O  O271  1  0.44439000  0.45254000  0.28709000  1.0
  O  O272  1  0.13703000  0.39440000  0.89710000  1.0
  O  O273  1  0.36295000  0.60560000  0.39710000  1.0
  O  O274  1  0.86296000  0.89440000  0.60290000  1.0
  O  O275  1  0.63705000  0.10560000  0.10290000  1.0
  O  O276  1  0.19581000  0.36065000  0.79060000  1.0
  O  O277  1  0.30419000  0.63935000  0.29061000  1.0
  O  O278  1  0.80420000  0.86065000  0.70939000  1.0
  O  O279  1  0.69581000  0.13935000  0.20939000  1.0
  O  O280  1  0.62628000  0.97399000  0.72567000  1.0
  O  O281  1  0.87372000  0.02599000  0.22567000  1.0
  O  O282  1  0.37372000  0.47400000  0.77433000  1.0
  O  O283  1  0.12628000  0.52601000  0.27434000  1.0
  O  O284  1  0.56645000  0.95691000  0.83646000  1.0
  O  O285  1  0.93354000  0.04308000  0.33646000  1.0
  O  O286  1  0.43357000  0.45692000  0.66354000  1.0
  O  O287  1  0.06646000  0.54309000  0.16355000  1.0
  O  O288  1  0.32556000  0.64576000  0.66165000  1.0
  O  O289  1  0.17444000  0.35425000  0.16165000  1.0
  O  O290  1  0.67442000  0.14574000  0.83834000  1.0
  O  O291  1  0.82555000  0.85425000  0.33835000  1.0
  O  O292  1  0.28211000  0.66013000  0.77770000  1.0
  O  O293  1  0.21789000  0.33987000  0.27770000  1.0
  O  O294  1  0.71790000  0.16013000  0.72230000  1.0
  O  O295  1  0.78208000  0.83987000  0.22231000  1.0
  O  O296  1  0.65885000  0.87740000  0.09218000  1.0
  O  O297  1  0.84115000  0.12260000  0.59219000  1.0
  O  O298  1  0.34114000  0.37740000  0.40782000  1.0
  O  O299  1  0.15888000  0.62263000  0.90781000  1.0
  O  O300  1  0.67023000  0.89897000  0.97359000  1.0
  O  O301  1  0.82976000  0.10103000  0.47359000  1.0
  O  O302  1  0.32977000  0.39897000  0.52641000  1.0
  O  O303  1  0.17025000  0.60102000  0.02639000  1.0
  O  O304  1  0.35034000  0.47456000  0.03456000  1.0
  O  O305  1  0.14967000  0.52544000  0.53457000  1.0
  O  O306  1  0.64966000  0.97456000  0.46545000  1.0
  O  O307  1  0.85033000  0.02542000  0.96543000  1.0
  O  O308  1  0.34156000  0.50999000  0.91817000  1.0
  O  O309  1  0.15844000  0.49000000  0.41817000  1.0
  O  O310  1  0.65844000  0.01000000  0.58183000  1.0
  O  O311  1  0.84156000  0.99000000  0.08183000  1.0
  O  O312  1  0.77325000  0.85296000  0.84870000  1.0
  O  O313  1  0.72674000  0.14704000  0.34870000  1.0
  O  O314  1  0.22674000  0.35295000  0.65129000  1.0
  O  O315  1  0.27327000  0.64703000  0.15129000  1.0
  O  O316  1  0.61348000  0.09516000  0.96459000  1.0
  O  O317  1  0.88651000  0.90484000  0.46459000  1.0
  O  O318  1  0.38651000  0.59515000  0.53541000  1.0
  O  O319  1  0.11350000  0.40484000  0.03541000  1.0
