# generated using pymatgen
data_ZnH12C18N5O2
_symmetry_space_group_name_H-M   'P 1'
_cell_length_a   7.09226000
_cell_length_b   15.04590000
_cell_length_c   17.16090000
_cell_angle_alpha   89.99990000
_cell_angle_beta   89.99890000
_cell_angle_gamma   83.43070000
_symmetry_Int_Tables_number   1
_chemical_formula_structural   ZnH12C18N5O2
_chemical_formula_sum   'Zn4 H48 C72 N20 O8'
_cell_volume   1819.20646363
_cell_formula_units_Z   4
loop_
 _symmetry_equiv_pos_site_id
 _symmetry_equiv_pos_as_xyz
  1  'x, y, z'
loop_
 _atom_site_type_symbol
 _atom_site_label
 _atom_site_symmetry_multiplicity
 _atom_site_fract_x
 _atom_site_fract_y
 _atom_site_fract_z
 _atom_site_occupancy
  Zn  Zn0  1  0.21562000  0.76248000  0.24808000  1.0
  Zn  Zn1  1  0.28436000  0.73753000  0.74807000  1.0
  Zn  Zn2  1  0.78438000  0.23752000  0.75193000  1.0
  Zn  Zn3  1  0.71563000  0.26247000  0.25193000  1.0
  H  H4  1  0.84637000  0.77225000  0.27785000  1.0
  H  H5  1  0.65364000  0.72773000  0.77785000  1.0
  H  H6  1  0.15366000  0.22773000  0.72215000  1.0
  H  H7  1  0.34636000  0.27226000  0.22215000  1.0
  H  H8  1  0.55160000  0.14083000  0.43207000  1.0
  H  H9  1  0.94836000  0.35918000  0.93205000  1.0
  H  H10  1  0.44843000  0.85917000  0.56794000  1.0
  H  H11  1  0.05160000  0.64083000  0.06794000  1.0
  H  H12  1  0.04629000  0.57634000  0.37438000  1.0
  H  H13  1  0.45371000  0.92365000  0.87438000  1.0
  H  H14  1  0.95376000  0.42366000  0.62563000  1.0
  H  H15  1  0.54632000  0.07634000  0.12563000  1.0
  H  H16  1  0.59637000  0.64444000  0.97736000  1.0
  H  H17  1  0.90361000  0.85555000  0.47736000  1.0
  H  H18  1  0.40362000  0.35554000  0.02264000  1.0
  H  H19  1  0.09638000  0.14444000  0.52263000  1.0
  H  H20  1  0.12730000  0.55584000  0.62311000  1.0
  H  H21  1  0.37276000  0.94417000  0.12313000  1.0
  H  H22  1  0.87275000  0.44418000  0.37689000  1.0
  H  H23  1  0.62723000  0.05582000  0.87689000  1.0
  H  H24  1  0.41777000  0.86815000  0.42562000  1.0
  H  H25  1  0.08222000  0.63186000  0.92563000  1.0
  H  H26  1  0.58225000  0.13186000  0.57438000  1.0
  H  H27  1  0.91775000  0.36814000  0.07436000  1.0
  H  H28  1  0.59318000  0.73530000  0.09833000  1.0
  H  H29  1  0.90681000  0.76469000  0.59833000  1.0
  H  H30  1  0.40681000  0.26469000  0.90167000  1.0
  H  H31  1  0.09319000  0.23530000  0.40166000  1.0
  H  H32  1  0.85082000  0.92566000  0.18043000  1.0
  H  H33  1  0.64916000  0.57433000  0.68042000  1.0
  H  H34  1  0.14917000  0.07433000  0.81958000  1.0
  H  H35  1  0.35085000  0.42568000  0.31956000  1.0
  H  H36  1  0.64422000  0.87334000  0.20615000  1.0
  H  H37  1  0.85578000  0.62663000  0.70613000  1.0
  H  H38  1  0.35579000  0.12663000  0.79386000  1.0
  H  H39  1  0.14423000  0.37336000  0.29385000  1.0
  H  H40  1  0.82770000  0.81626000  0.14612000  1.0
  H  H41  1  0.67230000  0.68372000  0.64611000  1.0
  H  H42  1  0.17232000  0.18371000  0.85389000  1.0
  H  H43  1  0.32769000  0.31629000  0.35388000  1.0
  H  H44  1  0.42916000  0.52977000  0.23285000  1.0
  H  H45  1  0.07085000  0.97023000  0.73285000  1.0
  H  H46  1  0.57085000  0.47022000  0.76715000  1.0
  H  H47  1  0.92917000  0.02977000  0.26714000  1.0
  H  H48  1  0.42734000  0.42838000  0.11998000  1.0
  H  H49  1  0.07265000  0.07161000  0.61996000  1.0
  H  H50  1  0.57265000  0.57160000  0.88004000  1.0
  H  H51  1  0.92736000  0.92838000  0.38002000  1.0
  C  C52  1  0.09993000  0.57664000  0.49855000  1.0
  C  C53  1  0.40009000  0.92336000  0.99856000  1.0
  C  C54  1  0.90013000  0.42337000  0.50145000  1.0
  C  C55  1  0.59994000  0.07663000  0.00145000  1.0
  C  C56  1  0.20071000  0.65721000  0.49728000  1.0
  C  C57  1  0.29930000  0.84282000  0.99730000  1.0
  C  C58  1  0.79933000  0.34282000  0.50271000  1.0
  C  C59  1  0.70069000  0.15720000  0.00271000  1.0
  C  C60  1  0.51437000  0.08445000  0.29320000  1.0
  C  C61  1  0.98558000  0.41557000  0.79320000  1.0
  C  C62  1  0.48562000  0.91557000  0.70680000  1.0
  C  C63  1  0.01436000  0.58443000  0.20680000  1.0
  C  C64  1  0.48298000  0.00519000  0.41780000  1.0
  C  C65  1  0.01698000  0.49483000  0.91779000  1.0
  C  C66  1  0.51701000  0.99482000  0.58220000  1.0
  C  C67  1  0.98298000  0.50518000  0.08219000  1.0
  C  C68  1  0.38058000  0.94479000  0.29302000  1.0
  C  C69  1  0.11936000  0.55525000  0.79301000  1.0
  C  C70  1  0.61942000  0.05524000  0.70698000  1.0
  C  C71  1  0.88058000  0.44477000  0.20698000  1.0
  C  C72  1  0.52898000  0.07868000  0.46153000  1.0
  C  C73  1  0.97101000  0.42133000  0.96152000  1.0
  C  C74  1  0.47102000  0.92133000  0.53847000  1.0
  C  C75  1  0.02898000  0.57867000  0.03847000  1.0
  C  C76  1  0.26902000  0.68899000  0.56621000  1.0
  C  C77  1  0.23099000  0.81101000  0.06621000  1.0
  C  C78  1  0.73099000  0.31103000  0.43379000  1.0
  C  C79  1  0.76901000  0.18897000  0.93378000  1.0
  C  C80  1  0.02629000  0.54320000  0.42979000  1.0
  C  C81  1  0.47369000  0.95681000  0.92980000  1.0
  C  C82  1  0.97374000  0.45680000  0.57021000  1.0
  C  C83  1  0.52629000  0.04320000  0.07021000  1.0
  C  C84  1  0.50393000  0.52762000  0.03516000  1.0
  C  C85  1  0.99607000  0.97236000  0.53514000  1.0
  C  C86  1  0.49606000  0.47236000  0.96485000  1.0
  C  C87  1  0.00393000  0.02763000  0.46484000  1.0
  C  C88  1  0.21451000  0.70416000  0.42840000  1.0
  C  C89  1  0.28550000  0.79584000  0.92842000  1.0
  C  C90  1  0.78548000  0.29586000  0.57160000  1.0
  C  C91  1  0.71451000  0.20414000  0.07160000  1.0
  C  C92  1  0.46079000  0.01120000  0.33258000  1.0
  C  C93  1  0.03913000  0.48883000  0.83257000  1.0
  C  C94  1  0.53917000  0.98883000  0.66742000  1.0
  C  C95  1  0.96082000  0.51118000  0.16742000  1.0
  C  C96  1  0.55558000  0.61502000  0.03178000  1.0
  C  C97  1  0.94441000  0.88497000  0.53178000  1.0
  C  C98  1  0.44439000  0.38496000  0.96822000  1.0
  C  C99  1  0.05559000  0.11502000  0.46822000  1.0
  C  C100  1  0.07170000  0.53173000  0.56876000  1.0
  C  C101  1  0.42833000  0.96827000  0.06877000  1.0
  C  C102  1  0.92836000  0.46828000  0.43124000  1.0
  C  C103  1  0.57166000  0.03173000  0.93125000  1.0
  C  C104  1  0.45472000  0.92625000  0.45786000  1.0
  C  C105  1  0.04528000  0.57376000  0.95786000  1.0
  C  C106  1  0.54528000  0.07376000  0.54215000  1.0
  C  C107  1  0.95472000  0.42624000  0.04214000  1.0
  C  C108  1  0.55608000  0.66730000  0.09776000  1.0
  C  C109  1  0.94392000  0.83269000  0.59776000  1.0
  C  C110  1  0.44392000  0.33268000  0.90224000  1.0
  C  C111  1  0.05608000  0.16730000  0.40223000  1.0
  C  C112  1  0.79722000  0.86237000  0.19534000  1.0
  C  C113  1  0.70275000  0.63761000  0.69534000  1.0
  C  C114  1  0.20278000  0.13762000  0.80466000  1.0
  C  C115  1  0.29725000  0.36239000  0.30465000  1.0
  C  C116  1  0.46248000  0.55033000  0.17434000  1.0
  C  C117  1  0.03751000  0.94967000  0.67432000  1.0
  C  C118  1  0.53749000  0.44967000  0.82567000  1.0
  C  C119  1  0.96246000  0.05034000  0.32565000  1.0
  C  C120  1  0.46212000  0.49599000  0.10964000  1.0
  C  C121  1  0.03789000  0.00400000  0.60963000  1.0
  C  C122  1  0.53790000  0.50399000  0.89037000  1.0
  C  C123  1  0.96209000  0.99599000  0.39035000  1.0
  N  N124  1  0.30881000  0.88589000  0.26480000  1.0
  N  N125  1  0.19117000  0.61413000  0.76480000  1.0
  N  N126  1  0.69120000  0.11411000  0.73522000  1.0
  N  N127  1  0.80879000  0.38588000  0.23521000  1.0
  N  N128  1  0.21544000  0.74053000  0.36771000  1.0
  N  N129  1  0.28455000  0.75949000  0.86773000  1.0
  N  N130  1  0.78455000  0.25949000  0.63228000  1.0
  N  N131  1  0.71546000  0.24052000  0.13229000  1.0
  N  N132  1  0.50410000  0.63621000  0.16814000  1.0
  N  N133  1  0.99589000  0.86380000  0.66814000  1.0
  N  N134  1  0.49588000  0.36378000  0.83186000  1.0
  N  N135  1  0.00410000  0.13621000  0.33185000  1.0
  N  N136  1  0.31847000  0.71127000  0.62807000  1.0
  N  N137  1  0.18152000  0.78874000  0.12807000  1.0
  N  N138  1  0.68154000  0.28873000  0.37195000  1.0
  N  N139  1  0.81848000  0.21126000  0.87194000  1.0
  N  N140  1  0.56433000  0.14927000  0.26518000  1.0
  N  N141  1  0.93566000  0.35074000  0.76517000  1.0
  N  N142  1  0.43568000  0.85074000  0.73483000  1.0
  N  N143  1  0.06433000  0.64926000  0.23483000  1.0
  O  O144  1  0.89634000  0.82821000  0.26453000  1.0
  O  O145  1  0.60366000  0.67177000  0.76452000  1.0
  O  O146  1  0.10367000  0.17178000  0.73547000  1.0
  O  O147  1  0.39635000  0.32822000  0.23547000  1.0
  O  O148  1  0.49296000  0.68924000  0.22988000  1.0
  O  O149  1  0.00702000  0.81077000  0.72987000  1.0
  O  O150  1  0.50702000  0.31075000  0.77013000  1.0
  O  O151  1  0.99299000  0.18924000  0.27012000  1.0
