# generated using pymatgen
data_CdH8C10(SN3)2
_symmetry_space_group_name_H-M   'P 1'
_cell_length_a   6.88969000
_cell_length_b   7.56652000
_cell_length_c   7.56648000
_cell_angle_alpha   89.11140000
_cell_angle_beta   70.60590000
_cell_angle_gamma   70.60640000
_symmetry_Int_Tables_number   1
_chemical_formula_structural   CdH8C10(SN3)2
_chemical_formula_sum   'Cd1 H8 C10 S2 N6'
_cell_volume   348.95875403
_cell_formula_units_Z   1
loop_
 _symmetry_equiv_pos_site_id
 _symmetry_equiv_pos_as_xyz
  1  'x, y, z'
loop_
 _atom_site_type_symbol
 _atom_site_label
 _atom_site_symmetry_multiplicity
 _atom_site_fract_x
 _atom_site_fract_y
 _atom_site_fract_z
 _atom_site_occupancy
  Cd  Cd0  1  0.99999000  0.50001000  0.50001000  1.0
  H  H1  1  0.32491000  0.29994000  0.06096000  1.0
  H  H2  1  0.67509000  0.93905000  0.70005000  1.0
  H  H3  1  0.67508000  0.70004000  0.93906000  1.0
  H  H4  1  0.32491000  0.06096000  0.29994000  1.0
  H  H5  1  0.69540000  0.69686000  0.26797000  1.0
  H  H6  1  0.30461000  0.73204000  0.30311000  1.0
  H  H7  1  0.30460000  0.30311000  0.73204000  1.0
  H  H8  1  0.69540000  0.26797000  0.69687000  1.0
  C  C9  1  0.52992000  0.28181000  0.28181000  1.0
  C  C10  1  0.47010000  0.71820000  0.71820000  1.0
  C  C11  1  0.17914000  0.38942000  0.03379000  1.0
  C  C12  1  0.82086000  0.96622000  0.61057000  1.0
  C  C13  1  0.82086000  0.61058000  0.96622000  1.0
  C  C14  1  0.17914000  0.03378000  0.38942000  1.0
  C  C15  1  0.83119000  0.60967000  0.14693000  1.0
  C  C16  1  0.16882000  0.85308000  0.39032000  1.0
  C  C17  1  0.16881000  0.39033000  0.85308000  1.0
  C  C18  1  0.83119000  0.14692000  0.60966000  1.0
  S  S19  1  0.74104000  0.12825000  0.12824000  1.0
  S  S20  1  0.25894000  0.87176000  0.87176000  1.0
  N  N21  1  0.37232000  0.39431000  0.39432000  1.0
  N  N22  1  0.62769000  0.60569000  0.60569000  1.0
  N  N23  1  0.01013000  0.49900000  0.17970000  1.0
  N  N24  1  0.98986000  0.82032000  0.50099000  1.0
  N  N25  1  0.98985000  0.50099000  0.82032000  1.0
  N  N26  1  0.01015000  0.17968000  0.49900000  1.0
