# generated using pymatgen
data_ZnH7C21N3Cl5O4
_symmetry_space_group_name_H-M   'P 1'
_cell_length_a   15.31580000
_cell_length_b   15.89100000
_cell_length_c   17.22120000
_cell_angle_alpha   93.57050000
_cell_angle_beta   90.07190000
_cell_angle_gamma   92.95010000
_symmetry_Int_Tables_number   1
_chemical_formula_structural   ZnH7C21N3Cl5O4
_chemical_formula_sum   'Zn2 H14 C42 N6 Cl10 O8'
_cell_volume   4177.63240426
_cell_formula_units_Z   2
loop_
 _symmetry_equiv_pos_site_id
 _symmetry_equiv_pos_as_xyz
  1  'x, y, z'
loop_
 _atom_site_type_symbol
 _atom_site_label
 _atom_site_symmetry_multiplicity
 _atom_site_fract_x
 _atom_site_fract_y
 _atom_site_fract_z
 _atom_site_occupancy
  Zn  Zn0  1  0.50545000  0.58857000  0.49831000  1.0
  Zn  Zn1  1  0.49455000  0.41143000  0.50169000  1.0
  H  H2  1  0.41970000  0.88955000  0.57414000  1.0
  H  H3  1  0.58030000  0.11045000  0.42586000  1.0
  H  H4  1  0.39604000  0.28807000  0.59560000  1.0
  H  H5  1  0.60396000  0.71193000  0.40440000  1.0
  H  H6  1  0.92362000  0.60283000  0.67891000  1.0
  H  H7  1  0.07638000  0.39717000  0.32109000  1.0
  H  H8  1  0.08423000  0.60432000  0.67960000  1.0
  H  H9  1  0.91577000  0.39568000  0.32041000  1.0
  H  H10  1  0.41539000  0.57426000  0.10314000  1.0
  H  H11  1  0.58467000  0.42575000  0.89685000  1.0
  H  H12  1  0.43103000  0.62937000  0.74558000  1.0
  H  H13  1  0.56899000  0.37064000  0.25443000  1.0
  H  H14  1  0.41646000  0.73010000  0.57730000  1.0
  H  H15  1  0.58354000  0.26990000  0.42270000  1.0
  C  C16  1  0.50639000  0.51662000  0.65165000  1.0
  C  C17  1  0.49362000  0.48339000  0.34834000  1.0
  C  C18  1  0.04742000  0.57512000  0.63001000  1.0
  C  C19  1  0.95257000  0.42488000  0.37000000  1.0
  C  C20  1  0.51137000  0.52256000  0.73897000  1.0
  C  C21  1  0.48865000  0.47745000  0.26103000  1.0
  C  C22  1  0.55697000  0.46610000  0.78239000  1.0
  C  C23  1  0.44307000  0.53390000  0.21760000  1.0
  C  C24  1  0.55038000  0.46930000  0.86278000  1.0
  C  C25  1  0.44967000  0.53071000  0.13721000  1.0
  C  C26  1  0.49881000  0.52851000  0.90268000  1.0
  C  C27  1  0.50124000  0.47150000  0.09732000  1.0
  C  C28  1  0.45758000  0.58828000  0.85979000  1.0
  C  C29  1  0.54246000  0.41172000  0.14021000  1.0
  C  C30  1  0.46417000  0.58448000  0.77901000  1.0
  C  C31  1  0.53586000  0.41553000  0.22099000  1.0
  C  C32  1  0.54087000  0.23554000  0.46176000  1.0
  C  C33  1  0.45913000  0.76447000  0.53824000  1.0
  C  C34  1  0.53913000  0.14867000  0.46385000  1.0
  C  C35  1  0.46086000  0.85133000  0.53615000  1.0
  C  C36  1  0.48278000  0.10853000  0.51608000  1.0
  C  C37  1  0.51722000  0.89148000  0.48392000  1.0
  C  C38  1  0.32992000  0.50077000  0.50198000  1.0
  C  C39  1  0.67007000  0.49923000  0.49802000  1.0
  C  C40  1  0.43018000  0.15914000  0.56499000  1.0
  C  C41  1  0.56982000  0.84087000  0.43501000  1.0
  C  C42  1  0.43570000  0.24667000  0.55902000  1.0
  C  C43  1  0.56430000  0.75333000  0.44098000  1.0
  C  C44  1  0.81350000  0.46276000  0.43545000  1.0
  C  C45  1  0.18650000  0.53723000  0.56456000  1.0
  C  C46  1  0.76851000  0.49875000  0.49876000  1.0
  C  C47  1  0.23149000  0.50125000  0.50124000  1.0
  C  C48  1  0.81620000  0.53485000  0.56291000  1.0
  C  C49  1  0.18380000  0.46515000  0.43710000  1.0
  C  C50  1  0.90839000  0.53670000  0.56522000  1.0
  C  C51  1  0.09161000  0.46330000  0.43479000  1.0
  C  C52  1  0.95328000  0.49962000  0.49981000  1.0
  C  C53  1  0.04671000  0.50038000  0.50019000  1.0
  C  C54  1  0.90554000  0.46176000  0.43395000  1.0
  C  C55  1  0.09446000  0.53824000  0.56606000  1.0
  C  C56  1  0.95827000  0.57431000  0.62964000  1.0
  C  C57  1  0.04173000  0.42569000  0.37037000  1.0
  N  N58  1  0.48706000  0.53187000  0.98365000  1.0
  N  N59  1  0.51300000  0.46814000  0.01635000  1.0
  N  N60  1  0.48952000  0.28308000  0.50849000  1.0
  N  N61  1  0.51048000  0.71692000  0.49151000  1.0
  N  N62  1  0.47501000  0.02050000  0.52256000  1.0
  N  N63  1  0.52499000  0.97951000  0.47744000  1.0
  Cl  Cl64  1  0.75343000  0.42009000  0.35558000  1.0
  Cl  Cl65  1  0.24657000  0.57990000  0.64442000  1.0
  Cl  Cl66  1  0.35983000  0.11729000  0.63125000  1.0
  Cl  Cl67  1  0.64016000  0.88271000  0.36875000  1.0
  Cl  Cl68  1  0.75949000  0.57697000  0.64169000  1.0
  Cl  Cl69  1  0.24051000  0.42304000  0.35831000  1.0
  Cl  Cl70  1  0.37531000  0.60631000  0.26168000  1.0
  Cl  Cl71  1  0.62471000  0.39370000  0.73830000  1.0
  Cl  Cl72  1  0.39659000  0.66482000  0.90561000  1.0
  Cl  Cl73  1  0.60345000  0.33518000  0.09439000  1.0
  O  O74  1  0.50817000  0.58568000  0.61780000  1.0
  O  O75  1  0.49183000  0.41432000  0.38220000  1.0
  O  O76  1  0.49760000  0.44272000  0.61955000  1.0
  O  O77  1  0.50240000  0.55729000  0.38045000  1.0
  O  O78  1  0.37093000  0.57156000  0.49714000  1.0
  O  O79  1  0.62907000  0.42845000  0.50286000  1.0
  O  O80  1  0.36215000  0.42946000  0.50709000  1.0
  O  O81  1  0.63785000  0.57054000  0.49291000  1.0
