# generated using pymatgen
data_EuH23C22N2O9
_symmetry_space_group_name_H-M   'P 1'
_cell_length_a   13.41250000
_cell_length_b   14.53770000
_cell_length_c   15.90908200
_cell_angle_alpha   62.81242505
_cell_angle_beta   80.19420019
_cell_angle_gamma   90.00070000
_symmetry_Int_Tables_number   1
_chemical_formula_structural   EuH23C22N2O9
_chemical_formula_sum   'Eu4 H92 C88 N8 O36'
_cell_volume   2708.28123235
_cell_formula_units_Z   4
loop_
 _symmetry_equiv_pos_site_id
 _symmetry_equiv_pos_as_xyz
  1  'x, y, z'
loop_
 _atom_site_type_symbol
 _atom_site_label
 _atom_site_symmetry_multiplicity
 _atom_site_fract_x
 _atom_site_fract_y
 _atom_site_fract_z
 _atom_site_occupancy
  Eu  Eu0  1  0.55009000  0.60704000  0.35861000  1.0
  Eu  Eu1  1  0.94988000  0.96565000  0.64140000  1.0
  Eu  Eu2  1  0.44991000  0.39296000  0.64139000  1.0
  Eu  Eu3  1  0.05012000  0.03435000  0.35860000  1.0
  H  H4  1  0.20659000  0.26415000  0.55088000  1.0
  H  H5  1  0.29338000  0.81506000  0.44911000  1.0
  H  H6  1  0.79341000  0.73585000  0.44912000  1.0
  H  H7  1  0.70662000  0.18494000  0.55089000  1.0
  H  H8  1  0.07587000  0.27845000  0.31649000  1.0
  H  H9  1  0.42410000  0.59492000  0.68348000  1.0
  H  H10  1  0.92413000  0.72155000  0.68351000  1.0
  H  H11  1  0.57590000  0.40507000  0.31653000  1.0
  H  H12  1  0.29779000  0.52055000  0.26812000  1.0
  H  H13  1  0.20225000  0.78868000  0.73189000  1.0
  H  H14  1  0.70221000  0.47945000  0.73188000  1.0
  H  H15  1  0.79775000  0.21132000  0.26811000  1.0
  H  H16  1  0.24106000  0.46205000  0.12902000  1.0
  H  H17  1  0.25895000  0.59106000  0.87097000  1.0
  H  H18  1  0.75894000  0.53795000  0.87098000  1.0
  H  H19  1  0.74105000  0.40894000  0.12903000  1.0
  H  H20  1  0.10872000  0.42040000  0.16805000  1.0
  H  H21  1  0.39128000  0.58841000  0.83192000  1.0
  H  H22  1  0.89128000  0.57960000  0.83195000  1.0
  H  H23  1  0.60872000  0.41159000  0.16808000  1.0
  H  H24  1  0.11487000  0.51066000  0.01867000  1.0
  H  H25  1  0.38513000  0.52928000  0.98132000  1.0
  H  H26  1  0.88513000  0.48934000  0.98133000  1.0
  H  H27  1  0.61487000  0.47072000  0.01868000  1.0
  H  H28  1  0.04624000  0.62762000  0.87454000  1.0
  H  H29  1  0.45371000  0.50208000  0.12549000  1.0
  H  H30  1  0.95376000  0.37238000  0.12546000  1.0
  H  H31  1  0.54629000  0.49793000  0.87451000  1.0
  H  H32  1  0.04229000  0.86922000  0.95804000  1.0
  H  H33  1  0.45772000  0.82719000  0.04198000  1.0
  H  H34  1  0.95771000  0.13078000  0.04196000  1.0
  H  H35  1  0.54228000  0.17281000  0.95802000  1.0
  H  H36  1  0.10909000  0.75181000  0.10600000  1.0
  H  H37  1  0.39097000  0.85776000  0.89399000  1.0
  H  H38  1  0.89091000  0.24819000  0.89400000  1.0
  H  H39  1  0.60903000  0.14224000  0.10601000  1.0
  H  H40  1  0.80981000  0.65049000  0.34614000  1.0
  H  H41  1  0.69015000  0.99661000  0.65391000  1.0
  H  H42  1  0.19019000  0.34951000  0.65386000  1.0
  H  H43  1  0.30985000  0.00338000  0.34610000  1.0
  H  H44  1  0.81829000  0.45127000  0.27184000  1.0
  H  H45  1  0.68171000  0.72312000  0.72802000  1.0
  H  H46  1  0.18171000  0.54873000  0.72816000  1.0
  H  H47  1  0.31829000  0.27688000  0.27198000  1.0
  H  H48  1  0.90667000  0.38732000  0.34807000  1.0
  H  H49  1  0.59329000  0.73545000  0.65182000  1.0
  H  H50  1  0.09333000  0.61268000  0.65193000  1.0
  H  H51  1  0.40671000  0.26455000  0.34818000  1.0
  H  H52  1  0.95248000  0.48236000  0.22628000  1.0
  H  H53  1  0.54753000  0.70862000  0.77364000  1.0
  H  H54  1  0.04752000  0.51764000  0.77372000  1.0
  H  H55  1  0.45247000  0.29138000  0.22636000  1.0
  H  H56  1  0.96507000  0.63116000  0.36451000  1.0
  H  H57  1  0.53489000  0.99566000  0.63553000  1.0
  H  H58  1  0.03493000  0.36884000  0.63549000  1.0
  H  H59  1  0.46511000  0.00434000  0.36447000  1.0
  H  H60  1  0.04336000  0.59244000  0.28478000  1.0
  H  H61  1  0.45661000  0.87718000  0.71520000  1.0
  H  H62  1  0.95664000  0.40756000  0.71522000  1.0
  H  H63  1  0.54339000  0.12282000  0.28480000  1.0
  H  H64  1  0.99772000  0.49990000  0.40667000  1.0
  H  H65  1  0.50227000  0.90664000  0.59328000  1.0
  H  H66  1  0.00228000  0.50010000  0.59333000  1.0
  H  H67  1  0.49773000  0.09336000  0.40672000  1.0
  H  H68  1  0.61870000  0.82724000  0.37333000  1.0
  H  H69  1  0.88126000  0.20053000  0.62667000  1.0
  H  H70  1  0.38130000  0.17276000  0.62667000  1.0
  H  H71  1  0.11874000  0.79947000  0.37333000  1.0
  H  H72  1  0.71633000  0.07520000  0.24970000  1.0
  H  H73  1  0.78369000  0.32490000  0.75029000  1.0
  H  H74  1  0.28367000  0.92480000  0.75030000  1.0
  H  H75  1  0.21631000  0.67510000  0.24971000  1.0
  H  H76  1  0.81286000  0.00081000  0.30664000  1.0
  H  H77  1  0.68716000  0.30749000  0.69333000  1.0
  H  H78  1  0.18714000  0.99919000  0.69336000  1.0
  H  H79  1  0.31284000  0.69251000  0.30667000  1.0
  H  H80  1  0.68329000  0.96659000  0.36722000  1.0
  H  H81  1  0.81673000  0.33379000  0.63278000  1.0
  H  H82  1  0.31671000  0.03341000  0.63278000  1.0
  H  H83  1  0.18327000  0.66621000  0.36722000  1.0
  H  H84  1  0.86539000  0.95511000  0.16626000  1.0
  H  H85  1  0.63456000  0.12143000  0.83373000  1.0
  H  H86  1  0.13461000  0.04489000  0.83374000  1.0
  H  H87  1  0.36544000  0.87857000  0.16627000  1.0
  H  H88  1  0.77199000  0.03527000  0.10945000  1.0
  H  H89  1  0.72797000  0.14472000  0.89054000  1.0
  H  H90  1  0.22801000  0.96473000  0.89055000  1.0
  H  H91  1  0.27203000  0.85528000  0.10946000  1.0
  H  H92  1  0.76404000  0.90074000  0.13626000  1.0
  H  H93  1  0.73587000  0.03699000  0.86374000  1.0
  H  H94  1  0.23596000  0.09927000  0.86374000  1.0
  H  H95  1  0.26413000  0.96301000  0.13626000  1.0
  C  C96  1  0.33422000  0.44062000  0.44905000  1.0
  C  C97  1  0.16579000  0.88971000  0.55096000  1.0
  C  C98  1  0.66578000  0.55938000  0.55095000  1.0
  C  C99  1  0.83421000  0.11029000  0.44904000  1.0
  C  C100  1  0.25887000  0.39768000  0.41292000  1.0
  C  C101  1  0.24113000  0.81062000  0.58709000  1.0
  C  C102  1  0.74113000  0.60232000  0.58708000  1.0
  C  C103  1  0.75887000  0.18938000  0.41291000  1.0
  C  C104  1  0.19977000  0.30433000  0.47550000  1.0
  C  C105  1  0.30020000  0.77985000  0.52449000  1.0
  C  C106  1  0.80023000  0.69567000  0.52450000  1.0
  C  C107  1  0.69980000  0.22015000  0.47551000  1.0
  C  C108  1  0.13470000  0.26103000  0.44073000  1.0
  C  C109  1  0.36526000  0.70175000  0.55925000  1.0
  C  C110  1  0.86531000  0.73897000  0.55927000  1.0
  C  C111  1  0.63474000  0.29825000  0.44075000  1.0
  C  C112  1  0.12603000  0.31274000  0.34377000  1.0
  C  C113  1  0.37394000  0.65651000  0.65620000  1.0
  C  C114  1  0.87397000  0.68726000  0.65623000  1.0
  C  C115  1  0.62606000  0.34349000  0.34380000  1.0
  C  C116  1  0.18283000  0.40716000  0.28135000  1.0
  C  C117  1  0.31717000  0.68849000  0.71864000  1.0
  C  C118  1  0.81717000  0.59284000  0.71865000  1.0
  C  C119  1  0.68283000  0.31151000  0.28136000  1.0
  C  C120  1  0.25025000  0.44869000  0.31593000  1.0
  C  C121  1  0.24976000  0.76464000  0.68407000  1.0
  C  C122  1  0.74975000  0.55131000  0.68407000  1.0
  C  C123  1  0.75024000  0.23536000  0.31593000  1.0
  C  C124  1  0.17151000  0.46092000  0.17795000  1.0
  C  C125  1  0.32852000  0.63884000  0.82203000  1.0
  C  C126  1  0.82849000  0.53908000  0.82205000  1.0
  C  C127  1  0.67148000  0.36116000  0.17797000  1.0
  C  C128  1  0.11651000  0.62458000  0.07150000  1.0
  C  C129  1  0.38353000  0.69604000  0.92849000  1.0
  C  C130  1  0.88349000  0.37542000  0.92850000  1.0
  C  C131  1  0.61647000  0.30396000  0.07151000  1.0
  C  C132  1  0.09902000  0.58870000  0.00661000  1.0
  C  C133  1  0.40099000  0.59525000  0.99340000  1.0
  C  C134  1  0.90098000  0.41130000  0.99339000  1.0
  C  C135  1  0.59901000  0.40475000  0.00661000  1.0
  C  C136  1  0.06025000  0.65440000  0.92559000  1.0
  C  C137  1  0.43973000  0.57992000  0.07443000  1.0
  C  C138  1  0.93975000  0.34560000  0.07441000  1.0
  C  C139  1  0.56027000  0.42008000  0.92557000  1.0
  C  C140  1  0.04029000  0.75558000  0.90703000  1.0
  C  C141  1  0.45969000  0.66253000  0.09300000  1.0
  C  C142  1  0.95971000  0.24442000  0.09297000  1.0
  C  C143  1  0.54031000  0.33747000  0.90700000  1.0
  C  C144  1  0.05872000  0.79052000  0.97246000  1.0
  C  C145  1  0.44129000  0.76292000  0.02755000  1.0
  C  C146  1  0.94128000  0.20948000  0.02754000  1.0
  C  C147  1  0.55871000  0.23708000  0.97245000  1.0
  C  C148  1  0.09572000  0.72588000  0.05414000  1.0
  C  C149  1  0.40431000  0.77997000  0.94586000  1.0
  C  C150  1  0.90428000  0.27412000  0.94586000  1.0
  C  C151  1  0.59569000  0.22003000  0.05414000  1.0
  C  C152  1  0.00210000  0.82626000  0.81854000  1.0
  C  C153  1  0.49787000  0.64473000  0.18149000  1.0
  C  C154  1  0.99790000  0.17374000  0.18146000  1.0
  C  C155  1  0.50213000  0.35527000  0.81851000  1.0
  C  C156  1  0.80294000  0.59020000  0.32306000  1.0
  C  C157  1  0.69703000  0.91325000  0.67694000  1.0
  C  C158  1  0.19707000  0.40980000  0.67694000  1.0
  C  C159  1  0.30297000  0.08675000  0.32306000  1.0
  C  C160  1  0.89160000  0.46096000  0.28942000  1.0
  C  C161  1  0.60839000  0.75039000  0.71049000  1.0
  C  C162  1  0.10840000  0.53904000  0.71058000  1.0
  C  C163  1  0.39161000  0.24961000  0.28951000  1.0
  C  C164  1  0.97848000  0.56832000  0.34495000  1.0
  C  C165  1  0.52149000  0.91328000  0.65503000  1.0
  C  C166  1  0.02152000  0.43168000  0.65505000  1.0
  C  C167  1  0.47851000  0.08672000  0.34497000  1.0
  C  C168  1  0.66190000  0.83924000  0.30298000  1.0
  C  C169  1  0.83805000  0.14220000  0.69702000  1.0
  C  C170  1  0.33810000  0.16076000  0.69702000  1.0
  C  C171  1  0.16195000  0.85780000  0.30298000  1.0
  C  C172  1  0.73433000  0.99646000  0.29690000  1.0
  C  C173  1  0.76567000  0.29337000  0.70308000  1.0
  C  C174  1  0.26567000  0.00354000  0.70310000  1.0
  C  C175  1  0.23433000  0.70663000  0.29692000  1.0
  C  C176  1  0.78470000  0.95604000  0.16079000  1.0
  C  C177  1  0.71525000  0.11684000  0.83920000  1.0
  C  C178  1  0.21530000  0.04396000  0.83921000  1.0
  C  C179  1  0.28475000  0.88316000  0.16080000  1.0
  C  C180  1  0.07587000  0.15881000  0.50568000  1.0
  C  C181  1  0.42407000  0.66449000  0.49429000  1.0
  C  C182  1  0.92413000  0.84119000  0.49432000  1.0
  C  C183  1  0.57593000  0.33551000  0.50571000  1.0
  N  N184  1  0.88783000  0.54250000  0.31850000  1.0
  N  N185  1  0.61214000  0.86100000  0.68147000  1.0
  N  N186  1  0.11217000  0.45750000  0.68150000  1.0
  N  N187  1  0.38786000  0.13900000  0.31853000  1.0
  N  N188  1  0.72186000  0.92815000  0.25454000  1.0
  N  N189  1  0.77810000  0.18268000  0.74546000  1.0
  N  N190  1  0.27814000  0.07185000  0.74546000  1.0
  N  N191  1  0.22190000  0.81732000  0.25454000  1.0
  O  O192  1  0.38193000  0.52804000  0.39033000  1.0
  O  O193  1  0.11807000  0.91839000  0.60969000  1.0
  O  O194  1  0.61807000  0.47196000  0.60967000  1.0
  O  O195  1  0.88193000  0.08161000  0.39031000  1.0
  O  O196  1  0.34424000  0.38468000  0.53578000  1.0
  O  O197  1  0.15578000  0.92051000  0.46423000  1.0
  O  O198  1  0.65576000  0.61532000  0.46422000  1.0
  O  O199  1  0.84422000  0.07949000  0.53577000  1.0
  O  O200  1  0.96294000  0.78826000  0.77185000  1.0
  O  O201  1  0.53701000  0.56004000  0.22819000  1.0
  O  O202  1  0.03706000  0.21174000  0.22815000  1.0
  O  O203  1  0.46299000  0.43996000  0.77181000  1.0
  O  O204  1  0.01098000  0.92411000  0.79017000  1.0
  O  O205  1  0.48900000  0.71424000  0.20983000  1.0
  O  O206  1  0.98902000  0.07589000  0.20983000  1.0
  O  O207  1  0.51099000  0.28576000  0.79017000  1.0
  O  O208  1  0.05074000  0.10263000  0.46853000  1.0
  O  O209  1  0.44924000  0.57117000  0.53145000  1.0
  O  O210  1  0.94926000  0.89737000  0.53147000  1.0
  O  O211  1  0.55076000  0.42883000  0.46855000  1.0
  O  O212  1  0.05100000  0.12917000  0.59553000  1.0
  O  O213  1  0.44890000  0.72469000  0.40444000  1.0
  O  O214  1  0.94900000  0.87083000  0.40447000  1.0
  O  O215  1  0.55110000  0.27531000  0.59556000  1.0
  O  O216  1  0.65350000  0.77389000  0.27328000  1.0
  O  O217  1  0.84643000  0.04714000  0.72673000  1.0
  O  O218  1  0.34650000  0.22611000  0.72672000  1.0
  O  O219  1  0.15357000  0.95286000  0.27327000  1.0
  O  O220  1  0.72170000  0.56921000  0.30426000  1.0
  O  O221  1  0.77826000  0.87346000  0.69574000  1.0
  O  O222  1  0.27830000  0.43079000  0.69574000  1.0
  O  O223  1  0.22174000  0.12654000  0.30426000  1.0
  O  O224  1  0.15149000  0.56678000  0.15438000  1.0
  O  O225  1  0.34857000  0.72113000  0.84560000  1.0
  O  O226  1  0.84851000  0.43322000  0.84562000  1.0
  O  O227  1  0.65142000  0.27887000  0.15440000  1.0
