# generated using pymatgen
data_CdFeH24C30S2(N2O3)2
_symmetry_space_group_name_H-M   'P 1'
_cell_length_a   11.73160000
_cell_length_b   11.74740000
_cell_length_c   13.27270000
_cell_angle_alpha   89.99990000
_cell_angle_beta   90.00000000
_cell_angle_gamma   89.99870000
_symmetry_Int_Tables_number   1
_chemical_formula_structural   CdFeH24C30S2(N2O3)2
_chemical_formula_sum   'Cd2 Fe2 H48 C60 S4 N8 O12'
_cell_volume   1829.18773952
_cell_formula_units_Z   2
loop_
 _symmetry_equiv_pos_site_id
 _symmetry_equiv_pos_as_xyz
  1  'x, y, z'
loop_
 _atom_site_type_symbol
 _atom_site_label
 _atom_site_symmetry_multiplicity
 _atom_site_fract_x
 _atom_site_fract_y
 _atom_site_fract_z
 _atom_site_occupancy
  Cd  Cd0  1  0.70960000  0.00000000  0.00000000  1.0
  Cd  Cd1  1  0.29040000  0.50000000  0.50000000  1.0
  Fe  Fe2  1  0.78865000  0.00000000  0.50000000  1.0
  Fe  Fe3  1  0.21135000  0.50000000  0.00000000  1.0
  H  H4  1  0.59090000  0.89695000  0.42398000  1.0
  H  H5  1  0.59090000  0.10306000  0.57604000  1.0
  H  H6  1  0.40910000  0.60306000  0.92396000  1.0
  H  H7  1  0.40911000  0.39694000  0.07603000  1.0
  H  H8  1  0.72253000  0.78072000  0.55702000  1.0
  H  H9  1  0.72252000  0.21929000  0.44299000  1.0
  H  H10  1  0.27747000  0.71928000  0.05701000  1.0
  H  H11  1  0.27749000  0.28072000  0.94299000  1.0
  H  H12  1  0.94329000  0.81728000  0.50916000  1.0
  H  H13  1  0.94330000  0.18271000  0.49085000  1.0
  H  H14  1  0.05670000  0.68270000  0.00917000  1.0
  H  H15  1  0.05672000  0.31729000  0.99084000  1.0
  H  H16  1  0.94871000  0.96285000  0.34809000  1.0
  H  H17  1  0.94872000  0.03713000  0.65192000  1.0
  H  H18  1  0.05128000  0.53714000  0.84809000  1.0
  H  H19  1  0.05129000  0.46285000  0.15192000  1.0
  H  H20  1  0.85322000  0.21149000  0.09001000  1.0
  H  H21  1  0.85323000  0.78850000  0.90999000  1.0
  H  H22  1  0.14677000  0.28850000  0.59001000  1.0
  H  H23  1  0.14677000  0.71150000  0.41000000  1.0
  H  H24  1  0.85932000  0.42465000  0.08539000  1.0
  H  H25  1  0.85932000  0.57534000  0.91460000  1.0
  H  H26  1  0.14068000  0.07534000  0.58539000  1.0
  H  H27  1  0.14068000  0.92466000  0.41461000  1.0
  H  H28  1  0.54596000  0.41492000  0.91230000  1.0
  H  H29  1  0.54595000  0.58507000  0.08767000  1.0
  H  H30  1  0.45405000  0.08508000  0.41231000  1.0
  H  H31  1  0.45406000  0.91492000  0.58768000  1.0
  H  H32  1  0.56010000  0.20398000  0.91595000  1.0
  H  H33  1  0.56010000  0.79601000  0.08405000  1.0
  H  H34  1  0.43990000  0.29602000  0.41595000  1.0
  H  H35  1  0.43990000  0.70398000  0.58406000  1.0
  H  H36  1  0.50277000  0.06699000  0.14508000  1.0
  H  H37  1  0.50277000  0.93302000  0.85491000  1.0
  H  H38  1  0.49723000  0.43301000  0.64508000  1.0
  H  H39  1  0.49722000  0.56699000  0.35492000  1.0
  H  H40  1  0.28953000  0.07241000  0.14984000  1.0
  H  H41  1  0.28952000  0.92760000  0.85016000  1.0
  H  H42  1  0.71047000  0.42759000  0.64984000  1.0
  H  H43  1  0.71047000  0.57242000  0.35016000  1.0
  H  H44  1  0.12991000  0.07517000  0.85126000  1.0
  H  H45  1  0.12991000  0.92483000  0.14874000  1.0
  H  H46  1  0.87008000  0.42484000  0.35125000  1.0
  H  H47  1  0.87008000  0.57517000  0.64874000  1.0
  H  H48  1  0.91539000  0.06975000  0.85711000  1.0
  H  H49  1  0.91539000  0.93024000  0.14289000  1.0
  H  H50  1  0.08460000  0.43026000  0.35711000  1.0
  H  H51  1  0.08460000  0.56976000  0.64289000  1.0
  C  C52  1  0.75784000  0.95353000  0.35750000  1.0
  C  C53  1  0.75785000  0.04648000  0.64251000  1.0
  C  C54  1  0.24216000  0.54647000  0.85750000  1.0
  C  C55  1  0.24216000  0.45353000  0.14250000  1.0
  C  C56  1  0.68328000  0.89271000  0.42445000  1.0
  C  C57  1  0.68328000  0.10730000  0.57557000  1.0
  C  C58  1  0.31672000  0.60730000  0.92444000  1.0
  C  C59  1  0.31673000  0.39271000  0.07556000  1.0
  C  C60  1  0.75311000  0.82966000  0.49305000  1.0
  C  C61  1  0.75311000  0.17035000  0.50696000  1.0
  C  C62  1  0.24689000  0.67034000  0.99305000  1.0
  C  C63  1  0.24690000  0.32966000  0.00696000  1.0
  C  C64  1  0.87025000  0.85041000  0.46821000  1.0
  C  C65  1  0.87026000  0.14959000  0.53180000  1.0
  C  C66  1  0.12974000  0.64958000  0.96821000  1.0
  C  C67  1  0.12975000  0.35041000  0.03180000  1.0
  C  C68  1  0.87377000  0.92694000  0.38408000  1.0
  C  C69  1  0.87378000  0.07306000  0.61592000  1.0
  C  C70  1  0.12623000  0.57306000  0.88408000  1.0
  C  C71  1  0.12623000  0.42694000  0.11592000  1.0
  C  C72  1  0.78905000  0.26017000  0.04924000  1.0
  C  C73  1  0.78905000  0.73982000  0.95076000  1.0
  C  C74  1  0.21095000  0.23982000  0.54924000  1.0
  C  C75  1  0.21095000  0.76018000  0.45077000  1.0
  C  C76  1  0.79080000  0.37842000  0.04795000  1.0
  C  C77  1  0.79080000  0.62157000  0.95203000  1.0
  C  C78  1  0.20920000  0.12157000  0.54795000  1.0
  C  C79  1  0.20920000  0.87842000  0.45205000  1.0
  C  C80  1  0.70204000  0.43716000  0.00035000  1.0
  C  C81  1  0.70204000  0.56283000  0.99963000  1.0
  C  C82  1  0.29797000  0.06283000  0.50036000  1.0
  C  C83  1  0.29797000  0.93717000  0.49964000  1.0
  C  C84  1  0.61597000  0.37429000  0.95285000  1.0
  C  C85  1  0.61597000  0.62570000  0.04713000  1.0
  C  C86  1  0.38404000  0.12570000  0.45286000  1.0
  C  C87  1  0.38404000  0.87430000  0.54714000  1.0
  C  C88  1  0.62308000  0.25611000  0.95491000  1.0
  C  C89  1  0.62308000  0.74388000  0.04508000  1.0
  C  C90  1  0.37693000  0.24388000  0.45491000  1.0
  C  C91  1  0.37693000  0.75612000  0.54509000  1.0
  C  C92  1  0.45195000  0.03776000  0.08103000  1.0
  C  C93  1  0.45194000  0.96225000  0.91896000  1.0
  C  C94  1  0.54805000  0.46225000  0.58103000  1.0
  C  C95  1  0.54805000  0.53775000  0.41897000  1.0
  C  C96  1  0.33352000  0.96103000  0.91614000  1.0
  C  C97  1  0.33353000  0.03898000  0.08385000  1.0
  C  C98  1  0.66647000  0.53898000  0.41614000  1.0
  C  C99  1  0.66647000  0.46103000  0.58385000  1.0
  C  C100  1  0.27236000  0.00000000  0.00000000  1.0
  C  C101  1  0.72763000  0.50001000  0.50000000  1.0
  C  C102  1  0.14687000  0.00000000  0.00000000  1.0
  C  C103  1  0.85313000  0.50001000  0.50000000  1.0
  C  C104  1  0.08565000  0.04056000  0.91668000  1.0
  C  C105  1  0.08566000  0.95944000  0.08332000  1.0
  C  C106  1  0.91434000  0.45945000  0.41668000  1.0
  C  C107  1  0.91434000  0.54056000  0.58331000  1.0
  C  C108  1  0.96728000  0.03928000  0.91977000  1.0
  C  C109  1  0.96728000  0.96072000  0.08023000  1.0
  C  C110  1  0.03272000  0.46073000  0.41977000  1.0
  C  C111  1  0.03272000  0.53928000  0.58023000  1.0
  S  S112  1  0.71632000  0.04664000  0.26024000  1.0
  S  S113  1  0.71635000  0.95336000  0.73977000  1.0
  S  S114  1  0.28367000  0.45335000  0.76024000  1.0
  S  S115  1  0.28366000  0.54664000  0.23977000  1.0
  N  N116  1  0.70666000  0.20013000  0.00329000  1.0
  N  N117  1  0.70667000  0.79986000  0.99671000  1.0
  N  N118  1  0.29334000  0.29986000  0.50329000  1.0
  N  N119  1  0.29334000  0.70014000  0.49672000  1.0
  N  N120  1  0.50959000  0.00001000  0.99999000  1.0
  N  N121  1  0.49041000  0.50000000  0.50000000  1.0
  N  N122  1  0.90943000  0.00000000  0.00000000  1.0
  N  N123  1  0.09056000  0.50001000  0.50000000  1.0
  O  O124  1  0.70379000  0.96740000  0.17262000  1.0
  O  O125  1  0.70379000  0.03259000  0.82738000  1.0
  O  O126  1  0.29622000  0.53258000  0.67262000  1.0
  O  O127  1  0.29623000  0.46742000  0.32738000  1.0
  O  O128  1  0.60710000  0.09706000  0.28954000  1.0
  O  O129  1  0.60713000  0.90291000  0.71047000  1.0
  O  O130  1  0.39288000  0.40292000  0.78955000  1.0
  O  O131  1  0.39286000  0.59710000  0.21046000  1.0
  O  O132  1  0.81046000  0.12684000  0.24695000  1.0
  O  O133  1  0.81050000  0.87318000  0.75306000  1.0
  O  O134  1  0.18952000  0.37318000  0.74695000  1.0
  O  O135  1  0.18949000  0.62680000  0.25306000  1.0
