# generated using pymatgen
data_CdH18C26(NO)4
_symmetry_space_group_name_H-M   'P 1'
_cell_length_a   8.60448000
_cell_length_b   10.79250000
_cell_length_c   12.95190000
_cell_angle_alpha   114.11000000
_cell_angle_beta   89.99990000
_cell_angle_gamma   90.00000000
_symmetry_Int_Tables_number   1
_chemical_formula_structural   CdH18C26(NO)4
_chemical_formula_sum   'Cd2 H36 C52 N8 O8'
_cell_volume   1097.83771682
_cell_formula_units_Z   2
loop_
 _symmetry_equiv_pos_site_id
 _symmetry_equiv_pos_as_xyz
  1  'x, y, z'
loop_
 _atom_site_type_symbol
 _atom_site_label
 _atom_site_symmetry_multiplicity
 _atom_site_fract_x
 _atom_site_fract_y
 _atom_site_fract_z
 _atom_site_occupancy
  Cd  Cd0  1  0.50000000  0.00000000  1.00000000  1.0
  Cd  Cd1  1  0.00000000  0.00000000  0.50000000  1.0
  H  H2  1  0.91198000  0.33588000  0.36630000  1.0
  H  H3  1  0.41198000  0.66413000  0.13370000  1.0
  H  H4  1  0.08802000  0.66413000  0.63370000  1.0
  H  H5  1  0.58802000  0.33588000  0.86630000  1.0
  H  H6  1  0.26325000  0.02859000  0.20335000  1.0
  H  H7  1  0.76325000  0.97141000  0.29665000  1.0
  H  H8  1  0.73675000  0.97141000  0.79665000  1.0
  H  H9  1  0.23675000  0.02859000  0.70335000  1.0
  H  H10  1  0.21018000  0.13470000  0.93207000  1.0
  H  H11  1  0.71018000  0.86530000  0.56792000  1.0
  H  H12  1  0.78982000  0.86530000  0.06793000  1.0
  H  H13  1  0.28982000  0.13470000  0.43207000  1.0
  H  H14  1  0.95186000  0.23945000  0.00112000  1.0
  H  H15  1  0.45186000  0.76055000  0.49888000  1.0
  H  H16  1  0.04814000  0.76055000  0.99888000  1.0
  H  H17  1  0.54814000  0.23945000  0.50112000  1.0
  H  H18  1  0.84629000  0.23848000  0.18151000  1.0
  H  H19  1  0.34629000  0.76152000  0.31849000  1.0
  H  H20  1  0.15371000  0.76153000  0.81849000  1.0
  H  H21  1  0.65371000  0.23848000  0.68151000  1.0
  H  H22  1  0.72971000  0.46165000  0.42928000  1.0
  H  H23  1  0.22971000  0.53835000  0.07072000  1.0
  H  H24  1  0.27029000  0.53835000  0.57072000  1.0
  H  H25  1  0.77029000  0.46165000  0.92928000  1.0
  H  H26  1  0.55125000  0.73913000  0.73092000  1.0
  H  H27  1  0.05126000  0.26087000  0.76908000  1.0
  H  H28  1  0.44874000  0.26087000  0.26908000  1.0
  H  H29  1  0.94875000  0.73913000  0.23092000  1.0
  H  H30  1  0.67939000  0.62446000  0.84104000  1.0
  H  H31  1  0.17939000  0.37554000  0.65896000  1.0
  H  H32  1  0.32061000  0.37554000  0.15896000  1.0
  H  H33  1  0.82061000  0.62446000  0.34104000  1.0
  H  H34  1  0.84335000  0.41589000  0.73531000  1.0
  H  H35  1  0.34336000  0.58411000  0.76469000  1.0
  H  H36  1  0.15664000  0.58411000  0.26469000  1.0
  H  H37  1  0.65664000  0.41589000  0.23531000  1.0
  C  C38  1  0.00628000  0.13981000  0.32200000  1.0
  C  C39  1  0.50628000  0.86019000  0.17800000  1.0
  C  C40  1  0.99372000  0.86019000  0.67800000  1.0
  C  C41  1  0.49372000  0.13981000  0.82200000  1.0
  C  C42  1  0.93137000  0.25826000  0.39812000  1.0
  C  C43  1  0.43138000  0.74174000  0.10188000  1.0
  C  C44  1  0.06862000  0.74174000  0.60188000  1.0
  C  C45  1  0.56862000  0.25826000  0.89812000  1.0
  C  C46  1  0.88638000  0.29143000  0.51142000  1.0
  C  C47  1  0.38638000  0.70857000  0.98858000  1.0
  C  C48  1  0.11362000  0.70857000  0.48858000  1.0
  C  C49  1  0.61362000  0.29143000  0.01142000  1.0
  C  C50  1  0.04995000  0.13719000  0.20925000  1.0
  C  C51  1  0.54995000  0.86281000  0.29075000  1.0
  C  C52  1  0.95005000  0.86281000  0.79075000  1.0
  C  C53  1  0.45005000  0.13719000  0.70925000  1.0
  C  C54  1  0.19093000  0.07641000  0.16101000  1.0
  C  C55  1  0.69094000  0.92359000  0.33899000  1.0
  C  C56  1  0.80907000  0.92359000  0.83899000  1.0
  C  C57  1  0.30907000  0.07641000  0.66101000  1.0
  C  C58  1  0.16020000  0.13524000  0.00949000  1.0
  C  C59  1  0.66020000  0.86476000  0.49051000  1.0
  C  C60  1  0.83980000  0.86476000  0.99051000  1.0
  C  C61  1  0.33980000  0.13524000  0.50949000  1.0
  C  C62  1  0.01611000  0.19375000  0.04902000  1.0
  C  C63  1  0.51611000  0.80625000  0.45098000  1.0
  C  C64  1  0.98389000  0.80626000  0.95098000  1.0
  C  C65  1  0.48389000  0.19374000  0.54902000  1.0
  C  C66  1  0.96012000  0.19512000  0.15032000  1.0
  C  C67  1  0.46012000  0.80488000  0.34968000  1.0
  C  C68  1  0.03988000  0.80488000  0.84968000  1.0
  C  C69  1  0.53988000  0.19512000  0.65032000  1.0
  C  C70  1  0.80061000  0.42208000  0.57392000  1.0
  C  C71  1  0.30061000  0.57792000  0.92608000  1.0
  C  C72  1  0.19939000  0.57791000  0.42608000  1.0
  C  C73  1  0.69939000  0.42208000  0.07392000  1.0
  C  C74  1  0.72452000  0.49565000  0.52101000  1.0
  C  C75  1  0.22452000  0.50435000  0.97899000  1.0
  C  C76  1  0.27548000  0.50435000  0.47899000  1.0
  C  C77  1  0.77548000  0.49565000  0.02101000  1.0
  C  C78  1  0.62358000  0.64940000  0.68815000  1.0
  C  C79  1  0.12358000  0.35060000  0.81185000  1.0
  C  C80  1  0.37642000  0.35060000  0.31185000  1.0
  C  C81  1  0.87642000  0.64940000  0.18815000  1.0
  C  C82  1  0.69476000  0.58473000  0.74970000  1.0
  C  C83  1  0.19476000  0.41527000  0.75030000  1.0
  C  C84  1  0.30523000  0.41527000  0.25030000  1.0
  C  C85  1  0.80524000  0.58473000  0.24970000  1.0
  C  C86  1  0.78478000  0.47040000  0.69181000  1.0
  C  C87  1  0.28478000  0.52960000  0.80819000  1.0
  C  C88  1  0.21522000  0.52960000  0.30819000  1.0
  C  C89  1  0.71522000  0.47040000  0.19180000  1.0
  N  N90  1  0.24596000  0.07685000  0.06433000  1.0
  N  N91  1  0.74596000  0.92315000  0.43567000  1.0
  N  N92  1  0.75404000  0.92315000  0.93567000  1.0
  N  N93  1  0.25404000  0.07685000  0.56433000  1.0
  N  N94  1  0.63853000  0.60679000  0.57572000  1.0
  N  N95  1  0.13853000  0.39321000  0.92428000  1.0
  N  N96  1  0.36147000  0.39321000  0.42428000  1.0
  N  N97  1  0.86147000  0.60679000  0.07572000  1.0
  O  O98  1  0.04651000  0.03518000  0.33861000  1.0
  O  O99  1  0.54651000  0.96482000  0.16139000  1.0
  O  O100  1  0.95349000  0.96482000  0.66139000  1.0
  O  O101  1  0.45349000  0.03518000  0.83861000  1.0
  O  O102  1  0.91089000  0.22040000  0.56816000  1.0
  O  O103  1  0.41089000  0.77960000  0.93184000  1.0
  O  O104  1  0.08911000  0.77960000  0.43184000  1.0
  O  O105  1  0.58911000  0.22040000  0.06816000  1.0
