# generated using pymatgen
data_TbH13C14N2O11
_symmetry_space_group_name_H-M   'P 1'
_cell_length_a   7.60424000
_cell_length_b   9.79284000
_cell_length_c   11.66930000
_cell_angle_alpha   105.25600000
_cell_angle_beta   99.88500000
_cell_angle_gamma   102.20800000
_symmetry_Int_Tables_number   1
_chemical_formula_structural   TbH13C14N2O11
_chemical_formula_sum   'Tb2 H26 C28 N4 O22'
_cell_volume   795.23220765
_cell_formula_units_Z   2
loop_
 _symmetry_equiv_pos_site_id
 _symmetry_equiv_pos_as_xyz
  1  'x, y, z'
loop_
 _atom_site_type_symbol
 _atom_site_label
 _atom_site_symmetry_multiplicity
 _atom_site_fract_x
 _atom_site_fract_y
 _atom_site_fract_z
 _atom_site_occupancy
  Tb  Tb0  1  0.31370000  0.88622000  0.26302000  1.0
  Tb  Tb1  1  0.68630000  0.11378000  0.73698000  1.0
  H  H2  1  0.04808000  0.85759000  0.42991000  1.0
  H  H3  1  0.95191000  0.14241000  0.57009000  1.0
  H  H4  1  0.02946000  0.98522000  0.37483000  1.0
  H  H5  1  0.97054000  0.01478000  0.62518000  1.0
  H  H6  1  0.29595000  0.91797000  0.00437000  1.0
  H  H7  1  0.70405000  0.08203000  0.99564000  1.0
  H  H8  1  0.46306000  0.84422000  0.03116000  1.0
  H  H9  1  0.53694000  0.15578000  0.96884000  1.0
  H  H10  1  0.74036000  0.05542000  0.35377000  1.0
  H  H11  1  0.25964000  0.94458000  0.64623000  1.0
  H  H12  1  0.67712000  0.00434000  0.21211000  1.0
  H  H13  1  0.32288000  0.99566000  0.78789000  1.0
  H  H14  1  0.01964000  0.67076000  0.98698000  1.0
  H  H15  1  0.98036000  0.32925000  0.01302000  1.0
  H  H16  1  0.29754000  0.61936000  0.89394000  1.0
  H  H17  1  0.70246000  0.38064000  0.10607000  1.0
  H  H18  1  0.33863000  0.44178000  0.85612000  1.0
  H  H19  1  0.66138000  0.55822000  0.14388000  1.0
  H  H20  1  0.52791000  0.75713000  0.74553000  1.0
  H  H21  1  0.47209000  0.24286000  0.25447000  1.0
  H  H22  1  0.16164000  0.32397000  0.65150000  1.0
  H  H23  1  0.83835000  0.67603000  0.34850000  1.0
  H  H24  1  0.22763000  0.53358000  0.37241000  1.0
  H  H25  1  0.77238000  0.46642000  0.62759000  1.0
  H  H26  1  0.95608000  0.18541000  0.22821000  1.0
  H  H27  1  0.04392000  0.81459000  0.77178000  1.0
  C  C28  1  0.91829000  0.94535000  0.10281000  1.0
  C  C29  1  0.08171000  0.05466000  0.89719000  1.0
  C  C30  1  0.81141000  0.79900000  0.01754000  1.0
  C  C31  1  0.18859000  0.20100000  0.98246000  1.0
  C  C32  1  0.87818000  0.67776000  0.97058000  1.0
  C  C33  1  0.12182000  0.32224000  0.02942000  1.0
  C  C34  1  0.72218000  0.56476000  0.90209000  1.0
  C  C35  1  0.27781000  0.43524000  0.09791000  1.0
  C  C36  1  0.37751000  0.55162000  0.84672000  1.0
  C  C37  1  0.62249000  0.44838000  0.15329000  1.0
  C  C38  1  0.70773000  0.40872000  0.84048000  1.0
  C  C39  1  0.29226000  0.59128000  0.15952000  1.0
  C  C40  1  0.34311000  0.54264000  0.71311000  1.0
  C  C41  1  0.65689000  0.45736000  0.28689000  1.0
  C  C42  1  0.42905000  0.66034000  0.67797000  1.0
  C  C43  1  0.57095000  0.33966000  0.32203000  1.0
  C  C44  1  0.22260000  0.41768000  0.62407000  1.0
  C  C45  1  0.77739000  0.58232000  0.37593000  1.0
  C  C46  1  0.38803000  0.65769000  0.55575000  1.0
  C  C47  1  0.61197000  0.34230000  0.44425000  1.0
  C  C48  1  0.18272000  0.41293000  0.50079000  1.0
  C  C49  1  0.81728000  0.58707000  0.49921000  1.0
  C  C50  1  0.47507000  0.79112000  0.52414000  1.0
  C  C51  1  0.52496000  0.20888000  0.47588000  1.0
  C  C52  1  0.26269000  0.53471000  0.46711000  1.0
  C  C53  1  0.73732000  0.46529000  0.53289000  1.0
  C  C54  1  0.05701000  0.27883000  0.40632000  1.0
  C  C55  1  0.94298000  0.72116000  0.59368000  1.0
  N  N56  1  0.62454000  0.76338000  0.97809000  1.0
  N  N57  1  0.37546000  0.23662000  0.02191000  1.0
  N  N58  1  0.57224000  0.62155000  0.91063000  1.0
  N  N59  1  0.42776000  0.37845000  0.08937000  1.0
  O  O60  1  0.37826000  0.11969000  0.40123000  1.0
  O  O61  1  0.62174000  0.88031000  0.59877000  1.0
  O  O62  1  0.05043000  0.88681000  0.35485000  1.0
  O  O63  1  0.94957000  0.11319000  0.64515000  1.0
  O  O64  1  0.36395000  0.88235000  0.06544000  1.0
  O  O65  1  0.63605000  0.11765000  0.93456000  1.0
  O  O66  1  0.63154000  0.99979000  0.28577000  1.0
  O  O67  1  0.36846000  0.00021000  0.71423000  1.0
  O  O68  1  0.08647000  0.96496000  0.15191000  1.0
  O  O69  1  0.91353000  0.03504000  0.84808000  1.0
  O  O70  1  0.39426000  0.80960000  0.42732000  1.0
  O  O71  1  0.60574000  0.19040000  0.57267000  1.0
  O  O72  1  0.45028000  0.68498000  0.19388000  1.0
  O  O73  1  0.54973000  0.31502000  0.80612000  1.0
  O  O74  1  0.14358000  0.62827000  0.17296000  1.0
  O  O75  1  0.85642000  0.37173000  0.82704000  1.0
  O  O76  1  0.83418000  0.04793000  0.12426000  1.0
  O  O77  1  0.16582000  0.95207000  0.87574000  1.0
  O  O78  1  0.03600000  0.28384000  0.29375000  1.0
  O  O79  1  0.96400000  0.71616000  0.70625000  1.0
  O  O80  1  0.97645000  0.16867000  0.43242000  1.0
  O  O81  1  0.02355000  0.83133000  0.56758000  1.0
