# generated using pymatgen
data_FeP2H38(C9O)4
_symmetry_space_group_name_H-M   'P 1'
_cell_length_a   8.30572000
_cell_length_b   9.87478000
_cell_length_c   10.29510000
_cell_angle_alpha   75.90700000
_cell_angle_beta   86.55660000
_cell_angle_gamma   65.95680000
_symmetry_Int_Tables_number   1
_chemical_formula_structural   FeP2H38(C9O)4
_chemical_formula_sum   'Fe1 P2 H38 C36 O4'
_cell_volume   747.17571963
_cell_formula_units_Z   1
loop_
 _symmetry_equiv_pos_site_id
 _symmetry_equiv_pos_as_xyz
  1  'x, y, z'
loop_
 _atom_site_type_symbol
 _atom_site_label
 _atom_site_symmetry_multiplicity
 _atom_site_fract_x
 _atom_site_fract_y
 _atom_site_fract_z
 _atom_site_occupancy
  Fe  Fe0  1  0.50000000  0.50000000  0.50000000  1.0
  P  P1  1  0.22689000  0.53159000  0.58475000  1.0
  P  P2  1  0.77311000  0.46840000  0.41525000  1.0
  H  H3  1  0.62803000  0.57510000  0.87954000  1.0
  H  H4  1  0.37197000  0.42491000  0.12046000  1.0
  H  H5  1  0.55265000  0.90426000  0.60879000  1.0
  H  H6  1  0.44734000  0.09574000  0.39121000  1.0
  H  H7  1  0.59953000  0.82261000  0.78397000  1.0
  H  H8  1  0.40046000  0.17740000  0.21602000  1.0
  H  H9  1  0.37869000  0.90152000  0.71616000  1.0
  H  H10  1  0.62131000  0.09849000  0.28384000  1.0
  H  H11  1  0.61300000  0.21798000  0.92761000  1.0
  H  H12  1  0.38699000  0.78203000  0.07238000  1.0
  H  H13  1  0.69304000  0.32913000  0.99730000  1.0
  H  H14  1  0.30696000  0.67088000  0.00270000  1.0
  H  H15  1  0.83361000  0.20034000  0.90310000  1.0
  H  H16  1  0.16639000  0.79967000  0.09690000  1.0
  H  H17  1  0.05123000  0.60454000  0.38203000  1.0
  H  H18  1  0.94877000  0.39546000  0.61797000  1.0
  H  H19  1  0.16746000  0.40644000  0.43430000  1.0
  H  H20  1  0.83254000  0.59355000  0.56570000  1.0
  H  H21  1  0.99866000  0.54380000  0.82087000  1.0
  H  H22  1  0.00135000  0.45619000  0.17913000  1.0
  H  H23  1  0.99603000  0.34576000  0.02066000  1.0
  H  H24  1  0.00398000  0.65423000  0.97934000  1.0
  H  H25  1  0.21905000  0.07868000  0.05282000  1.0
  H  H26  1  0.78095000  0.92131000  0.94718000  1.0
  H  H27  1  0.44068000  0.00930000  0.87996000  1.0
  H  H28  1  0.55932000  0.99071000  0.12004000  1.0
  H  H29  1  0.44409000  0.20744000  0.67864000  1.0
  H  H30  1  0.55592000  0.79256000  0.32136000  1.0
  H  H31  1  0.25910000  0.67009000  0.79382000  1.0
  H  H32  1  0.74090000  0.32991000  0.20619000  1.0
  H  H33  1  0.09072000  0.92141000  0.84613000  1.0
  H  H34  1  0.90927000  0.07859000  0.15387000  1.0
  H  H35  1  0.81864000  0.11146000  0.70528000  1.0
  H  H36  1  0.18136000  0.88853000  0.29472000  1.0
  H  H37  1  0.72393000  0.04751000  0.51673000  1.0
  H  H38  1  0.27607000  0.95248000  0.48326000  1.0
  H  H39  1  0.89206000  0.79813000  0.46107000  1.0
  H  H40  1  0.10794000  0.20186000  0.53893000  1.0
  C  C41  1  0.63613000  0.40461000  0.78261000  1.0
  C  C42  1  0.36387000  0.59539000  0.21739000  1.0
  C  C43  1  0.54005000  0.68493000  0.67558000  1.0
  C  C44  1  0.45995000  0.31508000  0.32442000  1.0
  C  C45  1  0.60097000  0.55597000  0.78478000  1.0
  C  C46  1  0.39904000  0.44403000  0.21521000  1.0
  C  C47  1  0.51782000  0.83662000  0.69792000  1.0
  C  C48  1  0.48217000  0.16339000  0.30208000  1.0
  C  C49  1  0.69751000  0.28154000  0.91094000  1.0
  C  C50  1  0.30248000  0.71846000  0.08906000  1.0
  C  C51  1  0.08294000  0.50761000  0.46999000  1.0
  C  C52  1  0.91707000  0.49239000  0.53001000  1.0
  C  C53  1  0.22460000  0.39024000  0.73771000  1.0
  C  C54  1  0.77540000  0.60976000  0.26229000  1.0
  C  C55  1  0.09820000  0.42742000  0.83460000  1.0
  C  C56  1  0.90182000  0.57258000  0.16540000  1.0
  C  C57  1  0.09602000  0.31576000  0.94696000  1.0
  C  C58  1  0.90399000  0.68423000  0.05304000  1.0
  C  C59  1  0.22002000  0.16525000  0.96417000  1.0
  C  C60  1  0.77999000  0.83474000  0.03583000  1.0
  C  C61  1  0.34404000  0.12668000  0.86695000  1.0
  C  C62  1  0.65596000  0.87332000  0.13305000  1.0
  C  C63  1  0.34646000  0.23774000  0.75389000  1.0
  C  C64  1  0.65354000  0.76226000  0.24611000  1.0
  C  C65  1  0.08783000  0.71405000  0.62477000  1.0
  C  C66  1  0.91218000  0.28594000  0.37523000  1.0
  C  C67  1  0.14065000  0.75201000  0.73327000  1.0
  C  C68  1  0.85935000  0.24799000  0.26673000  1.0
  C  C69  1  0.04544000  0.89340000  0.76281000  1.0
  C  C70  1  0.95455000  0.10660000  0.23720000  1.0
  C  C71  1  0.89395000  0.99925000  0.68555000  1.0
  C  C72  1  0.10605000  0.00074000  0.31445000  1.0
  C  C73  1  0.83971000  0.96254000  0.57832000  1.0
  C  C74  1  0.16029000  0.03746000  0.42168000  1.0
  C  C75  1  0.93595000  0.82190000  0.54741000  1.0
  C  C76  1  0.06404000  0.17809000  0.45259000  1.0
  O  O77  1  0.62164000  0.35811000  0.67941000  1.0
  O  O78  1  0.37836000  0.64189000  0.32059000  1.0
  O  O79  1  0.49494000  0.68821000  0.55716000  1.0
  O  O80  1  0.50505000  0.31180000  0.44283000  1.0
