# generated using pymatgen
data_LaH16C9O8
_symmetry_space_group_name_H-M   'P 1'
_cell_length_a   8.95040000
_cell_length_b   9.24255998
_cell_length_c   10.35220000
_cell_angle_alpha   100.90967366
_cell_angle_beta   101.80860000
_cell_angle_gamma   114.53891498
_symmetry_Int_Tables_number   1
_chemical_formula_structural   LaH16C9O8
_chemical_formula_sum   'La2 H32 C18 O16'
_cell_volume   725.47572371
_cell_formula_units_Z   2
loop_
 _symmetry_equiv_pos_site_id
 _symmetry_equiv_pos_as_xyz
  1  'x, y, z'
loop_
 _atom_site_type_symbol
 _atom_site_label
 _atom_site_symmetry_multiplicity
 _atom_site_fract_x
 _atom_site_fract_y
 _atom_site_fract_z
 _atom_site_occupancy
  La  La0  1  0.26582000  0.04039000  0.00488000  1.0
  La  La1  1  0.73420000  0.95962000  0.99512000  1.0
  H  H2  1  0.45178000  0.15056000  0.59836000  1.0
  H  H3  1  0.54826000  0.84945000  0.40166000  1.0
  H  H4  1  0.47967000  0.97321000  0.60932000  1.0
  H  H5  1  0.52034000  0.02678000  0.39068000  1.0
  H  H6  1  0.78456000  0.14987000  0.75209000  1.0
  H  H7  1  0.21544000  0.85014000  0.24793000  1.0
  H  H8  1  0.74330000  0.18872000  0.59239000  1.0
  H  H9  1  0.25674000  0.81128000  0.40763000  1.0
  H  H10  1  0.72794000  0.44581000  0.71221000  1.0
  H  H11  1  0.27205000  0.55418000  0.28779000  1.0
  H  H12  1  0.77877000  0.40479000  0.87178000  1.0
  H  H13  1  0.22125000  0.59523000  0.12822000  1.0
  H  H14  1  0.05549000  0.42452000  0.84520000  1.0
  H  H15  1  0.94454000  0.57550000  0.15484000  1.0
  H  H16  1  0.01034000  0.46100000  0.68383000  1.0
  H  H17  1  0.98965000  0.53900000  0.31616000  1.0
  H  H18  1  0.96915000  0.15755000  0.35306000  1.0
  H  H19  1  0.03081000  0.84242000  0.64693000  1.0
  H  H20  1  0.18704000  0.25606000  0.46801000  1.0
  H  H21  1  0.81296000  0.74394000  0.53199000  1.0
  H  H22  1  0.94600000  0.87660000  0.35605000  1.0
  H  H23  1  0.05399000  0.12338000  0.64394000  1.0
  H  H24  1  0.15606000  0.98015000  0.48064000  1.0
  H  H25  1  0.84392000  0.01983000  0.51934000  1.0
  H  H26  1  0.51009000  0.30065000  0.25054000  1.0
  H  H27  1  0.48991000  0.69935000  0.74945000  1.0
  H  H28  1  0.65194000  0.28838000  0.18514000  1.0
  H  H29  1  0.34806000  0.71162000  0.81485000  1.0
  H  H30  1  0.15059000  0.32100000  0.02922000  1.0
  H  H31  1  0.84941000  0.67901000  0.97077000  1.0
  H  H32  1  0.35937000  0.41473000  0.07920000  1.0
  H  H33  1  0.64064000  0.58527000  0.92079000  1.0
  C  C34  1  0.46749000  0.10279000  0.79304000  1.0
  C  C35  1  0.53248000  0.89721000  0.20696000  1.0
  C  C36  1  0.52288000  0.10497000  0.66462000  1.0
  C  C37  1  0.47713000  0.89502000  0.33539000  1.0
  C  C38  1  0.71760000  0.20385000  0.69232000  1.0
  C  C39  1  0.28241000  0.79616000  0.30770000  1.0
  C  C40  1  0.79594000  0.38943000  0.76874000  1.0
  C  C41  1  0.20409000  0.61059000  0.23127000  1.0
  C  C42  1  0.98898000  0.47958000  0.78521000  1.0
  C  C43  1  0.01105000  0.52043000  0.21480000  1.0
  C  C44  1  0.07860000  0.66472000  0.85991000  1.0
  C  C45  1  0.92141000  0.33529000  0.14009000  1.0
  C  C46  1  0.14788000  0.11347000  0.26421000  1.0
  C  C47  1  0.85212000  0.88653000  0.73578000  1.0
  C  C48  1  0.08486000  0.14212000  0.38623000  1.0
  C  C49  1  0.91513000  0.85788000  0.61376000  1.0
  C  C50  1  0.03873000  0.99129000  0.44181000  1.0
  C  C51  1  0.96126000  0.00870000  0.55819000  1.0
  O  O52  1  0.33732000  0.12392000  0.79805000  1.0
  O  O53  1  0.66263000  0.87607000  0.20193000  1.0
  O  O54  1  0.54993000  0.07400000  0.89368000  1.0
  O  O55  1  0.45003000  0.92600000  0.10632000  1.0
  O  O56  1  0.19380000  0.76490000  0.81840000  1.0
  O  O57  1  0.80620000  0.23510000  0.18159000  1.0
  O  O58  1  0.04276000  0.72225000  0.96495000  1.0
  O  O59  1  0.95724000  0.27776000  0.03503000  1.0
  O  O60  1  0.30744000  0.16016000  0.28122000  1.0
  O  O61  1  0.69256000  0.83984000  0.71876000  1.0
  O  O62  1  0.03628000  0.03264000  0.14187000  1.0
  O  O63  1  0.96370000  0.96735000  0.85813000  1.0
  O  O64  1  0.54922000  0.30881000  0.16904000  1.0
  O  O65  1  0.45077000  0.69119000  0.83094000  1.0
  O  O66  1  0.25625000  0.31473000  0.01685000  1.0
  O  O67  1  0.74376000  0.68528000  0.98315000  1.0
