# generated using pymatgen
data_ZnH9C14NO3
_symmetry_space_group_name_H-M   'P 1'
_cell_length_a   7.02693000
_cell_length_b   9.46924000
_cell_length_c   9.80014000
_cell_angle_alpha   96.83780000
_cell_angle_beta   89.99830000
_cell_angle_gamma   89.99990000
_symmetry_Int_Tables_number   1
_chemical_formula_structural   ZnH9C14NO3
_chemical_formula_sum   'Zn2 H18 C28 N2 O6'
_cell_volume   647.45998477
_cell_formula_units_Z   2
loop_
 _symmetry_equiv_pos_site_id
 _symmetry_equiv_pos_as_xyz
  1  'x, y, z'
loop_
 _atom_site_type_symbol
 _atom_site_label
 _atom_site_symmetry_multiplicity
 _atom_site_fract_x
 _atom_site_fract_y
 _atom_site_fract_z
 _atom_site_occupancy
  Zn  Zn0  1  0.88640000  0.07447000  0.69315000  1.0
  Zn  Zn1  1  0.38640000  0.92552000  0.30685000  1.0
  H  H2  1  0.87496000  0.42381000  0.04488000  1.0
  H  H3  1  0.37496000  0.57619000  0.95511000  1.0
  H  H4  1  0.90561000  0.39942000  0.29267000  1.0
  H  H5  1  0.40560000  0.60060000  0.70732000  1.0
  H  H6  1  0.97117000  0.16024000  0.36992000  1.0
  H  H7  1  0.47115000  0.83978000  0.63007000  1.0
  H  H8  1  0.98610000  0.94814000  0.19703000  1.0
  H  H9  1  0.48608000  0.05187000  0.80298000  1.0
  H  H10  1  0.99786000  0.83942000  0.98382000  1.0
  H  H11  1  0.49787000  0.16058000  0.01618000  1.0
  H  H12  1  0.10109000  0.59834000  0.42468000  1.0
  H  H13  1  0.60110000  0.40166000  0.57533000  1.0
  H  H14  1  0.99726000  0.39023000  0.53866000  1.0
  H  H15  1  0.49727000  0.60976000  0.46134000  1.0
  H  H16  1  0.85984000  0.42870000  0.77433000  1.0
  H  H17  1  0.35986000  0.57130000  0.22568000  1.0
  H  H18  1  0.81926000  0.67464000  0.89007000  1.0
  H  H19  1  0.31928000  0.32537000  0.10994000  1.0
  C  C20  1  0.94386000  0.06293000  0.02144000  1.0
  C  C21  1  0.44385000  0.93707000  0.97856000  1.0
  C  C22  1  0.91504000  0.20113000  0.97614000  1.0
  C  C23  1  0.41504000  0.79887000  0.02385000  1.0
  C  C24  1  0.90083000  0.32000000  0.07918000  1.0
  C  C25  1  0.40083000  0.68000000  0.92082000  1.0
  C  C26  1  0.91893000  0.30547000  0.21721000  1.0
  C  C27  1  0.41894000  0.69454000  0.78279000  1.0
  C  C28  1  0.95298000  0.17135000  0.26143000  1.0
  C  C29  1  0.45299000  0.82866000  0.73856000  1.0
  C  C30  1  0.96361000  0.05340000  0.16451000  1.0
  C  C31  1  0.46361000  0.94661000  0.83549000  1.0
  C  C32  1  0.95851000  0.93241000  0.93278000  1.0
  C  C33  1  0.45852000  0.06759000  0.06723000  1.0
  C  C34  1  0.94874000  0.77523000  0.72730000  1.0
  C  C35  1  0.44875000  0.22477000  0.27270000  1.0
  C  C36  1  0.02490000  0.75413000  0.59225000  1.0
  C  C37  1  0.52489000  0.24586000  0.40775000  1.0
  C  C38  1  0.03957000  0.61382000  0.52718000  1.0
  C  C39  1  0.53957000  0.38617000  0.47282000  1.0
  C  C40  1  0.98308000  0.49774000  0.59146000  1.0
  C  C41  1  0.48310000  0.50226000  0.40855000  1.0
  C  C42  1  0.90535000  0.51952000  0.72359000  1.0
  C  C43  1  0.40538000  0.48047000  0.27641000  1.0
  C  C44  1  0.88722000  0.65705000  0.78951000  1.0
  C  C45  1  0.38724000  0.34294000  0.21049000  1.0
  C  C46  1  0.10626000  0.86881000  0.51628000  1.0
  C  C47  1  0.60626000  0.13118000  0.48372000  1.0
  N  N48  1  0.93371000  0.91266000  0.79920000  1.0
  N  N49  1  0.43371000  0.08733000  0.20081000  1.0
  O  O50  1  0.90168000  0.22369000  0.84738000  1.0
  O  O51  1  0.40169000  0.77631000  0.15262000  1.0
  O  O52  1  0.07719000  0.00143000  0.54991000  1.0
  O  O53  1  0.57720000  0.99856000  0.45009000  1.0
  O  O54  1  0.20976000  0.82379000  0.41245000  1.0
  O  O55  1  0.70976000  0.17619000  0.58756000  1.0
