# generated using pymatgen
data_LuH26C21N5O12
_symmetry_space_group_name_H-M   'P 1'
_cell_length_a   9.51505000
_cell_length_b   10.13140000
_cell_length_c   14.84900000
_cell_angle_alpha   73.31960000
_cell_angle_beta   78.01990000
_cell_angle_gamma   75.37140000
_symmetry_Int_Tables_number   1
_chemical_formula_structural   LuH26C21N5O12
_chemical_formula_sum   'Lu2 H52 C42 N10 O24'
_cell_volume   1312.60413672
_cell_formula_units_Z   2
loop_
 _symmetry_equiv_pos_site_id
 _symmetry_equiv_pos_as_xyz
  1  'x, y, z'
loop_
 _atom_site_type_symbol
 _atom_site_label
 _atom_site_symmetry_multiplicity
 _atom_site_fract_x
 _atom_site_fract_y
 _atom_site_fract_z
 _atom_site_occupancy
  Lu  Lu0  1  0.21179000  0.39605000  0.28231000  1.0
  Lu  Lu1  1  0.78821000  0.60395000  0.71769000  1.0
  H  H2  1  0.10757000  0.31650000  0.48811000  1.0
  H  H3  1  0.89243000  0.68350000  0.51189000  1.0
  H  H4  1  0.49726000  0.53315000  0.26833000  1.0
  H  H5  1  0.50274000  0.46686000  0.73167000  1.0
  H  H6  1  0.92074000  0.44736000  0.18094000  1.0
  H  H7  1  0.07926000  0.55264000  0.81906000  1.0
  H  H8  1  0.34574000  0.17335000  0.48975000  1.0
  H  H9  1  0.65426000  0.82665000  0.51025000  1.0
  H  H10  1  0.48215000  0.07363000  0.62680000  1.0
  H  H11  1  0.51785000  0.92637000  0.37320000  1.0
  H  H12  1  0.68877000  0.17515000  0.63924000  1.0
  H  H13  1  0.31123000  0.82485000  0.36076000  1.0
  H  H14  1  0.76270000  0.37360000  0.50996000  1.0
  H  H15  1  0.23731000  0.62640000  0.49003000  1.0
  H  H16  1  0.74531000  0.52721000  0.36065000  1.0
  H  H17  1  0.25469000  0.47279000  0.63935000  1.0
  H  H18  1  0.75346000  0.67615000  0.22376000  1.0
  H  H19  1  0.24654000  0.32385000  0.77624000  1.0
  H  H20  1  0.46801000  0.77409000  0.13587000  1.0
  H  H21  1  0.53199000  0.22591000  0.86413000  1.0
  H  H22  1  0.51395000  0.84412000  0.22010000  1.0
  H  H23  1  0.48605000  0.15588000  0.77991000  1.0
  H  H24  1  0.56795000  0.99211000  0.05550000  1.0
  H  H25  1  0.43205000  0.00789000  0.94450000  1.0
  H  H26  1  0.72811000  0.91680000  0.10810000  1.0
  H  H27  1  0.27189000  0.08320000  0.89190000  1.0
  H  H28  1  0.77464000  0.89198000  0.94238000  1.0
  H  H29  1  0.22536000  0.10802000  0.05762000  1.0
  H  H30  1  0.62726000  0.80433000  0.96598000  1.0
  H  H31  1  0.37273000  0.19567000  0.03403000  1.0
  H  H32  1  0.86030000  0.62815000  0.97508000  1.0
  H  H33  1  0.13969000  0.37185000  0.02492000  1.0
  H  H34  1  0.90956000  0.69801000  0.05797000  1.0
  H  H35  1  0.09045000  0.30199000  0.94202000  1.0
  H  H36  1  0.64711000  0.55784000  0.08756000  1.0
  H  H37  1  0.35289000  0.44216000  0.91244000  1.0
  H  H38  1  0.73733000  0.33014000  0.09900000  1.0
  H  H39  1  0.26267000  0.66986000  0.90100000  1.0
  H  H40  1  0.81225000  0.09621000  0.10337000  1.0
  H  H41  1  0.18775000  0.90379000  0.89663000  1.0
  H  H42  1  0.97280000  0.85883000  0.15243000  1.0
  H  H43  1  0.02720000  0.14117000  0.84757000  1.0
  H  H44  1  0.17410000  0.83197000  0.24442000  1.0
  H  H45  1  0.82590000  0.16803000  0.75558000  1.0
  H  H46  1  0.21809000  0.03818000  0.28457000  1.0
  H  H47  1  0.78191000  0.96182000  0.71543000  1.0
  H  H48  1  0.99985000  0.14187000  0.41138000  1.0
  H  H49  1  0.00015000  0.85813000  0.58862000  1.0
  H  H50  1  0.99121000  0.14358000  0.53265000  1.0
  H  H51  1  0.00879000  0.85642000  0.46735000  1.0
  H  H52  1  0.16041000  0.06822000  0.46878000  1.0
  H  H53  1  0.83959000  0.93178000  0.53122000  1.0
  C  C54  1  0.46929000  0.33635000  0.42181000  1.0
  C  C55  1  0.53072000  0.66365000  0.57819000  1.0
  C  C56  1  0.43485000  0.21882000  0.49488000  1.0
  C  C57  1  0.56515000  0.78118000  0.50512000  1.0
  C  C58  1  0.51243000  0.16296000  0.57110000  1.0
  C  C59  1  0.48757000  0.83704000  0.42890000  1.0
  C  C60  1  0.63037000  0.21896000  0.57809000  1.0
  C  C61  1  0.36963000  0.78104000  0.42191000  1.0
  C  C62  1  0.67107000  0.32950000  0.50650000  1.0
  C  C63  1  0.32894000  0.67050000  0.49349000  1.0
  C  C64  1  0.59387000  0.38882000  0.42734000  1.0
  C  C65  1  0.40613000  0.61118000  0.57266000  1.0
  C  C66  1  0.64738000  0.49561000  0.35362000  1.0
  C  C67  1  0.35262000  0.50439000  0.64638000  1.0
  C  C68  1  0.66439000  0.65556000  0.19620000  1.0
  C  C69  1  0.33562000  0.34444000  0.80380000  1.0
  C  C70  1  0.55983000  0.79475000  0.16056000  1.0
  C  C71  1  0.44017000  0.20525000  0.83944000  1.0
  C  C72  1  0.64240000  0.89150000  0.08012000  1.0
  C  C73  1  0.35760000  0.10850000  0.91988000  1.0
  C  C74  1  0.71297000  0.82228000  0.99834000  1.0
  C  C75  1  0.28703000  0.17772000  0.00166000  1.0
  C  C76  1  0.81569000  0.68152000  0.03274000  1.0
  C  C77  1  0.18430000  0.31848000  0.96726000  1.0
  C  C78  1  0.73444000  0.58351000  0.11400000  1.0
  C  C79  1  0.26556000  0.41649000  0.88600000  1.0
  C  C80  1  0.82591000  0.32957000  0.13585000  1.0
  C  C81  1  0.17409000  0.67043000  0.86415000  1.0
  C  C82  1  0.92371000  0.19991000  0.16618000  1.0
  C  C83  1  0.07629000  0.80009000  0.83382000  1.0
  C  C84  1  0.90163000  0.08064000  0.14327000  1.0
  C  C85  1  0.09837000  0.91937000  0.85673000  1.0
  C  C86  1  0.99003000  0.94973000  0.17073000  1.0
  C  C87  1  0.00997000  0.05027000  0.82927000  1.0
  C  C88  1  0.10310000  0.93523000  0.22313000  1.0
  C  C89  1  0.89690000  0.06477000  0.77687000  1.0
  C  C90  1  0.12844000  0.04969000  0.24604000  1.0
  C  C91  1  0.87156000  0.95031000  0.75396000  1.0
  C  C92  1  0.04181000  0.18662000  0.21744000  1.0
  C  C93  1  0.95819000  0.81338000  0.78255000  1.0
  C  C94  1  0.06078000  0.15208000  0.46311000  1.0
  C  C95  1  0.93922000  0.84792000  0.53689000  1.0
  N  N96  1  0.59192000  0.56000000  0.27460000  1.0
  N  N97  1  0.40808000  0.44001000  0.72540000  1.0
  N  N98  1  0.83410000  0.45056000  0.14782000  1.0
  N  N99  1  0.16590000  0.54944000  0.85219000  1.0
  N  N100  1  0.99014000  0.60308000  0.35955000  1.0
  N  N101  1  0.00986000  0.39692000  0.64044000  1.0
  N  N102  1  0.25304000  0.62092000  0.11794000  1.0
  N  N103  1  0.74696000  0.37908000  0.88206000  1.0
  N  N104  1  0.44805000  0.19207000  0.22998000  1.0
  N  N105  1  0.55195000  0.80793000  0.77002000  1.0
  O  O106  1  0.39383000  0.39741000  0.35154000  1.0
  O  O107  1  0.60617000  0.60259000  0.64846000  1.0
  O  O108  1  0.06607000  0.29729000  0.23600000  1.0
  O  O109  1  0.93393000  0.70271000  0.76400000  1.0
  O  O110  1  0.11194000  0.56220000  0.39119000  1.0
  O  O111  1  0.88806000  0.43780000  0.60881000  1.0
  O  O112  1  0.88077000  0.67747000  0.39688000  1.0
  O  O113  1  0.11923000  0.32253000  0.60311000  1.0
  O  O114  1  0.98213000  0.56272000  0.28663000  1.0
  O  O115  1  0.01788000  0.43728000  0.71336000  1.0
  O  O116  1  0.17996000  0.53225000  0.11565000  1.0
  O  O117  1  0.82004000  0.46775000  0.88434000  1.0
  O  O118  1  0.28561000  0.71486000  0.04829000  1.0
  O  O119  1  0.71439000  0.28514000  0.95171000  1.0
  O  O120  1  0.29196000  0.60566000  0.19970000  1.0
  O  O121  1  0.70803000  0.39434000  0.80030000  1.0
  O  O122  1  0.41623000  0.31718000  0.17595000  1.0
  O  O123  1  0.58377000  0.68282000  0.82405000  1.0
  O  O124  1  0.55890000  0.10574000  0.21043000  1.0
  O  O125  1  0.44111000  0.89425000  0.78958000  1.0
  O  O126  1  0.35561000  0.16385000  0.30595000  1.0
  O  O127  1  0.64438000  0.83615000  0.69405000  1.0
  O  O128  1  0.09826000  0.28910000  0.43079000  1.0
  O  O129  1  0.90174000  0.71090000  0.56921000  1.0
