# generated using pymatgen
data_KH19(C5O2)4
_symmetry_space_group_name_H-M   'P 1'
_cell_length_a   7.32537000
_cell_length_b   10.84020000
_cell_length_c   13.22528054
_cell_angle_alpha   77.47515995
_cell_angle_beta   73.91727378
_cell_angle_gamma   90.06450000
_symmetry_Int_Tables_number   1
_chemical_formula_structural   KH19(C5O2)4
_chemical_formula_sum   'K2 H38 C40 O16'
_cell_volume   982.98388067
_cell_formula_units_Z   2
loop_
 _symmetry_equiv_pos_site_id
 _symmetry_equiv_pos_as_xyz
  1  'x, y, z'
loop_
 _atom_site_type_symbol
 _atom_site_label
 _atom_site_symmetry_multiplicity
 _atom_site_fract_x
 _atom_site_fract_y
 _atom_site_fract_z
 _atom_site_occupancy
  K  K0  1  0.72630000  0.75034000  0.99975000  1.0
  K  K1  1  0.27373000  0.24966000  0.00024000  1.0
  H  H2  1  0.50000000  0.50002000  0.00000000  1.0
  H  H3  1  0.50000000  0.00001000  0.00000000  1.0
  H  H4  1  0.01014000  0.71748000  0.47887000  1.0
  H  H5  1  0.48926000  0.78298000  0.52095000  1.0
  H  H6  1  0.98984000  0.28253000  0.52113000  1.0
  H  H7  1  0.51073000  0.21702000  0.47905000  1.0
  H  H8  1  0.35843000  0.74138000  0.38624000  1.0
  H  H9  1  0.74354000  0.75844000  0.61418000  1.0
  H  H10  1  0.64160000  0.25862000  0.61376000  1.0
  H  H11  1  0.25644000  0.24155000  0.38582000  1.0
  H  H12  1  0.49036000  0.63697000  0.23470000  1.0
  H  H13  1  0.72449000  0.86284000  0.76541000  1.0
  H  H14  1  0.50963000  0.36302000  0.76530000  1.0
  H  H15  1  0.27550000  0.13716000  0.23460000  1.0
  H  H16  1  0.67147000  0.66732000  0.38907000  1.0
  H  H17  1  0.06070000  0.83232000  0.61090000  1.0
  H  H18  1  0.32857000  0.33268000  0.61092000  1.0
  H  H19  1  0.93927000  0.16769000  0.38910000  1.0
  H  H20  1  0.70107000  0.59624000  0.51779000  1.0
  H  H21  1  0.21928000  0.90294000  0.48218000  1.0
  H  H22  1  0.29891000  0.40375000  0.48222000  1.0
  H  H23  1  0.78070000  0.09707000  0.51782000  1.0
  H  H24  1  0.66635000  0.50022000  0.43051000  1.0
  H  H25  1  0.09690000  0.99945000  0.56884000  1.0
  H  H26  1  0.33367000  0.49978000  0.56948000  1.0
  H  H27  1  0.90308000  0.00056000  0.43117000  1.0
  H  H28  1  0.63239000  0.35008000  0.21367000  1.0
  H  H29  1  0.84588000  0.14985000  0.78660000  1.0
  H  H30  1  0.36762000  0.64992000  0.78633000  1.0
  H  H31  1  0.15411000  0.85015000  0.21340000  1.0
  H  H32  1  0.85460000  0.28784000  0.16762000  1.0
  H  H33  1  0.02157000  0.21253000  0.83281000  1.0
  H  H34  1  0.14543000  0.71217000  0.83237000  1.0
  H  H35  1  0.97845000  0.78746000  0.16719000  1.0
  H  H36  1  0.76165000  0.39579000  0.07352000  1.0
  H  H37  1  0.83520000  0.10356000  0.92665000  1.0
  H  H38  1  0.23836000  0.60421000  0.92648000  1.0
  H  H39  1  0.16480000  0.89644000  0.07335000  1.0
  C  C40  1  0.22124000  0.54788000  0.24502000  1.0
  C  C41  1  0.46624000  0.95243000  0.75491000  1.0
  C  C42  1  0.77875000  0.45213000  0.75498000  1.0
  C  C43  1  0.53377000  0.04755000  0.24509000  1.0
  C  C44  1  0.02562000  0.53355000  0.30034000  1.0
  C  C45  1  0.32611000  0.96687000  0.69946000  1.0
  C  C46  1  0.97439000  0.46644000  0.69966000  1.0
  C  C47  1  0.67388000  0.03312000  0.30054000  1.0
  C  C48  1  0.94591000  0.59603000  0.38281000  1.0
  C  C49  1  0.32870000  0.90424000  0.61704000  1.0
  C  C50  1  0.05410000  0.40397000  0.61719000  1.0
  C  C51  1  0.67131000  0.09575000  0.38295000  1.0
  C  C52  1  0.06956000  0.66936000  0.41379000  1.0
  C  C53  1  0.48311000  0.83089000  0.58621000  1.0
  C  C54  1  0.93046000  0.33064000  0.58622000  1.0
  C  C55  1  0.51687000  0.16911000  0.41379000  1.0
  C  C56  1  0.26436000  0.68273000  0.36222000  1.0
  C  C57  1  0.62593000  0.81730000  0.63796000  1.0
  C  C58  1  0.73564000  0.31726000  0.63778000  1.0
  C  C59  1  0.37408000  0.18268000  0.36204000  1.0
  C  C60  1  0.33919000  0.62377000  0.27729000  1.0
  C  C61  1  0.61598000  0.87632000  0.72284000  1.0
  C  C62  1  0.66082000  0.37622000  0.72272000  1.0
  C  C63  1  0.38401000  0.12369000  0.27716000  1.0
  C  C64  1  0.30343000  0.48569000  0.15269000  1.0
  C  C65  1  0.45646000  0.01450000  0.84724000  1.0
  C  C66  1  0.69657000  0.51433000  0.84732000  1.0
  C  C67  1  0.54354000  0.98548000  0.15275000  1.0
  C  C68  1  0.73463000  0.58885000  0.43325000  1.0
  C  C69  1  0.16800000  0.91090000  0.56655000  1.0
  C  C70  1  0.26537000  0.41114000  0.56676000  1.0
  C  C71  1  0.83199000  0.08910000  0.43345000  1.0
  C  C72  1  0.87138000  0.48130000  0.17680000  1.0
  C  C73  1  0.04874000  0.01920000  0.82302000  1.0
  C  C74  1  0.12862000  0.51871000  0.82320000  1.0
  C  C75  1  0.95125000  0.98078000  0.17698000  1.0
  C  C76  1  0.77448000  0.37262000  0.15573000  1.0
  C  C77  1  0.93021000  0.12739000  0.84440000  1.0
  C  C78  1  0.22553000  0.62738000  0.84427000  1.0
  C  C79  1  0.06980000  0.87261000  0.15559000  1.0
  O  O80  1  0.23844000  0.37950000  0.15241000  1.0
  O  O81  1  0.39169000  0.12073000  0.84763000  1.0
  O  O82  1  0.76154000  0.62052000  0.84757000  1.0
  O  O83  1  0.60827000  0.87925000  0.15238000  1.0
  O  O84  1  0.44410000  0.55150000  0.07564000  1.0
  O  O85  1  0.51980000  0.94864000  0.92426000  1.0
  O  O86  1  0.55589000  0.44853000  0.92436000  1.0
  O  O87  1  0.48021000  0.05136000  0.07573000  1.0
  O  O88  1  0.90375000  0.45158000  0.27640000  1.0
  O  O89  1  0.18058000  0.04898000  0.72335000  1.0
  O  O90  1  0.09624000  0.54841000  0.72361000  1.0
  O  O91  1  0.81941000  0.95101000  0.27666000  1.0
  O  O92  1  0.91659000  0.58626000  0.11659000  1.0
  O  O93  1  0.03415000  0.91430000  0.88325000  1.0
  O  O94  1  0.08343000  0.41374000  0.88341000  1.0
  O  O95  1  0.96584000  0.08568000  0.11675000  1.0
