# generated using pymatgen
data_SmH15C12S2O15
_symmetry_space_group_name_H-M   'P 1'
_cell_length_a   6.96799000
_cell_length_b   10.79220000
_cell_length_c   12.17650000
_cell_angle_alpha   83.96550000
_cell_angle_beta   76.98100000
_cell_angle_gamma   89.64490000
_symmetry_Int_Tables_number   1
_chemical_formula_structural   SmH15C12S2O15
_chemical_formula_sum   'Sm2 H30 C24 S4 O30'
_cell_volume   887.04712208
_cell_formula_units_Z   2
loop_
 _symmetry_equiv_pos_site_id
 _symmetry_equiv_pos_as_xyz
  1  'x, y, z'
loop_
 _atom_site_type_symbol
 _atom_site_label
 _atom_site_symmetry_multiplicity
 _atom_site_fract_x
 _atom_site_fract_y
 _atom_site_fract_z
 _atom_site_occupancy
  Sm  Sm0  1  0.71293000  0.59709000  0.21358000  1.0
  Sm  Sm1  1  0.28706000  0.40291000  0.78642000  1.0
  H  H2  1  0.46526000  0.22152000  0.26464000  1.0
  H  H3  1  0.53473000  0.77848000  0.73537000  1.0
  H  H4  1  0.48244000  0.84270000  0.26973000  1.0
  H  H5  1  0.51756000  0.15729000  0.73027000  1.0
  H  H6  1  0.34111000  0.72613000  0.32712000  1.0
  H  H7  1  0.65888000  0.27387000  0.67288000  1.0
  H  H8  1  0.28082000  0.58601000  0.16641000  1.0
  H  H9  1  0.71917000  0.41399000  0.83360000  1.0
  H  H10  1  0.37113000  0.44855000  0.16807000  1.0
  H  H11  1  0.62887000  0.55145000  0.83193000  1.0
  H  H12  1  0.98787000  0.42443000  0.33968000  1.0
  H  H13  1  0.01213000  0.57557000  0.66032000  1.0
  H  H14  1  0.93354000  0.35180000  0.24611000  1.0
  H  H15  1  0.06646000  0.64820000  0.75390000  1.0
  H  H16  1  0.85552000  0.35488000  0.09751000  1.0
  H  H17  1  0.14448000  0.64512000  0.90249000  1.0
  H  H18  1  0.76777000  0.44205000  0.01059000  1.0
  H  H19  1  0.23223000  0.55795000  0.98941000  1.0
  H  H20  1  0.37021000  0.44403000  0.39156000  1.0
  H  H21  1  0.62979000  0.55597000  0.60844000  1.0
  H  H22  1  0.56861000  0.43795000  0.43428000  1.0
  H  H23  1  0.43140000  0.56205000  0.56572000  1.0
  H  H24  1  0.59598000  0.25304000  0.98332000  1.0
  H  H25  1  0.40402000  0.74696000  0.01668000  1.0
  H  H26  1  0.00568000  0.97953000  0.84775000  1.0
  H  H27  1  0.99433000  0.02047000  0.15225000  1.0
  H  H28  1  0.81660000  0.21218000  0.42165000  1.0
  H  H29  1  0.18340000  0.78782000  0.57834000  1.0
  H  H30  1  0.67284000  0.83977000  0.37019000  1.0
  H  H31  1  0.32716000  0.16023000  0.62981000  1.0
  C  C32  1  0.62719000  0.15649000  0.96926000  1.0
  C  C33  1  0.37281000  0.84351000  0.03074000  1.0
  C  C34  1  0.81238000  0.12653000  0.91082000  1.0
  C  C35  1  0.18762000  0.87347000  0.08918000  1.0
  C  C36  1  0.85816000  0.00153000  0.89250000  1.0
  C  C37  1  0.14184000  0.99846000  0.10750000  1.0
  C  C38  1  0.71634000  0.90951000  0.93115000  1.0
  C  C39  1  0.28367000  0.09049000  0.06885000  1.0
  C  C40  1  0.52160000  0.93627000  0.99026000  1.0
  C  C41  1  0.47840000  0.06373000  0.00974000  1.0
  C  C42  1  0.96835000  0.22436000  0.86622000  1.0
  C  C43  1  0.03165000  0.77564000  0.13378000  1.0
  C  C44  1  0.83994000  0.11246000  0.43367000  1.0
  C  C45  1  0.16007000  0.88754000  0.56633000  1.0
  C  C46  1  0.72931000  0.03178000  0.39049000  1.0
  C  C47  1  0.27069000  0.96822000  0.60951000  1.0
  C  C48  1  0.75947000  0.90225000  0.40469000  1.0
  C  C49  1  0.24053000  0.09775000  0.59531000  1.0
  C  C50  1  0.90083000  0.85460000  0.45880000  1.0
  C  C51  1  0.09917000  0.14540000  0.54120000  1.0
  C  C52  1  0.01711000  0.93375000  0.50661000  1.0
  C  C53  1  0.98290000  0.06625000  0.49338000  1.0
  C  C54  1  0.58100000  0.07556000  0.32462000  1.0
  C  C55  1  0.41900000  0.92445000  0.67538000  1.0
  S  S56  1  0.78292000  0.75471000  0.90394000  1.0
  S  S57  1  0.21708000  0.24529000  0.09606000  1.0
  S  S58  1  0.93274000  0.68964000  0.46257000  1.0
  S  S59  1  0.06725000  0.31036000  0.53743000  1.0
  O  O60  1  0.92659000  0.34103000  0.86630000  1.0
  O  O61  1  0.07341000  0.65897000  0.13370000  1.0
  O  O62  1  0.14366000  0.19080000  0.82887000  1.0
  O  O63  1  0.85634000  0.80920000  0.17113000  1.0
  O  O64  1  0.73212000  0.67396000  0.01145000  1.0
  O  O65  1  0.26788000  0.32604000  0.98855000  1.0
  O  O66  1  0.66874000  0.71643000  0.82435000  1.0
  O  O67  1  0.33125000  0.28356000  0.17565000  1.0
  O  O68  1  0.99688000  0.76003000  0.85429000  1.0
  O  O69  1  0.00312000  0.23997000  0.14571000  1.0
  O  O70  1  0.56119000  0.19871000  0.31368000  1.0
  O  O71  1  0.43880000  0.80129000  0.68632000  1.0
  O  O72  1  0.48546000  0.00416000  0.28319000  1.0
  O  O73  1  0.51452000  0.99584000  0.71681000  1.0
  O  O74  1  0.81719000  0.64795000  0.38597000  1.0
  O  O75  1  0.18281000  0.35206000  0.61403000  1.0
  O  O76  1  0.85006000  0.63675000  0.58082000  1.0
  O  O77  1  0.14994000  0.36325000  0.41918000  1.0
  O  O78  1  0.14401000  0.66785000  0.42806000  1.0
  O  O79  1  0.85599000  0.33214000  0.57194000  1.0
  O  O80  1  0.46661000  0.75110000  0.27260000  1.0
  O  O81  1  0.53339000  0.24890000  0.72740000  1.0
  O  O82  1  0.40246000  0.53780000  0.16694000  1.0
  O  O83  1  0.59754000  0.46220000  0.83306000  1.0
  O  O84  1  0.90087000  0.42694000  0.28552000  1.0
  O  O85  1  0.09912000  0.57306000  0.71448000  1.0
  O  O86  1  0.76974000  0.42729000  0.09066000  1.0
  O  O87  1  0.23026000  0.57271000  0.90934000  1.0
  O  O88  1  0.50148000  0.48465000  0.38155000  1.0
  O  O89  1  0.49852000  0.51535000  0.61845000  1.0
