# generated using pymatgen
data_Zn4H12C44Br16O13
_symmetry_space_group_name_H-M   'P 1'
_cell_length_a   24.06784447
_cell_length_b   24.06820000
_cell_length_c   24.06620000
_cell_angle_alpha   66.75670000
_cell_angle_beta   72.37796756
_cell_angle_gamma   107.61809992
_symmetry_Int_Tables_number   1
_chemical_formula_structural   Zn4H12C44Br16O13
_chemical_formula_sum   'Zn8 H24 C88 Br32 O26'
_cell_volume   10696.18324581
_cell_formula_units_Z   2
loop_
 _symmetry_equiv_pos_site_id
 _symmetry_equiv_pos_as_xyz
  1  'x, y, z'
loop_
 _atom_site_type_symbol
 _atom_site_label
 _atom_site_symmetry_multiplicity
 _atom_site_fract_x
 _atom_site_fract_y
 _atom_site_fract_z
 _atom_site_occupancy
  Zn  Zn0  1  0.05598000  0.09888000  0.45704000  1.0
  Zn  Zn1  1  0.05598000  0.95711000  0.48696000  1.0
  Zn  Zn2  1  0.94402000  0.95705000  0.59888000  1.0
  Zn  Zn3  1  0.94404000  0.98698000  0.45709000  1.0
  Zn  Zn4  1  0.94407000  0.40113000  0.04291000  1.0
  Zn  Zn5  1  0.05594000  0.54291000  0.90111000  1.0
  Zn  Zn6  1  0.94407000  0.54295000  0.01303000  1.0
  Zn  Zn7  1  0.05592000  0.51303000  0.04295000  1.0
  H  H8  1  0.85727000  0.10031000  0.31887000  1.0
  H  H9  1  0.90874000  0.06718000  0.34118000  1.0
  H  H10  1  0.91901000  0.10053000  0.25673000  1.0
  H  H11  1  0.08084000  0.39969000  0.24303000  1.0
  H  H12  1  0.09165000  0.43281000  0.15843000  1.0
  H  H13  1  0.14275000  0.39948000  0.18150000  1.0
  H  H14  1  0.91916000  0.17614000  0.18114000  1.0
  H  H15  1  0.90835000  0.24992000  0.15883000  1.0
  H  H16  1  0.85725000  0.17574000  0.24328000  1.0
  H  H17  1  0.14273000  0.32387000  0.25696000  1.0
  H  H18  1  0.09126000  0.25008000  0.34156000  1.0
  H  H19  1  0.08100000  0.32426000  0.31848000  1.0
  H  H20  1  0.85727000  0.75696000  0.82390000  1.0
  H  H21  1  0.90875000  0.84156000  0.75010000  1.0
  H  H22  1  0.91901000  0.81847000  0.82428000  1.0
  H  H23  1  0.08084000  0.68116000  0.67610000  1.0
  H  H24  1  0.09164000  0.65883000  0.74990000  1.0
  H  H25  1  0.14274000  0.74327000  0.67572000  1.0
  H  H26  1  0.91916000  0.74302000  0.89971000  1.0
  H  H27  1  0.90836000  0.65843000  0.93283000  1.0
  H  H28  1  0.85726000  0.68150000  0.89950000  1.0
  H  H29  1  0.14272000  0.81886000  0.60028000  1.0
  H  H30  1  0.09125000  0.84118000  0.56716000  1.0
  H  H31  1  0.08099000  0.75674000  0.60050000  1.0
  C  C32  1  0.18014000  0.09006000  0.40992000  1.0
  C  C33  1  0.00000000  0.86199000  0.63801000  1.0
  C  C34  1  0.99999000  0.09004000  0.59006000  1.0
  C  C35  1  0.81986000  0.90994000  0.59005000  1.0
  C  C36  1  0.00000000  0.13801000  0.36199000  1.0
  C  C37  1  1.00000000  0.90995000  0.40994000  1.0
  C  C38  1  0.00000000  0.40995000  0.90992000  1.0
  C  C39  1  1.00000000  0.63801000  0.86199000  1.0
  C  C40  1  0.81990000  0.40996000  0.09006000  1.0
  C  C41  1  0.99999000  0.59007000  0.09007000  1.0
  C  C42  1  0.00000000  0.36199000  0.13801000  1.0
  C  C43  1  0.18010000  0.59005000  0.90997000  1.0
  C  C44  1  1.00000000  0.19568000  0.30432000  1.0
  C  C45  1  1.00000000  0.30432000  0.19568000  1.0
  C  C46  1  0.95675000  0.17988000  0.27686000  1.0
  C  C47  1  0.04327000  0.32012000  0.22312000  1.0
  C  C48  1  0.95673000  0.23360000  0.22315000  1.0
  C  C49  1  0.04325000  0.26640000  0.27687000  1.0
  C  C50  1  0.00000000  0.80433000  0.69567000  1.0
  C  C51  1  1.00000000  0.69567000  0.80432000  1.0
  C  C52  1  0.95675000  0.77686000  0.76641000  1.0
  C  C53  1  0.04327000  0.72315000  0.73359000  1.0
  C  C54  1  0.95673000  0.72312000  0.82013000  1.0
  C  C55  1  0.04325000  0.77686000  0.67987000  1.0
  C  C56  1  1.00000000  0.37217000  0.87214000  1.0
  C  C57  1  0.95741000  0.29958000  0.90780000  1.0
  C  C58  1  0.95754000  0.26511000  0.87238000  1.0
  C  C59  1  0.99999000  0.30042000  0.80042000  1.0
  C  C60  1  0.04244000  0.37238000  0.76509000  1.0
  C  C61  1  0.04258000  0.40781000  0.79956000  1.0
  C  C62  1  0.99999000  0.26523000  0.76522000  1.0
  C  C63  1  0.99998000  0.23476000  0.73476000  1.0
  C  C64  1  0.99998000  0.19957000  0.69957000  1.0
  C  C65  1  0.95754000  0.12762000  0.73489000  1.0
  C  C66  1  0.95740000  0.09218000  0.70043000  1.0
  C  C67  1  0.99998000  0.12783000  0.62783000  1.0
  C  C68  1  0.04254000  0.20042000  0.59217000  1.0
  C  C69  1  0.04241000  0.23489000  0.62760000  1.0
  C  C70  1  0.00001000  0.62788000  0.12782000  1.0
  C  C71  1  0.04260000  0.63482000  0.15781000  1.0
  C  C72  1  0.04246000  0.67010000  0.19242000  1.0
  C  C73  1  0.00000000  0.69959000  0.19957000  1.0
  C  C74  1  0.95756000  0.69248000  0.17005000  1.0
  C  C75  1  0.95743000  0.65788000  0.13475000  1.0
  C  C76  1  0.99999000  0.73477000  0.23477000  1.0
  C  C77  1  0.99999000  0.76523000  0.26524000  1.0
  C  C78  1  0.99999000  0.80042000  0.30044000  1.0
  C  C79  1  0.04242000  0.80753000  0.32997000  1.0
  C  C80  1  0.04254000  0.84212000  0.36528000  1.0
  C  C81  1  0.99998000  0.87214000  0.37219000  1.0
  C  C82  1  0.95741000  0.86522000  0.34218000  1.0
  C  C83  1  0.95754000  0.82992000  0.30757000  1.0
  C  C84  1  0.74433000  0.37217000  0.12784000  1.0
  C  C85  1  0.70739000  0.29958000  0.15786000  1.0
  C  C86  1  0.63749000  0.26511000  0.19246000  1.0
  C  C87  1  0.60086000  0.30043000  0.19958000  1.0
  C  C88  1  0.63749000  0.37239000  0.17006000  1.0
  C  C89  1  0.70739000  0.40782000  0.13475000  1.0
  C  C90  1  0.53047000  0.26523000  0.23478000  1.0
  C  C91  1  0.46955000  0.23477000  0.26524000  1.0
  C  C92  1  0.39916000  0.19957000  0.30044000  1.0
  C  C93  1  0.36253000  0.12761000  0.32995000  1.0
  C  C94  1  0.29263000  0.09218000  0.36526000  1.0
  C  C95  1  0.25569000  0.12783000  0.37219000  1.0
  C  C96  1  0.29263000  0.20041000  0.34220000  1.0
  C  C97  1  0.36252000  0.23488000  0.30759000  1.0
  C  C98  1  0.25566000  0.62784000  0.87218000  1.0
  C  C99  1  0.29261000  0.65788000  0.79958000  1.0
  C  C100  1  0.36251000  0.69247000  0.76510000  1.0
  C  C101  1  0.39914000  0.69958000  0.80043000  1.0
  C  C102  1  0.36250000  0.67006000  0.87240000  1.0
  C  C103  1  0.29260000  0.63476000  0.90783000  1.0
  C  C104  1  0.46953000  0.73478000  0.76524000  1.0
  C  C105  1  0.53045000  0.76524000  0.73477000  1.0
  C  C106  1  0.60084000  0.80044000  0.69957000  1.0
  C  C107  1  0.63748000  0.82995000  0.62760000  1.0
  C  C108  1  0.70738000  0.86525000  0.59218000  1.0
  C  C109  1  0.74431000  0.87218000  0.62783000  1.0
  C  C110  1  0.70737000  0.84218000  0.70042000  1.0
  C  C111  1  0.63747000  0.80757000  0.73489000  1.0
  C  C112  1  0.90827000  0.10769000  0.30048000  1.0
  C  C113  1  0.09183000  0.39230000  0.19942000  1.0
  C  C114  1  0.90817000  0.20876000  0.19952000  1.0
  C  C115  1  0.09173000  0.29125000  0.30058000  1.0
  C  C116  1  0.90827000  0.80057000  0.79127000  1.0
  C  C117  1  0.09183000  0.69953000  0.70873000  1.0
  C  C118  1  0.90817000  0.69941000  0.89233000  1.0
  C  C119  1  0.09173000  0.80049000  0.60767000  1.0
  Br  Br120  1  0.89767000  0.24255000  0.00430000  1.0
  Br  Br121  1  0.10233000  0.50430000  0.74251000  1.0
  Br  Br122  1  0.09878000  0.41829000  0.66938000  1.0
  Br  Br123  1  0.90121000  0.16941000  0.91830000  1.0
  Br  Br124  1  0.90122000  0.08171000  0.83060000  1.0
  Br  Br125  1  0.09873000  0.33058000  0.58169000  1.0
  Br  Br126  1  0.10224000  0.25747000  0.49566000  1.0
  Br  Br127  1  0.89766000  0.99570000  0.75748000  1.0
  Br  Br128  1  0.10238000  0.59812000  0.15507000  1.0
  Br  Br129  1  0.89771000  0.65520000  0.09797000  1.0
  Br  Br130  1  0.90123000  0.73184000  0.18047000  1.0
  Br  Br131  1  0.09879000  0.68053000  0.23178000  1.0
  Br  Br132  1  0.09874000  0.76815000  0.31955000  1.0
  Br  Br133  1  0.90123000  0.81952000  0.26818000  1.0
  Br  Br134  1  0.89764000  0.90194000  0.34491000  1.0
  Br  Br135  1  0.10226000  0.84478000  0.40206000  1.0
  Br  Br136  1  0.74685000  0.24255000  0.15515000  1.0
  Br  Br137  1  0.74684000  0.50432000  0.09797000  1.0
  Br  Br138  1  0.58770000  0.41829000  0.18046000  1.0
  Br  Br139  1  0.58771000  0.16943000  0.23183000  1.0
  Br  Br140  1  0.41232000  0.08171000  0.31953000  1.0
  Br  Br141  1  0.41231000  0.33057000  0.26823000  1.0
  Br  Br142  1  0.25318000  0.25744000  0.34497000  1.0
  Br  Br143  1  0.25317000  0.99568000  0.40204000  1.0
  Br  Br144  1  0.25316000  0.65521000  0.74253000  1.0
  Br  Br145  1  0.25314000  0.59797000  0.00434000  1.0
  Br  Br146  1  0.41228000  0.68046000  0.91832000  1.0
  Br  Br147  1  0.41231000  0.73186000  0.66940000  1.0
  Br  Br148  1  0.58770000  0.81953000  0.58169000  1.0
  Br  Br149  1  0.58768000  0.76820000  0.83059000  1.0
  Br  Br150  1  0.74681000  0.84491000  0.75746000  1.0
  Br  Br151  1  0.74684000  0.90202000  0.49567000  1.0
  O  O152  1  0.00000000  0.00000000  0.50000000  1.0
  O  O153  1  0.15075000  0.12473000  0.41623000  1.0
  O  O154  1  0.03958000  0.88602000  0.57516000  1.0
  O  O155  1  0.95906000  0.02596000  0.62475000  1.0
  O  O156  1  0.15075000  0.02601000  0.43297000  1.0
  O  O157  1  0.04094000  0.12473000  0.52597000  1.0
  O  O158  1  0.96041000  0.88524000  0.65358000  1.0
  O  O159  1  0.84925000  0.91627000  0.62472000  1.0
  O  O160  1  0.96047000  0.07517000  0.38597000  1.0
  O  O161  1  0.84926000  0.93299000  0.52599000  1.0
  O  O162  1  0.03953000  0.15356000  0.38530000  1.0
  O  O163  1  0.04092000  0.91618000  0.43311000  1.0
  O  O164  1  0.95910000  0.93314000  0.41615000  1.0
  O  O165  1  1.00000000  0.50000000  0.00000000  1.0
  O  O166  1  0.95899000  0.37528000  0.97399000  1.0
  O  O167  1  0.03888000  0.61404000  0.84643000  1.0
  O  O168  1  0.84929000  0.47404000  0.06690000  1.0
  O  O169  1  0.04101000  0.47400000  0.87525000  1.0
  O  O170  1  0.84930000  0.37527000  0.08384000  1.0
  O  O171  1  0.96114000  0.61470000  0.92483000  1.0
  O  O172  1  0.95899000  0.58374000  0.06701000  1.0
  O  O173  1  0.03881000  0.42483000  0.11475000  1.0
  O  O174  1  0.04097000  0.56699000  0.08376000  1.0
  O  O175  1  0.96118000  0.34644000  0.11399000  1.0
  O  O176  1  0.15071000  0.58381000  0.87528000  1.0
  O  O177  1  0.15070000  0.56690000  0.97405000  1.0
