# generated using pymatgen
data_AgH22C24SN5O3
_symmetry_space_group_name_H-M   'P 1'
_cell_length_a   8.13324000
_cell_length_b   11.45440000
_cell_length_c   13.07240000
_cell_angle_alpha   76.41870000
_cell_angle_beta   82.51530000
_cell_angle_gamma   71.44730000
_symmetry_Int_Tables_number   1
_chemical_formula_structural   AgH22C24SN5O3
_chemical_formula_sum   'Ag2 H44 C48 S2 N10 O6'
_cell_volume   1120.22875550
_cell_formula_units_Z   2
loop_
 _symmetry_equiv_pos_site_id
 _symmetry_equiv_pos_as_xyz
  1  'x, y, z'
loop_
 _atom_site_type_symbol
 _atom_site_label
 _atom_site_symmetry_multiplicity
 _atom_site_fract_x
 _atom_site_fract_y
 _atom_site_fract_z
 _atom_site_occupancy
  Ag  Ag0  1  0.75818000  0.07363000  0.45637000  1.0
  Ag  Ag1  1  0.24182000  0.92637000  0.54363000  1.0
  H  H2  1  0.48910000  0.12098000  0.89003000  1.0
  H  H3  1  0.51090000  0.87902000  0.10997000  1.0
  H  H4  1  0.66835000  0.26134000  0.84775000  1.0
  H  H5  1  0.33165000  0.73866000  0.15225000  1.0
  H  H6  1  0.23106000  0.57014000  0.91371000  1.0
  H  H7  1  0.76894000  0.42986000  0.08629000  1.0
  H  H8  1  0.04288000  0.43177000  0.95084000  1.0
  H  H9  1  0.95712000  0.56823000  0.04916000  1.0
  H  H10  1  0.85702000  0.54823000  0.82094000  1.0
  H  H11  1  0.14298000  0.45177000  0.17906000  1.0
  H  H12  1  0.03210000  0.69980000  0.78144000  1.0
  H  H13  1  0.96790000  0.30020000  0.21856000  1.0
  H  H14  1  0.56296000  0.00906000  0.77617000  1.0
  H  H15  1  0.43703000  0.99095000  0.22383000  1.0
  H  H16  1  0.38608000  0.85584000  0.81560000  1.0
  H  H17  1  0.61391000  0.14416000  0.18440000  1.0
  H  H18  1  0.64382000  0.86134000  0.60957000  1.0
  H  H19  1  0.35618000  0.13865000  0.39043000  1.0
  H  H20  1  0.65631000  0.64057000  0.62161000  1.0
  H  H21  1  0.34370000  0.35942000  0.37840000  1.0
  H  H22  1  0.82084000  0.68692000  0.28999000  1.0
  H  H23  1  0.17916000  0.31307000  0.71001000  1.0
  H  H24  1  0.80487000  0.90603000  0.29243000  1.0
  H  H25  1  0.19512000  0.09397000  0.70757000  1.0
  H  H26  1  0.67630000  0.33124000  0.30374000  1.0
  H  H27  1  0.32371000  0.66876000  0.69626000  1.0
  H  H28  1  0.67670000  0.54888000  0.29563000  1.0
  H  H29  1  0.32331000  0.45112000  0.70437000  1.0
  H  H30  1  0.79787000  0.43643000  0.62384000  1.0
  H  H31  1  0.20214000  0.56356000  0.37616000  1.0
  H  H32  1  0.79072000  0.22305000  0.61934000  1.0
  H  H33  1  0.20928000  0.77695000  0.38066000  1.0
  H  H34  1  0.89262000  0.17400000  0.94475000  1.0
  H  H35  1  0.10738000  0.82600000  0.05525000  1.0
  H  H36  1  0.89694000  0.33163000  0.91432000  1.0
  H  H37  1  0.10305000  0.66837000  0.08568000  1.0
  H  H38  1  0.92914000  0.24078000  0.04616000  1.0
  H  H39  1  0.07085000  0.75922000  0.95384000  1.0
  H  H40  1  0.11010000  0.01959000  0.92639000  1.0
  H  H41  1  0.88989000  0.98042000  0.07361000  1.0
  H  H42  1  0.26211000  0.00687000  0.01894000  1.0
  H  H43  1  0.73790000  0.99313000  0.98106000  1.0
  H  H44  1  0.31722000  0.03471000  0.88062000  1.0
  H  H45  1  0.68278000  0.96529000  0.11937000  1.0
  C  C46  1  0.24693000  0.26535000  0.91908000  1.0
  C  C47  1  0.75306000  0.73465000  0.08092000  1.0
  C  C48  1  0.42837000  0.21934000  0.89338000  1.0
  C  C49  1  0.57163000  0.78066000  0.10662000  1.0
  C  C50  1  0.53162000  0.29845000  0.87140000  1.0
  C  C51  1  0.46838000  0.70155000  0.12860000  1.0
  C  C52  1  0.46233000  0.42662000  0.87633000  1.0
  C  C53  1  0.53767000  0.57338000  0.12367000  1.0
  C  C54  1  0.28361000  0.47221000  0.90628000  1.0
  C  C55  1  0.71639000  0.52779000  0.09372000  1.0
  C  C56  1  0.17898000  0.39462000  0.92648000  1.0
  C  C57  1  0.82102000  0.60537000  0.07352000  1.0
  C  C58  1  0.61109000  0.69374000  0.82199000  1.0
  C  C59  1  0.38891000  0.30626000  0.17801000  1.0
  C  C60  1  0.79386000  0.64907000  0.81163000  1.0
  C  C61  1  0.20614000  0.35094000  0.18837000  1.0
  C  C62  1  0.89085000  0.73303000  0.78989000  1.0
  C  C63  1  0.10915000  0.26697000  0.21011000  1.0
  C  C64  1  0.80701000  0.86243000  0.77862000  1.0
  C  C65  1  0.19298000  0.13758000  0.22137000  1.0
  C  C66  1  0.62559000  0.90782000  0.78799000  1.0
  C  C67  1  0.37440000  0.09218000  0.21201000  1.0
  C  C68  1  0.52780000  0.82393000  0.80962000  1.0
  C  C69  1  0.47220000  0.17607000  0.19038000  1.0
  C  C70  1  0.68274000  0.81951000  0.54032000  1.0
  C  C71  1  0.31726000  0.18049000  0.45968000  1.0
  C  C72  1  0.69164000  0.69476000  0.54661000  1.0
  C  C73  1  0.30837000  0.30523000  0.45339000  1.0
  C  C74  1  0.73867000  0.64284000  0.45637000  1.0
  C  C75  1  0.26134000  0.35716000  0.54363000  1.0
  C  C76  1  0.78020000  0.72104000  0.36309000  1.0
  C  C77  1  0.21980000  0.27896000  0.63692000  1.0
  C  C78  1  0.77090000  0.84426000  0.36343000  1.0
  C  C79  1  0.22910000  0.15574000  0.63657000  1.0
  C  C80  1  0.70359000  0.35785000  0.37324000  1.0
  C  C81  1  0.29641000  0.64214000  0.62676000  1.0
  C  C82  1  0.70581000  0.47975000  0.36888000  1.0
  C  C83  1  0.29420000  0.52025000  0.63112000  1.0
  C  C84  1  0.73977000  0.51287000  0.45892000  1.0
  C  C85  1  0.26024000  0.48713000  0.54108000  1.0
  C  C86  1  0.77026000  0.41825000  0.55067000  1.0
  C  C87  1  0.22975000  0.58175000  0.44933000  1.0
  C  C88  1  0.76604000  0.29809000  0.54913000  1.0
  C  C89  1  0.23396000  0.70191000  0.45087000  1.0
  C  C90  1  0.95576000  0.23795000  0.96184000  1.0
  C  C91  1  0.04424000  0.76205000  0.03816000  1.0
  C  C92  1  0.21200000  0.05600000  0.94104000  1.0
  C  C93  1  0.78800000  0.94400000  0.05896000  1.0
  S  S94  1  0.93182000  0.96978000  0.74198000  1.0
  S  S95  1  0.06818000  0.03022000  0.25801000  1.0
  N  N96  1  0.57446000  0.50005000  0.85062000  1.0
  N  N97  1  0.42554000  0.49995000  0.14939000  1.0
  N  N98  1  0.49971000  0.61823000  0.84406000  1.0
  N  N99  1  0.50029000  0.38177000  0.15594000  1.0
  N  N100  1  0.14092000  0.19089000  0.93428000  1.0
  N  N101  1  0.85908000  0.80911000  0.06572000  1.0
  N  N102  1  0.72127000  0.89437000  0.45033000  1.0
  N  N103  1  0.27873000  0.10563000  0.54967000  1.0
  N  N104  1  0.73267000  0.26756000  0.46196000  1.0
  N  N105  1  0.26734000  0.73244000  0.53804000  1.0
  O  O106  1  0.93214000  0.00358000  0.62511000  1.0
  O  O107  1  0.06786000  0.99642000  0.37488000  1.0
  O  O108  1  0.84160000  0.07801000  0.79073000  1.0
  O  O109  1  0.15839000  0.92200000  0.20926000  1.0
  O  O110  1  0.10661000  0.90015000  0.77810000  1.0
  O  O111  1  0.89338000  0.09986000  0.22190000  1.0
