# generated using pymatgen
data_CuH8C14N2O5
_symmetry_space_group_name_H-M   'P 1'
_cell_length_a   18.28066368
_cell_length_b   18.28810000
_cell_length_c   25.93585913
_cell_angle_alpha   69.36160772
_cell_angle_beta   69.36445658
_cell_angle_gamma   60.01345000
_symmetry_Int_Tables_number   1
_chemical_formula_structural   CuH8C14N2O5
_chemical_formula_sum   'Cu12 H96 C168 N24 O60'
_cell_volume   6860.02614231
_cell_formula_units_Z   12
loop_
 _symmetry_equiv_pos_site_id
 _symmetry_equiv_pos_as_xyz
  1  'x, y, z'
loop_
 _atom_site_type_symbol
 _atom_site_label
 _atom_site_symmetry_multiplicity
 _atom_site_fract_x
 _atom_site_fract_y
 _atom_site_fract_z
 _atom_site_occupancy
  Cu  Cu0  1  0.73986000  0.18459000  0.29221000  1.0
  Cu  Cu1  1  0.18448000  0.78330000  0.29215000  1.0
  Cu  Cu2  1  0.78334000  0.73986000  0.29221000  1.0
  Cu  Cu3  1  0.75994000  0.71669000  0.20785000  1.0
  Cu  Cu4  1  0.71666000  0.31540000  0.20780000  1.0
  Cu  Cu5  1  0.31541000  0.76014000  0.20779000  1.0
  Cu  Cu6  1  0.26014000  0.81541000  0.70779000  1.0
  Cu  Cu7  1  0.81552000  0.21669000  0.70785000  1.0
  Cu  Cu8  1  0.21666000  0.26014000  0.70779000  1.0
  Cu  Cu9  1  0.24006000  0.28331000  0.79215000  1.0
  Cu  Cu10  1  0.28334000  0.68460000  0.79220000  1.0
  Cu  Cu11  1  0.68459000  0.23986000  0.79221000  1.0
  H  H12  1  0.73622000  0.00519000  0.23559000  1.0
  H  H13  1  0.00525000  0.02309000  0.23563000  1.0
  H  H14  1  0.02291000  0.73649000  0.23532000  1.0
  H  H15  1  0.76397000  0.47692000  0.26437000  1.0
  H  H16  1  0.47700000  0.49480000  0.26442000  1.0
  H  H17  1  0.49472000  0.76352000  0.26467000  1.0
  H  H18  1  0.26378000  0.99481000  0.76441000  1.0
  H  H19  1  0.99475000  0.97691000  0.76437000  1.0
  H  H20  1  0.97709000  0.26351000  0.76468000  1.0
  H  H21  1  0.23603000  0.52308000  0.73563000  1.0
  H  H22  1  0.52300000  0.50520000  0.73558000  1.0
  H  H23  1  0.50528000  0.23648000  0.73533000  1.0
  H  H24  1  0.65714000  0.97791000  0.10867000  1.0
  H  H25  1  0.97807000  0.25623000  0.10868000  1.0
  H  H26  1  0.25621000  0.65723000  0.10845000  1.0
  H  H27  1  0.84299000  0.24376000  0.39132000  1.0
  H  H28  1  0.24372000  0.52208000  0.39133000  1.0
  H  H29  1  0.52188000  0.84278000  0.39155000  1.0
  H  H30  1  0.34286000  0.02208000  0.89134000  1.0
  H  H31  1  0.02193000  0.74376000  0.89133000  1.0
  H  H32  1  0.74379000  0.34277000  0.89155000  1.0
  H  H33  1  0.15701000  0.75624000  0.60868000  1.0
  H  H34  1  0.75628000  0.47791000  0.60867000  1.0
  H  H35  1  0.47812000  0.15721000  0.60846000  1.0
  H  H36  1  0.62793000  0.22840000  0.10755000  1.0
  H  H37  1  0.22863000  0.03608000  0.10761000  1.0
  H  H38  1  0.03597000  0.62778000  0.10754000  1.0
  H  H39  1  0.87232000  0.46391000  0.39240000  1.0
  H  H40  1  0.46388000  0.27160000  0.39245000  1.0
  H  H41  1  0.27129000  0.87221000  0.39246000  1.0
  H  H42  1  0.37207000  0.77160000  0.89245000  1.0
  H  H43  1  0.77137000  0.96392000  0.89239000  1.0
  H  H44  1  0.96403000  0.37222000  0.89246000  1.0
  H  H45  1  0.12768000  0.53609000  0.60760000  1.0
  H  H46  1  0.53613000  0.72841000  0.60754000  1.0
  H  H47  1  0.72871000  0.12778000  0.60755000  1.0
  H  H48  1  0.44260000  0.19130000  0.01690000  1.0
  H  H49  1  0.19146000  0.34901000  0.01699000  1.0
  H  H50  1  0.34892000  0.44239000  0.01694000  1.0
  H  H51  1  0.05745000  0.15098000  0.48302000  1.0
  H  H52  1  0.15079000  0.30871000  0.48310000  1.0
  H  H53  1  0.30824000  0.05762000  0.48305000  1.0
  H  H54  1  0.55740000  0.80871000  0.98309000  1.0
  H  H55  1  0.80854000  0.65100000  0.98301000  1.0
  H  H56  1  0.65108000  0.55760000  0.98306000  1.0
  H  H57  1  0.94255000  0.84901000  0.51698000  1.0
  H  H58  1  0.84923000  0.69127000  0.51690000  1.0
  H  H59  1  0.69176000  0.94238000  0.51695000  1.0
  H  H60  1  0.40322000  0.20660000  0.92915000  1.0
  H  H61  1  0.20663000  0.46093000  0.92928000  1.0
  H  H62  1  0.46084000  0.40315000  0.92919000  1.0
  H  H63  1  0.09683000  0.03907000  0.57072000  1.0
  H  H64  1  0.03895000  0.29342000  0.57085000  1.0
  H  H65  1  0.29318000  0.09686000  0.57080000  1.0
  H  H66  1  0.59678000  0.79341000  0.07085000  1.0
  H  H67  1  0.79337000  0.53907000  0.07072000  1.0
  H  H68  1  0.53915000  0.59685000  0.07081000  1.0
  H  H69  1  0.90316000  0.96093000  0.42928000  1.0
  H  H70  1  0.96106000  0.70658000  0.42914000  1.0
  H  H71  1  0.70682000  0.90314000  0.42920000  1.0
  H  H72  1  0.49554000  0.24194000  0.83489000  1.0
  H  H73  1  0.24200000  0.42765000  0.83498000  1.0
  H  H74  1  0.42758000  0.49555000  0.83492000  1.0
  H  H75  1  0.00462000  0.07235000  0.66502000  1.0
  H  H76  1  0.07236000  0.25806000  0.66512000  1.0
  H  H77  1  0.25806000  0.00445000  0.66507000  1.0
  H  H78  1  0.50446000  0.75807000  0.16511000  1.0
  H  H79  1  0.75800000  0.57236000  0.16501000  1.0
  H  H80  1  0.57242000  0.50444000  0.16508000  1.0
  H  H81  1  0.99537000  0.92765000  0.33498000  1.0
  H  H82  1  0.92764000  0.74195000  0.33488000  1.0
  H  H83  1  0.74194000  0.99555000  0.33493000  1.0
  H  H84  1  0.65324000  0.25607000  0.90909000  1.0
  H  H85  1  0.25626000  0.18164000  0.90907000  1.0
  H  H86  1  0.18155000  0.65311000  0.90907000  1.0
  H  H87  1  0.84697000  0.31836000  0.59093000  1.0
  H  H88  1  0.31839000  0.24393000  0.59091000  1.0
  H  H89  1  0.24373000  0.84689000  0.59093000  1.0
  H  H90  1  0.34676000  0.74394000  0.09091000  1.0
  H  H91  1  0.74373000  0.81836000  0.09094000  1.0
  H  H92  1  0.81845000  0.34690000  0.09093000  1.0
  H  H93  1  0.15303000  0.68165000  0.40906000  1.0
  H  H94  1  0.68161000  0.75606000  0.40910000  1.0
  H  H95  1  0.75627000  0.15311000  0.40907000  1.0
  H  H96  1  0.59765000  0.09367000  0.04357000  1.0
  H  H97  1  0.09390000  0.26503000  0.04363000  1.0
  H  H98  1  0.26490000  0.59774000  0.04342000  1.0
  H  H99  1  0.90256000  0.23497000  0.45637000  1.0
  H  H100  1  0.23488000  0.40633000  0.45643000  1.0
  H  H101  1  0.40605000  0.90228000  0.45657000  1.0
  H  H102  1  0.40235000  0.90633000  0.95643000  1.0
  H  H103  1  0.90610000  0.73497000  0.95637000  1.0
  H  H104  1  0.73510000  0.40226000  0.95658000  1.0
  H  H105  1  0.09744000  0.76503000  0.54363000  1.0
  H  H106  1  0.76513000  0.59365000  0.54357000  1.0
  H  H107  1  0.59395000  0.09772000  0.54343000  1.0
  C  C108  1  0.69458000  0.17386000  0.20166000  1.0
  C  C109  1  0.17395000  0.92989000  0.20168000  1.0
  C  C110  1  0.92976000  0.69465000  0.20156000  1.0
  C  C111  1  0.80552000  0.57011000  0.29832000  1.0
  C  C112  1  0.57010000  0.32613000  0.29835000  1.0
  C  C113  1  0.32597000  0.80534000  0.29844000  1.0
  C  C114  1  0.30542000  0.82614000  0.79834000  1.0
  C  C115  1  0.82605000  0.07011000  0.79832000  1.0
  C  C116  1  0.07024000  0.30535000  0.79844000  1.0
  C  C117  1  0.19448000  0.42989000  0.70168000  1.0
  C  C118  1  0.42990000  0.67387000  0.70165000  1.0
  C  C119  1  0.67403000  0.19466000  0.70156000  1.0
  C  C120  1  0.68261000  0.12199000  0.17436000  1.0
  C  C121  1  0.12213000  0.02106000  0.17440000  1.0
  C  C122  1  0.02090000  0.68270000  0.17422000  1.0
  C  C123  1  0.81759000  0.47894000  0.32560000  1.0
  C  C124  1  0.47896000  0.37801000  0.32564000  1.0
  C  C125  1  0.37782000  0.81729000  0.32578000  1.0
  C  C126  1  0.31738000  0.87802000  0.82564000  1.0
  C  C127  1  0.87787000  0.97894000  0.82560000  1.0
  C  C128  1  0.97910000  0.31730000  0.82578000  1.0
  C  C129  1  0.18241000  0.52106000  0.67440000  1.0
  C  C130  1  0.52104000  0.62199000  0.67435000  1.0
  C  C131  1  0.62217000  0.18271000  0.67422000  1.0
  C  C132  1  0.70866000  0.03388000  0.19841000  1.0
  C  C133  1  0.03399000  0.05908000  0.19846000  1.0
  C  C134  1  0.05894000  0.70885000  0.19819000  1.0
  C  C135  1  0.79153000  0.44093000  0.30154000  1.0
  C  C136  1  0.44095000  0.46612000  0.30159000  1.0
  C  C137  1  0.46598000  0.79116000  0.30180000  1.0
  C  C138  1  0.29133000  0.96613000  0.80159000  1.0
  C  C139  1  0.96601000  0.94092000  0.80154000  1.0
  C  C140  1  0.94106000  0.29116000  0.80180000  1.0
  C  C141  1  0.20846000  0.55908000  0.69846000  1.0
  C  C142  1  0.55905000  0.53387000  0.69841000  1.0
  C  C143  1  0.53401000  0.20885000  0.69820000  1.0
  C  C144  1  0.70007000  0.98214000  0.17436000  1.0
  C  C145  1  0.98227000  0.14344000  0.17439000  1.0
  C  C146  1  0.14334000  0.70023000  0.17414000  1.0
  C  C147  1  0.80010000  0.35657000  0.32561000  1.0
  C  C148  1  0.35656000  0.51786000  0.32564000  1.0
  C  C149  1  0.51771000  0.79977000  0.32586000  1.0
  C  C150  1  0.29993000  0.01786000  0.82564000  1.0
  C  C151  1  0.01773000  0.85656000  0.82561000  1.0
  C  C152  1  0.85666000  0.29977000  0.82586000  1.0
  C  C153  1  0.19990000  0.64343000  0.67439000  1.0
  C  C154  1  0.64343000  0.48214000  0.67436000  1.0
  C  C155  1  0.48228000  0.20024000  0.67414000  1.0
  C  C156  1  0.66411000  0.01897000  0.12688000  1.0
  C  C157  1  0.01913000  0.19002000  0.12692000  1.0
  C  C158  1  0.18995000  0.66420000  0.12670000  1.0
  C  C159  1  0.83608000  0.30998000  0.37308000  1.0
  C  C160  1  0.30996000  0.48102000  0.37312000  1.0
  C  C161  1  0.48084000  0.83582000  0.37329000  1.0
  C  C162  1  0.33589000  0.98103000  0.87312000  1.0
  C  C163  1  0.98087000  0.80998000  0.87308000  1.0
  C  C164  1  0.81005000  0.33580000  0.87330000  1.0
  C  C165  1  0.16392000  0.69002000  0.62692000  1.0
  C  C166  1  0.69004000  0.51897000  0.62688000  1.0
  C  C167  1  0.51916000  0.16418000  0.62671000  1.0
  C  C168  1  0.63727000  0.10771000  0.10292000  1.0
  C  C169  1  0.10792000  0.15206000  0.10297000  1.0
  C  C170  1  0.15196000  0.63726000  0.10281000  1.0
  C  C171  1  0.86295000  0.34793000  0.39704000  1.0
  C  C172  1  0.34790000  0.39229000  0.39708000  1.0
  C  C173  1  0.39203000  0.86273000  0.39719000  1.0
  C  C174  1  0.36273000  0.89229000  0.89708000  1.0
  C  C175  1  0.89208000  0.84795000  0.89703000  1.0
  C  C176  1  0.84804000  0.36274000  0.89719000  1.0
  C  C177  1  0.13705000  0.65207000  0.60296000  1.0
  C  C178  1  0.65210000  0.60772000  0.60291000  1.0
  C  C179  1  0.60797000  0.13726000  0.60281000  1.0
  C  C180  1  0.64729000  0.15989000  0.12629000  1.0
  C  C181  1  0.16009000  0.06651000  0.12634000  1.0
  C  C182  1  0.06637000  0.64729000  0.12620000  1.0
  C  C183  1  0.85294000  0.43349000  0.37366000  1.0
  C  C184  1  0.43347000  0.34010000  0.37372000  1.0
  C  C185  1  0.33986000  0.85271000  0.37380000  1.0
  C  C186  1  0.35271000  0.84010000  0.87371000  1.0
  C  C187  1  0.83991000  0.93349000  0.87366000  1.0
  C  C188  1  0.93362000  0.35272000  0.87380000  1.0
  C  C189  1  0.14706000  0.56651000  0.62634000  1.0
  C  C190  1  0.56653000  0.65990000  0.62628000  1.0
  C  C191  1  0.66014000  0.14729000  0.62620000  1.0
  C  C192  1  0.72886000  0.88780000  0.20051000  1.0
  C  C193  1  0.88785000  0.18280000  0.20050000  1.0
  C  C194  1  0.18273000  0.72906000  0.20031000  1.0
  C  C195  1  0.77114000  0.31722000  0.29950000  1.0
  C  C196  1  0.31717000  0.61220000  0.29949000  1.0
  C  C197  1  0.61210000  0.77094000  0.29969000  1.0
  C  C198  1  0.27113000  0.11221000  0.79949000  1.0
  C  C199  1  0.11215000  0.81720000  0.79950000  1.0
  C  C200  1  0.81727000  0.27094000  0.79969000  1.0
  C  C201  1  0.22885000  0.68279000  0.70050000  1.0
  C  C202  1  0.68283000  0.38780000  0.70051000  1.0
  C  C203  1  0.38789000  0.22906000  0.70031000  1.0
  C  C204  1  0.55107000  0.22338000  0.96971000  1.0
  C  C205  1  0.22357000  0.25577000  0.96974000  1.0
  C  C206  1  0.25567000  0.55090000  0.96970000  1.0
  C  C207  1  0.94907000  0.24423000  0.53027000  1.0
  C  C208  1  0.24415000  0.27663000  0.53029000  1.0
  C  C209  1  0.27627000  0.94911000  0.53029000  1.0
  C  C210  1  0.44893000  0.77662000  0.03029000  1.0
  C  C211  1  0.77643000  0.74424000  0.03026000  1.0
  C  C212  1  0.74433000  0.44910000  0.03030000  1.0
  C  C213  1  0.05093000  0.75577000  0.46973000  1.0
  C  C214  1  0.75586000  0.72336000  0.46971000  1.0
  C  C215  1  0.72373000  0.05089000  0.46971000  1.0
  C  C216  1  0.48043000  0.20835000  0.97530000  1.0
  C  C217  1  0.20851000  0.33579000  0.97537000  1.0
  C  C218  1  0.33571000  0.48027000  0.97532000  1.0
  C  C219  1  0.01967000  0.16421000  0.52463000  1.0
  C  C220  1  0.16407000  0.29166000  0.52470000  1.0
  C  C221  1  0.29129000  0.01974000  0.52467000  1.0
  C  C222  1  0.51957000  0.79165000  0.02470000  1.0
  C  C223  1  0.79149000  0.66421000  0.02463000  1.0
  C  C224  1  0.66429000  0.51973000  0.02468000  1.0
  C  C225  1  0.98033000  0.83579000  0.47537000  1.0
  C  C226  1  0.83595000  0.70833000  0.47530000  1.0
  C  C227  1  0.70871000  0.98025000  0.47533000  1.0
  C  C228  1  0.45837000  0.21676000  0.92652000  1.0
  C  C229  1  0.21684000  0.39827000  0.92662000  1.0
  C  C230  1  0.39819000  0.45826000  0.92655000  1.0
  C  C231  1  0.04172000  0.10173000  0.57339000  1.0
  C  C232  1  0.10164000  0.28325000  0.57348000  1.0
  C  C233  1  0.28299000  0.04175000  0.57344000  1.0
  C  C234  1  0.54163000  0.78326000  0.07347000  1.0
  C  C235  1  0.78316000  0.60173000  0.07338000  1.0
  C  C236  1  0.60181000  0.54174000  0.07345000  1.0
  C  C237  1  0.95828000  0.89827000  0.42661000  1.0
  C  C238  1  0.89837000  0.71674000  0.42652000  1.0
  C  C239  1  0.71701000  0.95825000  0.42656000  1.0
  C  C240  1  0.50900000  0.23702000  0.87407000  1.0
  C  C241  1  0.23709000  0.37993000  0.87414000  1.0
  C  C242  1  0.37985000  0.50894000  0.87409000  1.0
  C  C243  1  0.99115000  0.12008000  0.62586000  1.0
  C  C244  1  0.12008000  0.26298000  0.62593000  1.0
  C  C245  1  0.26288000  0.99106000  0.62590000  1.0
  C  C246  1  0.49100000  0.76299000  0.12593000  1.0
  C  C247  1  0.76291000  0.62008000  0.12586000  1.0
  C  C248  1  0.62015000  0.49106000  0.12591000  1.0
  C  C249  1  0.00885000  0.87992000  0.37414000  1.0
  C  C250  1  0.87992000  0.73703000  0.37406000  1.0
  C  C251  1  0.73712000  0.00894000  0.37410000  1.0
  C  C252  1  0.59721000  0.24478000  0.91537000  1.0
  C  C253  1  0.24495000  0.24267000  0.91536000  1.0
  C  C254  1  0.24257000  0.59709000  0.91534000  1.0
  C  C255  1  0.90298000  0.25733000  0.58464000  1.0
  C  C256  1  0.25735000  0.25522000  0.58464000  1.0
  C  C257  1  0.25500000  0.90292000  0.58465000  1.0
  C  C258  1  0.40279000  0.75522000  0.08463000  1.0
  C  C259  1  0.75504000  0.75734000  0.08464000  1.0
  C  C260  1  0.75743000  0.40291000  0.08466000  1.0
  C  C261  1  0.09702000  0.74266000  0.41536000  1.0
  C  C262  1  0.74265000  0.74478000  0.41537000  1.0
  C  C263  1  0.74499000  0.09709000  0.41535000  1.0
  C  C264  1  0.58110000  0.21818000  0.01839000  1.0
  C  C265  1  0.21841000  0.18228000  0.01842000  1.0
  C  C266  1  0.18219000  0.58081000  0.01840000  1.0
  C  C267  1  0.91910000  0.31773000  0.48159000  1.0
  C  C268  1  0.31766000  0.28182000  0.48161000  1.0
  C  C269  1  0.28139000  0.91920000  0.48159000  1.0
  C  C270  1  0.41890000  0.78183000  0.98160000  1.0
  C  C271  1  0.78159000  0.81772000  0.98159000  1.0
  C  C272  1  0.81781000  0.41920000  0.98159000  1.0
  C  C273  1  0.08090000  0.68228000  0.51841000  1.0
  C  C274  1  0.68235000  0.71817000  0.51839000  1.0
  C  C275  1  0.71860000  0.08080000  0.51841000  1.0
  N  N276  1  0.57780000  0.25018000  0.86855000  1.0
  N  N277  1  0.25031000  0.30353000  0.86857000  1.0
  N  N278  1  0.30346000  0.57774000  0.86854000  1.0
  N  N279  1  0.92240000  0.19647000  0.63144000  1.0
  N  N280  1  0.19652000  0.24983000  0.63145000  1.0
  N  N281  1  0.24974000  0.92227000  0.63145000  1.0
  N  N282  1  0.42220000  0.74983000  0.13145000  1.0
  N  N283  1  0.74968000  0.69648000  0.13143000  1.0
  N  N284  1  0.69654000  0.42226000  0.13146000  1.0
  N  N285  1  0.07760000  0.80353000  0.36856000  1.0
  N  N286  1  0.80348000  0.75017000  0.36855000  1.0
  N  N287  1  0.75026000  0.07773000  0.36855000  1.0
  N  N288  1  0.60093000  0.13919000  0.05542000  1.0
  N  N289  1  0.13942000  0.20440000  0.05547000  1.0
  N  N290  1  0.20429000  0.60087000  0.05534000  1.0
  N  N291  1  0.89929000  0.29561000  0.44453000  1.0
  N  N292  1  0.29553000  0.36082000  0.44458000  1.0
  N  N293  1  0.36049000  0.89913000  0.44466000  1.0
  N  N294  1  0.39906000  0.86082000  0.94458000  1.0
  N  N295  1  0.86058000  0.79561000  0.94453000  1.0
  N  N296  1  0.79571000  0.39913000  0.94466000  1.0
  N  N297  1  0.10071000  0.70439000  0.55547000  1.0
  N  N298  1  0.70448000  0.63917000  0.55542000  1.0
  N  N299  1  0.63951000  0.10086000  0.55534000  1.0
  O  O300  1  0.69796000  0.24483000  0.17248000  1.0
  O  O301  1  0.24498000  0.88475000  0.17251000  1.0
  O  O302  1  0.88451000  0.69801000  0.17242000  1.0
  O  O303  1  0.80224000  0.61524000  0.32750000  1.0
  O  O304  1  0.61527000  0.25515000  0.32754000  1.0
  O  O305  1  0.25495000  0.80198000  0.32757000  1.0
  O  O306  1  0.30204000  0.75517000  0.82752000  1.0
  O  O307  1  0.75502000  0.11524000  0.82750000  1.0
  O  O308  1  0.11549000  0.30199000  0.82758000  1.0
  O  O309  1  0.19776000  0.38475000  0.67251000  1.0
  O  O310  1  0.38473000  0.74485000  0.67246000  1.0
  O  O311  1  0.74505000  0.19802000  0.67243000  1.0
  O  O312  1  0.70174000  0.14022000  0.25307000  1.0
  O  O313  1  0.14016000  0.90491000  0.25305000  1.0
  O  O314  1  0.90491000  0.70186000  0.25296000  1.0
  O  O315  1  0.79812000  0.59508000  0.24696000  1.0
  O  O316  1  0.59504000  0.35976000  0.24694000  1.0
  O  O317  1  0.35974000  0.79813000  0.24704000  1.0
  O  O318  1  0.29826000  0.85978000  0.74693000  1.0
  O  O319  1  0.85984000  0.09509000  0.74696000  1.0
  O  O320  1  0.09509000  0.29813000  0.74705000  1.0
  O  O321  1  0.20189000  0.40492000  0.75304000  1.0
  O  O322  1  0.40496000  0.64024000  0.75306000  1.0
  O  O323  1  0.64026000  0.20187000  0.75296000  1.0
  O  O324  1  0.75805000  0.86020000  0.24492000  1.0
  O  O325  1  0.86025000  0.13678000  0.24489000  1.0
  O  O326  1  0.13673000  0.75816000  0.24473000  1.0
  O  O327  1  0.74193000  0.36321000  0.25511000  1.0
  O  O328  1  0.36317000  0.63980000  0.25508000  1.0
  O  O329  1  0.63962000  0.74185000  0.25526000  1.0
  O  O330  1  0.24195000  0.13979000  0.75509000  1.0
  O  O331  1  0.13975000  0.86322000  0.75511000  1.0
  O  O332  1  0.86327000  0.24185000  0.75526000  1.0
  O  O333  1  0.25807000  0.63679000  0.74489000  1.0
  O  O334  1  0.63683000  0.36020000  0.74492000  1.0
  O  O335  1  0.36038000  0.25815000  0.74474000  1.0
  O  O336  1  0.72132000  0.84262000  0.17638000  1.0
  O  O337  1  0.84264000  0.25959000  0.17634000  1.0
  O  O338  1  0.25956000  0.72165000  0.17617000  1.0
  O  O339  1  0.77857000  0.24041000  0.32366000  1.0
  O  O340  1  0.24032000  0.65736000  0.32362000  1.0
  O  O341  1  0.65738000  0.77835000  0.32383000  1.0
  O  O342  1  0.27867000  0.15738000  0.82363000  1.0
  O  O343  1  0.15737000  0.74041000  0.82365000  1.0
  O  O344  1  0.74044000  0.27835000  0.82383000  1.0
  O  O345  1  0.22143000  0.75959000  0.67634000  1.0
  O  O346  1  0.75968000  0.34262000  0.67638000  1.0
  O  O347  1  0.34262000  0.22165000  0.67617000  1.0
  O  O348  1  0.58875000  0.27940000  0.02225000  1.0
  O  O349  1  0.27967000  0.10957000  0.02226000  1.0
  O  O350  1  0.10953000  0.58813000  0.02236000  1.0
  O  O351  1  0.91150000  0.39043000  0.47774000  1.0
  O  O352  1  0.39039000  0.22059000  0.47776000  1.0
  O  O353  1  0.22002000  0.91187000  0.47763000  1.0
  O  O354  1  0.41126000  0.72059000  0.97775000  1.0
  O  O355  1  0.72033000  0.89044000  0.97774000  1.0
  O  O356  1  0.89047000  0.41187000  0.97764000  1.0
  O  O357  1  0.08851000  0.60957000  0.52225000  1.0
  O  O358  1  0.60962000  0.77940000  0.52224000  1.0
  O  O359  1  0.77998000  0.08813000  0.52237000  1.0
