# generated using pymatgen
data_CdH16C18(N7O)2
_symmetry_space_group_name_H-M   'P 1'
_cell_length_a   7.55236000
_cell_length_b   7.70028000
_cell_length_c   9.52116000
_cell_angle_alpha   98.26380000
_cell_angle_beta   97.30020000
_cell_angle_gamma   111.12600000
_symmetry_Int_Tables_number   1
_chemical_formula_structural   CdH16C18(N7O)2
_chemical_formula_sum   'Cd1 H16 C18 N14 O2'
_cell_volume   501.44083184
_cell_formula_units_Z   1
loop_
 _symmetry_equiv_pos_site_id
 _symmetry_equiv_pos_as_xyz
  1  'x, y, z'
loop_
 _atom_site_type_symbol
 _atom_site_label
 _atom_site_symmetry_multiplicity
 _atom_site_fract_x
 _atom_site_fract_y
 _atom_site_fract_z
 _atom_site_occupancy
  Cd  Cd0  1  0.50000000  0.50000000  0.50000000  1.0
  H  H1  1  0.25843000  0.11137000  0.53960000  1.0
  H  H2  1  0.74156000  0.88863000  0.46040000  1.0
  H  H3  1  0.18003000  0.25449000  0.62437000  1.0
  H  H4  1  0.81997000  0.74551000  0.37563000  1.0
  H  H5  1  0.38162000  0.03523000  0.26842000  1.0
  H  H6  1  0.61838000  0.96477000  0.73158000  1.0
  H  H7  1  0.45878000  0.56118000  0.15707000  1.0
  H  H8  1  0.54121000  0.43881000  0.84293000  1.0
  H  H9  1  0.09160000  0.06922000  0.81279000  1.0
  H  H10  1  0.90840000  0.93077000  0.18721000  1.0
  H  H11  1  0.91712000  0.76583000  0.63496000  1.0
  H  H12  1  0.08287000  0.23416000  0.36504000  1.0
  H  H13  1  0.15784000  0.47503000  0.90972000  1.0
  H  H14  1  0.84217000  0.52497000  0.09028000  1.0
  H  H15  1  0.33500000  0.77887000  0.08687000  1.0
  H  H16  1  0.66501000  0.22113000  0.91312000  1.0
  C  C17  1  0.38188000  0.14426000  0.20804000  1.0
  C  C18  1  0.61812000  0.85574000  0.79196000  1.0
  C  C19  1  0.41540000  0.40922000  0.14856000  1.0
  C  C20  1  0.58459000  0.59079000  0.85144000  1.0
  C  C21  1  0.21986000  0.94087000  0.96131000  1.0
  C  C22  1  0.78014000  0.05913000  0.03869000  1.0
  C  C23  1  0.10451000  0.93854000  0.83354000  1.0
  C  C24  1  0.89549000  0.06146000  0.16646000  1.0
  C  C25  1  0.00660000  0.76782000  0.73469000  1.0
  C  C26  1  0.99340000  0.23218000  0.26531000  1.0
  C  C27  1  0.02143000  0.59865000  0.76163000  1.0
  C  C28  1  0.97857000  0.40135000  0.23838000  1.0
  C  C29  1  0.14266000  0.60487000  0.88872000  1.0
  C  C30  1  0.85734000  0.39513000  0.11128000  1.0
  C  C31  1  0.24137000  0.77513000  0.98856000  1.0
  C  C32  1  0.75864000  0.22487000  0.01143000  1.0
  C  C33  1  0.90806000  0.41809000  0.66100000  1.0
  C  C34  1  0.09194000  0.58191000  0.33901000  1.0
  N  N35  1  0.44672000  0.32982000  0.26367000  1.0
  N  N36  1  0.55327000  0.67018000  0.73633000  1.0
  N  N37  1  0.33433000  0.28391000  0.02513000  1.0
  N  N38  1  0.66567000  0.71610000  0.97487000  1.0
  N  N39  1  0.31313000  0.11448000  0.06447000  1.0
  N  N40  1  0.68687000  0.88553000  0.93553000  1.0
  N  N41  1  0.74081000  0.38095000  0.56862000  1.0
  N  N42  1  0.25919000  0.61905000  0.43138000  1.0
  N  N43  1  0.67962000  0.19830000  0.50017000  1.0
  N  N44  1  0.32038000  0.80170000  0.49983000  1.0
  N  N45  1  0.80437000  0.12768000  0.54831000  1.0
  N  N46  1  0.19563000  0.87232000  0.45169000  1.0
  N  N47  1  0.95019000  0.26127000  0.64950000  1.0
  N  N48  1  0.04981000  0.73873000  0.35050000  1.0
  O  O49  1  0.29825000  0.24563000  0.59324000  1.0
  O  O50  1  0.70175000  0.75437000  0.40676000  1.0
