# generated using pymatgen
data_Zn4H24C40N2O13
_symmetry_space_group_name_H-M   'P 1'
_cell_length_a   18.18810000
_cell_length_b   18.24790000
_cell_length_c   22.19600000
_cell_angle_alpha   114.02340000
_cell_angle_beta   114.03820000
_cell_angle_gamma   90.03080000
_symmetry_Int_Tables_number   1
_chemical_formula_structural   Zn4H24C40N2O13
_chemical_formula_sum   'Zn8 H48 C80 N4 O26'
_cell_volume   6021.61226392
_cell_formula_units_Z   2
loop_
 _symmetry_equiv_pos_site_id
 _symmetry_equiv_pos_as_xyz
  1  'x, y, z'
loop_
 _atom_site_type_symbol
 _atom_site_label
 _atom_site_symmetry_multiplicity
 _atom_site_fract_x
 _atom_site_fract_y
 _atom_site_fract_z
 _atom_site_occupancy
  Zn  Zn0  1  0.21524000  0.30467000  0.43535000  1.0
  Zn  Zn1  1  0.78476000  0.69532000  0.56465000  1.0
  Zn  Zn2  1  0.36947000  0.28388000  0.56115000  1.0
  Zn  Zn3  1  0.63053000  0.71612000  0.43885000  1.0
  Zn  Zn4  1  0.21985000  0.13046000  0.43885000  1.0
  Zn  Zn5  1  0.78016000  0.86954000  0.56115000  1.0
  Zn  Zn6  1  0.19662000  0.28207000  0.56500000  1.0
  Zn  Zn7  1  0.80338000  0.71793000  0.43500000  1.0
  H  H8  1  0.86349000  0.43116000  0.46572000  1.0
  H  H9  1  0.42859000  0.99689000  0.37835000  1.0
  H  H10  1  0.46942000  0.63756000  0.53170000  1.0
  H  H11  1  0.53057000  0.36244000  0.46830000  1.0
  H  H12  1  0.49586000  0.55213000  0.61953000  1.0
  H  H13  1  0.50414000  0.44787000  0.38047000  1.0
  H  H14  1  0.00993000  0.45170000  0.59111000  1.0
  H  H15  1  0.99007000  0.54830000  0.40889000  1.0
  H  H16  1  0.04931000  0.61792000  0.62148000  1.0
  H  H17  1  0.95069000  0.38208000  0.37852000  1.0
  H  H18  1  0.91620000  0.95447000  0.04591000  1.0
  H  H19  1  0.13651000  0.56884000  0.53428000  1.0
  H  H20  1  0.08380000  0.04553000  0.95410000  1.0
  H  H21  1  0.86455000  0.03535000  0.95466000  1.0
  H  H22  1  0.13544000  0.96465000  0.04534000  1.0
  H  H23  1  0.98348000  0.85092000  0.95493000  1.0
  H  H24  1  0.01652000  0.14909000  0.04508000  1.0
  H  H25  1  0.04921000  0.00365000  0.62190000  1.0
  H  H26  1  0.95079000  0.99635000  0.37810000  1.0
  H  H27  1  0.01015000  0.13907000  0.59037000  1.0
  H  H28  1  0.98985000  0.86093000  0.40963000  1.0
  H  H29  1  0.86349000  0.03478000  0.46527000  1.0
  H  H30  1  0.64346000  0.48453000  0.05063000  1.0
  H  H31  1  0.13651000  0.96522000  0.53473000  1.0
  H  H32  1  0.68269000  0.65375000  0.07796000  1.0
  H  H33  1  0.76893000  0.73197000  0.05330000  1.0
  H  H34  1  0.73171000  0.70754000  0.92442000  1.0
  H  H35  1  0.60660000  0.60444000  0.82065000  1.0
  H  H36  1  0.52041000  0.52614000  0.84512000  1.0
  H  H37  1  0.31730000  0.34625000  0.92203000  1.0
  H  H38  1  0.23107000  0.26804000  0.94670000  1.0
  H  H39  1  0.26829000  0.29246000  0.07558000  1.0
  H  H40  1  0.39341000  0.39555000  0.17935000  1.0
  H  H41  1  0.35654000  0.51547000  0.94937000  1.0
  H  H42  1  0.47960000  0.47386000  0.15488000  1.0
  H  H43  1  0.48868000  0.69010000  0.02328000  1.0
  H  H44  1  0.47336000  0.68554000  0.09112000  1.0
  H  H45  1  0.51132000  0.30990000  0.97673000  1.0
  H  H46  1  0.52664000  0.31446000  0.90888000  1.0
  H  H47  1  0.65807000  0.48701000  0.63956000  1.0
  H  H48  1  0.69375000  0.56137000  0.62632000  1.0
  H  H49  1  0.34193000  0.51299000  0.36044000  1.0
  H  H50  1  0.30625000  0.43863000  0.37368000  1.0
  H  H51  1  0.60260000  0.03284000  0.46498000  1.0
  H  H52  1  0.39739000  0.96716000  0.53501000  1.0
  H  H53  1  0.58201000  0.13830000  0.59046000  1.0
  H  H54  1  0.41799000  0.86170000  0.40954000  1.0
  H  H55  1  0.57141000  0.00311000  0.62165000  1.0
  C  C56  1  0.35499000  0.34932000  0.70010000  1.0
  C  C57  1  0.89087000  0.89312000  0.77910000  1.0
  C  C58  1  0.00890000  0.08263000  0.02452000  1.0
  C  C59  1  0.99110000  0.91737000  0.97548000  1.0
  C  C60  1  0.03787000  0.03791000  0.07581000  1.0
  C  C61  1  0.96212000  0.96209000  0.92419000  1.0
  C  C62  1  0.07638000  0.07513000  0.15372000  1.0
  C  C63  1  0.92362000  0.92487000  0.84628000  1.0
  C  C64  1  0.00518000  0.07702000  0.55037000  1.0
  C  C65  1  0.99482000  0.92298000  0.44963000  1.0
  C  C66  1  0.02811000  0.00285000  0.56786000  1.0
  C  C67  1  0.64501000  0.65068000  0.29990000  1.0
  C  C68  1  0.97189000  0.99715000  0.43214000  1.0
  C  C69  1  0.94754000  0.94489000  0.49765000  1.0
  C  C70  1  0.05246000  0.05511000  0.50235000  1.0
  C  C71  1  0.14772000  0.14676000  0.30023000  1.0
  C  C72  1  0.85228000  0.85324000  0.69977000  1.0
  C  C73  1  0.92483000  0.02016000  0.48073000  1.0
  C  C74  1  0.07517000  0.97984000  0.51927000  1.0
  C  C75  1  0.49774000  0.58099000  0.02744000  1.0
  C  C76  1  0.50226000  0.41901000  0.97256000  1.0
  C  C77  1  0.54502000  0.53875000  0.98015000  1.0
  C  C78  1  0.02811000  0.56484000  0.56764000  1.0
  C  C79  1  0.45498000  0.46125000  0.01985000  1.0
  C  C80  1  0.39547000  0.39004000  0.77929000  1.0
  C  C81  1  0.60452000  0.60996000  0.22071000  1.0
  C  C82  1  0.42065000  0.50890000  0.97230000  1.0
  C  C83  1  0.57935000  0.49110000  0.02770000  1.0
  C  C84  1  0.46641000  0.46699000  0.92418000  1.0
  C  C85  1  0.53359000  0.53301000  0.07582000  1.0
  C  C86  1  0.42947000  0.42735000  0.84638000  1.0
  C  C87  1  0.57054000  0.57266000  0.15363000  1.0
  C  C88  1  0.54610000  0.07664000  0.55039000  1.0
  C  C89  1  0.97189000  0.43516000  0.43236000  1.0
  C  C90  1  0.45390000  0.92336000  0.44961000  1.0
  C  C91  1  0.55641000  0.01899000  0.48055000  1.0
  C  C92  1  0.44359000  0.98101000  0.51945000  1.0
  C  C93  1  0.54905000  0.94381000  0.49719000  1.0
  C  C94  1  0.45095000  0.05619000  0.50281000  1.0
  C  C95  1  0.38337000  0.39177000  0.49476000  1.0
  C  C96  1  0.61663000  0.60823000  0.50524000  1.0
  C  C97  1  0.53901000  0.00258000  0.56770000  1.0
  C  C98  1  0.46099000  0.99742000  0.43230000  1.0
  C  C99  1  0.49851000  0.52983000  0.56674000  1.0
  C  C100  1  0.92513000  0.02014000  0.97559000  1.0
  C  C101  1  0.50149000  0.47017000  0.43326000  1.0
  C  C102  1  0.48244000  0.57582000  0.51813000  1.0
  C  C103  1  0.51756000  0.42418000  0.48187000  1.0
  C  C104  1  0.55888000  0.54993000  0.50391000  1.0
  C  C105  1  0.44112000  0.45007000  0.49609000  1.0
  C  C106  1  0.57577000  0.50359000  0.55259000  1.0
  C  C107  1  0.42423000  0.49641000  0.44741000  1.0
  C  C108  1  0.11065000  0.11208000  0.50245000  1.0
  C  C109  1  0.88935000  0.88792000  0.49755000  1.0
  C  C110  1  0.39344000  0.11380000  0.50203000  1.0
  C  C111  1  0.07487000  0.97987000  0.02441000  1.0
  C  C112  1  0.60656000  0.88620000  0.49797000  1.0
  C  C113  1  0.11111000  0.39080000  0.50332000  1.0
  C  C114  1  0.88889000  0.60920000  0.49668000  1.0
  C  C115  1  0.00517000  0.47354000  0.55079000  1.0
  C  C116  1  0.99483000  0.52646000  0.44921000  1.0
  C  C117  1  0.92485000  0.46091000  0.48096000  1.0
  C  C118  1  0.07515000  0.53909000  0.51904000  1.0
  C  C119  1  0.94754000  0.55279000  0.49725000  1.0
  C  C120  1  0.05246000  0.44722000  0.50275000  1.0
  C  C121  1  0.59537000  0.58399000  0.96317000  1.0
  C  C122  1  0.95299000  0.97417000  0.02464000  1.0
  C  C123  1  0.66597000  0.64266000  0.02142000  1.0
  C  C124  1  0.71438000  0.68691000  0.00755000  1.0
  C  C125  1  0.69346000  0.67339000  0.93532000  1.0
  C  C126  1  0.62345000  0.61564000  0.87725000  1.0
  C  C127  1  0.57460000  0.57143000  0.89096000  1.0
  C  C128  1  0.40463000  0.41601000  0.03683000  1.0
  C  C129  1  0.33403000  0.35734000  0.97858000  1.0
  C  C130  1  0.28562000  0.31309000  0.99245000  1.0
  C  C131  1  0.30654000  0.32661000  0.06468000  1.0
  C  C132  1  0.37655000  0.38436000  0.12276000  1.0
  C  C133  1  0.04701000  0.02583000  0.97536000  1.0
  C  C134  1  0.42541000  0.42857000  0.10904000  1.0
  C  C135  1  0.10913000  0.10688000  0.22090000  1.0
  N  N136  1  0.50479000  0.66656000  0.06035000  1.0
  N  N137  1  0.49521000  0.33344000  0.93965000  1.0
  N  N138  1  0.65627000  0.50568000  0.60163000  1.0
  N  N139  1  0.34373000  0.49432000  0.39837000  1.0
  O  O140  1  0.25010000  0.24984000  0.49955000  1.0
  O  O141  1  0.83097000  0.89933000  0.66758000  1.0
  O  O142  1  0.27665000  0.33035000  0.66985000  1.0
  O  O143  1  0.72335000  0.66965000  0.33015000  1.0
  O  O144  1  0.15672000  0.22466000  0.33048000  1.0
  O  O145  1  0.84327000  0.77534000  0.66953000  1.0
  O  O146  1  0.41389000  0.36907000  0.54580000  1.0
  O  O147  1  0.58611000  0.63093000  0.45420000  1.0
  O  O148  1  0.14124000  0.07981000  0.45727000  1.0
  O  O149  1  0.85876000  0.92019000  0.54273000  1.0
  O  O150  1  0.42432000  0.19024000  0.54200000  1.0
  O  O151  1  0.74990000  0.75016000  0.50045000  1.0
  O  O152  1  0.57568000  0.80976000  0.45800000  1.0
  O  O153  1  0.12806000  0.36196000  0.55003000  1.0
  O  O154  1  0.87194000  0.63804000  0.44997000  1.0
  O  O155  1  0.31736000  0.08093000  0.46047000  1.0
  O  O156  1  0.68264000  0.91907000  0.53953000  1.0
  O  O157  1  0.13987000  0.37647000  0.45664000  1.0
  O  O158  1  0.86013000  0.62353000  0.54336000  1.0
  O  O159  1  0.30957000  0.36763000  0.44324000  1.0
  O  O160  1  0.69043000  0.63237000  0.55676000  1.0
  O  O161  1  0.12513000  0.18765000  0.54726000  1.0
  O  O162  1  0.87487000  0.81235000  0.45274000  1.0
  O  O163  1  0.40124000  0.33642000  0.66777000  1.0
  O  O164  1  0.59876000  0.66359000  0.33223000  1.0
  O  O165  1  0.16903000  0.10067000  0.33242000  1.0
