# generated using pymatgen
data_Cd5H10C20(N4O9)2
_symmetry_space_group_name_H-M   'P 1'
_cell_length_a   10.64640000
_cell_length_b   10.92590000
_cell_length_c   15.83690000
_cell_angle_alpha   90.00000000
_cell_angle_beta   90.00000000
_cell_angle_gamma   97.93970000
_symmetry_Int_Tables_number   1
_chemical_formula_structural   Cd5H10C20(N4O9)2
_chemical_formula_sum   'Cd10 H20 C40 N16 O36'
_cell_volume   1824.51291345
_cell_formula_units_Z   2
loop_
 _symmetry_equiv_pos_site_id
 _symmetry_equiv_pos_as_xyz
  1  'x, y, z'
loop_
 _atom_site_type_symbol
 _atom_site_label
 _atom_site_symmetry_multiplicity
 _atom_site_fract_x
 _atom_site_fract_y
 _atom_site_fract_z
 _atom_site_occupancy
  Cd  Cd0  1  0.83466000  0.42897000  0.45464000  1.0
  Cd  Cd1  1  0.66534000  0.07103000  0.95464000  1.0
  Cd  Cd2  1  0.16534000  0.57103000  0.54536000  1.0
  Cd  Cd3  1  0.33466000  0.92897000  0.04536000  1.0
  Cd  Cd4  1  0.00000000  0.00000000  0.50000000  1.0
  Cd  Cd5  1  0.50000000  0.50000000  0.00000000  1.0
  Cd  Cd6  1  0.57408000  0.15654000  0.54395000  1.0
  Cd  Cd7  1  0.92592000  0.34346000  0.04395000  1.0
  Cd  Cd8  1  0.42592000  0.84346000  0.45605000  1.0
  Cd  Cd9  1  0.07408000  0.65654000  0.95605000  1.0
  H  H10  1  0.53926000  0.54996000  0.41263000  1.0
  H  H11  1  0.96074000  0.95004000  0.91263000  1.0
  H  H12  1  0.46074000  0.45004000  0.58737000  1.0
  H  H13  1  0.03926000  0.04996000  0.08737000  1.0
  H  H14  1  0.94753000  0.50386000  0.23767000  1.0
  H  H15  1  0.55247000  0.99614000  0.73767000  1.0
  H  H16  1  0.05247000  0.49614000  0.76233000  1.0
  H  H17  1  0.44753000  0.00386000  0.26233000  1.0
  H  H18  1  0.67731000  0.03899000  0.26012000  1.0
  H  H19  1  0.82269000  0.46101000  0.76012000  1.0
  H  H20  1  0.32269000  0.96101000  0.73988000  1.0
  H  H21  1  0.17731000  0.53899000  0.23988000  1.0
  H  H22  1  0.96957000  0.08270000  0.67021000  1.0
  H  H23  1  0.53043000  0.41730000  0.17021000  1.0
  H  H24  1  0.03043000  0.91730000  0.32979000  1.0
  H  H25  1  0.46957000  0.58270000  0.82979000  1.0
  H  H26  1  0.11444000  0.12873000  0.65934000  1.0
  H  H27  1  0.38556000  0.37127000  0.15934000  1.0
  H  H28  1  0.88556000  0.87127000  0.34066000  1.0
  H  H29  1  0.61444000  0.62873000  0.84066000  1.0
  C  C30  1  0.61250000  0.61847000  0.43892000  1.0
  C  C31  1  0.88750000  0.88152000  0.93892000  1.0
  C  C32  1  0.38750000  0.38153000  0.56108000  1.0
  C  C33  1  0.11250000  0.11848000  0.06108000  1.0
  C  C34  1  0.79500000  0.70738000  0.48539000  1.0
  C  C35  1  0.70500000  0.79262000  0.98539000  1.0
  C  C36  1  0.20500000  0.29262000  0.51461000  1.0
  C  C37  1  0.29500000  0.20738000  0.01461000  1.0
  C  C38  1  0.70511000  0.79011000  0.49408000  1.0
  C  C39  1  0.79488000  0.70989000  0.99408000  1.0
  C  C40  1  0.29488000  0.20989000  0.50591000  1.0
  C  C41  1  0.20511000  0.29011000  0.00592000  1.0
  C  C42  1  0.93142000  0.71247000  0.50662000  1.0
  C  C43  1  0.56858000  0.78753000  0.00662000  1.0
  C  C44  1  0.06858000  0.28753000  0.49338000  1.0
  C  C45  1  0.43142000  0.21247000  0.99338000  1.0
  C  C46  1  0.70457000  0.91586000  0.53006000  1.0
  C  C47  1  0.79543000  0.58414000  0.03006000  1.0
  C  C48  1  0.29543000  0.08414000  0.46994000  1.0
  C  C49  1  0.20457000  0.41586000  0.96994000  1.0
  C  C50  1  0.89327000  0.41286000  0.24465000  1.0
  C  C51  1  0.60673000  0.08714000  0.74465000  1.0
  C  C52  1  0.10673000  0.58714000  0.75535000  1.0
  C  C53  1  0.39327000  0.91286000  0.25535000  1.0
  C  C54  1  0.78208000  0.25138000  0.29951000  1.0
  C  C55  1  0.71792000  0.24862000  0.79951000  1.0
  C  C56  1  0.21792000  0.74862000  0.70049000  1.0
  C  C57  1  0.28208000  0.75138000  0.20049000  1.0
  C  C58  1  0.80087000  0.22898000  0.21366000  1.0
  C  C59  1  0.69913000  0.27102000  0.71366000  1.0
  C  C60  1  0.19913000  0.77102000  0.78634000  1.0
  C  C61  1  0.30087000  0.72898000  0.28634000  1.0
  C  C62  1  0.71050000  0.17452000  0.36437000  1.0
  C  C63  1  0.78950000  0.32548000  0.86438000  1.0
  C  C64  1  0.28950000  0.82548000  0.63563000  1.0
  C  C65  1  0.21050000  0.67452000  0.13563000  1.0
  C  C66  1  0.75584000  0.12333000  0.15940000  1.0
  C  C67  1  0.74416000  0.37666000  0.65940000  1.0
  C  C68  1  0.24416000  0.87667000  0.84061000  1.0
  C  C69  1  0.25584000  0.62333000  0.34060000  1.0
  N  N70  1  0.73317000  0.59955000  0.45091000  1.0
  N  N71  1  0.76683000  0.90045000  0.95091000  1.0
  N  N72  1  0.26683000  0.40045000  0.54909000  1.0
  N  N73  1  0.23317000  0.09955000  0.04909000  1.0
  N  N74  1  0.59131000  0.73122000  0.46367000  1.0
  N  N75  1  0.90869000  0.76877000  0.96367000  1.0
  N  N76  1  0.40869000  0.26878000  0.53633000  1.0
  N  N77  1  0.09131000  0.23122000  0.03633000  1.0
  N  N78  1  0.84096000  0.36784000  0.31771000  1.0
  N  N79  1  0.65904000  0.13216000  0.81771000  1.0
  N  N80  1  0.15904000  0.63216000  0.68229000  1.0
  N  N81  1  0.34096000  0.86784000  0.18229000  1.0
  N  N82  1  0.87124000  0.33262000  0.18050000  1.0
  N  N83  1  0.62876000  0.16738000  0.68050000  1.0
  N  N84  1  0.12876000  0.66738000  0.81950000  1.0
  N  N85  1  0.37124000  0.83262000  0.31950000  1.0
  O  O86  1  0.99458000  0.80442000  0.54229000  1.0
  O  O87  1  0.50542000  0.69558000  0.04229000  1.0
  O  O88  1  0.00542000  0.19558000  0.45771000  1.0
  O  O89  1  0.49458000  0.30442000  0.95771000  1.0
  O  O90  1  0.98122000  0.61538000  0.48652000  1.0
  O  O91  1  0.51878000  0.88462000  0.98652000  1.0
  O  O92  1  0.01878000  0.38462000  0.51348000  1.0
  O  O93  1  0.48122000  0.11538000  0.01348000  1.0
  O  O94  1  0.80406000  0.98772000  0.54985000  1.0
  O  O95  1  0.69594000  0.51228000  0.04985000  1.0
  O  O96  1  0.19594000  0.01228000  0.45015000  1.0
  O  O97  1  0.30406000  0.48772000  0.95015000  1.0
  O  O98  1  0.59405000  0.94780000  0.54068000  1.0
  O  O99  1  0.90595000  0.55221000  0.04068000  1.0
  O  O100  1  0.40595000  0.05221000  0.45932000  1.0
  O  O101  1  0.09405000  0.44780000  0.95932000  1.0
  O  O102  1  0.70174000  0.22640000  0.43634000  1.0
  O  O103  1  0.79826000  0.27360000  0.93634000  1.0
  O  O104  1  0.29826000  0.77360000  0.56366000  1.0
  O  O105  1  0.20174000  0.72640000  0.06366000  1.0
  O  O106  1  0.66056000  0.06497000  0.34644000  1.0
  O  O107  1  0.83944000  0.43503000  0.84644000  1.0
  O  O108  1  0.33944000  0.93503000  0.65356000  1.0
  O  O109  1  0.16056000  0.56497000  0.15356000  1.0
  O  O110  1  0.68867000  0.02576000  0.19310000  1.0
  O  O111  1  0.81133000  0.47424000  0.69310000  1.0
  O  O112  1  0.31133000  0.97424000  0.80690000  1.0
  O  O113  1  0.18866000  0.52576000  0.30690000  1.0
  O  O114  1  0.78194000  0.12870000  0.08202000  1.0
  O  O115  1  0.71806000  0.37130000  0.58202000  1.0
  O  O116  1  0.21806000  0.87130000  0.91798000  1.0
  O  O117  1  0.28194000  0.62870000  0.41798000  1.0
  O  O118  1  0.04836000  0.05987000  0.64783000  1.0
  O  O119  1  0.45164000  0.44013000  0.14783000  1.0
  O  O120  1  0.95164000  0.94013000  0.35217000  1.0
  O  O121  1  0.54836000  0.55987000  0.85217000  1.0
