# generated using pymatgen
data_CuH3C3S3BrN3
_symmetry_space_group_name_H-M   'P 1'
_cell_length_a   11.77490000
_cell_length_b   11.77490000
_cell_length_c   11.77490000
_cell_angle_alpha   90.00000000
_cell_angle_beta   90.00000000
_cell_angle_gamma   90.00000000
_symmetry_Int_Tables_number   1
_chemical_formula_structural   CuH3C3S3BrN3
_chemical_formula_sum   'Cu8 H24 C24 S24 Br8 N24'
_cell_volume   1632.56951454
_cell_formula_units_Z   8
loop_
 _symmetry_equiv_pos_site_id
 _symmetry_equiv_pos_as_xyz
  1  'x, y, z'
loop_
 _atom_site_type_symbol
 _atom_site_label
 _atom_site_symmetry_multiplicity
 _atom_site_fract_x
 _atom_site_fract_y
 _atom_site_fract_z
 _atom_site_occupancy
  Cu  Cu0  1  0.88950000  0.61050000  0.38950000  1.0
  Cu  Cu1  1  0.38950000  0.88950000  0.61050000  1.0
  Cu  Cu2  1  0.61050000  0.38950000  0.88950000  1.0
  Cu  Cu3  1  0.11050000  0.11050000  0.11050000  1.0
  Cu  Cu4  1  0.11050000  0.38950000  0.61050000  1.0
  Cu  Cu5  1  0.61050000  0.11050000  0.38950000  1.0
  Cu  Cu6  1  0.38950000  0.61050000  0.11050000  1.0
  Cu  Cu7  1  0.88950000  0.88950000  0.88950000  1.0
  H  H8  1  0.16583000  0.83543000  0.58206000  1.0
  H  H9  1  0.58206000  0.16583000  0.83543000  1.0
  H  H10  1  0.83542000  0.58206000  0.16583000  1.0
  H  H11  1  0.33417000  0.16457000  0.08206000  1.0
  H  H12  1  0.83417000  0.33542000  0.91794000  1.0
  H  H13  1  0.66583000  0.66457000  0.41794000  1.0
  H  H14  1  0.08206000  0.33418000  0.16457000  1.0
  H  H15  1  0.91794000  0.83417000  0.33542000  1.0
  H  H16  1  0.41794000  0.66583000  0.66458000  1.0
  H  H17  1  0.16457000  0.08206000  0.33417000  1.0
  H  H18  1  0.33543000  0.91794000  0.83417000  1.0
  H  H19  1  0.66457000  0.41794000  0.66583000  1.0
  H  H20  1  0.83417000  0.16457000  0.41794000  1.0
  H  H21  1  0.41794000  0.83417000  0.16458000  1.0
  H  H22  1  0.16457000  0.41794000  0.83417000  1.0
  H  H23  1  0.66583000  0.83543000  0.91794000  1.0
  H  H24  1  0.16583000  0.66457000  0.08206000  1.0
  H  H25  1  0.33417000  0.33542000  0.58206000  1.0
  H  H26  1  0.91794000  0.66583000  0.83542000  1.0
  H  H27  1  0.08206000  0.16583000  0.66458000  1.0
  H  H28  1  0.58206000  0.33417000  0.33543000  1.0
  H  H29  1  0.83542000  0.91794000  0.66583000  1.0
  H  H30  1  0.66457000  0.08206000  0.16583000  1.0
  H  H31  1  0.33543000  0.58206000  0.33417000  1.0
  C  C32  1  0.03315000  0.82127000  0.46731000  1.0
  C  C33  1  0.46731000  0.03315000  0.82128000  1.0
  C  C34  1  0.82126000  0.46731000  0.03315000  1.0
  C  C35  1  0.46684000  0.17873000  0.96731000  1.0
  C  C36  1  0.96685000  0.32126000  0.03269000  1.0
  C  C37  1  0.53315000  0.67873000  0.53269000  1.0
  C  C38  1  0.96731000  0.46685000  0.17873000  1.0
  C  C39  1  0.03269000  0.96685000  0.32126000  1.0
  C  C40  1  0.53269000  0.53316000  0.67874000  1.0
  C  C41  1  0.17873000  0.96731000  0.46684000  1.0
  C  C42  1  0.32127000  0.03269000  0.96684000  1.0
  C  C43  1  0.67873000  0.53269000  0.53316000  1.0
  C  C44  1  0.96684000  0.17873000  0.53269000  1.0
  C  C45  1  0.53269000  0.96685000  0.17874000  1.0
  C  C46  1  0.17873000  0.53269000  0.96684000  1.0
  C  C47  1  0.53316000  0.82127000  0.03269000  1.0
  C  C48  1  0.03315000  0.67873000  0.96731000  1.0
  C  C49  1  0.46684000  0.32127000  0.46731000  1.0
  C  C50  1  0.03269000  0.53316000  0.82127000  1.0
  C  C51  1  0.96730000  0.03315000  0.67872000  1.0
  C  C52  1  0.46732000  0.46684000  0.32126000  1.0
  C  C53  1  0.82126000  0.03268000  0.53316000  1.0
  C  C54  1  0.67873000  0.96731000  0.03316000  1.0
  C  C55  1  0.32127000  0.46731000  0.46684000  1.0
  S  S56  1  0.97508000  0.70940000  0.53084000  1.0
  S  S57  1  0.53085000  0.97508000  0.70940000  1.0
  S  S58  1  0.70940000  0.53084000  0.97508000  1.0
  S  S59  1  0.52492000  0.29060000  0.03084000  1.0
  S  S60  1  0.02492000  0.20940000  0.96915000  1.0
  S  S61  1  0.47508000  0.79060000  0.46916000  1.0
  S  S62  1  0.03084000  0.52492000  0.29059000  1.0
  S  S63  1  0.96915000  0.02492000  0.20940000  1.0
  S  S64  1  0.46916000  0.47508000  0.79060000  1.0
  S  S65  1  0.29060000  0.03084000  0.52492000  1.0
  S  S66  1  0.20940000  0.96915000  0.02492000  1.0
  S  S67  1  0.79060000  0.46916000  0.47508000  1.0
  S  S68  1  0.02492000  0.29060000  0.46916000  1.0
  S  S69  1  0.46916000  0.02492000  0.29060000  1.0
  S  S70  1  0.29060000  0.46916000  0.02492000  1.0
  S  S71  1  0.47508000  0.70940000  0.96916000  1.0
  S  S72  1  0.97508000  0.79060000  0.03084000  1.0
  S  S73  1  0.52492000  0.20940000  0.53084000  1.0
  S  S74  1  0.96916000  0.47508000  0.70940000  1.0
  S  S75  1  0.03085000  0.97507000  0.79060000  1.0
  S  S76  1  0.53084000  0.52492000  0.20940000  1.0
  S  S77  1  0.70940000  0.96915000  0.47508000  1.0
  S  S78  1  0.79060000  0.03084000  0.97508000  1.0
  S  S79  1  0.20940000  0.53084000  0.52492000  1.0
  Br  Br80  1  0.76557000  0.73443000  0.26557000  1.0
  Br  Br81  1  0.26557000  0.76557000  0.73443000  1.0
  Br  Br82  1  0.73443000  0.26557000  0.76557000  1.0
  Br  Br83  1  0.23443000  0.23443000  0.23443000  1.0
  Br  Br84  1  0.23443000  0.26557000  0.73443000  1.0
  Br  Br85  1  0.73443000  0.23443000  0.26557000  1.0
  Br  Br86  1  0.26557000  0.73443000  0.23443000  1.0
  Br  Br87  1  0.76557000  0.76557000  0.76557000  1.0
  N  N88  1  0.98925000  0.87147000  0.37204000  1.0
  N  N89  1  0.37204000  0.98925000  0.87148000  1.0
  N  N90  1  0.87148000  0.37204000  0.98925000  1.0
  N  N91  1  0.51074000  0.12851000  0.87204000  1.0
  N  N92  1  0.01075000  0.37148000  0.12796000  1.0
  N  N93  1  0.48925000  0.62852000  0.62796000  1.0
  N  N94  1  0.87204000  0.51074000  0.12852000  1.0
  N  N95  1  0.12797000  0.01075000  0.37148000  1.0
  N  N96  1  0.62797000  0.48925000  0.62852000  1.0
  N  N97  1  0.12852000  0.87204000  0.51074000  1.0
  N  N98  1  0.37148000  0.12797000  0.01075000  1.0
  N  N99  1  0.62852000  0.62796000  0.48926000  1.0
  N  N100  1  0.01074000  0.12852000  0.62796000  1.0
  N  N101  1  0.62797000  0.01074000  0.12852000  1.0
  N  N102  1  0.12852000  0.62796000  0.01074000  1.0
  N  N103  1  0.48925000  0.87148000  0.12796000  1.0
  N  N104  1  0.98925000  0.62852000  0.87204000  1.0
  N  N105  1  0.51075000  0.37148000  0.37203000  1.0
  N  N106  1  0.12796000  0.48925000  0.87148000  1.0
  N  N107  1  0.87204000  0.98925000  0.62853000  1.0
  N  N108  1  0.37204000  0.51074000  0.37149000  1.0
  N  N109  1  0.87148000  0.12797000  0.48925000  1.0
  N  N110  1  0.62852000  0.87204000  0.98926000  1.0
  N  N111  1  0.37148000  0.37203000  0.51075000  1.0
