# generated using pymatgen
data_Yb2H11C11NO16
_symmetry_space_group_name_H-M   'P 1'
_cell_length_a   7.33390000
_cell_length_b   10.63180000
_cell_length_c   12.85000000
_cell_angle_alpha   95.68920000
_cell_angle_beta   103.23900000
_cell_angle_gamma   106.63700000
_symmetry_Int_Tables_number   1
_chemical_formula_structural   Yb2H11C11NO16
_chemical_formula_sum   'Yb4 H22 C22 N2 O32'
_cell_volume   919.80405171
_cell_formula_units_Z   2
loop_
 _symmetry_equiv_pos_site_id
 _symmetry_equiv_pos_as_xyz
  1  'x, y, z'
loop_
 _atom_site_type_symbol
 _atom_site_label
 _atom_site_symmetry_multiplicity
 _atom_site_fract_x
 _atom_site_fract_y
 _atom_site_fract_z
 _atom_site_occupancy
  Yb  Yb0  1  0.33143000  0.03887000  0.19091000  1.0
  Yb  Yb1  1  0.66857000  0.96112000  0.80908000  1.0
  Yb  Yb2  1  0.78294000  0.68099000  0.39975000  1.0
  Yb  Yb3  1  0.21706000  0.31901000  0.60025000  1.0
  H  H4  1  0.89143000  0.66385000  0.98933000  1.0
  H  H5  1  0.10855000  0.33615000  0.01067000  1.0
  H  H6  1  0.71219000  0.41602000  0.92080000  1.0
  H  H7  1  0.28777000  0.58398000  0.07919000  1.0
  H  H8  1  0.56064000  0.28004000  0.04606000  1.0
  H  H9  1  0.43934000  0.71996000  0.95394000  1.0
  H  H10  1  0.97035000  0.09632000  0.07816000  1.0
  H  H11  1  0.02964000  0.90368000  0.92184000  1.0
  H  H12  1  0.06365000  0.17711000  0.19654000  1.0
  H  H13  1  0.93636000  0.82289000  0.80346000  1.0
  H  H14  1  0.10192000  0.98559000  0.33785000  1.0
  H  H15  1  0.89807000  0.01441000  0.66214000  1.0
  H  H16  1  0.27890000  0.11629000  0.40784000  1.0
  H  H17  1  0.72110000  0.88369000  0.59216000  1.0
  H  H18  1  0.09975000  0.92757000  0.53182000  1.0
  H  H19  1  0.90026000  0.07244000  0.46818000  1.0
  H  H20  1  0.15121000  0.80881000  0.57548000  1.0
  H  H21  1  0.84881000  0.19120000  0.42452000  1.0
  H  H22  1  0.40919000  0.65734000  0.44401000  1.0
  H  H23  1  0.59084000  0.34268000  0.55600000  1.0
  H  H24  1  0.51448000  0.62764000  0.55513000  1.0
  H  H25  1  0.48554000  0.37237000  0.44487000  1.0
  C  C26  1  0.83631000  0.65212000  0.14627000  1.0
  C  C27  1  0.16368000  0.34787000  0.85373000  1.0
  C  C28  1  0.82473000  0.59868000  0.04020000  1.0
  C  C29  1  0.17526000  0.40131000  0.95980000  1.0
  C  C30  1  0.72555000  0.46260000  0.00294000  1.0
  C  C31  1  0.27442000  0.53739000  0.99706000  1.0
  C  C32  1  0.64043000  0.38599000  0.07216000  1.0
  C  C33  1  0.35955000  0.61401000  0.92784000  1.0
  C  C34  1  0.65713000  0.44823000  0.17656000  1.0
  C  C35  1  0.34286000  0.55177000  0.82345000  1.0
  C  C36  1  0.94595000  0.79473000  0.19873000  1.0
  C  C37  1  0.05405000  0.20527000  0.80128000  1.0
  C  C38  1  0.57101000  0.37859000  0.25904000  1.0
  C  C39  1  0.42898000  0.62141000  0.74097000  1.0
  C  C40  1  0.60666000  0.92545000  0.35321000  1.0
  C  C41  1  0.39336000  0.07456000  0.64678000  1.0
  C  C42  1  0.48087000  0.80425000  0.26341000  1.0
  C  C43  1  0.51915000  0.19575000  0.73660000  1.0
  C  C44  1  0.39457000  0.97725000  0.96136000  1.0
  C  C45  1  0.60542000  0.02275000  0.03862000  1.0
  C  C46  1  0.94216000  0.49438000  0.54379000  1.0
  C  C47  1  0.05785000  0.50563000  0.45622000  1.0
  N  N48  1  0.75414000  0.57818000  0.21211000  1.0
  N  N49  1  0.24585000  0.42181000  0.78790000  1.0
  O  O50  1  0.02718000  0.87485000  0.14438000  1.0
  O  O51  1  0.97283000  0.12514000  0.85562000  1.0
  O  O52  1  0.95199000  0.82491000  0.29900000  1.0
  O  O53  1  0.04801000  0.17509000  0.70100000  1.0
  O  O54  1  0.58904000  0.45213000  0.34801000  1.0
  O  O55  1  0.41095000  0.54786000  0.65199000  1.0
  O  O56  1  0.48957000  0.25410000  0.23748000  1.0
  O  O57  1  0.51042000  0.74589000  0.76252000  1.0
  O  O58  1  0.56917000  0.03354000  0.34473000  1.0
  O  O59  1  0.43085000  0.96647000  0.65526000  1.0
  O  O60  1  0.74125000  0.90819000  0.42709000  1.0
  O  O61  1  0.25876000  0.09182000  0.57291000  1.0
  O  O62  1  0.50230000  0.69259000  0.27636000  1.0
  O  O63  1  0.49771000  0.30741000  0.72365000  1.0
  O  O64  1  0.36740000  0.82787000  0.18302000  1.0
  O  O65  1  0.63261000  0.17213000  0.81697000  1.0
  O  O66  1  0.37332000  0.93476000  0.86330000  1.0
  O  O67  1  0.62667000  0.06524000  0.13670000  1.0
  O  O68  1  0.25830000  0.98668000  0.00517000  1.0
  O  O69  1  0.74169000  0.01332000  0.99482000  1.0
  O  O70  1  0.84223000  0.57274000  0.54903000  1.0
  O  O71  1  0.15778000  0.42727000  0.45097000  1.0
  O  O72  1  0.95592000  0.40617000  0.60209000  1.0
  O  O73  1  0.04408000  0.59383000  0.39792000  1.0
  O  O74  1  0.09893000  0.15154000  0.13061000  1.0
  O  O75  1  0.90106000  0.84845000  0.86939000  1.0
  O  O76  1  0.20220000  0.07054000  0.33418000  1.0
  O  O77  1  0.79780000  0.92945000  0.66582000  1.0
  O  O78  1  0.04121000  0.83076000  0.53142000  1.0
  O  O79  1  0.95881000  0.16925000  0.46858000  1.0
  O  O80  1  0.53934000  0.67732000  0.49507000  1.0
  O  O81  1  0.46069000  0.32270000  0.50494000  1.0
