# generated using pymatgen
data_ZnH11C12(NO2)2
_symmetry_space_group_name_H-M   'P 1'
_cell_length_a   10.75340000
_cell_length_b   10.75330000
_cell_length_c   12.48200000
_cell_angle_alpha   88.14240000
_cell_angle_beta   88.14240000
_cell_angle_gamma   72.64880000
_symmetry_Int_Tables_number   1
_chemical_formula_structural   ZnH11C12(NO2)2
_chemical_formula_sum   'Zn4 H44 C48 N8 O16'
_cell_volume   1376.55464757
_cell_formula_units_Z   4
loop_
 _symmetry_equiv_pos_site_id
 _symmetry_equiv_pos_as_xyz
  1  'x, y, z'
loop_
 _atom_site_type_symbol
 _atom_site_label
 _atom_site_symmetry_multiplicity
 _atom_site_fract_x
 _atom_site_fract_y
 _atom_site_fract_z
 _atom_site_occupancy
  Zn  Zn0  1  0.09276000  0.57708000  0.00884000  1.0
  Zn  Zn1  1  0.42292000  0.90724000  0.49116000  1.0
  Zn  Zn2  1  0.90724000  0.42292000  0.99116000  1.0
  Zn  Zn3  1  0.57708000  0.09276000  0.50884000  1.0
  H  H4  1  0.87315000  0.84261000  0.73308000  1.0
  H  H5  1  0.15739000  0.12685000  0.76692000  1.0
  H  H6  1  0.12685000  0.15739000  0.26692000  1.0
  H  H7  1  0.84261000  0.87315000  0.23308000  1.0
  H  H8  1  0.68220000  0.67915000  0.75996000  1.0
  H  H9  1  0.32085000  0.31781000  0.74004000  1.0
  H  H10  1  0.31781000  0.32085000  0.24004000  1.0
  H  H11  1  0.67915000  0.68219000  0.25996000  1.0
  H  H12  1  0.38701000  0.45768000  0.06063000  1.0
  H  H13  1  0.54232000  0.61299000  0.43937000  1.0
  H  H14  1  0.61299000  0.54232000  0.93938000  1.0
  H  H15  1  0.45768000  0.38701000  0.56062000  1.0
  H  H16  1  0.53393000  0.60289000  0.14711000  1.0
  H  H17  1  0.39710000  0.46607000  0.35289000  1.0
  H  H18  1  0.46607000  0.39711000  0.85289000  1.0
  H  H19  1  0.60289000  0.53393000  0.64711000  1.0
  H  H20  1  0.04040000  0.85749000  0.04569000  1.0
  H  H21  1  0.14251000  0.95960000  0.45431000  1.0
  H  H22  1  0.95960000  0.14251000  0.95431000  1.0
  H  H23  1  0.85749000  0.04040000  0.54569000  1.0
  H  H24  1  0.14861000  0.95488000  0.02885000  1.0
  H  H25  1  0.04511000  0.85139000  0.47115000  1.0
  H  H26  1  0.85139000  0.04512000  0.97115000  1.0
  H  H27  1  0.95489000  0.14861000  0.52885000  1.0
  H  H28  1  0.08942000  0.92690000  0.15841000  1.0
  H  H29  1  0.07310000  0.91058000  0.34159000  1.0
  H  H30  1  0.91058000  0.07310000  0.84158000  1.0
  H  H31  1  0.92690000  0.08942000  0.65841000  1.0
  H  H32  1  0.45921000  0.83199000  0.23276000  1.0
  H  H33  1  0.16802000  0.54079000  0.26724000  1.0
  H  H34  1  0.54079000  0.16801000  0.76724000  1.0
  H  H35  1  0.83199000  0.45921000  0.73276000  1.0
  H  H36  1  0.30359000  0.93577000  0.20481000  1.0
  H  H37  1  0.06423000  0.69641000  0.29520000  1.0
  H  H38  1  0.69641000  0.06423000  0.79520000  1.0
  H  H39  1  0.93577000  0.30359000  0.70481000  1.0
  H  H40  1  0.51333000  0.04702000  0.19172000  1.0
  H  H41  1  0.95298000  0.48667000  0.30828000  1.0
  H  H42  1  0.48667000  0.95298000  0.80828000  1.0
  H  H43  1  0.04702000  0.51333000  0.69172000  1.0
  H  H44  1  0.60474000  0.16487000  0.05303000  1.0
  H  H45  1  0.83513000  0.39526000  0.44697000  1.0
  H  H46  1  0.39526000  0.83513000  0.94697000  1.0
  H  H47  1  0.16487000  0.60474000  0.55303000  1.0
  C  C48  1  0.90465000  0.67767000  0.85023000  1.0
  C  C49  1  0.32233000  0.09535000  0.64977000  1.0
  C  C50  1  0.09535000  0.32233000  0.14977000  1.0
  C  C51  1  0.67767000  0.90465000  0.35023000  1.0
  C  C52  1  0.83219000  0.76702000  0.76441000  1.0
  C  C53  1  0.23298000  0.16781000  0.73559000  1.0
  C  C54  1  0.16781000  0.23298000  0.23559000  1.0
  C  C55  1  0.76702000  0.83219000  0.26441000  1.0
  C  C56  1  0.72083000  0.75566000  0.72699000  1.0
  C  C57  1  0.24434000  0.27917000  0.77300000  1.0
  C  C58  1  0.27916000  0.24434000  0.27301000  1.0
  C  C59  1  0.75566000  0.72083000  0.22700000  1.0
  C  C60  1  0.64418000  0.84158000  0.64149000  1.0
  C  C61  1  0.15842000  0.35582000  0.85851000  1.0
  C  C62  1  0.35582000  0.15842000  0.35851000  1.0
  C  C63  1  0.84159000  0.64418000  0.14149000  1.0
  C  C64  1  0.36061000  0.56003000  0.07940000  1.0
  C  C65  1  0.43997000  0.63939000  0.42060000  1.0
  C  C66  1  0.63940000  0.43997000  0.92060000  1.0
  C  C67  1  0.56003000  0.36061000  0.57940000  1.0
  C  C68  1  0.43334000  0.63006000  0.12272000  1.0
  C  C69  1  0.36994000  0.56666000  0.37728000  1.0
  C  C70  1  0.56666000  0.36994000  0.87728000  1.0
  C  C71  1  0.63006000  0.43334000  0.62272000  1.0
  C  C72  1  0.23354000  0.76133000  0.09127000  1.0
  C  C73  1  0.23867000  0.76647000  0.40873000  1.0
  C  C74  1  0.76646000  0.23867000  0.90873000  1.0
  C  C75  1  0.76133000  0.23354000  0.59127000  1.0
  C  C76  1  0.12207000  0.88162000  0.08066000  1.0
  C  C77  1  0.11838000  0.87793000  0.41934000  1.0
  C  C78  1  0.87793000  0.11838000  0.91934000  1.0
  C  C79  1  0.88162000  0.12207000  0.58066000  1.0
  C  C80  1  0.38965000  0.86632000  0.16782000  1.0
  C  C81  1  0.13368000  0.61034000  0.33218000  1.0
  C  C82  1  0.61035000  0.13368000  0.83218000  1.0
  C  C83  1  0.86632000  0.38966000  0.66782000  1.0
  C  C84  1  0.44706000  0.93342000  0.07960000  1.0
  C  C85  1  0.06658000  0.55293000  0.42040000  1.0
  C  C86  1  0.55293000  0.06658000  0.92040000  1.0
  C  C87  1  0.93342000  0.44706000  0.57960000  1.0
  C  C88  1  0.50687000  0.02642000  0.10751000  1.0
  C  C89  1  0.97358000  0.49313000  0.39249000  1.0
  C  C90  1  0.49313000  0.97358000  0.89249000  1.0
  C  C91  1  0.02642000  0.50687000  0.60751000  1.0
  C  C92  1  0.55907000  0.09250000  0.02885000  1.0
  C  C93  1  0.90750000  0.44093000  0.47115000  1.0
  C  C94  1  0.44093000  0.90750000  0.97115000  1.0
  C  C95  1  0.09250000  0.55907000  0.52885000  1.0
  N  N96  1  0.23713000  0.64237000  0.06025000  1.0
  N  N97  1  0.35763000  0.76287000  0.43975000  1.0
  N  N98  1  0.76287000  0.35763000  0.93975000  1.0
  N  N99  1  0.64237000  0.23714000  0.56025000  1.0
  N  N100  1  0.35167000  0.75618000  0.13108000  1.0
  N  N101  1  0.24382000  0.64833000  0.36892000  1.0
  N  N102  1  0.64833000  0.24382000  0.86892000  1.0
  N  N103  1  0.75618000  0.35167000  0.63108000  1.0
  O  O104  1  0.00091000  0.70592000  0.88911000  1.0
  O  O105  1  0.29408000  0.99909000  0.61089000  1.0
  O  O106  1  0.99909000  0.29408000  0.11089000  1.0
  O  O107  1  0.70592000  0.00091000  0.38911000  1.0
  O  O108  1  0.86598000  0.57996000  0.87773000  1.0
  O  O109  1  0.42004000  0.13402000  0.62227000  1.0
  O  O110  1  0.13402000  0.42004000  0.12227000  1.0
  O  O111  1  0.57996000  0.86598000  0.37773000  1.0
  O  O112  1  0.67530000  0.94317000  0.61260000  1.0
  O  O113  1  0.05683000  0.32470000  0.88740000  1.0
  O  O114  1  0.32470000  0.05683000  0.38740000  1.0
  O  O115  1  0.94317000  0.67530000  0.11260000  1.0
  O  O116  1  0.55110000  0.80525000  0.60536000  1.0
  O  O117  1  0.19475000  0.44890000  0.89464000  1.0
  O  O118  1  0.44890000  0.19475000  0.39464000  1.0
  O  O119  1  0.80525000  0.55110000  0.10536000  1.0
