# generated using pymatgen
data_Zn2H17C26N7O20
_symmetry_space_group_name_H-M   'P 1'
_cell_length_a   9.98545000
_cell_length_b   11.16510000
_cell_length_c   16.98990000
_cell_angle_alpha   92.42750000
_cell_angle_beta   94.23780000
_cell_angle_gamma   92.91070000
_symmetry_Int_Tables_number   1
_chemical_formula_structural   Zn2H17C26N7O20
_chemical_formula_sum   'Zn2 H17 C26 N7 O20'
_cell_volume   1884.54082725
_cell_formula_units_Z   1
loop_
 _symmetry_equiv_pos_site_id
 _symmetry_equiv_pos_as_xyz
  1  'x, y, z'
loop_
 _atom_site_type_symbol
 _atom_site_label
 _atom_site_symmetry_multiplicity
 _atom_site_fract_x
 _atom_site_fract_y
 _atom_site_fract_z
 _atom_site_occupancy
  Zn  Zn0  1  0.35549000  0.50059000  0.49666000  1.0
  Zn  Zn1  1  0.63078000  0.51645000  0.50060000  1.0
  H  H2  1  0.67674000  0.45007000  0.25440000  1.0
  H  H3  1  0.32522000  0.37078000  0.71418000  1.0
  H  H4  1  0.60962000  0.30655000  0.00165000  1.0
  H  H5  1  0.22803000  0.44494000  0.10646000  1.0
  H  H6  1  0.25342000  0.50397000  0.25034000  1.0
  H  H7  1  0.33119000  0.41452000  0.98345000  1.0
  H  H8  1  0.65378000  0.39187000  0.11195000  1.0
  H  H9  1  0.66666667  0.89106000  0.46781000  1.0
  H  H10  1  0.38885000  0.91394000  0.53433000  1.0
  H  H11  1  0.15184000  0.66378000  0.55345000  1.0
  H  H12  1  0.09321000  0.41452000  0.49236000  1.0
  H  H13  1  0.89465000  0.47709000  0.97925000  1.0
  H  H14  1  0.72786000  0.53115000  0.97298000  1.0
  H  H15  1  0.83337000  0.54917000  0.89205000  1.0
  H  H16  1  0.82330000  0.29324000  0.68585000  1.0
  H  H17  1  0.87323000  0.28450000  0.78989000  1.0
  H  H18  1  0.96386000  0.38512000  0.73157000  1.0
  C  C19  1  0.49031000  0.27457000  0.47213000  1.0
  C  C20  1  0.48212000  0.51099000  0.34749000  1.0
  C  C21  1  0.47879000  0.73989000  0.51549000  1.0
  C  C22  1  0.53660000  0.45736000  0.64532000  1.0
  C  C23  1  0.46648000  0.48037000  0.26117000  1.0
  C  C24  1  0.57868000  0.44767000  0.22158000  1.0
  C  C25  1  0.56480000  0.41391000  0.14192000  1.0
  C  C26  1  0.43822000  0.41178000  0.09884000  1.0
  C  C27  1  0.32648000  0.44566000  0.13906000  1.0
  C  C28  1  0.34005000  0.47890000  0.21917000  1.0
  C  C29  1  0.40740000  0.33441000  0.83018000  1.0
  C  C30  1  0.41540000  0.37319000  0.75430000  1.0
  C  C31  1  0.65612000  0.40707000  0.77837000  1.0
  C  C32  1  0.64499000  0.37186000  0.85680000  1.0
  C  C33  1  0.52005000  0.34016000  0.88598000  1.0
  C  C34  1  0.42310000  0.38460000  0.01391000  1.0
  C  C35  1  0.51761000  0.33581000  0.97145000  1.0
  C  C36  1  0.53864000  0.41285000  0.72722000  1.0
  C  C37  1  0.57895000  0.93734000  0.48540000  1.0
  C  C38  1  0.47671000  0.87259000  0.51316000  1.0
  C  C39  1  0.58438000  0.06691000  0.48192000  1.0
  C  C40  1  0.48492000  0.14045000  0.46412000  1.0
  C  C41  1  0.09147000  0.58128000  0.53435000  1.0
  C  C42  1  0.94436000  0.58221000  0.54104000  1.0
  C  C43  1  0.80590000  0.49077000  0.93944000  1.0
  C  C44  1  0.86469000  0.34369000  0.73998000  1.0
  N  N45  1  0.15162000  0.49151000  0.50787000  1.0
  N  N46  1  0.84687000  0.54438000  0.49252000  1.0
  N  N47  1  0.72469000  0.11937000  0.50171000  1.0
  N  N48  1  0.35107000  0.08698000  0.43397000  1.0
  N  N49  1  0.91325000  0.63843000  0.61994000  1.0
  N  N50  1  0.88883000  0.49538000  0.41214000  1.0
  N  N51  1  0.27683000  0.28080000  0.84942000  1.0
  O  O52  1  0.37784000  0.32200000  0.46201000  1.0
  O  O53  1  0.60503000  0.32593000  0.48983000  1.0
  O  O54  1  0.37751000  0.53699000  0.38233000  1.0
  O  O55  1  0.60011000  0.50613000  0.38200000  1.0
  O  O56  1  0.36805000  0.68367000  0.52753000  1.0
  O  O57  1  0.58945000  0.69257000  0.50452000  1.0
  O  O58  1  0.42074000  0.45748000  0.60799000  1.0
  O  O59  1  0.64650000  0.49212000  0.61732000  1.0
  O  O60  1  0.75892000  0.37288000  0.90744000  1.0
  O  O61  1  0.79556000  0.12770000  0.44564000  1.0
  O  O62  1  0.76014000  0.13928000  0.57227000  1.0
  O  O63  1  0.26631000  0.07067000  0.48247000  1.0
  O  O64  1  0.33447000  0.06669000  0.36193000  1.0
  O  O65  1  0.98520000  0.60115000  0.67500000  1.0
  O  O66  1  0.82993000  0.71448000  0.62169000  1.0
  O  O67  1  0.89697000  0.38727000  0.40733000  1.0
  O  O68  1  0.90047000  0.57186000  0.36440000  1.0
  O  O69  1  0.77995000  0.44209000  0.75667000  1.0
  O  O70  1  0.17350000  0.32329000  0.81892000  1.0
  O  O71  1  0.27768000  0.19438000  0.89282000  1.0
