# generated using pymatgen
data_CdH7C12(NO2)2
_symmetry_space_group_name_H-M   'P 1'
_cell_length_a   7.41532000
_cell_length_b   8.07285000
_cell_length_c   18.50520000
_cell_angle_alpha   90.00390000
_cell_angle_beta   90.00880000
_cell_angle_gamma   89.89340000
_symmetry_Int_Tables_number   1
_chemical_formula_structural   CdH7C12(NO2)2
_chemical_formula_sum   'Cd4 H28 C48 N8 O16'
_cell_volume   1107.77052562
_cell_formula_units_Z   4
loop_
 _symmetry_equiv_pos_site_id
 _symmetry_equiv_pos_as_xyz
  1  'x, y, z'
loop_
 _atom_site_type_symbol
 _atom_site_label
 _atom_site_symmetry_multiplicity
 _atom_site_fract_x
 _atom_site_fract_y
 _atom_site_fract_z
 _atom_site_occupancy
  Cd  Cd0  1  0.56124000  0.47301000  0.69731000  1.0
  Cd  Cd1  1  0.93877000  0.52694000  0.19729000  1.0
  Cd  Cd2  1  0.43875000  0.52698000  0.30268000  1.0
  Cd  Cd3  1  0.06123000  0.47307000  0.80270000  1.0
  H  H4  1  0.40069000  0.11326000  0.77280000  1.0
  H  H5  1  0.09919000  0.88675000  0.27285000  1.0
  H  H6  1  0.59928000  0.88673000  0.22720000  1.0
  H  H7  1  0.90082000  0.11324000  0.72716000  1.0
  H  H8  1  0.48309000  0.35872000  0.52517000  1.0
  H  H9  1  0.01691000  0.64131000  0.02519000  1.0
  H  H10  1  0.51689000  0.64129000  0.47484000  1.0
  H  H11  1  0.98311000  0.35870000  0.97482000  1.0
  H  H12  1  0.16908000  0.96398000  0.43338000  1.0
  H  H13  1  0.33105000  0.03601000  0.93351000  1.0
  H  H14  1  0.83094000  0.03601000  0.56662000  1.0
  H  H15  1  0.66897000  0.96398000  0.06651000  1.0
  H  H16  1  0.11022000  0.84449000  0.55550000  1.0
  H  H17  1  0.38981000  0.15554000  0.05564000  1.0
  H  H18  1  0.88977000  0.15551000  0.44450000  1.0
  H  H19  1  0.61022000  0.84445000  0.94437000  1.0
  H  H20  1  0.25302000  0.36172000  0.93298000  1.0
  H  H21  1  0.24698000  0.63822000  0.43301000  1.0
  H  H22  1  0.74707000  0.63832000  0.06700000  1.0
  H  H23  1  0.75290000  0.36175000  0.56697000  1.0
  H  H24  1  0.23476000  0.39042000  0.06678000  1.0
  H  H25  1  0.26524000  0.60958000  0.56680000  1.0
  H  H26  1  0.76532000  0.60965000  0.93321000  1.0
  H  H27  1  0.73464000  0.39036000  0.43318000  1.0
  H  H28  1  0.22791000  0.89228000  0.70734000  1.0
  H  H29  1  0.27201000  0.10773000  0.20746000  1.0
  H  H30  1  0.77208000  0.10772000  0.29266000  1.0
  H  H31  1  0.72800000  0.89226000  0.79255000  1.0
  C  C32  1  0.38097000  0.11115000  0.71474000  1.0
  C  C33  1  0.11896000  0.88884000  0.21481000  1.0
  C  C34  1  0.61901000  0.88886000  0.28526000  1.0
  C  C35  1  0.88105000  0.11116000  0.78520000  1.0
  C  C36  1  0.38327000  0.17304000  0.59999000  1.0
  C  C37  1  0.11675000  0.82696000  0.10005000  1.0
  C  C38  1  0.61671000  0.82696000  0.40001000  1.0
  C  C39  1  0.88326000  0.17305000  0.89995000  1.0
  C  C40  1  0.40867000  0.24383000  0.53198000  1.0
  C  C41  1  0.09136000  0.75619000  0.03203000  1.0
  C  C42  1  0.59131000  0.75618000  0.46803000  1.0
  C  C43  1  0.90866000  0.24381000  0.96798000  1.0
  C  C44  1  0.33210000  0.16481000  0.47213000  1.0
  C  C45  1  0.16797000  0.83520000  0.97220000  1.0
  C  C46  1  0.66790000  0.83519000  0.52787000  1.0
  C  C47  1  0.83203000  0.16481000  0.02781000  1.0
  C  C48  1  0.22796000  0.02026000  0.48136000  1.0
  C  C49  1  0.27210000  0.97976000  0.98146000  1.0
  C  C50  1  0.77204000  0.97974000  0.51864000  1.0
  C  C51  1  0.72792000  0.02024000  0.01855000  1.0
  C  C52  1  0.19647000  0.95183000  0.54903000  1.0
  C  C53  1  0.30356000  0.04818000  0.04915000  1.0
  C  C54  1  0.80353000  0.04817000  0.45097000  1.0
  C  C55  1  0.69645000  0.95183000  0.95086000  1.0
  C  C56  1  0.27883000  0.02752000  0.60806000  1.0
  C  C57  1  0.22119000  0.97247000  0.10816000  1.0
  C  C58  1  0.72116000  0.97248000  0.39194000  1.0
  C  C59  1  0.77882000  0.02752000  0.89185000  1.0
  C  C60  1  0.35440000  0.23783000  0.39764000  1.0
  C  C61  1  0.14567000  0.76220000  0.89769000  1.0
  C  C62  1  0.64560000  0.76217000  0.60237000  1.0
  C  C63  1  0.85436000  0.23780000  0.10232000  1.0
  C  C64  1  0.51150000  0.48191000  0.84487000  1.0
  C  C65  1  0.98851000  0.51806000  0.34487000  1.0
  C  C66  1  0.48858000  0.51816000  0.15512000  1.0
  C  C67  1  0.01144000  0.48190000  0.65512000  1.0
  C  C68  1  0.50732000  0.48803000  0.92490000  1.0
  C  C69  1  0.99266000  0.51194000  0.42490000  1.0
  C  C70  1  0.49276000  0.51201000  0.07508000  1.0
  C  C71  1  0.00725000  0.48800000  0.57508000  1.0
  C  C72  1  0.36009000  0.42325000  0.96263000  1.0
  C  C73  1  0.13989000  0.57672000  0.46264000  1.0
  C  C74  1  0.63998000  0.57678000  0.03736000  1.0
  C  C75  1  0.85999000  0.42324000  0.53734000  1.0
  C  C76  1  0.35129000  0.43673000  0.03730000  1.0
  C  C77  1  0.14871000  0.56325000  0.53731000  1.0
  C  C78  1  0.64878000  0.56331000  0.96269000  1.0
  C  C79  1  0.85119000  0.43670000  0.46267000  1.0
  N  N80  1  0.44414000  0.22227000  0.66812000  1.0
  N  N81  1  0.05585000  0.77770000  0.16817000  1.0
  N  N82  1  0.55584000  0.77772000  0.33188000  1.0
  N  N83  1  0.94418000  0.22230000  0.83184000  1.0
  N  N84  1  0.28114000  0.99253000  0.68149000  1.0
  N  N85  1  0.21882000  0.00747000  0.18160000  1.0
  N  N86  1  0.71886000  0.00746000  0.31851000  1.0
  N  N87  1  0.78120000  0.99252000  0.81842000  1.0
  O  O88  1  0.27712000  0.17642000  0.34378000  1.0
  O  O89  1  0.22295000  0.82359000  0.84385000  1.0
  O  O90  1  0.72290000  0.82357000  0.65623000  1.0
  O  O91  1  0.77707000  0.17644000  0.15616000  1.0
  O  O92  1  0.45709000  0.36880000  0.39603000  1.0
  O  O93  1  0.04297000  0.63124000  0.89606000  1.0
  O  O94  1  0.54289000  0.63122000  0.60397000  1.0
  O  O95  1  0.95709000  0.36874000  0.10395000  1.0
  O  O96  1  0.37970000  0.41767000  0.80988000  1.0
  O  O97  1  0.12027000  0.58231000  0.30990000  1.0
  O  O98  1  0.62033000  0.58241000  0.19011000  1.0
  O  O99  1  0.87969000  0.41760000  0.69010000  1.0
  O  O100  1  0.64852000  0.54012000  0.81139000  1.0
  O  O101  1  0.85147000  0.45982000  0.31137000  1.0
  O  O102  1  0.35152000  0.45994000  0.18859000  1.0
  O  O103  1  0.14846000  0.54014000  0.68860000  1.0
