# generated using pymatgen
data_H28Ru2C38S(NO2)4
_symmetry_space_group_name_H-M   'P 1'
_cell_length_a   11.60290000
_cell_length_b   15.40270000
_cell_length_c   15.66720000
_cell_angle_alpha   95.84620000
_cell_angle_beta   108.65700000
_cell_angle_gamma   107.75000000
_symmetry_Int_Tables_number   1
_chemical_formula_structural   H28Ru2C38S(NO2)4
_chemical_formula_sum   'H56 Ru4 C76 S2 N8 O16'
_cell_volume   2464.10485523
_cell_formula_units_Z   2
loop_
 _symmetry_equiv_pos_site_id
 _symmetry_equiv_pos_as_xyz
  1  'x, y, z'
loop_
 _atom_site_type_symbol
 _atom_site_label
 _atom_site_symmetry_multiplicity
 _atom_site_fract_x
 _atom_site_fract_y
 _atom_site_fract_z
 _atom_site_occupancy
  H  H0  1  0.68146000  0.79733000  0.21018000  1.0
  H  H1  1  0.31853000  0.20266000  0.78981000  1.0
  H  H2  1  0.69197000  0.95751000  0.26099000  1.0
  H  H3  1  0.30801000  0.04248000  0.73902000  1.0
  H  H4  1  0.49104000  0.04906000  0.21906000  1.0
  H  H5  1  0.50895000  0.95094000  0.78094000  1.0
  H  H6  1  0.49895000  0.08041000  0.11430000  1.0
  H  H7  1  0.50104000  0.91959000  0.88569000  1.0
  H  H8  1  0.64424000  0.09812000  0.20994000  1.0
  H  H9  1  0.35576000  0.90187000  0.79006000  1.0
  H  H10  1  0.38387000  0.92793000  0.00528000  1.0
  H  H11  1  0.61610000  0.07206000  0.99473000  1.0
  H  H12  1  0.37621000  0.76776000  0.95211000  1.0
  H  H13  1  0.62377000  0.23224000  0.04789000  1.0
  H  H14  1  0.31548000  0.47007000  0.22825000  1.0
  H  H15  1  0.68454000  0.52993000  0.77176000  1.0
  H  H16  1  0.13425000  0.44734000  0.28645000  1.0
  H  H17  1  0.86575000  0.55265000  0.71355000  1.0
  H  H18  1  0.90752000  0.43717000  0.25407000  1.0
  H  H19  1  0.09247000  0.56281000  0.74592000  1.0
  H  H20  1  0.84011000  0.31939000  0.19313000  1.0
  H  H21  1  0.15989000  0.68061000  0.80686000  1.0
  H  H22  1  0.79161000  0.40500000  0.13932000  1.0
  H  H23  1  0.20839000  0.59499000  0.86068000  1.0
  H  H24  1  0.85877000  0.37475000  0.00677000  1.0
  H  H25  1  0.14125000  0.62525000  0.99324000  1.0
  H  H26  1  0.04055000  0.39957000  0.94884000  1.0
  H  H27  1  0.95946000  0.60043000  0.05116000  1.0
  H  H28  1  0.88541000  0.91192000  0.17176000  1.0
  H  H29  1  0.11459000  0.08808000  0.82825000  1.0
  H  H30  1  0.84525000  0.94610000  0.01538000  1.0
  H  H31  1  0.15475000  0.05389000  0.98462000  1.0
  H  H32  1  0.81006000  0.05835000  0.91560000  1.0
  H  H33  1  0.18993000  0.94164000  0.08440000  1.0
  H  H34  1  0.97636000  0.13025000  0.95381000  1.0
  H  H35  1  0.02363000  0.86974000  0.04619000  1.0
  H  H36  1  0.86157000  0.17964000  0.96568000  1.0
  H  H37  1  0.13842000  0.82035000  0.03432000  1.0
  H  H38  1  0.98072000  0.24001000  0.13518000  1.0
  H  H39  1  0.01927000  0.75998000  0.86482000  1.0
  H  H40  1  0.01817000  0.20543000  0.29141000  1.0
  H  H41  1  0.98183000  0.79458000  0.70858000  1.0
  H  H42  1  0.53477000  0.86440000  0.34861000  1.0
  H  H43  1  0.46523000  0.13561000  0.65139000  1.0
  H  H44  1  0.31573000  0.87663000  0.28690000  1.0
  H  H45  1  0.68427000  0.12337000  0.71311000  1.0
  H  H46  1  0.17209000  0.96373000  0.30971000  1.0
  H  H47  1  0.82790000  0.03627000  0.69029000  1.0
  H  H48  1  0.23076000  0.04678000  0.24905000  1.0
  H  H49  1  0.76924000  0.95322000  0.75095000  1.0
  H  H50  1  0.24258000  0.08519000  0.36285000  1.0
  H  H51  1  0.75742000  0.91481000  0.63715000  1.0
  H  H52  1  0.47791000  0.16416000  0.43385000  1.0
  H  H53  1  0.52209000  0.83584000  0.56615000  1.0
  H  H54  1  0.69741000  0.15183000  0.49464000  1.0
  H  H55  1  0.30259000  0.84817000  0.50536000  1.0
  Ru  Ru56  1  0.56857000  0.50409000  0.07388000  1.0
  Ru  Ru57  1  0.43145000  0.49591000  0.92612000  1.0
  Ru  Ru58  1  0.95608000  0.92022000  0.46699000  1.0
  Ru  Ru59  1  0.04392000  0.07979000  0.53301000  1.0
  C  C60  1  0.76326000  0.55309000  0.29333000  1.0
  C  C61  1  0.23675000  0.44692000  0.70667000  1.0
  C  C62  1  0.85477000  0.59739000  0.38215000  1.0
  C  C63  1  0.14524000  0.40263000  0.61784000  1.0
  C  C64  1  0.87790000  0.69282000  0.40269000  1.0
  C  C65  1  0.12212000  0.30720000  0.59730000  1.0
  C  C66  1  0.92408000  0.55016000  0.44131000  1.0
  C  C67  1  0.07594000  0.44986000  0.55869000  1.0
  C  C68  1  0.88224000  0.45101000  0.42624000  1.0
  C  C69  1  0.11779000  0.54901000  0.57377000  1.0
  C  C70  1  0.04299000  0.59780000  0.51768000  1.0
  C  C71  1  0.95702000  0.40223000  0.48233000  1.0
  C  C72  1  0.52181000  0.67614000  0.04778000  1.0
  C  C73  1  0.47827000  0.32388000  0.95220000  1.0
  C  C74  1  0.52794000  0.77202000  0.07766000  1.0
  C  C75  1  0.47201000  0.22795000  0.92235000  1.0
  C  C76  1  0.61646000  0.82606000  0.16518000  1.0
  C  C77  1  0.38352000  0.17393000  0.83482000  1.0
  C  C78  1  0.62156000  0.91600000  0.19356000  1.0
  C  C79  1  0.37845000  0.08400000  0.80643000  1.0
  C  C80  1  0.53807000  0.95428000  0.13736000  1.0
  C  C81  1  0.46192000  0.04571000  0.86264000  1.0
  C  C82  1  0.54323000  0.05069000  0.17126000  1.0
  C  C83  1  0.45676000  0.94930000  0.82874000  1.0
  C  C84  1  0.44938000  0.89943000  0.05028000  1.0
  C  C85  1  0.55063000  0.10057000  0.94971000  1.0
  C  C86  1  0.44457000  0.80963000  0.02013000  1.0
  C  C87  1  0.55541000  0.19036000  0.97987000  1.0
  C  C88  1  0.29786000  0.45353000  0.05217000  1.0
  C  C89  1  0.70213000  0.54647000  0.94784000  1.0
  C  C90  1  0.18871000  0.43527000  0.08502000  1.0
  C  C91  1  0.81129000  0.56472000  0.91499000  1.0
  C  C92  1  0.21492000  0.44857000  0.18035000  1.0
  C  C93  1  0.78509000  0.55143000  0.81966000  1.0
  C  C94  1  0.11336000  0.43570000  0.21225000  1.0
  C  C95  1  0.88664000  0.56430000  0.78774000  1.0
  C  C96  1  0.98376000  0.40837000  0.15048000  1.0
  C  C97  1  0.01624000  0.59162000  0.84952000  1.0
  C  C98  1  0.87505000  0.39222000  0.18573000  1.0
  C  C99  1  0.12496000  0.60777000  0.81426000  1.0
  C  C100  1  0.95885000  0.39478000  0.05536000  1.0
  C  C101  1  0.04116000  0.60522000  0.94464000  1.0
  C  C102  1  0.05983000  0.40834000  0.02258000  1.0
  C  C103  1  0.94016000  0.59165000  0.97742000  1.0
  C  C104  1  0.97555000  0.03605000  0.33435000  1.0
  C  C105  1  0.02445000  0.96396000  0.66565000  1.0
  C  C106  1  0.95462000  0.05646000  0.24157000  1.0
  C  C107  1  0.04539000  0.94354000  0.75843000  1.0
  C  C108  1  0.90639000  0.98372000  0.16326000  1.0
  C  C109  1  0.09361000  0.01628000  0.83674000  1.0
  C  C110  1  0.88417000  0.00333000  0.07587000  1.0
  C  C111  1  0.11582000  0.99666000  0.92413000  1.0
  C  C112  1  0.91007000  0.09558000  0.06404000  1.0
  C  C113  1  0.08992000  0.90442000  0.93596000  1.0
  C  C114  1  0.88760000  0.11698000  0.96982000  1.0
  C  C115  1  0.11239000  0.88302000  0.03018000  1.0
  C  C116  1  0.95926000  0.16788000  0.14295000  1.0
  C  C117  1  0.04074000  0.83212000  0.85704000  1.0
  C  C118  1  0.98100000  0.14904000  0.23058000  1.0
  C  C119  1  0.01900000  0.85097000  0.76942000  1.0
  C  C120  1  0.76123000  0.00233000  0.45890000  1.0
  C  C121  1  0.23877000  0.99767000  0.54110000  1.0
  C  C122  1  0.62987000  0.00769000  0.42488000  1.0
  C  C123  1  0.37013000  0.99231000  0.57512000  1.0
  C  C124  1  0.52161000  0.92994000  0.36665000  1.0
  C  C125  1  0.47838000  0.07006000  0.63335000  1.0
  C  C126  1  0.39950000  0.93735000  0.33212000  1.0
  C  C127  1  0.60051000  0.06265000  0.66788000  1.0
  C  C128  1  0.38173000  0.02165000  0.35505000  1.0
  C  C129  1  0.61827000  0.97835000  0.64495000  1.0
  C  C130  1  0.24997000  0.02956000  0.31758000  1.0
  C  C131  1  0.75003000  0.97044000  0.68243000  1.0
  C  C132  1  0.49049000  0.09861000  0.41403000  1.0
  C  C133  1  0.50951000  0.90139000  0.58597000  1.0
  C  C134  1  0.61317000  0.09217000  0.44853000  1.0
  C  C135  1  0.38682000  0.90783000  0.55147000  1.0
  S  S136  1  0.76350000  0.28721000  0.37000000  1.0
  S  S137  1  0.23651000  0.71281000  0.63002000  1.0
  N  N138  1  0.69167000  0.52296000  0.21622000  1.0
  N  N139  1  0.30835000  0.47705000  0.78378000  1.0
  N  N140  1  0.88715000  0.77158000  0.41331000  1.0
  N  N141  1  0.11283000  0.22843000  0.58668000  1.0
  N  N142  1  0.76913000  0.39142000  0.36035000  1.0
  N  N143  1  0.23088000  0.60860000  0.63965000  1.0
  N  N144  1  0.89786000  0.30803000  0.45563000  1.0
  N  N145  1  0.10216000  0.69199000  0.54438000  1.0
  O  O146  1  0.58648000  0.64014000  0.10733000  1.0
  O  O147  1  0.41349000  0.35984000  0.89267000  1.0
  O  O148  1  0.45069000  0.63137000  0.96377000  1.0
  O  O149  1  0.54930000  0.36862000  0.03623000  1.0
  O  O150  1  0.41116000  0.46567000  0.11102000  1.0
  O  O151  1  0.58883000  0.53431000  0.88898000  1.0
  O  O152  1  0.27633000  0.45838000  0.96723000  1.0
  O  O153  1  0.72366000  0.54162000  0.03278000  1.0
  O  O154  1  0.94130000  0.94995000  0.34106000  1.0
  O  O155  1  0.05871000  0.05006000  0.65894000  1.0
  O  O156  1  0.02653000  0.10482000  0.40484000  1.0
  O  O157  1  0.97348000  0.89519000  0.59516000  1.0
  O  O158  1  0.77360000  0.92311000  0.43931000  1.0
  O  O159  1  0.22641000  0.07690000  0.56069000  1.0
  O  O160  1  0.85872000  0.07773000  0.50463000  1.0
  O  O161  1  0.14128000  0.92227000  0.49537000  1.0
