# generated using pymatgen
data_Zn4H12C24O13
_symmetry_space_group_name_H-M   'P 1'
_cell_length_a   25.74000000
_cell_length_b   25.74000000
_cell_length_c   25.74000000
_cell_angle_alpha   89.99980000
_cell_angle_beta   90.00000000
_cell_angle_gamma   89.99990000
_symmetry_Int_Tables_number   1
_chemical_formula_structural   Zn4H12C24O13
_chemical_formula_sum   'Zn32 H96 C192 O104'
_cell_volume   17053.97522387
_cell_formula_units_Z   8
loop_
 _symmetry_equiv_pos_site_id
 _symmetry_equiv_pos_as_xyz
  1  'x, y, z'
loop_
 _atom_site_type_symbol
 _atom_site_label
 _atom_site_symmetry_multiplicity
 _atom_site_fract_x
 _atom_site_fract_y
 _atom_site_fract_z
 _atom_site_occupancy
  Zn  Zn0  1  0.17189000  0.81326000  0.76793000  1.0
  Zn  Zn1  1  0.82811000  0.68674000  0.26793000  1.0
  Zn  Zn2  1  0.67189000  0.18674000  0.73207000  1.0
  Zn  Zn3  1  0.32811000  0.31326000  0.23206000  1.0
  Zn  Zn4  1  0.81326000  0.76793000  0.17189000  1.0
  Zn  Zn5  1  0.68674000  0.26793000  0.82811000  1.0
  Zn  Zn6  1  0.18674000  0.73207000  0.67189000  1.0
  Zn  Zn7  1  0.31326000  0.23206000  0.32811000  1.0
  Zn  Zn8  1  0.76793000  0.17188000  0.81326000  1.0
  Zn  Zn9  1  0.26793000  0.82811000  0.68674000  1.0
  Zn  Zn10  1  0.73207000  0.67189000  0.18674000  1.0
  Zn  Zn11  1  0.23207000  0.32811000  0.31326000  1.0
  Zn  Zn12  1  0.82811000  0.18674000  0.23207000  1.0
  Zn  Zn13  1  0.17189000  0.31326000  0.73207000  1.0
  Zn  Zn14  1  0.32811000  0.81326000  0.26793000  1.0
  Zn  Zn15  1  0.67189000  0.68674000  0.76793000  1.0
  Zn  Zn16  1  0.18674000  0.23207000  0.82811000  1.0
  Zn  Zn17  1  0.31326000  0.73207000  0.17189000  1.0
  Zn  Zn18  1  0.81326000  0.26793000  0.32811000  1.0
  Zn  Zn19  1  0.68674000  0.76794000  0.67189000  1.0
  Zn  Zn20  1  0.23206000  0.82811000  0.18674000  1.0
  Zn  Zn21  1  0.73207000  0.17189000  0.31326000  1.0
  Zn  Zn22  1  0.26793000  0.32811000  0.81326000  1.0
  Zn  Zn23  1  0.76794000  0.67189000  0.68674000  1.0
  Zn  Zn24  1  0.26569000  0.73432000  0.76569000  1.0
  Zn  Zn25  1  0.73432000  0.76569000  0.26569000  1.0
  Zn  Zn26  1  0.76569000  0.26568000  0.73431000  1.0
  Zn  Zn27  1  0.23432000  0.23432000  0.23431000  1.0
  Zn  Zn28  1  0.73431000  0.26569000  0.23431000  1.0
  Zn  Zn29  1  0.26568000  0.23432000  0.73432000  1.0
  Zn  Zn30  1  0.23432000  0.73431000  0.26568000  1.0
  Zn  Zn31  1  0.76569000  0.76568000  0.76568000  1.0
  H  H32  1  0.16175000  0.82510000  0.93566000  1.0
  H  H33  1  0.18038000  0.83163000  0.03142000  1.0
  H  H34  1  0.29597000  0.72792000  0.91651000  1.0
  H  H35  1  0.31414000  0.73374000  0.01216000  1.0
  H  H36  1  0.83825000  0.67490000  0.43567000  1.0
  H  H37  1  0.81962000  0.66837000  0.53142000  1.0
  H  H38  1  0.70403000  0.77208000  0.41651000  1.0
  H  H39  1  0.68586000  0.76626000  0.51216000  1.0
  H  H40  1  0.66175000  0.17490000  0.56434000  1.0
  H  H41  1  0.68038000  0.16837000  0.46858000  1.0
  H  H42  1  0.79597000  0.27208000  0.58349000  1.0
  H  H43  1  0.81414000  0.26626000  0.48784000  1.0
  H  H44  1  0.33825000  0.32510000  0.06433000  1.0
  H  H45  1  0.31962000  0.33162000  0.96858000  1.0
  H  H46  1  0.20403000  0.22792000  0.08349000  1.0
  H  H47  1  0.18586000  0.23374000  0.98784000  1.0
  H  H48  1  0.82510000  0.93566000  0.16175000  1.0
  H  H49  1  0.83163000  0.03142000  0.18038000  1.0
  H  H50  1  0.72792000  0.91651000  0.29597000  1.0
  H  H51  1  0.73374000  0.01216000  0.31414000  1.0
  H  H52  1  0.67490000  0.43566000  0.83825000  1.0
  H  H53  1  0.66837000  0.53142000  0.81962000  1.0
  H  H54  1  0.77208000  0.41651000  0.70403000  1.0
  H  H55  1  0.76626000  0.51216000  0.68586000  1.0
  H  H56  1  0.17490000  0.56434000  0.66175000  1.0
  H  H57  1  0.16837000  0.46858000  0.68038000  1.0
  H  H58  1  0.27208000  0.58349000  0.79597000  1.0
  H  H59  1  0.26626000  0.48784000  0.81414000  1.0
  H  H60  1  0.32510000  0.06434000  0.33825000  1.0
  H  H61  1  0.33163000  0.96858000  0.31962000  1.0
  H  H62  1  0.22792000  0.08350000  0.20403000  1.0
  H  H63  1  0.23374000  0.98784000  0.18586000  1.0
  H  H64  1  0.93566000  0.16175000  0.82510000  1.0
  H  H65  1  0.03142000  0.18038000  0.83163000  1.0
  H  H66  1  0.91650000  0.29597000  0.72792000  1.0
  H  H67  1  0.01216000  0.31414000  0.73374000  1.0
  H  H68  1  0.43566000  0.83825000  0.67490000  1.0
  H  H69  1  0.53142000  0.81962000  0.66837000  1.0
  H  H70  1  0.41651000  0.70403000  0.77208000  1.0
  H  H71  1  0.51216000  0.68586000  0.76626000  1.0
  H  H72  1  0.56434000  0.66175000  0.17490000  1.0
  H  H73  1  0.46858000  0.68038000  0.16837000  1.0
  H  H74  1  0.58349000  0.79597000  0.27208000  1.0
  H  H75  1  0.48784000  0.81414000  0.26626000  1.0
  H  H76  1  0.06433000  0.33825000  0.32510000  1.0
  H  H77  1  0.96858000  0.31962000  0.33163000  1.0
  H  H78  1  0.08349000  0.20403000  0.22792000  1.0
  H  H79  1  0.98784000  0.18586000  0.23374000  1.0
  H  H80  1  0.83825000  0.17490000  0.06433000  1.0
  H  H81  1  0.81962000  0.16837000  0.96858000  1.0
  H  H82  1  0.70403000  0.27208000  0.08349000  1.0
  H  H83  1  0.68586000  0.26626000  0.98784000  1.0
  H  H84  1  0.16175000  0.32510000  0.56433000  1.0
  H  H85  1  0.18038000  0.33163000  0.46858000  1.0
  H  H86  1  0.29597000  0.22792000  0.58349000  1.0
  H  H87  1  0.31414000  0.23374000  0.48784000  1.0
  H  H88  1  0.33825000  0.82509000  0.43567000  1.0
  H  H89  1  0.31962000  0.83162000  0.53142000  1.0
  H  H90  1  0.20403000  0.72792000  0.41651000  1.0
  H  H91  1  0.18586000  0.73374000  0.51216000  1.0
  H  H92  1  0.66175000  0.67490000  0.93566000  1.0
  H  H93  1  0.68038000  0.66838000  0.03142000  1.0
  H  H94  1  0.79597000  0.77208000  0.91651000  1.0
  H  H95  1  0.81414000  0.76626000  0.01216000  1.0
  H  H96  1  0.17490000  0.06433000  0.83825000  1.0
  H  H97  1  0.16837000  0.96858000  0.81962000  1.0
  H  H98  1  0.27208000  0.08349000  0.70403000  1.0
  H  H99  1  0.26626000  0.98784000  0.68586000  1.0
  H  H100  1  0.32510000  0.56434000  0.16175000  1.0
  H  H101  1  0.33163000  0.46858000  0.18038000  1.0
  H  H102  1  0.22792000  0.58349000  0.29597000  1.0
  H  H103  1  0.23374000  0.48784000  0.31414000  1.0
  H  H104  1  0.82510000  0.43566000  0.33825000  1.0
  H  H105  1  0.83163000  0.53142000  0.31962000  1.0
  H  H106  1  0.72792000  0.41651000  0.20403000  1.0
  H  H107  1  0.73374000  0.51216000  0.18586000  1.0
  H  H108  1  0.67490000  0.93567000  0.66175000  1.0
  H  H109  1  0.66837000  0.03142000  0.68038000  1.0
  H  H110  1  0.77208000  0.91651000  0.79597000  1.0
  H  H111  1  0.76626000  0.01216000  0.81414000  1.0
  H  H112  1  0.06433000  0.83825000  0.17490000  1.0
  H  H113  1  0.96858000  0.81962000  0.16837000  1.0
  H  H114  1  0.08349000  0.70403000  0.27208000  1.0
  H  H115  1  0.98784000  0.68586000  0.26626000  1.0
  H  H116  1  0.56434000  0.16175000  0.32510000  1.0
  H  H117  1  0.46858000  0.18038000  0.33163000  1.0
  H  H118  1  0.58349000  0.29597000  0.22792000  1.0
  H  H119  1  0.48784000  0.31414000  0.23374000  1.0
  H  H120  1  0.43566000  0.33825000  0.82510000  1.0
  H  H121  1  0.53142000  0.31962000  0.83163000  1.0
  H  H122  1  0.41651000  0.20403000  0.72792000  1.0
  H  H123  1  0.51216000  0.18586000  0.73374000  1.0
  H  H124  1  0.93566000  0.66175000  0.67490000  1.0
  H  H125  1  0.03142000  0.68038000  0.66837000  1.0
  H  H126  1  0.91651000  0.79597000  0.77208000  1.0
  H  H127  1  0.01216000  0.81414000  0.76626000  1.0
  C  C128  1  0.21877000  0.77204000  0.86347000  1.0
  C  C129  1  0.22776000  0.77593000  0.92074000  1.0
  C  C130  1  0.19505000  0.80541000  0.95283000  1.0
  C  C131  1  0.20535000  0.80899000  0.00584000  1.0
  C  C132  1  0.27085000  0.75025000  0.94213000  1.0
  C  C133  1  0.28097000  0.75357000  0.99498000  1.0
  C  C134  1  0.25915000  0.78513000  0.08421000  1.0
  C  C135  1  0.24826000  0.78293000  0.02715000  1.0
  C  C136  1  0.78123000  0.72796000  0.36347000  1.0
  C  C137  1  0.77224000  0.72407000  0.42074000  1.0
  C  C138  1  0.80495000  0.69459000  0.45283000  1.0
  C  C139  1  0.79465000  0.69101000  0.50584000  1.0
  C  C140  1  0.72915000  0.74975000  0.44213000  1.0
  C  C141  1  0.71903000  0.74643000  0.49498000  1.0
  C  C142  1  0.74085000  0.71488000  0.58421000  1.0
  C  C143  1  0.75174000  0.71707000  0.52715000  1.0
  C  C144  1  0.71877000  0.22796000  0.63653000  1.0
  C  C145  1  0.72776000  0.22407000  0.57926000  1.0
  C  C146  1  0.69505000  0.19459000  0.54717000  1.0
  C  C147  1  0.70535000  0.19101000  0.49416000  1.0
  C  C148  1  0.77085000  0.24975000  0.55787000  1.0
  C  C149  1  0.78097000  0.24643000  0.50502000  1.0
  C  C150  1  0.75915000  0.21487000  0.41579000  1.0
  C  C151  1  0.74826000  0.21707000  0.47285000  1.0
  C  C152  1  0.28123000  0.27204000  0.13653000  1.0
  C  C153  1  0.27224000  0.27593000  0.07926000  1.0
  C  C154  1  0.30495000  0.30541000  0.04717000  1.0
  C  C155  1  0.29465000  0.30899000  0.99416000  1.0
  C  C156  1  0.22915000  0.25025000  0.05787000  1.0
  C  C157  1  0.21903000  0.25357000  0.00502000  1.0
  C  C158  1  0.24085000  0.28513000  0.91579000  1.0
  C  C159  1  0.25174000  0.28293000  0.97285000  1.0
  C  C160  1  0.77204000  0.86347000  0.21877000  1.0
  C  C161  1  0.77593000  0.92074000  0.22776000  1.0
  C  C162  1  0.80541000  0.95283000  0.19505000  1.0
  C  C163  1  0.80899000  0.00584000  0.20535000  1.0
  C  C164  1  0.75025000  0.94213000  0.27085000  1.0
  C  C165  1  0.75357000  0.99498000  0.28097000  1.0
  C  C166  1  0.78513000  0.08421000  0.25915000  1.0
  C  C167  1  0.78293000  0.02715000  0.24826000  1.0
  C  C168  1  0.72796000  0.36347000  0.78123000  1.0
  C  C169  1  0.72407000  0.42074000  0.77224000  1.0
  C  C170  1  0.69459000  0.45283000  0.80495000  1.0
  C  C171  1  0.69101000  0.50584000  0.79465000  1.0
  C  C172  1  0.74975000  0.44213000  0.72915000  1.0
  C  C173  1  0.74643000  0.49498000  0.71903000  1.0
  C  C174  1  0.71487000  0.58421000  0.74085000  1.0
  C  C175  1  0.71707000  0.52715000  0.75174000  1.0
  C  C176  1  0.22796000  0.63653000  0.71877000  1.0
  C  C177  1  0.22407000  0.57926000  0.72776000  1.0
  C  C178  1  0.19459000  0.54717000  0.69505000  1.0
  C  C179  1  0.19101000  0.49416000  0.70536000  1.0
  C  C180  1  0.24975000  0.55787000  0.77085000  1.0
  C  C181  1  0.24643000  0.50502000  0.78097000  1.0
  C  C182  1  0.21487000  0.41579000  0.75915000  1.0
  C  C183  1  0.21707000  0.47285000  0.74826000  1.0
  C  C184  1  0.27204000  0.13653000  0.28123000  1.0
  C  C185  1  0.27593000  0.07926000  0.27224000  1.0
  C  C186  1  0.30541000  0.04717000  0.30495000  1.0
  C  C187  1  0.30899000  0.99416000  0.29464000  1.0
  C  C188  1  0.25025000  0.05787000  0.22915000  1.0
  C  C189  1  0.25357000  0.00502000  0.21903000  1.0
  C  C190  1  0.28512000  0.91579000  0.24085000  1.0
  C  C191  1  0.28293000  0.97285000  0.25174000  1.0
  C  C192  1  0.86347000  0.21877000  0.77205000  1.0
  C  C193  1  0.92074000  0.22776000  0.77593000  1.0
  C  C194  1  0.95283000  0.19505000  0.80541000  1.0
  C  C195  1  0.00584000  0.20535000  0.80899000  1.0
  C  C196  1  0.94213000  0.27085000  0.75025000  1.0
  C  C197  1  0.99498000  0.28097000  0.75357000  1.0
  C  C198  1  0.08421000  0.25915000  0.78513000  1.0
  C  C199  1  0.02715000  0.24826000  0.78293000  1.0
  C  C200  1  0.36347000  0.78123000  0.72796000  1.0
  C  C201  1  0.42074000  0.77224000  0.72407000  1.0
  C  C202  1  0.45283000  0.80495000  0.69459000  1.0
  C  C203  1  0.50584000  0.79464000  0.69101000  1.0
  C  C204  1  0.44213000  0.72915000  0.74975000  1.0
  C  C205  1  0.49498000  0.71903000  0.74643000  1.0
  C  C206  1  0.58421000  0.74085000  0.71487000  1.0
  C  C207  1  0.52715000  0.75174000  0.71707000  1.0
  C  C208  1  0.63653000  0.71877000  0.22796000  1.0
  C  C209  1  0.57926000  0.72776000  0.22407000  1.0
  C  C210  1  0.54717000  0.69505000  0.19459000  1.0
  C  C211  1  0.49416000  0.70536000  0.19101000  1.0
  C  C212  1  0.55787000  0.77085000  0.24975000  1.0
  C  C213  1  0.50502000  0.78097000  0.24643000  1.0
  C  C214  1  0.41579000  0.75915000  0.21487000  1.0
  C  C215  1  0.47285000  0.74826000  0.21707000  1.0
  C  C216  1  0.13653000  0.28123000  0.27204000  1.0
  C  C217  1  0.07926000  0.27224000  0.27593000  1.0
  C  C218  1  0.04717000  0.30495000  0.30541000  1.0
  C  C219  1  0.99416000  0.29465000  0.30899000  1.0
  C  C220  1  0.05787000  0.22915000  0.25025000  1.0
  C  C221  1  0.00502000  0.21903000  0.25357000  1.0
  C  C222  1  0.91579000  0.24085000  0.28513000  1.0
  C  C223  1  0.97285000  0.25174000  0.28293000  1.0
  C  C224  1  0.78123000  0.22796000  0.13653000  1.0
  C  C225  1  0.77224000  0.22407000  0.07926000  1.0
  C  C226  1  0.80495000  0.19459000  0.04717000  1.0
  C  C227  1  0.79464000  0.19101000  0.99415000  1.0
  C  C228  1  0.72915000  0.24975000  0.05787000  1.0
  C  C229  1  0.71903000  0.24643000  0.00502000  1.0
  C  C230  1  0.74085000  0.21487000  0.91579000  1.0
  C  C231  1  0.75174000  0.21707000  0.97285000  1.0
  C  C232  1  0.21877000  0.27204000  0.63653000  1.0
  C  C233  1  0.22776000  0.27593000  0.57926000  1.0
  C  C234  1  0.19505000  0.30541000  0.54717000  1.0
  C  C235  1  0.20535000  0.30899000  0.49416000  1.0
  C  C236  1  0.27085000  0.25025000  0.55787000  1.0
  C  C237  1  0.28097000  0.25357000  0.50502000  1.0
  C  C238  1  0.25915000  0.28512000  0.41579000  1.0
  C  C239  1  0.24826000  0.28293000  0.47285000  1.0
  C  C240  1  0.28123000  0.77204000  0.36347000  1.0
  C  C241  1  0.27224000  0.77593000  0.42074000  1.0
  C  C242  1  0.30495000  0.80541000  0.45283000  1.0
  C  C243  1  0.29465000  0.80898000  0.50584000  1.0
  C  C244  1  0.22915000  0.75025000  0.44213000  1.0
  C  C245  1  0.21903000  0.75357000  0.49498000  1.0
  C  C246  1  0.24085000  0.78513000  0.58421000  1.0
  C  C247  1  0.25174000  0.78293000  0.52715000  1.0
  C  C248  1  0.71877000  0.72796000  0.86347000  1.0
  C  C249  1  0.72776000  0.72407000  0.92074000  1.0
  C  C250  1  0.69505000  0.69459000  0.95283000  1.0
  C  C251  1  0.70535000  0.69102000  0.00584000  1.0
  C  C252  1  0.77085000  0.74975000  0.94213000  1.0
  C  C253  1  0.78097000  0.74643000  0.99498000  1.0
  C  C254  1  0.75915000  0.71488000  0.08421000  1.0
  C  C255  1  0.74826000  0.71707000  0.02715000  1.0
  C  C256  1  0.22796000  0.13653000  0.78123000  1.0
  C  C257  1  0.22407000  0.07926000  0.77224000  1.0
  C  C258  1  0.19459000  0.04717000  0.80495000  1.0
  C  C259  1  0.19101000  0.99416000  0.79464000  1.0
  C  C260  1  0.24975000  0.05787000  0.72915000  1.0
  C  C261  1  0.24643000  0.00502000  0.71903000  1.0
  C  C262  1  0.21487000  0.91579000  0.74085000  1.0
  C  C263  1  0.21707000  0.97285000  0.75174000  1.0
  C  C264  1  0.27204000  0.63653000  0.21877000  1.0
  C  C265  1  0.27593000  0.57926000  0.22776000  1.0
  C  C266  1  0.30541000  0.54717000  0.19505000  1.0
  C  C267  1  0.30899000  0.49416000  0.20535000  1.0
  C  C268  1  0.25025000  0.55787000  0.27085000  1.0
  C  C269  1  0.25357000  0.50502000  0.28097000  1.0
  C  C270  1  0.28513000  0.41579000  0.25915000  1.0
  C  C271  1  0.28293000  0.47285000  0.24826000  1.0
  C  C272  1  0.77204000  0.36347000  0.28123000  1.0
  C  C273  1  0.77593000  0.42074000  0.27224000  1.0
  C  C274  1  0.80541000  0.45283000  0.30495000  1.0
  C  C275  1  0.80899000  0.50584000  0.29465000  1.0
  C  C276  1  0.75025000  0.44213000  0.22915000  1.0
  C  C277  1  0.75357000  0.49498000  0.21903000  1.0
  C  C278  1  0.78512000  0.58421000  0.24085000  1.0
  C  C279  1  0.78293000  0.52715000  0.25174000  1.0
  C  C280  1  0.72796000  0.86347000  0.71877000  1.0
  C  C281  1  0.72407000  0.92074000  0.72776000  1.0
  C  C282  1  0.69459000  0.95283000  0.69505000  1.0
  C  C283  1  0.69101000  0.00584000  0.70535000  1.0
  C  C284  1  0.74975000  0.94213000  0.77085000  1.0
  C  C285  1  0.74643000  0.99498000  0.78097000  1.0
  C  C286  1  0.71488000  0.08421000  0.75915000  1.0
  C  C287  1  0.71707000  0.02715000  0.74826000  1.0
  C  C288  1  0.13653000  0.78123000  0.22796000  1.0
  C  C289  1  0.07926000  0.77224000  0.22407000  1.0
  C  C290  1  0.04717000  0.80495000  0.19459000  1.0
  C  C291  1  0.99416000  0.79465000  0.19101000  1.0
  C  C292  1  0.05787000  0.72915000  0.24975000  1.0
  C  C293  1  0.00502000  0.71903000  0.24643000  1.0
  C  C294  1  0.91579000  0.74085000  0.21487000  1.0
  C  C295  1  0.97285000  0.75174000  0.21707000  1.0
  C  C296  1  0.63653000  0.21877000  0.27204000  1.0
  C  C297  1  0.57926000  0.22776000  0.27593000  1.0
  C  C298  1  0.54717000  0.19505000  0.30541000  1.0
  C  C299  1  0.49416000  0.20535000  0.30899000  1.0
  C  C300  1  0.55787000  0.27085000  0.25025000  1.0
  C  C301  1  0.50502000  0.28097000  0.25357000  1.0
  C  C302  1  0.41579000  0.25915000  0.28513000  1.0
  C  C303  1  0.47285000  0.24826000  0.28293000  1.0
  C  C304  1  0.36347000  0.28123000  0.77204000  1.0
  C  C305  1  0.42074000  0.27224000  0.77593000  1.0
  C  C306  1  0.45283000  0.30495000  0.80541000  1.0
  C  C307  1  0.50584000  0.29465000  0.80899000  1.0
  C  C308  1  0.44213000  0.22915000  0.75025000  1.0
  C  C309  1  0.49498000  0.21903000  0.75357000  1.0
  C  C310  1  0.58421000  0.24085000  0.78512000  1.0
  C  C311  1  0.52715000  0.25174000  0.78293000  1.0
  C  C312  1  0.86347000  0.71877000  0.72796000  1.0
  C  C313  1  0.92074000  0.72776000  0.72407000  1.0
  C  C314  1  0.95283000  0.69505000  0.69459000  1.0
  C  C315  1  0.00584000  0.70535000  0.69101000  1.0
  C  C316  1  0.94213000  0.77085000  0.74975000  1.0
  C  C317  1  0.99498000  0.78097000  0.74643000  1.0
  C  C318  1  0.08421000  0.75915000  0.71488000  1.0
  C  C319  1  0.02715000  0.74826000  0.71707000  1.0
  O  O320  1  0.18310000  0.79991000  0.84316000  1.0
  O  O321  1  0.23454000  0.81898000  0.11076000  1.0
  O  O322  1  0.29228000  0.75243000  0.10156000  1.0
  O  O323  1  0.24854000  0.74069000  0.83915000  1.0
  O  O324  1  0.81690000  0.70009000  0.34316000  1.0
  O  O325  1  0.76546000  0.68102000  0.61076000  1.0
  O  O326  1  0.70773000  0.74757000  0.60156000  1.0
  O  O327  1  0.75146000  0.75931000  0.33915000  1.0
  O  O328  1  0.68309000  0.20009000  0.65684000  1.0
  O  O329  1  0.73454000  0.18102000  0.38924000  1.0
  O  O330  1  0.79228000  0.24757000  0.39844000  1.0
  O  O331  1  0.74854000  0.25931000  0.66085000  1.0
  O  O332  1  0.31690000  0.29991000  0.15684000  1.0
  O  O333  1  0.26546000  0.31898000  0.88924000  1.0
  O  O334  1  0.20773000  0.25243000  0.89844000  1.0
  O  O335  1  0.25146000  0.24069000  0.16085000  1.0
  O  O336  1  0.79991000  0.84316000  0.18309000  1.0
  O  O337  1  0.81898000  0.11076000  0.23454000  1.0
  O  O338  1  0.75243000  0.10156000  0.29227000  1.0
  O  O339  1  0.74069000  0.83915000  0.24854000  1.0
  O  O340  1  0.70009000  0.34316000  0.81690000  1.0
  O  O341  1  0.68102000  0.61076000  0.76546000  1.0
  O  O342  1  0.74757000  0.60156000  0.70773000  1.0
  O  O343  1  0.75931000  0.33915000  0.75146000  1.0
  O  O344  1  0.20009000  0.65684000  0.68309000  1.0
  O  O345  1  0.18102000  0.38924000  0.73454000  1.0
  O  O346  1  0.24757000  0.39844000  0.79228000  1.0
  O  O347  1  0.25931000  0.66085000  0.74854000  1.0
  O  O348  1  0.29991000  0.15684000  0.31690000  1.0
  O  O349  1  0.31898000  0.88924000  0.26546000  1.0
  O  O350  1  0.25243000  0.89844000  0.20773000  1.0
  O  O351  1  0.24069000  0.16085000  0.25146000  1.0
  O  O352  1  0.84316000  0.18309000  0.79991000  1.0
  O  O353  1  0.11076000  0.23454000  0.81898000  1.0
  O  O354  1  0.10156000  0.29227000  0.75243000  1.0
  O  O355  1  0.83915000  0.24854000  0.74069000  1.0
  O  O356  1  0.34316000  0.81691000  0.70009000  1.0
  O  O357  1  0.61076000  0.76546000  0.68102000  1.0
  O  O358  1  0.60156000  0.70772000  0.74757000  1.0
  O  O359  1  0.33915000  0.75146000  0.75931000  1.0
  O  O360  1  0.65684000  0.68310000  0.20009000  1.0
  O  O361  1  0.38924000  0.73454000  0.18102000  1.0
  O  O362  1  0.39844000  0.79227000  0.24757000  1.0
  O  O363  1  0.66085000  0.74854000  0.25931000  1.0
  O  O364  1  0.15684000  0.31690000  0.29991000  1.0
  O  O365  1  0.88924000  0.26546000  0.31898000  1.0
  O  O366  1  0.89844000  0.20773000  0.25243000  1.0
  O  O367  1  0.16085000  0.25146000  0.24069000  1.0
  O  O368  1  0.81691000  0.20009000  0.15684000  1.0
  O  O369  1  0.76546000  0.18102000  0.88924000  1.0
  O  O370  1  0.70773000  0.24757000  0.89844000  1.0
  O  O371  1  0.75146000  0.25931000  0.16084000  1.0
  O  O372  1  0.18310000  0.29991000  0.65684000  1.0
  O  O373  1  0.23454000  0.31898000  0.38923000  1.0
  O  O374  1  0.29227000  0.25243000  0.39844000  1.0
  O  O375  1  0.24854000  0.24069000  0.66085000  1.0
  O  O376  1  0.31690000  0.79991000  0.34316000  1.0
  O  O377  1  0.26546000  0.81898000  0.61076000  1.0
  O  O378  1  0.20773000  0.75243000  0.60156000  1.0
  O  O379  1  0.25146000  0.74069000  0.33915000  1.0
  O  O380  1  0.68310000  0.70009000  0.84316000  1.0
  O  O381  1  0.73454000  0.68102000  0.11077000  1.0
  O  O382  1  0.79227000  0.74758000  0.10156000  1.0
  O  O383  1  0.74854000  0.75931000  0.83915000  1.0
  O  O384  1  0.20009000  0.15684000  0.81690000  1.0
  O  O385  1  0.18102000  0.88924000  0.76546000  1.0
  O  O386  1  0.24757000  0.89844000  0.70773000  1.0
  O  O387  1  0.25931000  0.16085000  0.75146000  1.0
  O  O388  1  0.29991000  0.65684000  0.18310000  1.0
  O  O389  1  0.31898000  0.38924000  0.23454000  1.0
  O  O390  1  0.25243000  0.39844000  0.29227000  1.0
  O  O391  1  0.24069000  0.66085000  0.24854000  1.0
  O  O392  1  0.79991000  0.34316000  0.31691000  1.0
  O  O393  1  0.81898000  0.61076000  0.26546000  1.0
  O  O394  1  0.75243000  0.60156000  0.20773000  1.0
  O  O395  1  0.74069000  0.33915000  0.25146000  1.0
  O  O396  1  0.70009000  0.84316000  0.68310000  1.0
  O  O397  1  0.68102000  0.11076000  0.73454000  1.0
  O  O398  1  0.74757000  0.10155000  0.79228000  1.0
  O  O399  1  0.75931000  0.83915000  0.74854000  1.0
  O  O400  1  0.15684000  0.81690000  0.20009000  1.0
  O  O401  1  0.88924000  0.76545000  0.18102000  1.0
  O  O402  1  0.89844000  0.70773000  0.24757000  1.0
  O  O403  1  0.16085000  0.75146000  0.25931000  1.0
  O  O404  1  0.65684000  0.18309000  0.29991000  1.0
  O  O405  1  0.38924000  0.23454000  0.31898000  1.0
  O  O406  1  0.39844000  0.29228000  0.25243000  1.0
  O  O407  1  0.66085000  0.24854000  0.24069000  1.0
  O  O408  1  0.34316000  0.31691000  0.79991000  1.0
  O  O409  1  0.61077000  0.26546000  0.81898000  1.0
  O  O410  1  0.60156000  0.20773000  0.75242000  1.0
  O  O411  1  0.33915000  0.25146000  0.74069000  1.0
  O  O412  1  0.84316000  0.68309000  0.70009000  1.0
  O  O413  1  0.11076000  0.73454000  0.68102000  1.0
  O  O414  1  0.10156000  0.79227000  0.74757000  1.0
  O  O415  1  0.83915000  0.74854000  0.75931000  1.0
  O  O416  1  0.22185000  0.77815000  0.72186000  1.0
  O  O417  1  0.77814000  0.72186000  0.22185000  1.0
  O  O418  1  0.72185000  0.22185000  0.77815000  1.0
  O  O419  1  0.27815000  0.27814000  0.27814000  1.0
  O  O420  1  0.77814000  0.22186000  0.27815000  1.0
  O  O421  1  0.22185000  0.27815000  0.77814000  1.0
  O  O422  1  0.27814000  0.77814000  0.22186000  1.0
  O  O423  1  0.72185000  0.72186000  0.72185000  1.0
