# generated using pymatgen
data_ZnPH3C4N2O3
_symmetry_space_group_name_H-M   'P 1'
_cell_length_a   7.56048000
_cell_length_b   7.91265000
_cell_length_c   10.39140000
_cell_angle_alpha   90.00000000
_cell_angle_beta   100.40400000
_cell_angle_gamma   89.99990000
_symmetry_Int_Tables_number   1
_chemical_formula_structural   ZnPH3C4N2O3
_chemical_formula_sum   'Zn4 P4 H12 C16 N8 O12'
_cell_volume   611.42859391
_cell_formula_units_Z   4
loop_
 _symmetry_equiv_pos_site_id
 _symmetry_equiv_pos_as_xyz
  1  'x, y, z'
loop_
 _atom_site_type_symbol
 _atom_site_label
 _atom_site_symmetry_multiplicity
 _atom_site_fract_x
 _atom_site_fract_y
 _atom_site_fract_z
 _atom_site_occupancy
  Zn  Zn0  1  0.35674000  0.28085000  0.39416000  1.0
  Zn  Zn1  1  0.14326000  0.78085000  0.10584000  1.0
  Zn  Zn2  1  0.64326000  0.71915000  0.60584000  1.0
  Zn  Zn3  1  0.85674000  0.21915000  0.89416000  1.0
  P  P4  1  0.20739000  0.18352000  0.10726000  1.0
  P  P5  1  0.29261000  0.68352000  0.39274000  1.0
  P  P6  1  0.79261000  0.81648000  0.89274000  1.0
  P  P7  1  0.70739000  0.31648000  0.60726000  1.0
  H  H8  1  0.47437000  0.21693000  0.92197000  1.0
  H  H9  1  0.02563000  0.71694000  0.57803000  1.0
  H  H10  1  0.52563000  0.78307000  0.07803000  1.0
  H  H11  1  0.97437000  0.28307000  0.42197000  1.0
  H  H12  1  0.90658000  0.44688000  0.15730000  1.0
  H  H13  1  0.59342000  0.94688000  0.34270000  1.0
  H  H14  1  0.09342000  0.55312000  0.84270000  1.0
  H  H15  1  0.40658000  0.05312000  0.65730000  1.0
  H  H16  1  0.72571000  0.46391000  0.34441000  1.0
  H  H17  1  0.77429000  0.96391000  0.15559000  1.0
  H  H18  1  0.27430000  0.53608000  0.65559000  1.0
  H  H19  1  0.22571000  0.03609000  0.84441000  1.0
  C  C20  1  0.43183000  0.27515000  0.11918000  1.0
  C  C21  1  0.06817000  0.77515000  0.38082000  1.0
  C  C22  1  0.56817000  0.72484000  0.88082000  1.0
  C  C23  1  0.93183000  0.22484000  0.61918000  1.0
  C  C24  1  0.52947000  0.27141000  0.01697000  1.0
  C  C25  1  0.97053000  0.77141000  0.48303000  1.0
  C  C26  1  0.47053000  0.72859000  0.98303000  1.0
  C  C27  1  0.02947000  0.22859000  0.51697000  1.0
  C  C28  1  0.76932000  0.40053000  0.14756000  1.0
  C  C29  1  0.73068000  0.90053000  0.35244000  1.0
  C  C30  1  0.23069000  0.59947000  0.85244000  1.0
  C  C31  1  0.26932000  0.09947000  0.64756000  1.0
  C  C32  1  0.67202000  0.40796000  0.24922000  1.0
  C  C33  1  0.82798000  0.90796000  0.25078000  1.0
  C  C34  1  0.32798000  0.59204000  0.75078000  1.0
  C  C35  1  0.17202000  0.09204000  0.74922000  1.0
  N  N36  1  0.50715000  0.33952000  0.23597000  1.0
  N  N37  1  0.99285000  0.83951000  0.26403000  1.0
  N  N38  1  0.49286000  0.66048000  0.76403000  1.0
  N  N39  1  0.00715000  0.16049000  0.73597000  1.0
  N  N40  1  0.69869000  0.32807000  0.03279000  1.0
  N  N41  1  0.80131000  0.82807000  0.46721000  1.0
  N  N42  1  0.30131000  0.67193000  0.96721000  1.0
  N  N43  1  0.19869000  0.17193000  0.53279000  1.0
  O  O44  1  0.17071000  0.18927000  0.24734000  1.0
  O  O45  1  0.32929000  0.68927000  0.25266000  1.0
  O  O46  1  0.82929000  0.81073000  0.75266000  1.0
  O  O47  1  0.67071000  0.31073000  0.74734000  1.0
  O  O48  1  0.08287000  0.29517000  0.00973000  1.0
  O  O49  1  0.41713000  0.79517000  0.49027000  1.0
  O  O50  1  0.91714000  0.70484000  0.99027000  1.0
  O  O51  1  0.58287000  0.20483000  0.50973000  1.0
  O  O52  1  0.22644000  0.00465000  0.05405000  1.0
  O  O53  1  0.27355000  0.50465000  0.44595000  1.0
  O  O54  1  0.77355000  0.99536000  0.94595000  1.0
  O  O55  1  0.72645000  0.49536000  0.55405000  1.0
