# generated using pymatgen
data_Cd3H6C3(N9Cl)2
_symmetry_space_group_name_H-M   'P 1'
_cell_length_a   6.95044000
_cell_length_b   13.57660000
_cell_length_c   16.83600000
_cell_angle_alpha   90.00000000
_cell_angle_beta   90.00000000
_cell_angle_gamma   90.00000000
_symmetry_Int_Tables_number   1
_chemical_formula_structural   Cd3H6C3(N9Cl)2
_chemical_formula_sum   'Cd12 H24 C12 N72 Cl8'
_cell_volume   1588.70125460
_cell_formula_units_Z   4
loop_
 _symmetry_equiv_pos_site_id
 _symmetry_equiv_pos_as_xyz
  1  'x, y, z'
loop_
 _atom_site_type_symbol
 _atom_site_label
 _atom_site_symmetry_multiplicity
 _atom_site_fract_x
 _atom_site_fract_y
 _atom_site_fract_z
 _atom_site_occupancy
  Cd  Cd0  1  0.39169000  0.79820000  0.61376000  1.0
  Cd  Cd1  1  0.89168000  0.20180000  0.38624000  1.0
  Cd  Cd2  1  0.89168000  0.70180000  0.11376000  1.0
  Cd  Cd3  1  0.39168000  0.29820000  0.88624000  1.0
  Cd  Cd4  1  0.39300000  0.52999000  0.72813000  1.0
  Cd  Cd5  1  0.89299000  0.47001000  0.27187000  1.0
  Cd  Cd6  1  0.89299000  0.97001000  0.22813000  1.0
  Cd  Cd7  1  0.39299000  0.02999000  0.77186000  1.0
  Cd  Cd8  1  0.65738000  0.07190000  0.56587000  1.0
  Cd  Cd9  1  0.15739000  0.92810000  0.43413000  1.0
  Cd  Cd10  1  0.15739000  0.42810000  0.06587000  1.0
  Cd  Cd11  1  0.65740000  0.57190000  0.93413000  1.0
  H  H12  1  0.77256000  0.73717000  0.74771000  1.0
  H  H13  1  0.27256000  0.26283000  0.25229000  1.0
  H  H14  1  0.27256000  0.76283000  0.24771000  1.0
  H  H15  1  0.77256000  0.23717000  0.75229000  1.0
  H  H16  1  0.01803000  0.74012000  0.74751000  1.0
  H  H17  1  0.51802000  0.25988000  0.25249000  1.0
  H  H18  1  0.51803000  0.75988000  0.24750000  1.0
  H  H19  1  0.01803000  0.24012000  0.75249000  1.0
  H  H20  1  0.01802000  0.45330000  0.59497000  1.0
  H  H21  1  0.51802000  0.54670000  0.40503000  1.0
  H  H22  1  0.51802000  0.04671000  0.09497000  1.0
  H  H23  1  0.01802000  0.95330000  0.90503000  1.0
  H  H24  1  0.77623000  0.45322000  0.59211000  1.0
  H  H25  1  0.27623000  0.54678000  0.40789000  1.0
  H  H26  1  0.27623000  0.04678000  0.09211000  1.0
  H  H27  1  0.77623000  0.95322000  0.90789000  1.0
  H  H28  1  0.46005000  0.92835000  0.95162000  1.0
  H  H29  1  0.96005000  0.07165000  0.04838000  1.0
  H  H30  1  0.96005000  0.57165000  0.45162000  1.0
  H  H31  1  0.46005000  0.42835000  0.54838000  1.0
  H  H32  1  0.56778000  0.82496000  0.98746000  1.0
  H  H33  1  0.06778000  0.17504000  0.01254000  1.0
  H  H34  1  0.06778000  0.67504000  0.48746000  1.0
  H  H35  1  0.56778000  0.32496000  0.51254000  1.0
  C  C36  1  0.89425000  0.51153000  0.69134000  1.0
  C  C37  1  0.39424000  0.48847000  0.30866000  1.0
  C  C38  1  0.39425000  0.98847000  0.19134000  1.0
  C  C39  1  0.89425000  0.01153000  0.80866000  1.0
  C  C40  1  0.88989000  0.79674000  0.64865000  1.0
  C  C41  1  0.38988000  0.20326000  0.35136000  1.0
  C  C42  1  0.38988000  0.70326000  0.14864000  1.0
  C  C43  1  0.88989000  0.29674000  0.85135000  1.0
  C  C44  1  0.48586000  0.81622000  0.87182000  1.0
  C  C45  1  0.98586000  0.18379000  0.12818000  1.0
  C  C46  1  0.98586000  0.68378000  0.37182000  1.0
  C  C47  1  0.48586000  0.31622000  0.62818000  1.0
  N  N48  1  0.05356000  0.52998000  0.73564000  1.0
  N  N49  1  0.55356000  0.47002000  0.26437000  1.0
  N  N50  1  0.55357000  0.97002000  0.23563000  1.0
  N  N51  1  0.05356000  0.02998000  0.76436000  1.0
  N  N52  1  0.73536000  0.52350000  0.73661000  1.0
  N  N53  1  0.23536000  0.47650000  0.26339000  1.0
  N  N54  1  0.23536000  0.97650000  0.23661000  1.0
  N  N55  1  0.73535000  0.02350000  0.76339000  1.0
  N  N56  1  0.04559000  0.82040000  0.60442000  1.0
  N  N57  1  0.54559000  0.17960000  0.39558000  1.0
  N  N58  1  0.54559000  0.67960000  0.10442000  1.0
  N  N59  1  0.04560000  0.32040000  0.89558000  1.0
  N  N60  1  0.39065000  0.78406000  0.75376000  1.0
  N  N61  1  0.89065000  0.21594000  0.24624000  1.0
  N  N62  1  0.89065000  0.71594000  0.25376000  1.0
  N  N63  1  0.39064000  0.28406000  0.74624000  1.0
  N  N64  1  0.72969000  0.83702000  0.61654000  1.0
  N  N65  1  0.22969000  0.16298000  0.38346000  1.0
  N  N66  1  0.22969000  0.66298000  0.11654000  1.0
  N  N67  1  0.72969000  0.33702000  0.88346000  1.0
  N  N68  1  0.41697000  0.85883000  0.80523000  1.0
  N  N69  1  0.91697000  0.14117000  0.19477000  1.0
  N  N70  1  0.91697000  0.64117000  0.30523000  1.0
  N  N71  1  0.41696000  0.35883000  0.69476000  1.0
  N  N72  1  0.38640000  0.82313000  0.47775000  1.0
  N  N73  1  0.88639000  0.17686000  0.52225000  1.0
  N  N74  1  0.88640000  0.67686000  0.97775000  1.0
  N  N75  1  0.38640000  0.32314000  0.02225000  1.0
  N  N76  1  0.99027000  0.55534000  0.80847000  1.0
  N  N77  1  0.49027000  0.44466000  0.19153000  1.0
  N  N78  1  0.49028000  0.94466000  0.30847000  1.0
  N  N79  1  0.99027000  0.05534000  0.69153000  1.0
  N  N80  1  0.89471000  0.74136000  0.71515000  1.0
  N  N81  1  0.39470000  0.25864000  0.28485000  1.0
  N  N82  1  0.39470000  0.75864000  0.21515000  1.0
  N  N83  1  0.89471000  0.24136000  0.78485000  1.0
  N  N84  1  0.80392000  0.55131000  0.80880000  1.0
  N  N85  1  0.30392000  0.44869000  0.19120000  1.0
  N  N86  1  0.30392000  0.94869000  0.30880000  1.0
  N  N87  1  0.80391000  0.05131000  0.69120000  1.0
  N  N88  1  0.79108000  0.89038000  0.55351000  1.0
  N  N89  1  0.29108000  0.10963000  0.44649000  1.0
  N  N90  1  0.29108000  0.60962000  0.05351000  1.0
  N  N91  1  0.79108000  0.39037000  0.94649000  1.0
  N  N92  1  0.97714000  0.88029000  0.54696000  1.0
  N  N93  1  0.47714000  0.11971000  0.45304000  1.0
  N  N94  1  0.47714000  0.61970000  0.04696000  1.0
  N  N95  1  0.97714000  0.38029000  0.95304000  1.0
  N  N96  1  0.89644000  0.48902000  0.61241000  1.0
  N  N97  1  0.39643000  0.51098000  0.38759000  1.0
  N  N98  1  0.39644000  0.01098000  0.11241000  1.0
  N  N99  1  0.89644000  0.98902000  0.88759000  1.0
  N  N100  1  0.50607000  0.71820000  0.86117000  1.0
  N  N101  1  0.00607000  0.28180000  0.13883000  1.0
  N  N102  1  0.00607000  0.78180000  0.36117000  1.0
  N  N103  1  0.50606000  0.21820000  0.63883000  1.0
  N  N104  1  0.44442000  0.70088000  0.78688000  1.0
  N  N105  1  0.94441000  0.29912000  0.21312000  1.0
  N  N106  1  0.94442000  0.79912000  0.28688000  1.0
  N  N107  1  0.44441000  0.20088000  0.71312000  1.0
  N  N108  1  0.47748000  0.77293000  0.43202000  1.0
  N  N109  1  0.97747000  0.22706000  0.56798000  1.0
  N  N110  1  0.97747000  0.72706000  0.93202000  1.0
  N  N111  1  0.47747000  0.27294000  0.06798000  1.0
  N  N112  1  0.53782000  0.86664000  0.93881000  1.0
  N  N113  1  0.03782000  0.13336000  0.06119000  1.0
  N  N114  1  0.03782000  0.63336000  0.43881000  1.0
  N  N115  1  0.53782000  0.36664000  0.56119000  1.0
  N  N116  1  0.56485000  0.72393000  0.38850000  1.0
  N  N117  1  0.06483000  0.27606000  0.61150000  1.0
  N  N118  1  0.06484000  0.77606000  0.88850000  1.0
  N  N119  1  0.56484000  0.22393000  0.11150000  1.0
  Cl  Cl120  1  0.39617000  0.60725000  0.58698000  1.0
  Cl  Cl121  1  0.89617000  0.39275000  0.41302000  1.0
  Cl  Cl122  1  0.89618000  0.89275000  0.08698000  1.0
  Cl  Cl123  1  0.39615000  0.10724000  0.91302000  1.0
  Cl  Cl124  1  0.35569000  0.99122000  0.61848000  1.0
  Cl  Cl125  1  0.85570000  0.00878000  0.38152000  1.0
  Cl  Cl126  1  0.85570000  0.50878000  0.11848000  1.0
  Cl  Cl127  1  0.35569000  0.49122000  0.88152000  1.0
