# generated using pymatgen
data_BaH6C2(N2O)4
_symmetry_space_group_name_H-M   'P 1'
_cell_length_a   6.29155000
_cell_length_b   8.42007261
_cell_length_c   9.20034000
_cell_angle_alpha   105.94391827
_cell_angle_beta   90.00220000
_cell_angle_gamma   111.92985243
_symmetry_Int_Tables_number   1
_chemical_formula_structural   BaH6C2(N2O)4
_chemical_formula_sum   'Ba2 H12 C4 N16 O8'
_cell_volume   431.84405902
_cell_formula_units_Z   2
loop_
 _symmetry_equiv_pos_site_id
 _symmetry_equiv_pos_as_xyz
  1  'x, y, z'
loop_
 _atom_site_type_symbol
 _atom_site_label
 _atom_site_symmetry_multiplicity
 _atom_site_fract_x
 _atom_site_fract_y
 _atom_site_fract_z
 _atom_site_occupancy
  Ba  Ba0  1  0.85995000  0.00001000  0.25005000  1.0
  Ba  Ba1  1  0.14005000  0.99999000  0.74995000  1.0
  H  H2  1  0.80401000  0.47749000  0.59540000  1.0
  H  H3  1  0.32652000  0.52259000  0.90466000  1.0
  H  H4  1  0.19599000  0.52251000  0.40461000  1.0
  H  H5  1  0.67348000  0.47741000  0.09534000  1.0
  H  H6  1  0.38866000  0.11374000  0.14619000  1.0
  H  H7  1  0.27498000  0.88622000  0.35376000  1.0
  H  H8  1  0.61134000  0.88626000  0.85382000  1.0
  H  H9  1  0.72503000  0.11378000  0.64624000  1.0
  H  H10  1  0.27558000  0.90989000  0.07982000  1.0
  H  H11  1  0.36566000  0.09008000  0.42026000  1.0
  H  H12  1  0.72442000  0.09011000  0.92019000  1.0
  H  H13  1  0.63434000  0.90992000  0.57974000  1.0
  C  C14  1  0.65925000  0.38831000  0.35230000  1.0
  C  C15  1  0.27092000  0.61180000  0.14777000  1.0
  C  C16  1  0.34074000  0.61168000  0.64769000  1.0
  C  C17  1  0.72908000  0.38821000  0.85224000  1.0
  N  N18  1  0.64203000  0.49471000  0.26960000  1.0
  N  N19  1  0.14731000  0.50535000  0.23043000  1.0
  N  N20  1  0.35797000  0.50528000  0.73040000  1.0
  N  N21  1  0.85270000  0.49466000  0.76957000  1.0
  N  N22  1  0.74385000  0.66612000  0.35809000  1.0
  N  N23  1  0.07780000  0.33394000  0.14194000  1.0
  N  N24  1  0.25614000  0.33387000  0.64191000  1.0
  N  N25  1  0.92220000  0.66606000  0.85806000  1.0
  N  N26  1  0.81799000  0.67217000  0.49282000  1.0
  N  N27  1  0.14592000  0.32790000  0.00723000  1.0
  N  N28  1  0.18201000  0.32783000  0.50719000  1.0
  N  N29  1  0.85408000  0.67210000  0.99277000  1.0
  N  N30  1  0.76535000  0.50166000  0.49165000  1.0
  N  N31  1  0.26371000  0.49842000  0.00840000  1.0
  N  N32  1  0.23466000  0.49835000  0.50835000  1.0
  N  N33  1  0.73629000  0.50157000  0.99160000  1.0
  O  O34  1  0.59293000  0.21733000  0.30997000  1.0
  O  O35  1  0.37548000  0.78274000  0.19012000  1.0
  O  O36  1  0.40707000  0.78268000  0.69003000  1.0
  O  O37  1  0.62451000  0.21725000  0.80987000  1.0
  O  O38  1  0.25795000  0.01895000  0.07150000  1.0
  O  O39  1  0.23898000  0.98101000  0.42846000  1.0
  O  O40  1  0.74206000  0.98106000  0.92850000  1.0
  O  O41  1  0.76101000  0.01899000  0.57154000  1.0
