# generated using pymatgen
data_ZnH19C17(NO4)2
_symmetry_space_group_name_H-M   'P 1'
_cell_length_a   9.48853000
_cell_length_b   10.85660000
_cell_length_c   16.06680000
_cell_angle_alpha   89.16650000
_cell_angle_beta   89.53430000
_cell_angle_gamma   89.30360000
_symmetry_Int_Tables_number   1
_chemical_formula_structural   ZnH19C17(NO4)2
_chemical_formula_sum   'Zn2 H38 C34 N4 O16'
_cell_volume   1654.74238324
_cell_formula_units_Z   2
loop_
 _symmetry_equiv_pos_site_id
 _symmetry_equiv_pos_as_xyz
  1  'x, y, z'
loop_
 _atom_site_type_symbol
 _atom_site_label
 _atom_site_symmetry_multiplicity
 _atom_site_fract_x
 _atom_site_fract_y
 _atom_site_fract_z
 _atom_site_occupancy
  Zn  Zn0  1  0.35182000  0.50204000  0.50171000  1.0
  Zn  Zn1  1  0.64624000  0.49570000  0.49743000  1.0
  H  H2  1  0.32728000  0.63842000  0.07069000  1.0
  H  H3  1  0.11496000  0.68435000  0.46552000  1.0
  H  H4  1  0.86814000  0.43435000  0.62549000  1.0
  H  H5  1  0.11780000  0.45084000  0.62933000  1.0
  H  H6  1  0.87664000  0.36873000  0.40421000  1.0
  H  H7  1  0.12630000  0.36014000  0.41387000  1.0
  H  H8  1  0.88147000  0.52470000  0.37219000  1.0
  H  H9  1  0.13169000  0.51159000  0.37215000  1.0
  H  H10  1  0.88139000  0.31663000  0.55040000  1.0
  H  H11  1  0.13106000  0.32475000  0.56076000  1.0
  H  H12  1  0.33465000  0.64197000  0.92743000  1.0
  H  H13  1  0.60176000  0.68494000  0.07880000  1.0
  H  H14  1  0.55342000  0.70086000  0.93708000  1.0
  H  H15  1  0.71812000  0.55792000  0.06570000  1.0
  H  H16  1  0.27520000  0.48258000  0.07279000  1.0
  H  H17  1  0.49111000  0.31020000  0.92187000  1.0
  H  H18  1  0.66297000  0.36789000  0.93321000  1.0
  H  H19  1  0.45000000  0.31294000  0.06572000  1.0
  H  H20  1  0.63214000  0.34093000  0.07678000  1.0
  H  H21  1  0.27081000  0.88910000  0.47689000  1.0
  H  H22  1  0.71519000  0.92037000  0.49544000  1.0
  H  H23  1  0.32530000  0.12299000  0.40227000  1.0
  H  H24  1  0.26904000  0.09417000  0.50657000  1.0
  H  H25  1  0.57660000  0.08872000  0.36760000  1.0
  H  H26  1  0.32874000  0.81549000  0.62156000  1.0
  H  H27  1  0.34174000  0.94531000  0.67323000  1.0
  H  H28  1  0.68609000  0.84096000  0.60310000  1.0
  H  H29  1  0.59999000  0.88061000  0.68810000  1.0
  H  H30  1  0.92864000  0.53763000  0.90264000  1.0
  H  H31  1  0.15563000  0.31650000  0.90942000  1.0
  H  H32  1  0.32050000  0.76797000  0.28321000  1.0
  H  H33  1  0.85909000  0.83035000  0.31811000  1.0
  H  H34  1  0.70881000  0.12072000  0.44208000  1.0
  H  H35  1  0.45539000  0.11079000  0.62595000  1.0
  H  H36  1  0.63215000  0.07904000  0.59597000  1.0
  H  H37  1  0.87262000  0.64442000  0.58257000  1.0
  H  H38  1  0.12139000  0.65921000  0.57441000  1.0
  H  H39  1  0.86634000  0.68681000  0.47562000  1.0
  C  C40  1  0.49511000  0.73781000  0.49094000  1.0
  C  C41  1  0.60999000  0.07185000  0.43220000  1.0
  C  C42  1  0.48889000  0.92373000  0.58122000  1.0
  C  C43  1  0.49365000  0.87870000  0.48718000  1.0
  C  C44  1  0.49394000  0.11951000  0.49175000  1.0
  C  C45  1  0.50389000  0.50507000  0.66184000  1.0
  C  C46  1  0.52169000  0.06385000  0.57929000  1.0
  C  C47  1  0.91390000  0.62207000  0.52046000  1.0
  C  C48  1  0.07626000  0.62529000  0.51656000  1.0
  C  C49  1  0.91810000  0.40874000  0.56629000  1.0
  C  C50  1  0.08079000  0.41519000  0.56993000  1.0
  C  C51  1  0.53523000  0.37551000  0.04720000  1.0
  C  C52  1  0.92159000  0.45850000  0.41872000  1.0
  C  C53  1  0.08399000  0.45397000  0.42108000  1.0
  C  C54  1  0.49734000  0.25950000  0.49761000  1.0
  C  C55  1  0.50017000  0.49712000  0.33682000  1.0
  C  C56  1  0.35473000  0.54787000  0.95059000  1.0
  C  C57  1  0.60385000  0.61198000  0.95256000  1.0
  C  C58  1  0.61439000  0.59552000  0.04836000  1.0
  C  C59  1  0.35441000  0.54633000  0.04767000  1.0
  C  C60  1  0.49897000  0.50048000  0.24677000  1.0
  C  C61  1  0.50502000  0.50968000  0.91756000  1.0
  C  C62  1  0.55256000  0.38166000  0.95170000  1.0
  C  C63  1  0.50050000  0.50550000  0.08086000  1.0
  C  C64  1  0.74718000  0.61964000  0.90918000  1.0
  C  C65  1  0.23150000  0.47600000  0.91823000  1.0
  C  C66  1  0.34317000  0.90526000  0.35322000  1.0
  C  C67  1  0.68640000  0.86940000  0.37181000  1.0
  C  C68  1  0.49877000  0.50304000  0.17114000  1.0
  C  C69  1  0.50662000  0.51034000  0.82733000  1.0
  C  C70  1  0.50693000  0.50897000  0.75177000  1.0
  C  C71  1  0.35920000  0.93454000  0.44500000  1.0
  C  C72  1  0.63123000  0.93175000  0.44928000  1.0
  C  C73  1  0.35166000  0.07426000  0.46044000  1.0
  N  N74  1  0.86434000  0.49602000  0.50119000  1.0
  N  N75  1  0.13379000  0.49901000  0.50277000  1.0
  N  N76  1  0.34693000  0.90789000  0.61534000  1.0
  N  N77  1  0.58814000  0.84672000  0.62965000  1.0
  O  O78  1  0.38109000  0.68646000  0.51321000  1.0
  O  O79  1  0.83560000  0.52506000  0.92981000  1.0
  O  O80  1  0.12630000  0.52436000  0.88738000  1.0
  O  O81  1  0.24266000  0.35234000  0.93025000  1.0
  O  O82  1  0.34710000  0.97905000  0.29519000  1.0
  O  O83  1  0.31347000  0.78405000  0.34292000  1.0
  O  O84  1  0.61898000  0.83450000  0.31264000  1.0
  O  O85  1  0.83121000  0.86366000  0.37226000  1.0
  O  O86  1  0.61070000  0.68265000  0.47486000  1.0
  O  O87  1  0.38413000  0.48612000  0.62963000  1.0
  O  O88  1  0.62067000  0.51951000  0.62375000  1.0
  O  O89  1  0.38066000  0.31711000  0.48975000  1.0
  O  O90  1  0.61584000  0.30847000  0.51190000  1.0
  O  O91  1  0.38346000  0.51848000  0.37345000  1.0
  O  O92  1  0.61820000  0.47293000  0.37089000  1.0
  O  O93  1  0.77989000  0.70388000  0.86203000  1.0
