# generated using pymatgen
data_HoH2CO4
_symmetry_space_group_name_H-M   'P 1'
_cell_length_a   6.15693000
_cell_length_b   6.97156000
_cell_length_c   7.55941000
_cell_angle_alpha   90.00000000
_cell_angle_beta   100.01100000
_cell_angle_gamma   90.00000000
_symmetry_Int_Tables_number   1
_chemical_formula_structural   HoH2CO4
_chemical_formula_sum   'Ho4 H8 C4 O16'
_cell_volume   319.53529423
_cell_formula_units_Z   4
loop_
 _symmetry_equiv_pos_site_id
 _symmetry_equiv_pos_as_xyz
  1  'x, y, z'
loop_
 _atom_site_type_symbol
 _atom_site_label
 _atom_site_symmetry_multiplicity
 _atom_site_fract_x
 _atom_site_fract_y
 _atom_site_fract_z
 _atom_site_occupancy
  Ho  Ho0  1  0.76806000  0.11481000  0.10763000  1.0
  Ho  Ho1  1  0.73194000  0.61481000  0.89237000  1.0
  Ho  Ho2  1  0.23194000  0.88519000  0.89237000  1.0
  Ho  Ho3  1  0.26806000  0.38519000  0.10763000  1.0
  H  H4  1  0.96239000  0.22884000  0.80627000  1.0
  H  H5  1  0.53761000  0.72884000  0.19373000  1.0
  H  H6  1  0.03761000  0.77116000  0.19373000  1.0
  H  H7  1  0.46239000  0.27116000  0.80627000  1.0
  H  H8  1  0.88872000  0.47656000  0.25489000  1.0
  H  H9  1  0.61128000  0.97656000  0.74511000  1.0
  H  H10  1  0.11128000  0.52344000  0.74511000  1.0
  H  H11  1  0.38872000  0.02344000  0.25489000  1.0
  C  C12  1  0.09859000  0.06768000  0.49141000  1.0
  C  C13  1  0.40141000  0.56768000  0.50858000  1.0
  C  C14  1  0.90141000  0.93232000  0.50859000  1.0
  C  C15  1  0.59859000  0.43232000  0.49141000  1.0
  O  O16  1  0.08877000  0.15330000  0.34220000  1.0
  O  O17  1  0.41123000  0.65330000  0.65780000  1.0
  O  O18  1  0.91123000  0.84670000  0.65780000  1.0
  O  O19  1  0.58877000  0.34670000  0.34220000  1.0
  O  O20  1  0.03092000  0.16745000  0.91801000  1.0
  O  O21  1  0.46908000  0.66745000  0.08199000  1.0
  O  O22  1  0.96908000  0.83255000  0.08199000  1.0
  O  O23  1  0.53092000  0.33255000  0.91801000  1.0
  O  O24  1  0.25196000  0.08050000  0.62569000  1.0
  O  O25  1  0.24803000  0.58050000  0.37431000  1.0
  O  O26  1  0.74803000  0.91950000  0.37431000  1.0
  O  O27  1  0.75196000  0.41950000  0.62569000  1.0
  O  O28  1  0.90153000  0.43365000  0.13481000  1.0
  O  O29  1  0.59847000  0.93365000  0.86519000  1.0
  O  O30  1  0.09847000  0.56635000  0.86519000  1.0
  O  O31  1  0.40153000  0.06635000  0.13481000  1.0
