# generated using pymatgen
data_CuH10C12IN3
_symmetry_space_group_name_H-M   'P 1'
_cell_length_a   7.29024000
_cell_length_b   10.38030000
_cell_length_c   16.33240000
_cell_angle_alpha   89.99960000
_cell_angle_beta   89.99940000
_cell_angle_gamma   76.85800000
_symmetry_Int_Tables_number   1
_chemical_formula_structural   CuH10C12IN3
_chemical_formula_sum   'Cu4 H40 C48 I4 N12'
_cell_volume   1203.58224700
_cell_formula_units_Z   4
loop_
 _symmetry_equiv_pos_site_id
 _symmetry_equiv_pos_as_xyz
  1  'x, y, z'
loop_
 _atom_site_type_symbol
 _atom_site_label
 _atom_site_symmetry_multiplicity
 _atom_site_fract_x
 _atom_site_fract_y
 _atom_site_fract_z
 _atom_site_occupancy
  Cu  Cu0  1  0.49691000  0.94577000  0.93229000  1.0
  Cu  Cu1  1  0.00310000  0.55424000  0.43229000  1.0
  Cu  Cu2  1  0.50309000  0.05423000  0.06772000  1.0
  Cu  Cu3  1  0.99690000  0.44575000  0.56771000  1.0
  H  H4  1  0.06909000  0.05141000  0.88398000  1.0
  H  H5  1  0.43091000  0.44858000  0.38397000  1.0
  H  H6  1  0.93090000  0.94860000  0.11603000  1.0
  H  H7  1  0.56909000  0.55140000  0.61602000  1.0
  H  H8  1  0.88628000  0.06671000  0.75458000  1.0
  H  H9  1  0.61372000  0.43325000  0.25457000  1.0
  H  H10  1  0.11373000  0.93328000  0.24542000  1.0
  H  H11  1  0.38626000  0.56675000  0.74541000  1.0
  H  H12  1  0.05732000  0.97328000  0.62462000  1.0
  H  H13  1  0.44270000  0.52670000  0.12462000  1.0
  H  H14  1  0.94270000  0.02672000  0.37538000  1.0
  H  H15  1  0.55730000  0.47331000  0.87537000  1.0
  H  H16  1  0.39792000  0.86569000  0.63259000  1.0
  H  H17  1  0.10210000  0.63431000  0.13258000  1.0
  H  H18  1  0.60210000  0.13432000  0.36742000  1.0
  H  H19  1  0.89789000  0.36571000  0.86741000  1.0
  H  H20  1  0.74831000  0.76780000  0.65315000  1.0
  H  H21  1  0.75172000  0.73219000  0.15314000  1.0
  H  H22  1  0.25170000  0.23221000  0.34686000  1.0
  H  H23  1  0.24829000  0.26782000  0.84686000  1.0
  H  H24  1  0.05726000  0.68959000  0.75043000  1.0
  H  H25  1  0.44276000  0.81040000  0.25042000  1.0
  H  H26  1  0.94275000  0.31040000  0.24958000  1.0
  H  H27  1  0.55723000  0.18960000  0.74958000  1.0
  H  H28  1  0.92244000  0.83690000  0.95954000  1.0
  H  H29  1  0.57757000  0.66310000  0.45953000  1.0
  H  H30  1  0.07758000  0.16308000  0.04047000  1.0
  H  H31  1  0.42240000  0.33692000  0.54047000  1.0
  H  H32  1  0.12312000  0.76254000  0.90103000  1.0
  H  H33  1  0.37689000  0.73746000  0.40102000  1.0
  H  H34  1  0.87691000  0.23745000  0.09897000  1.0
  H  H35  1  0.62310000  0.26254000  0.59897000  1.0
  H  H36  1  0.28449000  0.54701000  0.93443000  1.0
  H  H37  1  0.21550000  0.95298000  0.43443000  1.0
  H  H38  1  0.71553000  0.45297000  0.06557000  1.0
  H  H39  1  0.78446000  0.04704000  0.56556000  1.0
  H  H40  1  0.69708000  0.66940000  0.99732000  1.0
  H  H41  1  0.80292000  0.83061000  0.49731000  1.0
  H  H42  1  0.30295000  0.33058000  0.00268000  1.0
  H  H43  1  0.19703000  0.16940000  0.50269000  1.0
  C  C44  1  0.13763000  0.01155000  0.82698000  1.0
  C  C45  1  0.36238000  0.48843000  0.32697000  1.0
  C  C46  1  0.86237000  0.98845000  0.17303000  1.0
  C  C47  1  0.63763000  0.51156000  0.67302000  1.0
  C  C48  1  0.03630000  0.02069000  0.75415000  1.0
  C  C49  1  0.46371000  0.47928000  0.25415000  1.0
  C  C50  1  0.96372000  0.97932000  0.24585000  1.0
  C  C51  1  0.53628000  0.52071000  0.74584000  1.0
  C  C52  1  0.13079000  0.96922000  0.68291000  1.0
  C  C53  1  0.36922000  0.53075000  0.18290000  1.0
  C  C54  1  0.86922000  0.03078000  0.31709000  1.0
  C  C55  1  0.63076000  0.46925000  0.81709000  1.0
  C  C56  1  0.32137000  0.90818000  0.68710000  1.0
  C  C57  1  0.17864000  0.59181000  0.18709000  1.0
  C  C58  1  0.67864000  0.09182000  0.31291000  1.0
  C  C59  1  0.82135000  0.40820000  0.81291000  1.0
  C  C60  1  0.41336000  0.90116000  0.76268000  1.0
  C  C61  1  0.08665000  0.59884000  0.26268000  1.0
  C  C62  1  0.58664000  0.09884000  0.23732000  1.0
  C  C63  1  0.91334000  0.40116000  0.73731000  1.0
  C  C64  1  0.61131000  0.83748000  0.77407000  1.0
  C  C65  1  0.88870000  0.66252000  0.27406000  1.0
  C  C66  1  0.38870000  0.16252000  0.22594000  1.0
  C  C67  1  0.11129000  0.33748000  0.72594000  1.0
  C  C68  1  0.75534000  0.77870000  0.71894000  1.0
  C  C69  1  0.74467000  0.72129000  0.21894000  1.0
  C  C70  1  0.24467000  0.22130000  0.28106000  1.0
  C  C71  1  0.25532000  0.27872000  0.78106000  1.0
  C  C72  1  0.91412000  0.73745000  0.76710000  1.0
  C  C73  1  0.58589000  0.76255000  0.26710000  1.0
  C  C74  1  0.08589000  0.26254000  0.23290000  1.0
  C  C75  1  0.41409000  0.23746000  0.73290000  1.0
  C  C76  1  0.98170000  0.75327000  0.91894000  1.0
  C  C77  1  0.51831000  0.74673000  0.41894000  1.0
  C  C78  1  0.01833000  0.24672000  0.08106000  1.0
  C  C79  1  0.48167000  0.25328000  0.58106000  1.0
  C  C80  1  0.99030000  0.62244000  0.96099000  1.0
  C  C81  1  0.50970000  0.87756000  0.46098000  1.0
  C  C82  1  0.00972000  0.37754000  0.03901000  1.0
  C  C83  1  0.49027000  0.12245000  0.53902000  1.0
  C  C84  1  0.15928000  0.52603000  0.96313000  1.0
  C  C85  1  0.34071000  0.97396000  0.46313000  1.0
  C  C86  1  0.84074000  0.47395000  0.03687000  1.0
  C  C87  1  0.65925000  0.02605000  0.53687000  1.0
  C  C88  1  0.83028000  0.59533000  0.99834000  1.0
  C  C89  1  0.66971000  0.90467000  0.49833000  1.0
  C  C90  1  0.16974000  0.40465000  0.00166000  1.0
  C  C91  1  0.33026000  0.09534000  0.50167000  1.0
  I  I92  1  0.65093000  0.15185000  0.94596000  1.0
  I  I93  1  0.84906000  0.34816000  0.44595000  1.0
  I  I94  1  0.34908000  0.84815000  0.05405000  1.0
  I  I95  1  0.15093000  0.65184000  0.55405000  1.0
  N  N96  1  0.32198000  0.95445000  0.83177000  1.0
  N  N97  1  0.17803000  0.54554000  0.33176000  1.0
  N  N98  1  0.67803000  0.04555000  0.16824000  1.0
  N  N99  1  0.82197000  0.45445000  0.66823000  1.0
  N  N100  1  0.67998000  0.83178000  0.85132000  1.0
  N  N101  1  0.82003000  0.66822000  0.35132000  1.0
  N  N102  1  0.32003000  0.16821000  0.14868000  1.0
  N  N103  1  0.17997000  0.33179000  0.64868000  1.0
  N  N104  1  0.86378000  0.77198000  0.84578000  1.0
  N  N105  1  0.63623000  0.72802000  0.34577000  1.0
  N  N106  1  0.13623000  0.22801000  0.15423000  1.0
  N  N107  1  0.36376000  0.27198000  0.65423000  1.0
