# generated using pymatgen
data_Zn3H32C52(NO6)2
_symmetry_space_group_name_H-M   'P 1'
_cell_length_a   14.24840000
_cell_length_b   18.11590000
_cell_length_c   25.93230000
_cell_angle_alpha   89.99940000
_cell_angle_beta   89.99980000
_cell_angle_gamma   89.99900000
_symmetry_Int_Tables_number   1
_chemical_formula_structural   Zn3H32C52(NO6)2
_chemical_formula_sum   'Zn12 H128 C208 N8 O48'
_cell_volume   6693.71242782
_cell_formula_units_Z   4
loop_
 _symmetry_equiv_pos_site_id
 _symmetry_equiv_pos_as_xyz
  1  'x, y, z'
loop_
 _atom_site_type_symbol
 _atom_site_label
 _atom_site_symmetry_multiplicity
 _atom_site_fract_x
 _atom_site_fract_y
 _atom_site_fract_z
 _atom_site_occupancy
  Zn  Zn0  1  0.47033000  0.94125000  0.35288000  1.0
  Zn  Zn1  1  0.02965000  0.44126000  0.14712000  1.0
  Zn  Zn2  1  0.52967000  0.55874000  0.35288000  1.0
  Zn  Zn3  1  0.97034000  0.05875000  0.14712000  1.0
  Zn  Zn4  1  0.52966000  0.05875000  0.64711000  1.0
  Zn  Zn5  1  0.97035000  0.55875000  0.85288000  1.0
  Zn  Zn6  1  0.47034000  0.44125000  0.64712000  1.0
  Zn  Zn7  1  0.02966000  0.94126000  0.85288000  1.0
  Zn  Zn8  1  0.50000000  0.75000000  0.35398000  1.0
  Zn  Zn9  1  0.00000000  0.25000000  0.14601000  1.0
  Zn  Zn10  1  0.50000000  0.25000000  0.64602000  1.0
  Zn  Zn11  1  0.00000000  0.75000000  0.85399000  1.0
  H  H12  1  0.53692000  0.05803000  0.42566000  1.0
  H  H13  1  0.96306000  0.55804000  0.07435000  1.0
  H  H14  1  0.46307000  0.44197000  0.42565000  1.0
  H  H15  1  0.03694000  0.94197000  0.07435000  1.0
  H  H16  1  0.46306000  0.94196000  0.57435000  1.0
  H  H17  1  0.03694000  0.44196000  0.92565000  1.0
  H  H18  1  0.53693000  0.55803000  0.57435000  1.0
  H  H19  1  0.96305000  0.05804000  0.92566000  1.0
  H  H20  1  0.55151000  0.19629000  0.42827000  1.0
  H  H21  1  0.94848000  0.69629000  0.07173000  1.0
  H  H22  1  0.44848000  0.30372000  0.42826000  1.0
  H  H23  1  0.05151000  0.80372000  0.07173000  1.0
  H  H24  1  0.44848000  0.80371000  0.57174000  1.0
  H  H25  1  0.05152000  0.30371000  0.92827000  1.0
  H  H26  1  0.55151000  0.69629000  0.57173000  1.0
  H  H27  1  0.94848000  0.19629000  0.92827000  1.0
  H  H28  1  0.43682000  0.20031000  0.27381000  1.0
  H  H29  1  0.06319000  0.70031000  0.22618000  1.0
  H  H30  1  0.56319000  0.29968000  0.27382000  1.0
  H  H31  1  0.93682000  0.79969000  0.22618000  1.0
  H  H32  1  0.56318000  0.79969000  0.72618000  1.0
  H  H33  1  0.93681000  0.29969000  0.77382000  1.0
  H  H34  1  0.43682000  0.70031000  0.72618000  1.0
  H  H35  1  0.06318000  0.20031000  0.77382000  1.0
  H  H36  1  0.42457000  0.06241000  0.27877000  1.0
  H  H37  1  0.07543000  0.56241000  0.22123000  1.0
  H  H38  1  0.57543000  0.43758000  0.27876000  1.0
  H  H39  1  0.92458000  0.93759000  0.22123000  1.0
  H  H40  1  0.57543000  0.93759000  0.72123000  1.0
  H  H41  1  0.92458000  0.43759000  0.77877000  1.0
  H  H42  1  0.42457000  0.56241000  0.72123000  1.0
  H  H43  1  0.07542000  0.06241000  0.77877000  1.0
  H  H44  1  0.38719000  0.51291000  0.49742000  1.0
  H  H45  1  0.11280000  0.01291000  0.00257000  1.0
  H  H46  1  0.61279000  0.98708000  0.49742000  1.0
  H  H47  1  0.88720000  0.48708000  0.00257000  1.0
  H  H48  1  0.61281000  0.48709000  0.50258000  1.0
  H  H49  1  0.88720000  0.98709000  0.99743000  1.0
  H  H50  1  0.38719000  0.01292000  0.50257000  1.0
  H  H51  1  0.11281000  0.51291000  0.99743000  1.0
  H  H52  1  0.29478000  0.51393000  0.57884000  1.0
  H  H53  1  0.20522000  0.01393000  0.92115000  1.0
  H  H54  1  0.70521000  0.98607000  0.57884000  1.0
  H  H55  1  0.79479000  0.48606000  0.92115000  1.0
  H  H56  1  0.70522000  0.48607000  0.42116000  1.0
  H  H57  1  0.79479000  0.98607000  0.07885000  1.0
  H  H58  1  0.29478000  0.01393000  0.42115000  1.0
  H  H59  1  0.20522000  0.51393000  0.07885000  1.0
  H  H60  1  0.24958000  0.74783000  0.56122000  1.0
  H  H61  1  0.25043000  0.24782000  0.93878000  1.0
  H  H62  1  0.75043000  0.75218000  0.56122000  1.0
  H  H63  1  0.74958000  0.25217000  0.93878000  1.0
  H  H64  1  0.75042000  0.25218000  0.43878000  1.0
  H  H65  1  0.74957000  0.75218000  0.06123000  1.0
  H  H66  1  0.24957000  0.24783000  0.43877000  1.0
  H  H67  1  0.25044000  0.74782000  0.06122000  1.0
  H  H68  1  0.34347000  0.74585000  0.47991000  1.0
  H  H69  1  0.15655000  0.24584000  0.02009000  1.0
  H  H70  1  0.65654000  0.75415000  0.47991000  1.0
  H  H71  1  0.84346000  0.25415000  0.02009000  1.0
  H  H72  1  0.65654000  0.25415000  0.52009000  1.0
  H  H73  1  0.84346000  0.75416000  0.97991000  1.0
  H  H74  1  0.34345000  0.24585000  0.52009000  1.0
  H  H75  1  0.15655000  0.74584000  0.97991000  1.0
  H  H76  1  0.14777000  0.52599000  0.61443000  1.0
  H  H77  1  0.35224000  0.02598000  0.88556000  1.0
  H  H78  1  0.85224000  0.97401000  0.61443000  1.0
  H  H79  1  0.64777000  0.47401000  0.88556000  1.0
  H  H80  1  0.85224000  0.47401000  0.38557000  1.0
  H  H81  1  0.64777000  0.97402000  0.11443000  1.0
  H  H82  1  0.14776000  0.02599000  0.38557000  1.0
  H  H83  1  0.35224000  0.52598000  0.11444000  1.0
  H  H84  1  0.26488000  0.74043000  0.64685000  1.0
  H  H85  1  0.23512000  0.24042000  0.85314000  1.0
  H  H86  1  0.73511000  0.75958000  0.64685000  1.0
  H  H87  1  0.76489000  0.25957000  0.85314000  1.0
  H  H88  1  0.73511000  0.25958000  0.35314000  1.0
  H  H89  1  0.76488000  0.75958000  0.14686000  1.0
  H  H90  1  0.26488000  0.24043000  0.35314000  1.0
  H  H91  1  0.23512000  0.74042000  0.14686000  1.0
  H  H92  1  0.16012000  0.93059000  0.31368000  1.0
  H  H93  1  0.33987000  0.43059000  0.18632000  1.0
  H  H94  1  0.83988000  0.56941000  0.31368000  1.0
  H  H95  1  0.66012000  0.06941000  0.18632000  1.0
  H  H96  1  0.83987000  0.06940000  0.68631000  1.0
  H  H97  1  0.66013000  0.56941000  0.81368000  1.0
  H  H98  1  0.16013000  0.43058000  0.68632000  1.0
  H  H99  1  0.33987000  0.93059000  0.81368000  1.0
  H  H100  1  0.00080000  0.87408000  0.30910000  1.0
  H  H101  1  0.49920000  0.37408000  0.19090000  1.0
  H  H102  1  0.99920000  0.62592000  0.30910000  1.0
  H  H103  1  0.50080000  0.12592000  0.19090000  1.0
  H  H104  1  0.99920000  0.12591000  0.69089000  1.0
  H  H105  1  0.50081000  0.62592000  0.80911000  1.0
  H  H106  1  0.00080000  0.37407000  0.69090000  1.0
  H  H107  1  0.49920000  0.87408000  0.80910000  1.0
  H  H108  1  0.11705000  0.66707000  0.36098000  1.0
  H  H109  1  0.38295000  0.16707000  0.13902000  1.0
  H  H110  1  0.88295000  0.83293000  0.36098000  1.0
  H  H111  1  0.61704000  0.33293000  0.13902000  1.0
  H  H112  1  0.88295000  0.33293000  0.63902000  1.0
  H  H113  1  0.61705000  0.83293000  0.86098000  1.0
  H  H114  1  0.11705000  0.16706000  0.63902000  1.0
  H  H115  1  0.38295000  0.66707000  0.86098000  1.0
  H  H116  1  0.27570000  0.72451000  0.36501000  1.0
  H  H117  1  0.22430000  0.22451000  0.13499000  1.0
  H  H118  1  0.72431000  0.77550000  0.36501000  1.0
  H  H119  1  0.77569000  0.27550000  0.13500000  1.0
  H  H120  1  0.72431000  0.27549000  0.63499000  1.0
  H  H121  1  0.77570000  0.77550000  0.86501000  1.0
  H  H122  1  0.27570000  0.22450000  0.63499000  1.0
  H  H123  1  0.22430000  0.72450000  0.86500000  1.0
  H  H124  1  0.06321000  0.52959000  0.69865000  1.0
  H  H125  1  0.43679000  0.02958000  0.80135000  1.0
  H  H126  1  0.93680000  0.97041000  0.69864000  1.0
  H  H127  1  0.56321000  0.47041000  0.80135000  1.0
  H  H128  1  0.93680000  0.47042000  0.30135000  1.0
  H  H129  1  0.56320000  0.97043000  0.19865000  1.0
  H  H130  1  0.06320000  0.02959000  0.30136000  1.0
  H  H131  1  0.43680000  0.52958000  0.19865000  1.0
  H  H132  1  0.17832000  0.74326000  0.73038000  1.0
  H  H133  1  0.32168000  0.24326000  0.76961000  1.0
  H  H134  1  0.82167000  0.75674000  0.73038000  1.0
  H  H135  1  0.67832000  0.25674000  0.76961000  1.0
  H  H136  1  0.82168000  0.25675000  0.26961000  1.0
  H  H137  1  0.67831000  0.75675000  0.23039000  1.0
  H  H138  1  0.17831000  0.24326000  0.26961000  1.0
  H  H139  1  0.32169000  0.74326000  0.23039000  1.0
  C  C140  1  0.51575000  0.09240000  0.39322000  1.0
  C  C141  1  0.98424000  0.59241000  0.10678000  1.0
  C  C142  1  0.48424000  0.40760000  0.39322000  1.0
  C  C143  1  0.01576000  0.90760000  0.10678000  1.0
  C  C144  1  0.48424000  0.90760000  0.60678000  1.0
  C  C145  1  0.01576000  0.40760000  0.89322000  1.0
  C  C146  1  0.51576000  0.59240000  0.60678000  1.0
  C  C147  1  0.98423000  0.09241000  0.89322000  1.0
  C  C148  1  0.52340000  0.16874000  0.39425000  1.0
  C  C149  1  0.97659000  0.66875000  0.10576000  1.0
  C  C150  1  0.47659000  0.33125000  0.39424000  1.0
  C  C151  1  0.02341000  0.83126000  0.10575000  1.0
  C  C152  1  0.47659000  0.83126000  0.60576000  1.0
  C  C153  1  0.02341000  0.33125000  0.89424000  1.0
  C  C154  1  0.52341000  0.66875000  0.60576000  1.0
  C  C155  1  0.97659000  0.16875000  0.89424000  1.0
  C  C156  1  0.49623000  0.20943000  0.35075000  1.0
  C  C157  1  0.00376000  0.70944000  0.14925000  1.0
  C  C158  1  0.50377000  0.29056000  0.35075000  1.0
  C  C159  1  0.99623000  0.79057000  0.14925000  1.0
  C  C160  1  0.50377000  0.79057000  0.64925000  1.0
  C  C161  1  0.99623000  0.29057000  0.85075000  1.0
  C  C162  1  0.49624000  0.70943000  0.64925000  1.0
  C  C163  1  0.00376000  0.20943000  0.85075000  1.0
  C  C164  1  0.46087000  0.17095000  0.30804000  1.0
  C  C165  1  0.03913000  0.67096000  0.19195000  1.0
  C  C166  1  0.53913000  0.32904000  0.30804000  1.0
  C  C167  1  0.96087000  0.82905000  0.19195000  1.0
  C  C168  1  0.53913000  0.82904000  0.69196000  1.0
  C  C169  1  0.96087000  0.32904000  0.80804000  1.0
  C  C170  1  0.46087000  0.67095000  0.69196000  1.0
  C  C171  1  0.03913000  0.17095000  0.80804000  1.0
  C  C172  1  0.45369000  0.09455000  0.31053000  1.0
  C  C173  1  0.04630000  0.59455000  0.18947000  1.0
  C  C174  1  0.54631000  0.40545000  0.31053000  1.0
  C  C175  1  0.95370000  0.90546000  0.18947000  1.0
  C  C176  1  0.54630000  0.90545000  0.68947000  1.0
  C  C177  1  0.95370000  0.40545000  0.81053000  1.0
  C  C178  1  0.45370000  0.59455000  0.68947000  1.0
  C  C179  1  0.04629000  0.09455000  0.81053000  1.0
  C  C180  1  0.37133000  0.62964000  0.48383000  1.0
  C  C181  1  0.12868000  0.12963000  0.01616000  1.0
  C  C182  1  0.62866000  0.87036000  0.48384000  1.0
  C  C183  1  0.87133000  0.37035000  0.01616000  1.0
  C  C184  1  0.62867000  0.37036000  0.51616000  1.0
  C  C185  1  0.87133000  0.87037000  0.98384000  1.0
  C  C186  1  0.37132000  0.12964000  0.51616000  1.0
  C  C187  1  0.12867000  0.62963000  0.98384000  1.0
  C  C188  1  0.35633000  0.56418000  0.51142000  1.0
  C  C189  1  0.14368000  0.06417000  0.98857000  1.0
  C  C190  1  0.64366000  0.93582000  0.51143000  1.0
  C  C191  1  0.85633000  0.43582000  0.98857000  1.0
  C  C192  1  0.64367000  0.43583000  0.48857000  1.0
  C  C193  1  0.85633000  0.93583000  0.01143000  1.0
  C  C194  1  0.35633000  0.06417000  0.48857000  1.0
  C  C195  1  0.14368000  0.56417000  0.01143000  1.0
  C  C196  1  0.30382000  0.56470000  0.55674000  1.0
  C  C197  1  0.19618000  0.06470000  0.94325000  1.0
  C  C198  1  0.69617000  0.93530000  0.55675000  1.0
  C  C199  1  0.80382000  0.43529000  0.94325000  1.0
  C  C200  1  0.69618000  0.43530000  0.44325000  1.0
  C  C201  1  0.80383000  0.93530000  0.05675000  1.0
  C  C202  1  0.30382000  0.06470000  0.44325000  1.0
  C  C203  1  0.19619000  0.56470000  0.05675000  1.0
  C  C204  1  0.26578000  0.63097000  0.57589000  1.0
  C  C205  1  0.23422000  0.13097000  0.92411000  1.0
  C  C206  1  0.73422000  0.86903000  0.57589000  1.0
  C  C207  1  0.76578000  0.36902000  0.92411000  1.0
  C  C208  1  0.73422000  0.36904000  0.42411000  1.0
  C  C209  1  0.76578000  0.86904000  0.07589000  1.0
  C  C210  1  0.26578000  0.13097000  0.42411000  1.0
  C  C211  1  0.23423000  0.63096000  0.07589000  1.0
  C  C212  1  0.28098000  0.69638000  0.54777000  1.0
  C  C213  1  0.21903000  0.19637000  0.95222000  1.0
  C  C214  1  0.71902000  0.80362000  0.54778000  1.0
  C  C215  1  0.78098000  0.30361000  0.95222000  1.0
  C  C216  1  0.71902000  0.30362000  0.45222000  1.0
  C  C217  1  0.78098000  0.80363000  0.04778000  1.0
  C  C218  1  0.28098000  0.19638000  0.45222000  1.0
  C  C219  1  0.21903000  0.69637000  0.04778000  1.0
  C  C220  1  0.33268000  0.69573000  0.50240000  1.0
  C  C221  1  0.16732000  0.19572000  0.99760000  1.0
  C  C222  1  0.66732000  0.80427000  0.50240000  1.0
  C  C223  1  0.83268000  0.30427000  0.99760000  1.0
  C  C224  1  0.66731000  0.30428000  0.49760000  1.0
  C  C225  1  0.83268000  0.80428000  0.00241000  1.0
  C  C226  1  0.33268000  0.19572000  0.49759000  1.0
  C  C227  1  0.16732000  0.69572000  0.00240000  1.0
  C  C228  1  0.21280000  0.63279000  0.62472000  1.0
  C  C229  1  0.28720000  0.13279000  0.87527000  1.0
  C  C230  1  0.78720000  0.86721000  0.62472000  1.0
  C  C231  1  0.71280000  0.36721000  0.87527000  1.0
  C  C232  1  0.78720000  0.36721000  0.37528000  1.0
  C  C233  1  0.71280000  0.86722000  0.12473000  1.0
  C  C234  1  0.21279000  0.13279000  0.37527000  1.0
  C  C235  1  0.28721000  0.63279000  0.12473000  1.0
  C  C236  1  0.15531000  0.57354000  0.63986000  1.0
  C  C237  1  0.34469000  0.07354000  0.86013000  1.0
  C  C238  1  0.84470000  0.92646000  0.63986000  1.0
  C  C239  1  0.65531000  0.42645000  0.86013000  1.0
  C  C240  1  0.84469000  0.42646000  0.36014000  1.0
  C  C241  1  0.65531000  0.92647000  0.13987000  1.0
  C  C242  1  0.15531000  0.07354000  0.36014000  1.0
  C  C243  1  0.34469000  0.57354000  0.13987000  1.0
  C  C244  1  0.21972000  0.69433000  0.65765000  1.0
  C  C245  1  0.28028000  0.19433000  0.84234000  1.0
  C  C246  1  0.78028000  0.80567000  0.65766000  1.0
  C  C247  1  0.71973000  0.30567000  0.84234000  1.0
  C  C248  1  0.78028000  0.30568000  0.34234000  1.0
  C  C249  1  0.71972000  0.80568000  0.15766000  1.0
  C  C250  1  0.21971000  0.19433000  0.34234000  1.0
  C  C251  1  0.28028000  0.69433000  0.15766000  1.0
  C  C252  1  0.31902000  0.86792000  0.34639000  1.0
  C  C253  1  0.18097000  0.36792000  0.15361000  1.0
  C  C254  1  0.68098000  0.63209000  0.34640000  1.0
  C  C255  1  0.81902000  0.13209000  0.15361000  1.0
  C  C256  1  0.68098000  0.13209000  0.65360000  1.0
  C  C257  1  0.81903000  0.63209000  0.84640000  1.0
  C  C258  1  0.31903000  0.36791000  0.65361000  1.0
  C  C259  1  0.18097000  0.86791000  0.84639000  1.0
  C  C260  1  0.22662000  0.83128000  0.34018000  1.0
  C  C261  1  0.27338000  0.33129000  0.15982000  1.0
  C  C262  1  0.77339000  0.66872000  0.34018000  1.0
  C  C263  1  0.72661000  0.16872000  0.15982000  1.0
  C  C264  1  0.77339000  0.16872000  0.65982000  1.0
  C  C265  1  0.72662000  0.66872000  0.84018000  1.0
  C  C266  1  0.22662000  0.33128000  0.65982000  1.0
  C  C267  1  0.27338000  0.83128000  0.84018000  1.0
  C  C268  1  0.14914000  0.87300000  0.32400000  1.0
  C  C269  1  0.35085000  0.37300000  0.17600000  1.0
  C  C270  1  0.85086000  0.62701000  0.32401000  1.0
  C  C271  1  0.64915000  0.12701000  0.17600000  1.0
  C  C272  1  0.85085000  0.12700000  0.67599000  1.0
  C  C273  1  0.64915000  0.62700000  0.82401000  1.0
  C  C274  1  0.14915000  0.37299000  0.67600000  1.0
  C  C275  1  0.35085000  0.87299000  0.82400000  1.0
  C  C276  1  0.06065000  0.84112000  0.32164000  1.0
  C  C277  1  0.43934000  0.34111000  0.17836000  1.0
  C  C278  1  0.93935000  0.65889000  0.32164000  1.0
  C  C279  1  0.56065000  0.15889000  0.17836000  1.0
  C  C280  1  0.93934000  0.15888000  0.67835000  1.0
  C  C281  1  0.56066000  0.65888000  0.82164000  1.0
  C  C282  1  0.06066000  0.34110000  0.67836000  1.0
  C  C283  1  0.43934000  0.84111000  0.82164000  1.0
  C  C284  1  0.04732000  0.76652000  0.33501000  1.0
  C  C285  1  0.45267000  0.26652000  0.16499000  1.0
  C  C286  1  0.95267000  0.73349000  0.33501000  1.0
  C  C287  1  0.54732000  0.23349000  0.16499000  1.0
  C  C288  1  0.95268000  0.23348000  0.66499000  1.0
  C  C289  1  0.54732000  0.73348000  0.83501000  1.0
  C  C290  1  0.04733000  0.26651000  0.66499000  1.0
  C  C291  1  0.45267000  0.76652000  0.83501000  1.0
  C  C292  1  0.12624000  0.72462000  0.34966000  1.0
  C  C293  1  0.37376000  0.22462000  0.15034000  1.0
  C  C294  1  0.87376000  0.77538000  0.34966000  1.0
  C  C295  1  0.62624000  0.27538000  0.15034000  1.0
  C  C296  1  0.87376000  0.27538000  0.65034000  1.0
  C  C297  1  0.62624000  0.77538000  0.84966000  1.0
  C  C298  1  0.12624000  0.22461000  0.65034000  1.0
  C  C299  1  0.37376000  0.72462000  0.84966000  1.0
  C  C300  1  0.21500000  0.75646000  0.35245000  1.0
  C  C301  1  0.28500000  0.25646000  0.14755000  1.0
  C  C302  1  0.78500000  0.74354000  0.35246000  1.0
  C  C303  1  0.71500000  0.24355000  0.14755000  1.0
  C  C304  1  0.78500000  0.24354000  0.64754000  1.0
  C  C305  1  0.71500000  0.74354000  0.85246000  1.0
  C  C306  1  0.21500000  0.25645000  0.64754000  1.0
  C  C307  1  0.28500000  0.75646000  0.85245000  1.0
  C  C308  1  0.06915000  0.63768000  0.77109000  1.0
  C  C309  1  0.43086000  0.13767000  0.72891000  1.0
  C  C310  1  0.93085000  0.86232000  0.77109000  1.0
  C  C311  1  0.56914000  0.36232000  0.72891000  1.0
  C  C312  1  0.93085000  0.36233000  0.22891000  1.0
  C  C313  1  0.56913000  0.86233000  0.27109000  1.0
  C  C314  1  0.06914000  0.13768000  0.22891000  1.0
  C  C315  1  0.43086000  0.63768000  0.27109000  1.0
  C  C316  1  0.11675000  0.63618000  0.71967000  1.0
  C  C317  1  0.38326000  0.13617000  0.78032000  1.0
  C  C318  1  0.88325000  0.86383000  0.71967000  1.0
  C  C319  1  0.61674000  0.36382000  0.78033000  1.0
  C  C320  1  0.88326000  0.36383000  0.28033000  1.0
  C  C321  1  0.61673000  0.86384000  0.21967000  1.0
  C  C322  1  0.11673000  0.13617000  0.28033000  1.0
  C  C323  1  0.38326000  0.63617000  0.21967000  1.0
  C  C324  1  0.10792000  0.57529000  0.68672000  1.0
  C  C325  1  0.39208000  0.07528000  0.81328000  1.0
  C  C326  1  0.89208000  0.92471000  0.68672000  1.0
  C  C327  1  0.60792000  0.42471000  0.81328000  1.0
  C  C328  1  0.89208000  0.42472000  0.31328000  1.0
  C  C329  1  0.60792000  0.92473000  0.18672000  1.0
  C  C330  1  0.10791000  0.07529000  0.31328000  1.0
  C  C331  1  0.39208000  0.57528000  0.18672000  1.0
  C  C332  1  0.17236000  0.69615000  0.70446000  1.0
  C  C333  1  0.32764000  0.19614000  0.79553000  1.0
  C  C334  1  0.82764000  0.80386000  0.70447000  1.0
  C  C335  1  0.67236000  0.30385000  0.79553000  1.0
  C  C336  1  0.82764000  0.30386000  0.29553000  1.0
  C  C337  1  0.67235000  0.80387000  0.20447000  1.0
  C  C338  1  0.17235000  0.19615000  0.29553000  1.0
  C  C339  1  0.32764000  0.69615000  0.20447000  1.0
  C  C340  1  0.42594000  0.63163000  0.43452000  1.0
  C  C341  1  0.07407000  0.13163000  0.06548000  1.0
  C  C342  1  0.57406000  0.86837000  0.43452000  1.0
  C  C343  1  0.92594000  0.36836000  0.06548000  1.0
  C  C344  1  0.57406000  0.36837000  0.56548000  1.0
  C  C345  1  0.92593000  0.86837000  0.93453000  1.0
  C  C346  1  0.42593000  0.13163000  0.56547000  1.0
  C  C347  1  0.07406000  0.63162000  0.93453000  1.0
  N  N348  1  0.48136000  0.05589000  0.35214000  1.0
  N  N349  1  0.01863000  0.55589000  0.14786000  1.0
  N  N350  1  0.51864000  0.44411000  0.35213000  1.0
  N  N351  1  0.98137000  0.94412000  0.14786000  1.0
  N  N352  1  0.51864000  0.94411000  0.64786000  1.0
  N  N353  1  0.98138000  0.44411000  0.85214000  1.0
  N  N354  1  0.48137000  0.55589000  0.64786000  1.0
  N  N355  1  0.01862000  0.05589000  0.85214000  1.0
  O  O356  1  0.32553000  0.93787000  0.33976000  1.0
  O  O357  1  0.17446000  0.43787000  0.16023000  1.0
  O  O358  1  0.67448000  0.56213000  0.33978000  1.0
  O  O359  1  0.82553000  0.06214000  0.16024000  1.0
  O  O360  1  0.67447000  0.06213000  0.66023000  1.0
  O  O361  1  0.82554000  0.56214000  0.83977000  1.0
  O  O362  1  0.32553000  0.43786000  0.66024000  1.0
  O  O363  1  0.17446000  0.93786000  0.83976000  1.0
  O  O364  1  0.02879000  0.57753000  0.78537000  1.0
  O  O365  1  0.47123000  0.07753000  0.71463000  1.0
  O  O366  1  0.97121000  0.92247000  0.78537000  1.0
  O  O367  1  0.52878000  0.42247000  0.71463000  1.0
  O  O368  1  0.97121000  0.42248000  0.21463000  1.0
  O  O369  1  0.52877000  0.92248000  0.28537000  1.0
  O  O370  1  0.02878000  0.07753000  0.21463000  1.0
  O  O371  1  0.47123000  0.57753000  0.28537000  1.0
  O  O372  1  0.46474000  0.57085000  0.41983000  1.0
  O  O373  1  0.03527000  0.07085000  0.08016000  1.0
  O  O374  1  0.53526000  0.92914000  0.41983000  1.0
  O  O375  1  0.96473000  0.42914000  0.08017000  1.0
  O  O376  1  0.53527000  0.42915000  0.58017000  1.0
  O  O377  1  0.96473000  0.92915000  0.91983000  1.0
  O  O378  1  0.46473000  0.07086000  0.58017000  1.0
  O  O379  1  0.03527000  0.57085000  0.91984000  1.0
  O  O380  1  0.42850000  0.69249000  0.41108000  1.0
  O  O381  1  0.07150000  0.19249000  0.08892000  1.0
  O  O382  1  0.57150000  0.80750000  0.41108000  1.0
  O  O383  1  0.92850000  0.30750000  0.08892000  1.0
  O  O384  1  0.57151000  0.30751000  0.58892000  1.0
  O  O385  1  0.92849000  0.80751000  0.91108000  1.0
  O  O386  1  0.42850000  0.19250000  0.58891000  1.0
  O  O387  1  0.07149000  0.69249000  0.91109000  1.0
  O  O388  1  0.39138000  0.83122000  0.36001000  1.0
  O  O389  1  0.10862000  0.33122000  0.13999000  1.0
  O  O390  1  0.60862000  0.66878000  0.36001000  1.0
  O  O391  1  0.89138000  0.16878000  0.13999000  1.0
  O  O392  1  0.60862000  0.16878000  0.63998000  1.0
  O  O393  1  0.89139000  0.66878000  0.86002000  1.0
  O  O394  1  0.39138000  0.33122000  0.63998000  1.0
  O  O395  1  0.10862000  0.83121000  0.86002000  1.0
  O  O396  1  0.07386000  0.69698000  0.79655000  1.0
  O  O397  1  0.42614000  0.19697000  0.70345000  1.0
  O  O398  1  0.92615000  0.80302000  0.79654000  1.0
  O  O399  1  0.57384000  0.30301000  0.70346000  1.0
  O  O400  1  0.92614000  0.30303000  0.20345000  1.0
  O  O401  1  0.57385000  0.80303000  0.29654000  1.0
  O  O402  1  0.07385000  0.19698000  0.20346000  1.0
  O  O403  1  0.42615000  0.69698000  0.29655000  1.0
