# generated using pymatgen
data_LaH19C30N5O7
_symmetry_space_group_name_H-M   'P 1'
_cell_length_a   10.65880000
_cell_length_b   11.13710000
_cell_length_c   13.77400000
_cell_angle_alpha   110.43800000
_cell_angle_beta   100.65000000
_cell_angle_gamma   108.22100000
_symmetry_Int_Tables_number   1
_chemical_formula_structural   LaH19C30N5O7
_chemical_formula_sum   'La2 H38 C60 N10 O14'
_cell_volume   1373.64836984
_cell_formula_units_Z   2
loop_
 _symmetry_equiv_pos_site_id
 _symmetry_equiv_pos_as_xyz
  1  'x, y, z'
loop_
 _atom_site_type_symbol
 _atom_site_label
 _atom_site_symmetry_multiplicity
 _atom_site_fract_x
 _atom_site_fract_y
 _atom_site_fract_z
 _atom_site_occupancy
  La  La0  1  0.49914000  0.91644000  0.61732000  1.0
  La  La1  1  0.50085000  0.08356000  0.38267000  1.0
  H  H2  1  0.43067000  0.58317000  0.01041000  1.0
  H  H3  1  0.56934000  0.41683000  0.98960000  1.0
  H  H4  1  0.26854000  0.33673000  0.96032000  1.0
  H  H5  1  0.73146000  0.66327000  0.03969000  1.0
  H  H6  1  0.95086000  0.44456000  0.37576000  1.0
  H  H7  1  0.04914000  0.55544000  0.62424000  1.0
  H  H8  1  0.01813000  0.30367000  0.46588000  1.0
  H  H9  1  0.98187000  0.69632000  0.53411000  1.0
  H  H10  1  0.21889000  0.23765000  0.43426000  1.0
  H  H11  1  0.78111000  0.76235000  0.56574000  1.0
  H  H12  1  0.04313000  0.66526000  0.29469000  1.0
  H  H13  1  0.95687000  0.33474000  0.70531000  1.0
  H  H14  1  0.78000000  0.55011000  0.22572000  1.0
  H  H15  1  0.22000000  0.44989000  0.77428000  1.0
  H  H16  1  0.65024000  0.68357000  0.31379000  1.0
  H  H17  1  0.34976000  0.31642000  0.68620000  1.0
  H  H18  1  0.84537000  0.09010000  0.77904000  1.0
  H  H19  1  0.15462000  0.90990000  0.22096000  1.0
  H  H20  1  0.02103000  0.23856000  0.97142000  1.0
  H  H21  1  0.97897000  0.76144000  0.02857000  1.0
  H  H22  1  0.93472000  0.31950000  0.12758000  1.0
  H  H23  1  0.06528000  0.68050000  0.87242000  1.0
  H  H24  1  0.72877000  0.31229000  0.19482000  1.0
  H  H25  1  0.27123000  0.68771000  0.80518000  1.0
  H  H26  1  0.47489000  0.24296000  0.15359000  1.0
  H  H27  1  0.52512000  0.75704000  0.84641000  1.0
  H  H28  1  0.23297000  0.11472000  0.01605000  1.0
  H  H29  1  0.76703000  0.88528000  0.98395000  1.0
  H  H30  1  0.07813000  0.96403000  0.81822000  1.0
  H  H31  1  0.92187000  0.03597000  0.18178000  1.0
  H  H32  1  0.19108000  0.90239000  0.67426000  1.0
  H  H33  1  0.80892000  0.09761000  0.32575000  1.0
  H  H34  1  0.50288000  0.76489000  0.20627000  1.0
  H  H35  1  0.49712000  0.23512000  0.79373000  1.0
  H  H36  1  0.27020000  0.62741000  0.54544000  1.0
  H  H37  1  0.72980000  0.37259000  0.45456000  1.0
  H  H38  1  0.38291000  0.64378000  0.64578000  1.0
  H  H39  1  0.61709000  0.35622000  0.35422000  1.0
  C  C40  1  0.42190000  0.72714000  0.36920000  1.0
  C  C41  1  0.57810000  0.27286000  0.63080000  1.0
  C  C42  1  0.37496000  0.61955000  0.25299000  1.0
  C  C43  1  0.62504000  0.38046000  0.74702000  1.0
  C  C44  1  0.39085000  0.55664000  0.07093000  1.0
  C  C45  1  0.60915000  0.44337000  0.92907000  1.0
  C  C46  1  0.30033000  0.41973000  0.04330000  1.0
  C  C47  1  0.69967000  0.58027000  0.95670000  1.0
  C  C48  1  0.28346000  0.47876000  0.21702000  1.0
  C  C49  1  0.71654000  0.52125000  0.78298000  1.0
  C  C50  1  0.21569000  0.43039000  0.29040000  1.0
  C  C51  1  0.78431000  0.56961000  0.70960000  1.0
  C  C52  1  0.03920000  0.41702000  0.36623000  1.0
  C  C53  1  0.96080000  0.58298000  0.63377000  1.0
  C  C54  1  0.07609000  0.33755000  0.41598000  1.0
  C  C55  1  0.92390000  0.66245000  0.58402000  1.0
  C  C56  1  0.18718000  0.30185000  0.39919000  1.0
  C  C57  1  0.81282000  0.69815000  0.60081000  1.0
  C  C58  1  0.26035000  0.35051000  0.33656000  1.0
  C  C59  1  0.73965000  0.64949000  0.66344000  1.0
  C  C60  1  0.38464000  0.31851000  0.32293000  1.0
  C  C61  1  0.61536000  0.68149000  0.67707000  1.0
  C  C62  1  0.20831000  0.92016000  0.45155000  1.0
  C  C63  1  0.79169000  0.07984000  0.54845000  1.0
  C  C64  1  0.05088000  0.85938000  0.41193000  1.0
  C  C65  1  0.94911000  0.14062000  0.58807000  1.0
  C  C66  1  0.98224000  0.72222000  0.32764000  1.0
  C  C67  1  0.01776000  0.27778000  0.67237000  1.0
  C  C68  1  0.83665000  0.65744000  0.28995000  1.0
  C  C69  1  0.16335000  0.34256000  0.71005000  1.0
  C  C70  1  0.76400000  0.73248000  0.33842000  1.0
  C  C71  1  0.23599000  0.26752000  0.66157000  1.0
  C  C72  1  0.96858000  0.92765000  0.45502000  1.0
  C  C73  1  0.03141000  0.07235000  0.54498000  1.0
  C  C74  1  0.81224000  0.12642000  0.85031000  1.0
  C  C75  1  0.18776000  0.87358000  0.14969000  1.0
  C  C76  1  0.90940000  0.20912000  0.95700000  1.0
  C  C77  1  0.09060000  0.79088000  0.04300000  1.0
  C  C78  1  0.86157000  0.25319000  0.04400000  1.0
  C  C79  1  0.13844000  0.74681000  0.95600000  1.0
  C  C80  1  0.71622000  0.21179000  0.02415000  1.0
  C  C81  1  0.28379000  0.78821000  0.97585000  1.0
  C  C82  1  0.62567000  0.12723000  0.91357000  1.0
  C  C83  1  0.37433000  0.87277000  0.08643000  1.0
  C  C84  1  0.65842000  0.25115000  0.11008000  1.0
  C  C85  1  0.34159000  0.74885000  0.88992000  1.0
  C  C86  1  0.51733000  0.21074000  0.08748000  1.0
  C  C87  1  0.48267000  0.78926000  0.91252000  1.0
  C  C88  1  0.42304000  0.12605000  0.97719000  1.0
  C  C89  1  0.57696000  0.87395000  0.02281000  1.0
  C  C90  1  0.47633000  0.08286000  0.88971000  1.0
  C  C91  1  0.52367000  0.91714000  0.11029000  1.0
  C  C92  1  0.27640000  0.08219000  0.95046000  1.0
  C  C93  1  0.72360000  0.91781000  0.04954000  1.0
  C  C94  1  0.19165000  0.00088000  0.84207000  1.0
  C  C95  1  0.80835000  0.99912000  0.15793000  1.0
  C  C96  1  0.25385000  0.96452000  0.76084000  1.0
  C  C97  1  0.74615000  0.03548000  0.23916000  1.0
  C  C98  1  0.42909000  0.65715000  0.17803000  1.0
  C  C99  1  0.57091000  0.34285000  0.82198000  1.0
  N  N100  1  0.24743000  0.38056000  0.11412000  1.0
  N  N101  1  0.75258000  0.61944000  0.88588000  1.0
  N  N102  1  0.10609000  0.46173000  0.30349000  1.0
  N  N103  1  0.89392000  0.53827000  0.69651000  1.0
  N  N104  1  0.82792000  0.86383000  0.41764000  1.0
  N  N105  1  0.17207000  0.13616000  0.58236000  1.0
  N  N106  1  0.67470000  0.08764000  0.82864000  1.0
  N  N107  1  0.32530000  0.91235000  0.17136000  1.0
  N  N108  1  0.39155000  0.00395000  0.78324000  1.0
  N  N109  1  0.60845000  0.99605000  0.21677000  1.0
  O  O110  1  0.47076000  0.85722000  0.38908000  1.0
  O  O111  1  0.52924000  0.14278000  0.61092000  1.0
  O  O112  1  0.41540000  0.68773000  0.44463000  1.0
  O  O113  1  0.58460000  0.31228000  0.55537000  1.0
  O  O114  1  0.49000000  0.40844000  0.32094000  1.0
  O  O115  1  0.51000000  0.59156000  0.67906000  1.0
  O  O116  1  0.37373000  0.19718000  0.31481000  1.0
  O  O117  1  0.62626000  0.80282000  0.68519000  1.0
  O  O118  1  0.26390000  0.88559000  0.52149000  1.0
  O  O119  1  0.73609000  0.11441000  0.47851000  1.0
  O  O120  1  0.27022000  0.98537000  0.40328000  1.0
  O  O121  1  0.72978000  0.01463000  0.59671000  1.0
  O  O122  1  0.31843000  0.68688000  0.62385000  1.0
  O  O123  1  0.68157000  0.31312000  0.37615000  1.0
