# generated using pymatgen
data_CdH22C28(N5O2)2
_symmetry_space_group_name_H-M   'P 1'
_cell_length_a   6.94632000
_cell_length_b   12.77390000
_cell_length_c   15.85630000
_cell_angle_alpha   98.48490000
_cell_angle_beta   100.18100000
_cell_angle_gamma   103.05800000
_symmetry_Int_Tables_number   1
_chemical_formula_structural   CdH22C28(N5O2)2
_chemical_formula_sum   'Cd2 H44 C56 N20 O8'
_cell_volume   1322.95138719
_cell_formula_units_Z   2
loop_
 _symmetry_equiv_pos_site_id
 _symmetry_equiv_pos_as_xyz
  1  'x, y, z'
loop_
 _atom_site_type_symbol
 _atom_site_label
 _atom_site_symmetry_multiplicity
 _atom_site_fract_x
 _atom_site_fract_y
 _atom_site_fract_z
 _atom_site_occupancy
  Cd  Cd0  1  0.22250000  0.71221000  0.25030000  1.0
  Cd  Cd1  1  0.77750000  0.28779000  0.74970000  1.0
  H  H2  1  0.75291000  0.82693000  0.41793000  1.0
  H  H3  1  0.24707000  0.17305000  0.58207000  1.0
  H  H4  1  0.69252000  0.39027000  0.08123000  1.0
  H  H5  1  0.30747000  0.60974000  0.91876000  1.0
  H  H6  1  0.64768000  0.69997000  0.01765000  1.0
  H  H7  1  0.35232000  0.30004000  0.98234000  1.0
  H  H8  1  0.57135000  0.55586000  0.22212000  1.0
  H  H9  1  0.42867000  0.44414000  0.77789000  1.0
  H  H10  1  0.39921000  0.67462000  0.45284000  1.0
  H  H11  1  0.60078000  0.32537000  0.54716000  1.0
  H  H12  1  0.70967000  0.57062000  0.49483000  1.0
  H  H13  1  0.29032000  0.42937000  0.50517000  1.0
  H  H14  1  0.87033000  0.48981000  0.28169000  1.0
  H  H15  1  0.12968000  0.51019000  0.71832000  1.0
  H  H16  1  0.97938000  0.53955000  0.39651000  1.0
  H  H17  1  0.02064000  0.46045000  0.60349000  1.0
  H  H18  1  0.58076000  0.31480000  0.18243000  1.0
  H  H19  1  0.41926000  0.68521000  0.81758000  1.0
  H  H20  1  0.40984000  0.11664000  0.12665000  1.0
  H  H21  1  0.59018000  0.88337000  0.87335000  1.0
  H  H22  1  0.41364000  0.98163000  0.22294000  1.0
  H  H23  1  0.58636000  0.01838000  0.77706000  1.0
  H  H24  1  0.58638000  0.03692000  0.37918000  1.0
  H  H25  1  0.41362000  0.96308000  0.62082000  1.0
  H  H26  1  0.21698000  0.79379000  0.05947000  1.0
  H  H27  1  0.78302000  0.20621000  0.94054000  1.0
  H  H28  1  0.55218000  0.92138000  0.01491000  1.0
  H  H29  1  0.44782000  0.07862000  0.98509000  1.0
  H  H30  1  0.74377000  0.81460000  0.24903000  1.0
  H  H31  1  0.25623000  0.18540000  0.75097000  1.0
  H  H32  1  0.08825000  0.07538000  0.32541000  1.0
  H  H33  1  0.91175000  0.92462000  0.67459000  1.0
  H  H34  1  0.23589000  0.26153000  0.41393000  1.0
  H  H35  1  0.76411000  0.73846000  0.58607000  1.0
  H  H36  1  0.25875000  0.42686000  0.34749000  1.0
  H  H37  1  0.74126000  0.57313000  0.65252000  1.0
  H  H38  1  0.12399000  0.41079000  0.18748000  1.0
  H  H39  1  0.87601000  0.58921000  0.81252000  1.0
  H  H40  1  0.01306000  0.92177000  0.18933000  1.0
  H  H41  1  0.98694000  0.07822000  0.81067000  1.0
  H  H42  1  0.95224000  0.90021000  0.07301000  1.0
  H  H43  1  0.04775000  0.09979000  0.92698000  1.0
  H  H44  1  0.64758000  0.95680000  0.52281000  1.0
  H  H45  1  0.35240000  0.04319000  0.47719000  1.0
  C  C46  1  0.86049000  0.90293000  0.45401000  1.0
  C  C47  1  0.13949000  0.09706000  0.54599000  1.0
  C  C48  1  0.05891000  0.92681000  0.44064000  1.0
  C  C49  1  0.94107000  0.07318000  0.55936000  1.0
  C  C50  1  0.12031000  0.84907000  0.37652000  1.0
  C  C51  1  0.87967000  0.15093000  0.62348000  1.0
  C  C52  1  0.88388000  0.60744000  0.12046000  1.0
  C  C53  1  0.11612000  0.39256000  0.87954000  1.0
  C  C54  1  0.68823000  0.55105000  0.05671000  1.0
  C  C55  1  0.31177000  0.44896000  0.94329000  1.0
  C  C56  1  0.60577000  0.43789000  0.04627000  1.0
  C  C57  1  0.39424000  0.56212000  0.95372000  1.0
  C  C58  1  0.58153000  0.61243000  0.00943000  1.0
  C  C59  1  0.41847000  0.38758000  0.99056000  1.0
  C  C60  1  0.56166000  0.57401000  0.29005000  1.0
  C  C61  1  0.43835000  0.42599000  0.70996000  1.0
  C  C62  1  0.47906000  0.63311000  0.41152000  1.0
  C  C63  1  0.52093000  0.36688000  0.58848000  1.0
  C  C64  1  0.63107000  0.58301000  0.43330000  1.0
  C  C65  1  0.36893000  0.41699000  0.56670000  1.0
  C  C66  1  0.84283000  0.49219000  0.34800000  1.0
  C  C67  1  0.15718000  0.50781000  0.65201000  1.0
  C  C68  1  0.68379000  0.28567000  0.31323000  1.0
  C  C69  1  0.31623000  0.71433000  0.68678000  1.0
  C  C70  1  0.58524000  0.25540000  0.22489000  1.0
  C  C71  1  0.41477000  0.74460000  0.77511000  1.0
  C  C72  1  0.49093000  0.14475000  0.19465000  1.0
  C  C73  1  0.50908000  0.85526000  0.80535000  1.0
  C  C74  1  0.49250000  0.06715000  0.24973000  1.0
  C  C75  1  0.50750000  0.93286000  0.75027000  1.0
  C  C76  1  0.58881000  0.09720000  0.33726000  1.0
  C  C77  1  0.41119000  0.90280000  0.66274000  1.0
  C  C78  1  0.68585000  0.20863000  0.36888000  1.0
  C  C79  1  0.31416000  0.79137000  0.63112000  1.0
  C  C80  1  0.37493000  0.81906000  0.09303000  1.0
  C  C81  1  0.62506000  0.18095000  0.90697000  1.0
  C  C82  1  0.53843000  0.88068000  0.06957000  1.0
  C  C83  1  0.46156000  0.11933000  0.93043000  1.0
  C  C84  1  0.64154000  0.82755000  0.19331000  1.0
  C  C85  1  0.35845000  0.17245000  0.80669000  1.0
  C  C86  1  0.02869000  0.13920000  0.20531000  1.0
  C  C87  1  0.97130000  0.86080000  0.79469000  1.0
  C  C88  1  0.09703000  0.14683000  0.29497000  1.0
  C  C89  1  0.90296000  0.85316000  0.70503000  1.0
  C  C90  1  0.18027000  0.25202000  0.34385000  1.0
  C  C91  1  0.81973000  0.74797000  0.65615000  1.0
  C  C92  1  0.19235000  0.34621000  0.30573000  1.0
  C  C93  1  0.80765000  0.65378000  0.69427000  1.0
  C  C94  1  0.12060000  0.33875000  0.21705000  1.0
  C  C95  1  0.87940000  0.66125000  0.78296000  1.0
  C  C96  1  0.03830000  0.23270000  0.16666000  1.0
  C  C97  1  0.96170000  0.76730000  0.83334000  1.0
  C  C98  1  0.91457000  0.93673000  0.13292000  1.0
  C  C99  1  0.08543000  0.06327000  0.86707000  1.0
  C  C100  1  0.80201000  0.97531000  0.51282000  1.0
  C  C101  1  0.19797000  0.02468000  0.48718000  1.0
  N  N102  1  0.43724000  0.62663000  0.32190000  1.0
  N  N103  1  0.56277000  0.37337000  0.67811000  1.0
  N  N104  1  0.68135000  0.54618000  0.35580000  1.0
  N  N105  1  0.31866000  0.45381000  0.64421000  1.0
  N  N106  1  0.79389000  0.38302000  0.36638000  1.0
  N  N107  1  0.20612000  0.61698000  0.63362000  1.0
  N  N108  1  0.85819000  0.36689000  0.44929000  1.0
  N  N109  1  0.14182000  0.63311000  0.55071000  1.0
  N  N110  1  0.79452000  0.26358000  0.45122000  1.0
  N  N111  1  0.20550000  0.73642000  0.54878000  1.0
  N  N112  1  0.44144000  0.78680000  0.17018000  1.0
  N  N113  1  0.55856000  0.21321000  0.82982000  1.0
  N  N114  1  0.70559000  0.88549000  0.13370000  1.0
  N  N115  1  0.29441000  0.11451000  0.86630000  1.0
  N  N116  1  0.95026000  0.05317000  0.13600000  1.0
  N  N117  1  0.04973000  0.94683000  0.86400000  1.0
  N  N118  1  0.91137000  0.09129000  0.05995000  1.0
  N  N119  1  0.08863000  0.90871000  0.94005000  1.0
  N  N120  1  0.96286000  0.19791000  0.07785000  1.0
  N  N121  1  0.03715000  0.80209000  0.92216000  1.0
  O  O122  1  0.30235000  0.87130000  0.36626000  1.0
  O  O123  1  0.69763000  0.12870000  0.63373000  1.0
  O  O124  1  0.98596000  0.76370000  0.33163000  1.0
  O  O125  1  0.01403000  0.23629000  0.66837000  1.0
  O  O126  1  0.95954000  0.70882000  0.12443000  1.0
  O  O127  1  0.04047000  0.29119000  0.87557000  1.0
  O  O128  1  0.96482000  0.55212000  0.17125000  1.0
  O  O129  1  0.03519000  0.44788000  0.82874000  1.0
