# generated using pymatgen
data_ZnH8(C3N2)3
_symmetry_space_group_name_H-M   'P 1'
_cell_length_a   16.20210000
_cell_length_b   16.69240000
_cell_length_c   19.08240000
_cell_angle_alpha   90.00010000
_cell_angle_beta   90.00000000
_cell_angle_gamma   90.00000000
_symmetry_Int_Tables_number   1
_chemical_formula_structural   ZnH8(C3N2)3
_chemical_formula_sum   'Zn16 H128 C144 N96'
_cell_volume   5160.87198612
_cell_formula_units_Z   16
loop_
 _symmetry_equiv_pos_site_id
 _symmetry_equiv_pos_as_xyz
  1  'x, y, z'
loop_
 _atom_site_type_symbol
 _atom_site_label
 _atom_site_symmetry_multiplicity
 _atom_site_fract_x
 _atom_site_fract_y
 _atom_site_fract_z
 _atom_site_occupancy
  Zn  Zn0  1  0.53641000  0.27106000  0.59523000  1.0
  Zn  Zn1  1  0.96360000  0.72894000  0.09523000  1.0
  Zn  Zn2  1  0.46360000  0.77106000  0.90477000  1.0
  Zn  Zn3  1  0.03640000  0.22894000  0.40477000  1.0
  Zn  Zn4  1  0.46360000  0.72894000  0.40477000  1.0
  Zn  Zn5  1  0.03640000  0.27106000  0.90477000  1.0
  Zn  Zn6  1  0.53640000  0.22894000  0.09523000  1.0
  Zn  Zn7  1  0.96360000  0.77106000  0.59523000  1.0
  Zn  Zn8  1  0.85603000  0.11430000  0.67114000  1.0
  Zn  Zn9  1  0.64397000  0.88570000  0.17115000  1.0
  Zn  Zn10  1  0.14397000  0.61430000  0.82885000  1.0
  Zn  Zn11  1  0.35603000  0.38570000  0.32885000  1.0
  Zn  Zn12  1  0.14397000  0.88570000  0.32886000  1.0
  Zn  Zn13  1  0.35603000  0.11430000  0.82885000  1.0
  Zn  Zn14  1  0.85602000  0.38570000  0.17115000  1.0
  Zn  Zn15  1  0.64397000  0.61430000  0.67115000  1.0
  H  H16  1  0.70263000  0.12924000  0.77560000  1.0
  H  H17  1  0.79737000  0.87076000  0.27560000  1.0
  H  H18  1  0.29737000  0.62924000  0.72440000  1.0
  H  H19  1  0.20263000  0.37076000  0.22440000  1.0
  H  H20  1  0.29737000  0.87076000  0.22440000  1.0
  H  H21  1  0.20263000  0.12924000  0.72440000  1.0
  H  H22  1  0.70263000  0.37076000  0.27560000  1.0
  H  H23  1  0.79737000  0.62924000  0.77560000  1.0
  H  H24  1  0.62364000  0.17704000  0.87997000  1.0
  H  H25  1  0.87636000  0.82296000  0.37998000  1.0
  H  H26  1  0.37636000  0.67704000  0.62002000  1.0
  H  H27  1  0.12364000  0.32296000  0.12002000  1.0
  H  H28  1  0.37636000  0.82296000  0.12003000  1.0
  H  H29  1  0.12364000  0.17704000  0.62002000  1.0
  H  H30  1  0.62364000  0.32296000  0.37998000  1.0
  H  H31  1  0.87637000  0.67704000  0.87998000  1.0
  H  H32  1  0.69255000  0.25211000  0.97496000  1.0
  H  H33  1  0.80745000  0.74789000  0.47496000  1.0
  H  H34  1  0.30745000  0.75211000  0.52504000  1.0
  H  H35  1  0.19255000  0.24789000  0.02504000  1.0
  H  H36  1  0.30745000  0.74789000  0.02504000  1.0
  H  H37  1  0.19255000  0.25212000  0.52504000  1.0
  H  H38  1  0.69255000  0.24789000  0.47496000  1.0
  H  H39  1  0.80745000  0.75211000  0.97496000  1.0
  H  H40  1  0.84308000  0.27896000  0.97131000  1.0
  H  H41  1  0.65692000  0.72104000  0.47131000  1.0
  H  H42  1  0.15692000  0.77896000  0.52869000  1.0
  H  H43  1  0.34308000  0.22104000  0.02869000  1.0
  H  H44  1  0.15692000  0.72104000  0.02869000  1.0
  H  H45  1  0.34308000  0.27896000  0.52869000  1.0
  H  H46  1  0.84308000  0.22104000  0.47131000  1.0
  H  H47  1  0.65692000  0.77895000  0.97131000  1.0
  H  H48  1  0.08031000  0.19592000  0.78345000  1.0
  H  H49  1  0.41969000  0.80408000  0.28345000  1.0
  H  H50  1  0.91969000  0.69592000  0.71655000  1.0
  H  H51  1  0.58031000  0.30408000  0.21655000  1.0
  H  H52  1  0.91969000  0.80408000  0.21655000  1.0
  H  H53  1  0.58031000  0.19592000  0.71654000  1.0
  H  H54  1  0.08031000  0.30408000  0.28345000  1.0
  H  H55  1  0.41969000  0.69592000  0.78345000  1.0
  H  H56  1  0.03387000  0.12737000  0.72435000  1.0
  H  H57  1  0.46613000  0.87263000  0.22436000  1.0
  H  H58  1  0.96613000  0.62737000  0.77564000  1.0
  H  H59  1  0.53387000  0.37263000  0.27564000  1.0
  H  H60  1  0.96613000  0.87263000  0.27565000  1.0
  H  H61  1  0.53387000  0.12737000  0.77564000  1.0
  H  H62  1  0.03387000  0.37263000  0.22435000  1.0
  H  H63  1  0.46613000  0.62738000  0.72435000  1.0
  H  H64  1  0.02909000  0.23265000  0.70804000  1.0
  H  H65  1  0.47090000  0.76735000  0.20804000  1.0
  H  H66  1  0.97090000  0.73265000  0.79196000  1.0
  H  H67  1  0.52910000  0.26735000  0.29196000  1.0
  H  H68  1  0.97090000  0.76735000  0.29196000  1.0
  H  H69  1  0.52910000  0.23265000  0.79196000  1.0
  H  H70  1  0.02910000  0.26735000  0.20804000  1.0
  H  H71  1  0.47091000  0.73265000  0.70804000  1.0
  H  H72  1  0.48604000  0.09689000  0.55718000  1.0
  H  H73  1  0.01396000  0.90311000  0.05718000  1.0
  H  H74  1  0.51396000  0.59689000  0.94282000  1.0
  H  H75  1  0.98604000  0.40311000  0.44282000  1.0
  H  H76  1  0.51396000  0.90311000  0.44282000  1.0
  H  H77  1  0.98604000  0.09689000  0.94282000  1.0
  H  H78  1  0.48604000  0.40311000  0.05718000  1.0
  H  H79  1  0.01396000  0.59689000  0.55718000  1.0
  H  H80  1  0.48740000  0.94871000  0.57491000  1.0
  H  H81  1  0.01260000  0.05129000  0.07491000  1.0
  H  H82  1  0.51260000  0.44871000  0.92509000  1.0
  H  H83  1  0.98740000  0.55129000  0.42509000  1.0
  H  H84  1  0.51261000  0.05129000  0.42509000  1.0
  H  H85  1  0.98740000  0.94871000  0.92510000  1.0
  H  H86  1  0.48740000  0.55129000  0.07491000  1.0
  H  H87  1  0.01260000  0.44871000  0.57491000  1.0
  H  H88  1  0.60868000  0.88059000  0.62364000  1.0
  H  H89  1  0.89132000  0.11941000  0.12364000  1.0
  H  H90  1  0.39132000  0.38059000  0.87636000  1.0
  H  H91  1  0.10868000  0.61941000  0.37636000  1.0
  H  H92  1  0.39132000  0.11941000  0.37636000  1.0
  H  H93  1  0.10868000  0.88059000  0.87636000  1.0
  H  H94  1  0.60868000  0.61941000  0.12364000  1.0
  H  H95  1  0.89132000  0.38059000  0.62364000  1.0
  H  H96  1  0.73608000  0.95674000  0.65575000  1.0
  H  H97  1  0.76392000  0.04326000  0.15576000  1.0
  H  H98  1  0.26391000  0.45674000  0.84424000  1.0
  H  H99  1  0.23608000  0.54326000  0.34424000  1.0
  H  H100  1  0.26392000  0.04326000  0.34425000  1.0
  H  H101  1  0.23608000  0.95674000  0.84424000  1.0
  H  H102  1  0.73608000  0.54326000  0.15576000  1.0
  H  H103  1  0.76392000  0.45674000  0.65576000  1.0
  H  H104  1  0.80948000  0.27150000  0.65167000  1.0
  H  H105  1  0.69052000  0.72849000  0.15168000  1.0
  H  H106  1  0.19052000  0.77151000  0.84832000  1.0
  H  H107  1  0.30948000  0.22850000  0.34833000  1.0
  H  H108  1  0.19052000  0.72850000  0.34833000  1.0
  H  H109  1  0.30948000  0.27151000  0.84832000  1.0
  H  H110  1  0.80948000  0.22849000  0.15167000  1.0
  H  H111  1  0.69052000  0.77150000  0.65167000  1.0
  H  H112  1  0.74423000  0.31648000  0.58835000  1.0
  H  H113  1  0.75577000  0.68352000  0.08835000  1.0
  H  H114  1  0.25577000  0.81648000  0.91165000  1.0
  H  H115  1  0.24423000  0.18353000  0.41165000  1.0
  H  H116  1  0.25577000  0.68352000  0.41165000  1.0
  H  H117  1  0.24423000  0.31648000  0.91165000  1.0
  H  H118  1  0.74422000  0.18352000  0.08835000  1.0
  H  H119  1  0.75578000  0.81647000  0.58835000  1.0
  H  H120  1  0.71269000  0.31089000  0.67756000  1.0
  H  H121  1  0.78731000  0.68911000  0.17756000  1.0
  H  H122  1  0.28731000  0.81089000  0.82244000  1.0
  H  H123  1  0.21269000  0.18911000  0.32244000  1.0
  H  H124  1  0.28731000  0.68911000  0.32244000  1.0
  H  H125  1  0.21269000  0.31090000  0.82244000  1.0
  H  H126  1  0.71269000  0.18911000  0.17756000  1.0
  H  H127  1  0.78731000  0.81089000  0.67756000  1.0
  H  H128  1  0.45608000  0.41630000  0.48685000  1.0
  H  H129  1  0.04392000  0.58371000  0.98685000  1.0
  H  H130  1  0.54392000  0.91629000  0.01315000  1.0
  H  H131  1  0.95608000  0.08370000  0.51315000  1.0
  H  H132  1  0.54392000  0.58370000  0.51315000  1.0
  H  H133  1  0.95608000  0.41630000  0.01315000  1.0
  H  H134  1  0.45608000  0.08370000  0.98685000  1.0
  H  H135  1  0.04392000  0.91630000  0.48685000  1.0
  H  H136  1  0.86936000  0.95130000  0.56364000  1.0
  H  H137  1  0.63064000  0.04870000  0.06365000  1.0
  H  H138  1  0.13066000  0.45129000  0.93635000  1.0
  H  H139  1  0.36935000  0.54870000  0.43635000  1.0
  H  H140  1  0.13065000  0.04870000  0.43635000  1.0
  H  H141  1  0.36935000  0.95130000  0.93635000  1.0
  H  H142  1  0.86936000  0.54870000  0.06364000  1.0
  H  H143  1  0.63063000  0.45130000  0.56364000  1.0
  C  C144  1  0.46173000  0.35660000  0.46493000  1.0
  C  C145  1  0.03827000  0.64341000  0.96493000  1.0
  C  C146  1  0.53827000  0.85659000  0.03507000  1.0
  C  C147  1  0.96173000  0.14340000  0.53507000  1.0
  C  C148  1  0.53827000  0.64340000  0.53507000  1.0
  C  C149  1  0.96173000  0.35660000  0.03507000  1.0
  C  C150  1  0.46172000  0.14340000  0.96493000  1.0
  C  C151  1  0.03827000  0.85659000  0.46493000  1.0
  C  C152  1  0.89767000  0.94469000  0.61488000  1.0
  C  C153  1  0.60233000  0.05531000  0.11488000  1.0
  C  C154  1  0.10233000  0.44468000  0.88512000  1.0
  C  C155  1  0.39767000  0.55531000  0.38512000  1.0
  C  C156  1  0.10233000  0.05531000  0.38512000  1.0
  C  C157  1  0.39767000  0.94469000  0.88512000  1.0
  C  C158  1  0.89768000  0.55531000  0.11488000  1.0
  C  C159  1  0.60232000  0.44469000  0.61488000  1.0
  C  C160  1  0.81755000  0.17917000  0.81466000  1.0
  C  C161  1  0.68245000  0.82083000  0.31466000  1.0
  C  C162  1  0.18245000  0.67917000  0.68534000  1.0
  C  C163  1  0.31755000  0.32083000  0.18534000  1.0
  C  C164  1  0.18245000  0.82083000  0.18534000  1.0
  C  C165  1  0.31755000  0.17916000  0.68534000  1.0
  C  C166  1  0.81755000  0.32083000  0.31466000  1.0
  C  C167  1  0.68245000  0.67917000  0.81466000  1.0
  C  C168  1  0.73314000  0.16191000  0.81770000  1.0
  C  C169  1  0.76686000  0.83809000  0.31770000  1.0
  C  C170  1  0.26686000  0.66191000  0.68230000  1.0
  C  C171  1  0.23314000  0.33809000  0.18230000  1.0
  C  C172  1  0.26686000  0.83809000  0.18231000  1.0
  C  C173  1  0.23314000  0.16191000  0.68230000  1.0
  C  C174  1  0.73314000  0.33809000  0.31770000  1.0
  C  C175  1  0.76686000  0.66191000  0.81770000  1.0
  C  C176  1  0.68972000  0.18835000  0.87640000  1.0
  C  C177  1  0.81028000  0.81165000  0.37641000  1.0
  C  C178  1  0.31027000  0.68835000  0.62359000  1.0
  C  C179  1  0.18973000  0.31165000  0.12360000  1.0
  C  C180  1  0.31028000  0.81165000  0.12360000  1.0
  C  C181  1  0.18973000  0.18835000  0.62359000  1.0
  C  C182  1  0.68972000  0.31165000  0.37640000  1.0
  C  C183  1  0.81028000  0.68835000  0.87640000  1.0
  C  C184  1  0.72909000  0.23056000  0.93080000  1.0
  C  C185  1  0.77091000  0.76944000  0.43080000  1.0
  C  C186  1  0.27090000  0.73056000  0.56920000  1.0
  C  C187  1  0.22910000  0.26944000  0.06920000  1.0
  C  C188  1  0.27091000  0.76944000  0.06920000  1.0
  C  C189  1  0.22910000  0.23056000  0.56920000  1.0
  C  C190  1  0.72909000  0.26944000  0.43080000  1.0
  C  C191  1  0.77091000  0.73055000  0.93080000  1.0
  C  C192  1  0.81356000  0.24650000  0.92867000  1.0
  C  C193  1  0.68644000  0.75350000  0.42867000  1.0
  C  C194  1  0.18644000  0.74650000  0.57133000  1.0
  C  C195  1  0.31356000  0.25350000  0.07133000  1.0
  C  C196  1  0.18644000  0.75350000  0.07133000  1.0
  C  C197  1  0.31357000  0.24650000  0.57133000  1.0
  C  C198  1  0.81356000  0.25350000  0.42867000  1.0
  C  C199  1  0.68644000  0.74649000  0.92867000  1.0
  C  C200  1  0.85798000  0.22036000  0.86999000  1.0
  C  C201  1  0.64202000  0.77963000  0.36999000  1.0
  C  C202  1  0.14201000  0.72036000  0.63001000  1.0
  C  C203  1  0.35798000  0.27964000  0.13001000  1.0
  C  C204  1  0.14201000  0.77964000  0.13001000  1.0
  C  C205  1  0.35799000  0.22036000  0.63001000  1.0
  C  C206  1  0.85798000  0.27964000  0.36999000  1.0
  C  C207  1  0.64202000  0.72036000  0.86999000  1.0
  C  C208  1  0.94864000  0.19138000  0.78847000  1.0
  C  C209  1  0.55136000  0.80862000  0.28847000  1.0
  C  C210  1  0.05136000  0.69138000  0.71153000  1.0
  C  C211  1  0.44864000  0.30862000  0.21153000  1.0
  C  C212  1  0.05136000  0.80862000  0.21153000  1.0
  C  C213  1  0.44864000  0.19138000  0.71153000  1.0
  C  C214  1  0.94864000  0.30862000  0.28847000  1.0
  C  C215  1  0.55137000  0.69138000  0.78847000  1.0
  C  C216  1  0.02738000  0.18649000  0.74898000  1.0
  C  C217  1  0.47263000  0.81351000  0.24898000  1.0
  C  C218  1  0.97262000  0.68649000  0.75102000  1.0
  C  C219  1  0.52738000  0.31351000  0.25102000  1.0
  C  C220  1  0.97262000  0.81351000  0.25102000  1.0
  C  C221  1  0.52738000  0.18649000  0.75102000  1.0
  C  C222  1  0.02737000  0.31351000  0.24898000  1.0
  C  C223  1  0.47263000  0.68649000  0.74898000  1.0
  C  C224  1  0.61144000  0.10959000  0.59657000  1.0
  C  C225  1  0.88856000  0.89041000  0.09657000  1.0
  C  C226  1  0.38856000  0.60959000  0.90343000  1.0
  C  C227  1  0.11144000  0.39041000  0.40343000  1.0
  C  C228  1  0.38856000  0.89041000  0.40343000  1.0
  C  C229  1  0.11144000  0.10959000  0.90343000  1.0
  C  C230  1  0.61144000  0.39041000  0.09657000  1.0
  C  C231  1  0.88856000  0.60958000  0.59657000  1.0
  C  C232  1  0.54036000  0.06684000  0.57821000  1.0
  C  C233  1  0.95964000  0.93315000  0.07821000  1.0
  C  C234  1  0.45965000  0.56684000  0.92179000  1.0
  C  C235  1  0.04035000  0.43316000  0.42179000  1.0
  C  C236  1  0.45965000  0.93315000  0.42179000  1.0
  C  C237  1  0.04035000  0.06685000  0.92179000  1.0
  C  C238  1  0.54035000  0.43316000  0.07821000  1.0
  C  C239  1  0.95965000  0.56684000  0.57821000  1.0
  C  C240  1  0.54171000  0.98418000  0.58804000  1.0
  C  C241  1  0.95829000  0.01582000  0.08804000  1.0
  C  C242  1  0.45829000  0.48418000  0.91195000  1.0
  C  C243  1  0.04171000  0.51582000  0.41196000  1.0
  C  C244  1  0.45830000  0.01582000  0.41195000  1.0
  C  C245  1  0.04171000  0.98418000  0.91196000  1.0
  C  C246  1  0.54171000  0.51582000  0.08805000  1.0
  C  C247  1  0.95829000  0.48418000  0.58804000  1.0
  C  C248  1  0.61163000  0.94506000  0.61544000  1.0
  C  C249  1  0.88837000  0.05494000  0.11543000  1.0
  C  C250  1  0.38837000  0.44505000  0.88456000  1.0
  C  C251  1  0.11163000  0.55495000  0.38457000  1.0
  C  C252  1  0.38838000  0.05494000  0.38457000  1.0
  C  C253  1  0.11163000  0.94505000  0.88457000  1.0
  C  C254  1  0.61162000  0.55494000  0.11544000  1.0
  C  C255  1  0.88837000  0.44505000  0.61544000  1.0
  C  C256  1  0.68298000  0.98714000  0.63299000  1.0
  C  C257  1  0.81702000  0.01286000  0.13299000  1.0
  C  C258  1  0.31702000  0.48714000  0.86701000  1.0
  C  C259  1  0.18298000  0.51286000  0.36701000  1.0
  C  C260  1  0.31702000  0.01286000  0.36701000  1.0
  C  C261  1  0.18298000  0.98714000  0.86701000  1.0
  C  C262  1  0.68298000  0.51286000  0.13299000  1.0
  C  C263  1  0.81702000  0.48714000  0.63299000  1.0
  C  C264  1  0.68245000  0.07018000  0.62275000  1.0
  C  C265  1  0.81755000  0.92982000  0.12275000  1.0
  C  C266  1  0.31755000  0.57018000  0.87725000  1.0
  C  C267  1  0.18245000  0.42982000  0.37725000  1.0
  C  C268  1  0.31755000  0.92982000  0.37725000  1.0
  C  C269  1  0.18245000  0.07018000  0.87725000  1.0
  C  C270  1  0.68244000  0.42982000  0.12275000  1.0
  C  C271  1  0.81756000  0.57018000  0.62275000  1.0
  C  C272  1  0.70530000  0.19989000  0.62237000  1.0
  C  C273  1  0.79470000  0.80011000  0.12237000  1.0
  C  C274  1  0.29470000  0.69989000  0.87763000  1.0
  C  C275  1  0.20530000  0.30011000  0.37763000  1.0
  C  C276  1  0.29470000  0.80011000  0.37763000  1.0
  C  C277  1  0.20530000  0.19989000  0.87762000  1.0
  C  C278  1  0.70530000  0.30011000  0.12238000  1.0
  C  C279  1  0.79470000  0.69989000  0.62237000  1.0
  C  C280  1  0.74513000  0.27872000  0.63549000  1.0
  C  C281  1  0.75487000  0.72128000  0.13549000  1.0
  C  C282  1  0.25487000  0.77872000  0.86451000  1.0
  C  C283  1  0.24513000  0.22128000  0.36451000  1.0
  C  C284  1  0.25487000  0.72128000  0.36451000  1.0
  C  C285  1  0.24513000  0.27872000  0.86451000  1.0
  C  C286  1  0.74513000  0.22128000  0.13549000  1.0
  C  C287  1  0.75487000  0.77872000  0.63549000  1.0
  N  N288  1  0.42986000  0.33252000  0.40386000  1.0
  N  N289  1  0.07014000  0.66749000  0.90386000  1.0
  N  N290  1  0.57014000  0.83251000  0.09614000  1.0
  N  N291  1  0.92986000  0.16748000  0.59614000  1.0
  N  N292  1  0.57014000  0.66748000  0.59614000  1.0
  N  N293  1  0.92986000  0.33252000  0.09614000  1.0
  N  N294  1  0.42985000  0.16748000  0.90386000  1.0
  N  N295  1  0.07014000  0.83252000  0.40386000  1.0
  N  N296  1  0.50027000  0.29518000  0.49596000  1.0
  N  N297  1  0.99973000  0.70482000  0.99596000  1.0
  N  N298  1  0.49974000  0.79518000  0.00404000  1.0
  N  N299  1  0.00026000  0.20482000  0.50404000  1.0
  N  N300  1  0.49974000  0.70482000  0.50404000  1.0
  N  N301  1  0.00026000  0.29518000  0.00404000  1.0
  N  N302  1  0.50026000  0.20482000  0.99596000  1.0
  N  N303  1  0.99973000  0.79518000  0.49596000  1.0
  N  N304  1  0.49151000  0.23126000  0.45239000  1.0
  N  N305  1  0.00849000  0.76875000  0.95239000  1.0
  N  N306  1  0.50849000  0.73125000  0.04761000  1.0
  N  N307  1  0.99151000  0.26874000  0.54762000  1.0
  N  N308  1  0.50849000  0.76874000  0.54762000  1.0
  N  N309  1  0.99150000  0.23126000  0.04762000  1.0
  N  N310  1  0.49151000  0.26874000  0.95239000  1.0
  N  N311  1  0.00849000  0.73126000  0.45238000  1.0
  N  N312  1  0.89675000  0.99987000  0.66571000  1.0
  N  N313  1  0.60324000  0.00013000  0.16571000  1.0
  N  N314  1  0.10324000  0.49988000  0.83430000  1.0
  N  N315  1  0.39675000  0.50013000  0.33429000  1.0
  N  N316  1  0.10325000  0.00013000  0.33429000  1.0
  N  N317  1  0.39676000  0.99987000  0.83429000  1.0
  N  N318  1  0.89675000  0.50013000  0.16571000  1.0
  N  N319  1  0.60325000  0.49987000  0.66571000  1.0
  N  N320  1  0.93631000  0.87898000  0.63777000  1.0
  N  N321  1  0.56369000  0.12102000  0.13777000  1.0
  N  N322  1  0.06369000  0.37899000  0.86223000  1.0
  N  N323  1  0.43630000  0.62102000  0.36223000  1.0
  N  N324  1  0.06369000  0.12102000  0.36223000  1.0
  N  N325  1  0.43631000  0.87898000  0.86223000  1.0
  N  N326  1  0.93631000  0.62102000  0.13778000  1.0
  N  N327  1  0.56370000  0.37898000  0.63777000  1.0
  N  N328  1  0.95977000  0.89460000  0.70517000  1.0
  N  N329  1  0.54022000  0.10540000  0.20516000  1.0
  N  N330  1  0.04021000  0.39461000  0.79484000  1.0
  N  N331  1  0.45977000  0.60540000  0.29483000  1.0
  N  N332  1  0.04023000  0.10540000  0.29483000  1.0
  N  N333  1  0.45978000  0.89460000  0.79484000  1.0
  N  N334  1  0.95976000  0.60541000  0.20517000  1.0
  N  N335  1  0.54024000  0.39459000  0.70517000  1.0
  N  N336  1  0.87640000  0.16215000  0.76374000  1.0
  N  N337  1  0.62360000  0.83785000  0.26374000  1.0
  N  N338  1  0.12360000  0.66215000  0.73626000  1.0
  N  N339  1  0.37640000  0.33785000  0.23626000  1.0
  N  N340  1  0.12360000  0.83785000  0.23626000  1.0
  N  N341  1  0.37641000  0.16215000  0.73626000  1.0
  N  N342  1  0.87640000  0.33785000  0.26374000  1.0
  N  N343  1  0.62360000  0.66215000  0.76374000  1.0
  N  N344  1  0.94102000  0.22674000  0.85192000  1.0
  N  N345  1  0.55899000  0.77326000  0.35192000  1.0
  N  N346  1  0.05898000  0.72674000  0.64808000  1.0
  N  N347  1  0.44102000  0.27326000  0.14808000  1.0
  N  N348  1  0.05898000  0.77326000  0.14808000  1.0
  N  N349  1  0.44102000  0.22674000  0.64808000  1.0
  N  N350  1  0.94101000  0.27326000  0.35192000  1.0
  N  N351  1  0.55899000  0.72673000  0.85192000  1.0
  N  N352  1  0.62759000  0.19175000  0.59709000  1.0
  N  N353  1  0.87241000  0.80825000  0.09709000  1.0
  N  N354  1  0.37241000  0.69175000  0.90291000  1.0
  N  N355  1  0.12759000  0.30825000  0.40291000  1.0
  N  N356  1  0.37241000  0.80825000  0.40291000  1.0
  N  N357  1  0.12759000  0.19175000  0.90291000  1.0
  N  N358  1  0.62759000  0.30825000  0.09709000  1.0
  N  N359  1  0.87241000  0.69175000  0.59709000  1.0
  N  N360  1  0.74132000  0.12876000  0.63742000  1.0
  N  N361  1  0.75868000  0.87124000  0.13742000  1.0
  N  N362  1  0.25868000  0.62876000  0.86258000  1.0
  N  N363  1  0.24131000  0.37124000  0.36258000  1.0
  N  N364  1  0.25868000  0.87124000  0.36258000  1.0
  N  N365  1  0.24131000  0.12876000  0.86258000  1.0
  N  N366  1  0.74131000  0.37124000  0.13742000  1.0
  N  N367  1  0.75868000  0.62876000  0.63742000  1.0
  N  N368  1  0.44956000  0.25356000  0.39768000  1.0
  N  N369  1  0.05044000  0.74645000  0.89768000  1.0
  N  N370  1  0.55044000  0.75355000  0.10232000  1.0
  N  N371  1  0.94956000  0.24644000  0.60232000  1.0
  N  N372  1  0.55044000  0.74644000  0.60232000  1.0
  N  N373  1  0.94956000  0.25356000  0.10232000  1.0
  N  N374  1  0.44956000  0.24644000  0.89768000  1.0
  N  N375  1  0.05044000  0.75356000  0.39768000  1.0
  N  N376  1  0.93632000  0.96654000  0.72172000  1.0
  N  N377  1  0.56368000  0.03345000  0.22172000  1.0
  N  N378  1  0.06366000  0.46656000  0.77828000  1.0
  N  N379  1  0.43632000  0.53345000  0.27828000  1.0
  N  N380  1  0.06368000  0.03345000  0.27828000  1.0
  N  N381  1  0.43633000  0.96655000  0.77828000  1.0
  N  N382  1  0.93631000  0.53346000  0.22173000  1.0
  N  N383  1  0.56369000  0.46654000  0.72173000  1.0
