# generated using pymatgen
data_CuH6C2N(OF)2
_symmetry_space_group_name_H-M   'P 1'
_cell_length_a   6.70821000
_cell_length_b   7.57686000
_cell_length_c   11.19270000
_cell_angle_alpha   109.75700000
_cell_angle_beta   97.24850000
_cell_angle_gamma   90.01250000
_symmetry_Int_Tables_number   1
_chemical_formula_structural   CuH6C2N(OF)2
_chemical_formula_sum   'Cu4 H24 C8 N4 O8 F8'
_cell_volume   530.56616417
_cell_formula_units_Z   4
loop_
 _symmetry_equiv_pos_site_id
 _symmetry_equiv_pos_as_xyz
  1  'x, y, z'
loop_
 _atom_site_type_symbol
 _atom_site_label
 _atom_site_symmetry_multiplicity
 _atom_site_fract_x
 _atom_site_fract_y
 _atom_site_fract_z
 _atom_site_occupancy
  Cu  Cu0  1  0.78306000  0.16916000  0.83936000  1.0
  Cu  Cu1  1  0.71777000  0.32968000  0.16035000  1.0
  Cu  Cu2  1  0.21792000  0.83073000  0.16031000  1.0
  Cu  Cu3  1  0.28304000  0.67030000  0.83948000  1.0
  H  H4  1  0.45418000  0.09165000  0.90006000  1.0
  H  H5  1  0.04773000  0.19274000  0.10200000  1.0
  H  H6  1  0.54786000  0.90951000  0.10233000  1.0
  H  H7  1  0.95363000  0.80793000  0.89910000  1.0
  H  H8  1  0.45651000  0.30641000  0.90677000  1.0
  H  H9  1  0.04529000  0.40054000  0.09493000  1.0
  H  H10  1  0.54546000  0.69460000  0.09523000  1.0
  H  H11  1  0.95593000  0.59991000  0.90584000  1.0
  H  H12  1  0.12194000  0.25446000  0.79901000  1.0
  H  H13  1  0.37839000  0.45481000  0.19926000  1.0
  H  H14  1  0.87854000  0.74455000  0.19907000  1.0
  H  H15  1  0.62154000  0.54439000  0.79865000  1.0
  H  H16  1  0.12074000  0.04118000  0.79222000  1.0
  H  H17  1  0.37974000  0.24833000  0.20635000  1.0
  H  H18  1  0.87993000  0.95816000  0.20624000  1.0
  H  H19  1  0.62024000  0.75102000  0.79193000  1.0
  H  H20  1  0.37430000  0.26864000  0.65886000  1.0
  H  H21  1  0.12434000  0.60967000  0.34136000  1.0
  H  H22  1  0.62439000  0.73193000  0.34207000  1.0
  H  H23  1  0.87407000  0.38951000  0.65826000  1.0
  H  H24  1  0.79649000  0.86046000  0.57201000  1.0
  H  H25  1  0.70139000  0.28896000  0.42837000  1.0
  H  H26  1  0.20184000  0.13973000  0.42892000  1.0
  H  H27  1  0.29629000  0.71113000  0.57138000  1.0
  C  C28  1  0.43033000  0.14861000  0.58766000  1.0
  C  C29  1  0.06809000  0.56095000  0.41259000  1.0
  C  C30  1  0.56816000  0.85189000  0.41323000  1.0
  C  C31  1  0.93004000  0.43858000  0.58710000  1.0
  C  C32  1  0.66267000  0.92236000  0.53953000  1.0
  C  C33  1  0.83540000  0.38310000  0.46082000  1.0
  C  C34  1  0.33570000  0.07796000  0.46138000  1.0
  C  C35  1  0.16248000  0.61674000  0.53893000  1.0
  N  N36  1  0.59402000  0.07043000  0.62681000  1.0
  N  N37  1  0.90425000  0.44381000  0.37350000  1.0
  N  N38  1  0.40442000  0.92995000  0.37409000  1.0
  N  N39  1  0.09379000  0.55587000  0.62624000  1.0
  O  O40  1  0.54270000  0.21037000  0.92921000  1.0
  O  O41  1  0.95939000  0.28188000  0.07229000  1.0
  O  O42  1  0.45957000  0.79063000  0.07257000  1.0
  O  O43  1  0.04202000  0.71836000  0.92828000  1.0
  O  O44  1  0.03607000  0.13470000  0.76541000  1.0
  O  O45  1  0.46425000  0.36883000  0.23317000  1.0
  O  O46  1  0.96444000  0.86441000  0.23298000  1.0
  O  O47  1  0.53561000  0.63066000  0.76517000  1.0
  F  F48  1  0.78989000  0.91071000  0.83796000  1.0
  F  F49  1  0.71081000  0.07263000  0.16221000  1.0
  F  F50  1  0.21092000  0.08941000  0.16200000  1.0
  F  F51  1  0.29059000  0.92755000  0.83834000  1.0
  F  F52  1  0.79008000  0.43300000  0.85051000  1.0
  F  F53  1  0.71059000  0.58218000  0.14857000  1.0
  F  F54  1  0.21050000  0.56656000  0.14863000  1.0
  F  F55  1  0.29066000  0.41777000  0.85107000  1.0
