# generated using pymatgen
data_HgH5C6SO2
_symmetry_space_group_name_H-M   'P 1'
_cell_length_a   5.18688000
_cell_length_b   8.36754000
_cell_length_c   17.07580000
_cell_angle_alpha   98.85010000
_cell_angle_beta   89.99940000
_cell_angle_gamma   89.99930000
_symmetry_Int_Tables_number   1
_chemical_formula_structural   HgH5C6SO2
_chemical_formula_sum   'Hg4 H20 C24 S4 O8'
_cell_volume   732.29053520
_cell_formula_units_Z   4
loop_
 _symmetry_equiv_pos_site_id
 _symmetry_equiv_pos_as_xyz
  1  'x, y, z'
loop_
 _atom_site_type_symbol
 _atom_site_label
 _atom_site_symmetry_multiplicity
 _atom_site_fract_x
 _atom_site_fract_y
 _atom_site_fract_z
 _atom_site_occupancy
  Hg  Hg0  1  0.23453000  0.13017000  0.23639000  1.0
  Hg  Hg1  1  0.73451000  0.36983000  0.76361000  1.0
  Hg  Hg2  1  0.76547000  0.86983000  0.76362000  1.0
  Hg  Hg3  1  0.26547000  0.63018000  0.23639000  1.0
  H  H4  1  0.76256000  0.39204000  0.27310000  1.0
  H  H5  1  0.26255000  0.10796000  0.72690000  1.0
  H  H6  1  0.23746000  0.60796000  0.72690000  1.0
  H  H7  1  0.73743000  0.89204000  0.27310000  1.0
  H  H8  1  0.66935000  0.57536000  0.40902000  1.0
  H  H9  1  0.16933000  0.92465000  0.59099000  1.0
  H  H10  1  0.33069000  0.42466000  0.59098000  1.0
  H  H11  1  0.83067000  0.07535000  0.40901000  1.0
  H  H12  1  0.93594000  0.91884000  0.05026000  1.0
  H  H13  1  0.43591000  0.58113000  0.94972000  1.0
  H  H14  1  0.06406000  0.08115000  0.94973000  1.0
  H  H15  1  0.56407000  0.41886000  0.05028000  1.0
  H  H16  1  0.62527000  0.87745000  0.00444000  1.0
  H  H17  1  0.12526000  0.62254000  0.99556000  1.0
  H  H18  1  0.37472000  0.12254000  0.99555000  1.0
  H  H19  1  0.87474000  0.37746000  0.00445000  1.0
  H  H20  1  0.73868000  0.75780000  0.07402000  1.0
  H  H21  1  0.23868000  0.74219000  0.92597000  1.0
  H  H22  1  0.26131000  0.24220000  0.92597000  1.0
  H  H23  1  0.76132000  0.25781000  0.07403000  1.0
  C  C24  1  0.09116000  0.29103000  0.32852000  1.0
  C  C25  1  0.59114000  0.20896000  0.67149000  1.0
  C  C26  1  0.90886000  0.70896000  0.67149000  1.0
  C  C27  1  0.40884000  0.79105000  0.32852000  1.0
  C  C28  1  0.87862000  0.39084000  0.32603000  1.0
  C  C29  1  0.37862000  0.10916000  0.67398000  1.0
  C  C30  1  0.12140000  0.60916000  0.67398000  1.0
  C  C31  1  0.62138000  0.89085000  0.32602000  1.0
  C  C32  1  0.82704000  0.48854000  0.39971000  1.0
  C  C33  1  0.32702000  0.01146000  0.60030000  1.0
  C  C34  1  0.17299000  0.51147000  0.60029000  1.0
  C  C35  1  0.67297000  0.98854000  0.39970000  1.0
  C  C36  1  0.99719000  0.46222000  0.45915000  1.0
  C  C37  1  0.49719000  0.03779000  0.54086000  1.0
  C  C38  1  0.00284000  0.53778000  0.54086000  1.0
  C  C39  1  0.50281000  0.96222000  0.45914000  1.0
  C  C40  1  0.61465000  0.98979000  0.12688000  1.0
  C  C41  1  0.11459000  0.51022000  0.87311000  1.0
  C  C42  1  0.38536000  0.01022000  0.87311000  1.0
  C  C43  1  0.88538000  0.48979000  0.12689000  1.0
  C  C44  1  0.73779000  0.88056000  0.05893000  1.0
  C  C45  1  0.23776000  0.61942000  0.94106000  1.0
  C  C46  1  0.26221000  0.11944000  0.94106000  1.0
  C  C47  1  0.76223000  0.38058000  0.05894000  1.0
  S  S48  1  0.22343000  0.31681000  0.42212000  1.0
  S  S49  1  0.72341000  0.18317000  0.57788000  1.0
  S  S50  1  0.77659000  0.68318000  0.57789000  1.0
  S  S51  1  0.27658000  0.81682000  0.42212000  1.0
  O  O52  1  0.36759000  0.96564000  0.13720000  1.0
  O  O53  1  0.86755000  0.53437000  0.86279000  1.0
  O  O54  1  0.63241000  0.03438000  0.86279000  1.0
  O  O55  1  0.13242000  0.46563000  0.13721000  1.0
  O  O56  1  0.73970000  0.09580000  0.17086000  1.0
  O  O57  1  0.23966000  0.40418000  0.82913000  1.0
  O  O58  1  0.26031000  0.90418000  0.82914000  1.0
  O  O59  1  0.76032000  0.59582000  0.17087000  1.0
