# generated using pymatgen
data_DyH7C8SO9
_symmetry_space_group_name_H-M   'P 1'
_cell_length_a   6.34959000
_cell_length_b   8.57813000
_cell_length_c   10.58590000
_cell_angle_alpha   90.63710000
_cell_angle_beta   99.71310000
_cell_angle_gamma   107.56200000
_symmetry_Int_Tables_number   1
_chemical_formula_structural   DyH7C8SO9
_chemical_formula_sum   'Dy2 H14 C16 S2 O18'
_cell_volume   540.65263795
_cell_formula_units_Z   2
loop_
 _symmetry_equiv_pos_site_id
 _symmetry_equiv_pos_as_xyz
  1  'x, y, z'
loop_
 _atom_site_type_symbol
 _atom_site_label
 _atom_site_symmetry_multiplicity
 _atom_site_fract_x
 _atom_site_fract_y
 _atom_site_fract_z
 _atom_site_occupancy
  Dy  Dy0  1  0.15294000  0.24609000  0.61461000  1.0
  Dy  Dy1  1  0.84706000  0.75391000  0.38539000  1.0
  H  H2  1  0.61819000  0.41339000  0.14452000  1.0
  H  H3  1  0.38181000  0.58661000  0.85548000  1.0
  H  H4  1  0.65737000  0.36594000  0.91891000  1.0
  H  H5  1  0.34262000  0.63406000  0.08109000  1.0
  H  H6  1  0.17976000  0.15245000  0.05465000  1.0
  H  H7  1  0.82023000  0.84754000  0.94535000  1.0
  H  H8  1  0.52729000  0.08412000  0.67683000  1.0
  H  H9  1  0.47272000  0.91588000  0.32317000  1.0
  H  H10  1  0.30118000  0.95352000  0.60678000  1.0
  H  H11  1  0.69883000  0.04649000  0.39322000  1.0
  H  H12  1  0.65330000  0.35509000  0.70912000  1.0
  H  H13  1  0.34670000  0.64491000  0.29087000  1.0
  H  H14  1  0.58210000  0.50627000  0.64943000  1.0
  H  H15  1  0.41791000  0.49373000  0.35057000  1.0
  C  C16  1  0.02100000  0.22438000  0.19994000  1.0
  C  C17  1  0.97900000  0.77562000  0.80007000  1.0
  C  C18  1  0.86736000  0.30378000  0.22712000  1.0
  C  C19  1  0.13265000  0.69622000  0.77288000  1.0
  C  C20  1  0.73694000  0.35207000  0.12365000  1.0
  C  C21  1  0.26306000  0.64793000  0.87635000  1.0
  C  C22  1  0.75990000  0.32609000  0.99724000  1.0
  C  C23  1  0.24010000  0.67391000  0.00276000  1.0
  C  C24  1  0.92267000  0.25603000  0.97245000  1.0
  C  C25  1  0.07733000  0.74396000  0.02755000  1.0
  C  C26  1  0.05092000  0.20410000  0.07423000  1.0
  C  C27  1  0.94908000  0.79589000  0.92577000  1.0
  C  C28  1  0.84501000  0.34722000  0.36147000  1.0
  C  C29  1  0.15499000  0.65277000  0.63853000  1.0
  C  C30  1  0.98170000  0.24615000  0.84273000  1.0
  C  C31  1  0.01829000  0.75384000  0.15727000  1.0
  S  S32  1  0.21022000  0.16447000  0.32011000  1.0
  S  S33  1  0.78978000  0.83553000  0.67989000  1.0
  O  O34  1  0.08271000  0.02576000  0.38634000  1.0
  O  O35  1  0.91729000  0.97425000  0.61366000  1.0
  O  O36  1  0.30782000  0.30717000  0.41668000  1.0
  O  O37  1  0.69218000  0.69283000  0.58332000  1.0
  O  O38  1  0.37201000  0.12535000  0.25471000  1.0
  O  O39  1  0.62799000  0.87464000  0.74529000  1.0
  O  O40  1  0.85392000  0.24499000  0.44782000  1.0
  O  O41  1  0.14608000  0.75501000  0.55218000  1.0
  O  O42  1  0.81949000  0.48455000  0.38207000  1.0
  O  O43  1  0.18051000  0.51545000  0.61792000  1.0
  O  O44  1  0.16856000  0.22253000  0.83561000  1.0
  O  O45  1  0.83144000  0.77747000  0.16439000  1.0
  O  O46  1  0.85360000  0.26410000  0.73981000  1.0
  O  O47  1  0.14639000  0.73590000  0.26019000  1.0
  O  O48  1  0.37424000  0.07181000  0.63307000  1.0
  O  O49  1  0.62577000  0.92819000  0.36692000  1.0
  O  O50  1  0.52828000  0.40448000  0.69342000  1.0
  O  O51  1  0.47172000  0.59552000  0.30658000  1.0
