# generated using pymatgen
data_ZnH10C8(NO2)2
_symmetry_space_group_name_H-M   'P 1'
_cell_length_a   5.25631000
_cell_length_b   5.75751000
_cell_length_c   15.99300000
_cell_angle_alpha   90.00070000
_cell_angle_beta   90.00020000
_cell_angle_gamma   110.37400000
_symmetry_Int_Tables_number   1
_chemical_formula_structural   ZnH10C8(NO2)2
_chemical_formula_sum   'Zn2 H20 C16 N4 O8'
_cell_volume   453.72125199
_cell_formula_units_Z   2
loop_
 _symmetry_equiv_pos_site_id
 _symmetry_equiv_pos_as_xyz
  1  'x, y, z'
loop_
 _atom_site_type_symbol
 _atom_site_label
 _atom_site_symmetry_multiplicity
 _atom_site_fract_x
 _atom_site_fract_y
 _atom_site_fract_z
 _atom_site_occupancy
  Zn  Zn0  1  0.22741000  0.95727000  0.25001000  1.0
  Zn  Zn1  1  0.77258000  0.04273000  0.75001000  1.0
  H  H2  1  0.16584000  0.51956000  0.19858000  1.0
  H  H3  1  0.83422000  0.48043000  0.69857000  1.0
  H  H4  1  0.83413000  0.48047000  0.80142000  1.0
  H  H5  1  0.16585000  0.51956000  0.30142000  1.0
  H  H6  1  0.45788000  0.62182000  0.25000000  1.0
  H  H7  1  0.54211000  0.37819000  0.74998000  1.0
  H  H8  1  0.63751000  0.33369000  0.19897000  1.0
  H  H9  1  0.36251000  0.66631000  0.69896000  1.0
  H  H10  1  0.36249000  0.66630000  0.80103000  1.0
  H  H11  1  0.63751000  0.33370000  0.30104000  1.0
  H  H12  1  0.75610000  0.14601000  0.25000000  1.0
  H  H13  1  0.24388000  0.85399000  0.75000000  1.0
  H  H14  1  0.92164000  0.32671000  0.04968000  1.0
  H  H15  1  0.07835000  0.67334000  0.54969000  1.0
  H  H16  1  0.07840000  0.67328000  0.95031000  1.0
  H  H17  1  0.92164000  0.32670000  0.45032000  1.0
  H  H18  1  0.62309000  0.42830000  0.94477000  1.0
  H  H19  1  0.37689000  0.57170000  0.44479000  1.0
  H  H20  1  0.37695000  0.57166000  0.05521000  1.0
  H  H21  1  0.62310000  0.42835000  0.55522000  1.0
  C  C22  1  0.83749000  0.87631000  0.12330000  1.0
  C  C23  1  0.16251000  0.12372000  0.62331000  1.0
  C  C24  1  0.16251000  0.12366000  0.87669000  1.0
  C  C25  1  0.83746000  0.87631000  0.37670000  1.0
  C  C26  1  0.66656000  0.94246000  0.05894000  1.0
  C  C27  1  0.33348000  0.05758000  0.55895000  1.0
  C  C28  1  0.33350000  0.05752000  0.94104000  1.0
  C  C29  1  0.66652000  0.94246000  0.44106000  1.0
  C  C30  1  0.73740000  0.18411000  0.02760000  1.0
  C  C31  1  0.26256000  0.81590000  0.52762000  1.0
  C  C32  1  0.26259000  0.81584000  0.97238000  1.0
  C  C33  1  0.73740000  0.18414000  0.47239000  1.0
  C  C34  1  0.57214000  0.24084000  0.96916000  1.0
  C  C35  1  0.42784000  0.75913000  0.46917000  1.0
  C  C36  1  0.42789000  0.75911000  0.03083000  1.0
  C  C37  1  0.57214000  0.24087000  0.53084000  1.0
  N  N38  1  0.26119000  0.61731000  0.25000000  1.0
  N  N39  1  0.73881000  0.38273000  0.75000000  1.0
  N  N40  1  0.60327000  0.21794000  0.25000000  1.0
  N  N41  1  0.39672000  0.78206000  0.75000000  1.0
  O  O42  1  0.03782000  0.05787000  0.15490000  1.0
  O  O43  1  0.96219000  0.94217000  0.65490000  1.0
  O  O44  1  0.96214000  0.94210000  0.84512000  1.0
  O  O45  1  0.03784000  0.05784000  0.34512000  1.0
  O  O46  1  0.77751000  0.65455000  0.14572000  1.0
  O  O47  1  0.22248000  0.34547000  0.64572000  1.0
  O  O48  1  0.22249000  0.34540000  0.85428000  1.0
  O  O49  1  0.77748000  0.65454000  0.35429000  1.0
