# generated using pymatgen
data_RbHCN4
_symmetry_space_group_name_H-M   'P 1'
_cell_length_a   8.24665500
_cell_length_b   8.24667000
_cell_length_c   11.26300000
_cell_angle_alpha   90.00030000
_cell_angle_beta   89.99980000
_cell_angle_gamma   120.00018051
_symmetry_Int_Tables_number   1
_chemical_formula_structural   RbHCN4
_chemical_formula_sum   'Rb6 H6 C6 N24'
_cell_volume   663.34638716
_cell_formula_units_Z   6
loop_
 _symmetry_equiv_pos_site_id
 _symmetry_equiv_pos_as_xyz
  1  'x, y, z'
loop_
 _atom_site_type_symbol
 _atom_site_label
 _atom_site_symmetry_multiplicity
 _atom_site_fract_x
 _atom_site_fract_y
 _atom_site_fract_z
 _atom_site_occupancy
  Rb  Rb0  1  0.33333333  0.66666667  0.96752000  1.0
  Rb  Rb1  1  0.66666667  0.33333333  0.46752000  1.0
  Rb  Rb2  1  0.66666667  0.33333333  0.03248000  1.0
  Rb  Rb3  1  0.33333333  0.66666667  0.53249000  1.0
  Rb  Rb4  1  0.00000000  0.00000000  0.00000000  1.0
  Rb  Rb5  1  0.00000000  0.00000000  0.50000000  1.0
  H  H6  1  0.59403000  0.95749000  0.25000000  1.0
  H  H7  1  0.36346000  0.40596000  0.25000000  1.0
  H  H8  1  0.04251000  0.63654000  0.25001000  1.0
  H  H9  1  0.63654000  0.59404000  0.75000000  1.0
  H  H10  1  0.95749000  0.36346000  0.75000000  1.0
  H  H11  1  0.40597000  0.04251000  0.74999000  1.0
  C  C12  1  0.62663000  0.84532000  0.25000000  1.0
  C  C13  1  0.21870000  0.37337000  0.25000000  1.0
  C  C14  1  0.15468000  0.78131000  0.25000000  1.0
  C  C15  1  0.78130000  0.62663000  0.75000000  1.0
  C  C16  1  0.84533000  0.21870000  0.75000000  1.0
  C  C17  1  0.37336000  0.15466000  0.75000000  1.0
  N  N18  1  0.65052000  0.76869000  0.15116000  1.0
  N  N19  1  0.11818000  0.34948000  0.15116000  1.0
  N  N20  1  0.23131000  0.88183000  0.15116000  1.0
  N  N21  1  0.88183000  0.65053000  0.65116000  1.0
  N  N22  1  0.76870000  0.11818000  0.65116000  1.0
  N  N23  1  0.34947000  0.23130000  0.65116000  1.0
  N  N24  1  0.34947000  0.23130000  0.84884000  1.0
  N  N25  1  0.88183000  0.65053000  0.84884000  1.0
  N  N26  1  0.76869000  0.11817000  0.84884000  1.0
  N  N27  1  0.11817000  0.34947000  0.34884000  1.0
  N  N28  1  0.23131000  0.88183000  0.34884000  1.0
  N  N29  1  0.65053000  0.76870000  0.34884000  1.0
  N  N30  1  0.69186000  0.63879000  0.19131000  1.0
  N  N31  1  0.94694000  0.30815000  0.19131000  1.0
  N  N32  1  0.36121000  0.05307000  0.19131000  1.0
  N  N33  1  0.05306000  0.69185000  0.69131000  1.0
  N  N34  1  0.63879000  0.94693000  0.69131000  1.0
  N  N35  1  0.30814000  0.36121000  0.69131000  1.0
  N  N36  1  0.30814000  0.36121000  0.80869000  1.0
  N  N37  1  0.05306000  0.69185000  0.80869000  1.0
  N  N38  1  0.63879000  0.94693000  0.80869000  1.0
  N  N39  1  0.94693000  0.30814000  0.30869000  1.0
  N  N40  1  0.36121000  0.05307000  0.30869000  1.0
  N  N41  1  0.69186000  0.63879000  0.30869000  1.0
