# generated using pymatgen
data_ZnH11C18N3O4
_symmetry_space_group_name_H-M   'P 1'
_cell_length_a   10.15110000
_cell_length_b   11.41880000
_cell_length_c   13.99040000
_cell_angle_alpha   90.00000000
_cell_angle_beta   101.83800000
_cell_angle_gamma   90.00000000
_symmetry_Int_Tables_number   1
_chemical_formula_structural   ZnH11C18N3O4
_chemical_formula_sum   'Zn2 H22 C36 N6 O8'
_cell_volume   1587.18405118
_cell_formula_units_Z   2
loop_
 _symmetry_equiv_pos_site_id
 _symmetry_equiv_pos_as_xyz
  1  'x, y, z'
loop_
 _atom_site_type_symbol
 _atom_site_label
 _atom_site_symmetry_multiplicity
 _atom_site_fract_x
 _atom_site_fract_y
 _atom_site_fract_z
 _atom_site_occupancy
  Zn  Zn0  1  0.62659000  0.00000000  0.39691000  1.0
  Zn  Zn1  1  0.37341000  0.00000000  0.60309000  1.0
  H  H2  1  0.08442000  0.00000000  0.41047000  1.0
  H  H3  1  0.91558000  0.00000000  0.58953000  1.0
  H  H4  1  0.83974000  0.00000000  0.11992000  1.0
  H  H5  1  0.16026000  0.00000000  0.88008000  1.0
  H  H6  1  0.27281000  0.00000000  0.16017000  1.0
  H  H7  1  0.72719000  0.00000000  0.83983000  1.0
  H  H8  1  0.46568000  0.19713000  0.28310000  1.0
  H  H9  1  0.53432000  0.19713000  0.71690000  1.0
  H  H10  1  0.53432000  0.80287000  0.71690000  1.0
  H  H11  1  0.46568000  0.80287000  0.28310000  1.0
  H  H12  1  0.45797000  0.41387000  0.27840000  1.0
  H  H13  1  0.54203000  0.41387000  0.72160000  1.0
  H  H14  1  0.54203000  0.58613000  0.72160000  1.0
  H  H15  1  0.45797000  0.58613000  0.27840000  1.0
  H  H16  1  0.79201000  0.41171000  0.52767000  1.0
  H  H17  1  0.20799000  0.41171000  0.47233000  1.0
  H  H18  1  0.20799000  0.58829000  0.47233000  1.0
  H  H19  1  0.79201000  0.58829000  0.52767000  1.0
  H  H20  1  0.78339000  0.19468000  0.52019000  1.0
  H  H21  1  0.21661000  0.19468000  0.47981000  1.0
  H  H22  1  0.21661000  0.80532000  0.47981000  1.0
  H  H23  1  0.78339000  0.80532000  0.52020000  1.0
  C  C24  1  0.33047000  0.00000000  0.35941000  1.0
  C  C25  1  0.66953000  0.00000000  0.64060000  1.0
  C  C26  1  0.19399000  0.00000000  0.29274000  1.0
  C  C27  1  0.80601000  0.00000000  0.70726000  1.0
  C  C28  1  0.07733000  0.00000000  0.33155000  1.0
  C  C29  1  0.92267000  0.00000000  0.66845000  1.0
  C  C30  1  0.94995000  0.00000000  0.26899000  1.0
  C  C31  1  0.05005000  0.00000000  0.73101000  1.0
  C  C32  1  0.82536000  0.00000000  0.31122000  1.0
  C  C33  1  0.17464000  0.00000000  0.68878000  1.0
  C  C34  1  0.93885000  0.00000000  0.16794000  1.0
  C  C35  1  0.06115000  0.00000000  0.83206000  1.0
  C  C36  1  0.05593000  0.00000000  0.12891000  1.0
  C  C37  1  0.94407000  0.00000000  0.87109000  1.0
  C  C38  1  0.18285000  0.00000000  0.19134000  1.0
  C  C39  1  0.81715000  0.00000000  0.80866000  1.0
  C  C40  1  0.53550000  0.24931000  0.33592000  1.0
  C  C41  1  0.46450000  0.24931000  0.66408000  1.0
  C  C42  1  0.46450000  0.75069000  0.66408000  1.0
  C  C43  1  0.53550000  0.75069000  0.33593000  1.0
  C  C44  1  0.53255000  0.37090000  0.33438000  1.0
  C  C45  1  0.46745000  0.37090000  0.66562000  1.0
  C  C46  1  0.46746000  0.62910000  0.66562000  1.0
  C  C47  1  0.53255000  0.62910000  0.33438000  1.0
  C  C48  1  0.62458000  0.43506000  0.40350000  1.0
  C  C49  1  0.37542000  0.43506000  0.59650000  1.0
  C  C50  1  0.37542000  0.56494000  0.59650000  1.0
  C  C51  1  0.62458000  0.56494000  0.40350000  1.0
  C  C52  1  0.71657000  0.36956000  0.47170000  1.0
  C  C53  1  0.28343000  0.36956000  0.52830000  1.0
  C  C54  1  0.28343000  0.63044000  0.52830000  1.0
  C  C55  1  0.71657000  0.63044000  0.47170000  1.0
  C  C56  1  0.71298000  0.24786000  0.46855000  1.0
  C  C57  1  0.28702000  0.24786000  0.53145000  1.0
  C  C58  1  0.28702000  0.75214000  0.53145000  1.0
  C  C59  1  0.71298000  0.75214000  0.46855000  1.0
  N  N60  1  0.05758000  0.00000000  0.02788000  1.0
  N  N61  1  0.94242000  0.00000000  0.97212000  1.0
  N  N62  1  0.62361000  0.18833000  0.40210000  1.0
  N  N63  1  0.37639000  0.18833000  0.59790000  1.0
  N  N64  1  0.37639000  0.81167000  0.59790000  1.0
  N  N65  1  0.62361000  0.81167000  0.40210000  1.0
  O  O66  1  0.43205000  0.00000000  0.31817000  1.0
  O  O67  1  0.56795000  0.00000000  0.68183000  1.0
  O  O68  1  0.33660000  0.00000000  0.45031000  1.0
  O  O69  1  0.66340000  0.00000000  0.54970000  1.0
  O  O70  1  0.84003000  0.00000000  0.40464000  1.0
  O  O71  1  0.15996000  0.00000000  0.59536000  1.0
  O  O72  1  0.71002000  0.00000000  0.25510000  1.0
  O  O73  1  0.28998000  0.00000000  0.74490000  1.0
