# generated using pymatgen
data_FeH16(C12N5)2
_symmetry_space_group_name_H-M   'P 1'
_cell_length_a   8.78819000
_cell_length_b   9.02847000
_cell_length_c   14.41180000
_cell_angle_alpha   90.00000000
_cell_angle_beta   90.00000000
_cell_angle_gamma   104.67300000
_symmetry_Int_Tables_number   1
_chemical_formula_structural   FeH16(C12N5)2
_chemical_formula_sum   'Fe2 H32 C48 N20'
_cell_volume   1106.19622486
_cell_formula_units_Z   2
loop_
 _symmetry_equiv_pos_site_id
 _symmetry_equiv_pos_as_xyz
  1  'x, y, z'
loop_
 _atom_site_type_symbol
 _atom_site_label
 _atom_site_symmetry_multiplicity
 _atom_site_fract_x
 _atom_site_fract_y
 _atom_site_fract_z
 _atom_site_occupancy
  Fe  Fe0  1  0.50000000  0.00000000  0.00000000  1.0
  Fe  Fe1  1  0.00000000  0.50000000  0.50000000  1.0
  H  H2  1  0.07170000  0.26777000  0.98267000  1.0
  H  H3  1  0.42830000  0.23223000  0.48267000  1.0
  H  H4  1  0.92830000  0.73223000  0.01733000  1.0
  H  H5  1  0.57170000  0.76777000  0.51733000  1.0
  H  H6  1  0.07368000  0.45979000  0.10976000  1.0
  H  H7  1  0.42633000  0.04021000  0.60976000  1.0
  H  H8  1  0.92632000  0.54021000  0.89024000  1.0
  H  H9  1  0.57368000  0.95979000  0.39024000  1.0
  H  H10  1  0.81815000  0.45723000  0.18946000  1.0
  H  H11  1  0.68185000  0.04277000  0.68947000  1.0
  H  H12  1  0.18185000  0.54277000  0.81053000  1.0
  H  H13  1  0.31815000  0.95723000  0.31053000  1.0
  H  H14  1  0.57317000  0.26227000  0.14182000  1.0
  H  H15  1  0.92683000  0.23772000  0.64182000  1.0
  H  H16  1  0.42682000  0.73773000  0.85818000  1.0
  H  H17  1  0.07317000  0.76228000  0.35818000  1.0
  H  H18  1  0.11287000  0.91666000  0.75000000  1.0
  H  H19  1  0.38713000  0.58334000  0.25000000  1.0
  H  H20  1  0.88713000  0.08334000  0.25000000  1.0
  H  H21  1  0.61287000  0.41666000  0.75000000  1.0
  H  H22  1  0.17680000  0.75824000  0.62438000  1.0
  H  H23  1  0.32319000  0.74176000  0.12438000  1.0
  H  H24  1  0.82320000  0.24176000  0.37562000  1.0
  H  H25  1  0.67681000  0.25824000  0.87562000  1.0
  H  H26  1  0.70181000  0.55472000  0.57715000  1.0
  H  H27  1  0.79819000  0.94528000  0.07715000  1.0
  H  H28  1  0.29819000  0.44528000  0.42285000  1.0
  H  H29  1  0.20181000  0.05472000  0.92285000  1.0
  H  H30  1  0.62196000  0.69769000  0.69996000  1.0
  H  H31  1  0.87804000  0.80230000  0.19996000  1.0
  H  H32  1  0.37804000  0.30231000  0.30004000  1.0
  H  H33  1  0.12196000  0.19770000  0.80004000  1.0
  C  C34  1  0.80421000  0.05214000  0.92541000  1.0
  C  C35  1  0.69578000  0.44786000  0.42541000  1.0
  C  C36  1  0.19579000  0.94786000  0.07459000  1.0
  C  C37  1  0.30422000  0.55214000  0.57459000  1.0
  C  C38  1  0.81138000  0.90117000  0.81587000  1.0
  C  C39  1  0.68862000  0.59883000  0.31587000  1.0
  C  C40  1  0.18862000  0.09883000  0.18413000  1.0
  C  C41  1  0.31138000  0.40117000  0.68413000  1.0
  C  C42  1  0.82360000  0.16806000  0.99630000  1.0
  C  C43  1  0.67640000  0.33193000  0.49630000  1.0
  C  C44  1  0.17640000  0.83193000  0.00370000  1.0
  C  C45  1  0.32360000  0.66807000  0.50370000  1.0
  C  C46  1  0.96488000  0.27225000  0.01958000  1.0
  C  C47  1  0.53511000  0.22775000  0.51959000  1.0
  C  C48  1  0.03511000  0.72775000  0.98042000  1.0
  C  C49  1  0.46489000  0.77225000  0.48042000  1.0
  C  C50  1  0.96479000  0.37786000  0.08981000  1.0
  C  C51  1  0.53521000  0.12214000  0.58981000  1.0
  C  C52  1  0.03520000  0.62214000  0.91019000  1.0
  C  C53  1  0.46479000  0.87786000  0.41019000  1.0
  C  C54  1  0.82314000  0.37685000  0.13397000  1.0
  C  C55  1  0.67686000  0.12315000  0.63397000  1.0
  C  C56  1  0.17685000  0.62315000  0.86603000  1.0
  C  C57  1  0.32314000  0.87685000  0.36603000  1.0
  C  C58  1  0.68607000  0.26928000  0.10806000  1.0
  C  C59  1  0.81393000  0.23072000  0.60806000  1.0
  C  C60  1  0.31393000  0.73072000  0.89194000  1.0
  C  C61  1  0.18607000  0.76929000  0.39194000  1.0
  C  C62  1  0.86061000  0.82036000  0.73898000  1.0
  C  C63  1  0.63939000  0.67964000  0.23898000  1.0
  C  C64  1  0.13940000  0.17964000  0.26102000  1.0
  C  C65  1  0.36061000  0.32036000  0.76102000  1.0
  C  C66  1  0.01817000  0.83714000  0.71322000  1.0
  C  C67  1  0.48182000  0.66286000  0.21322000  1.0
  C  C68  1  0.98183000  0.16286000  0.28678000  1.0
  C  C69  1  0.51818000  0.33714000  0.78678000  1.0
  C  C70  1  0.05447000  0.74793000  0.64220000  1.0
  C  C71  1  0.44553000  0.75207000  0.14220000  1.0
  C  C72  1  0.94553000  0.25207000  0.35780000  1.0
  C  C73  1  0.55447000  0.24793000  0.85780000  1.0
  C  C74  1  0.79297000  0.63376000  0.61600000  1.0
  C  C75  1  0.70703000  0.86624000  0.11600000  1.0
  C  C76  1  0.20704000  0.36624000  0.38400000  1.0
  C  C77  1  0.29297000  0.13376000  0.88400000  1.0
  C  C78  1  0.74727000  0.71692000  0.68637000  1.0
  C  C79  1  0.75273000  0.78308000  0.18637000  1.0
  C  C80  1  0.25273000  0.28308000  0.31363000  1.0
  C  C81  1  0.24727000  0.21692000  0.81363000  1.0
  N  N82  1  0.65553000  0.96123000  0.91509000  1.0
  N  N83  1  0.84447000  0.53877000  0.41509000  1.0
  N  N84  1  0.34447000  0.03877000  0.08491000  1.0
  N  N85  1  0.15553000  0.46123000  0.58491000  1.0
  N  N86  1  0.65878000  0.86475000  0.84477000  1.0
  N  N87  1  0.84122000  0.63525000  0.34478000  1.0
  N  N88  1  0.34122000  0.13525000  0.15523000  1.0
  N  N89  1  0.15878000  0.36475000  0.65522000  1.0
  N  N90  1  0.90608000  0.01735000  0.86481000  1.0
  N  N91  1  0.59392000  0.48265000  0.36481000  1.0
  N  N92  1  0.09392000  0.98265000  0.13519000  1.0
  N  N93  1  0.40608000  0.51735000  0.63519000  1.0
  N  N94  1  0.68436000  0.16481000  0.04084000  1.0
  N  N95  1  0.81564000  0.33518000  0.54084000  1.0
  N  N96  1  0.31564000  0.83519000  0.95916000  1.0
  N  N97  1  0.18436000  0.66482000  0.45916000  1.0
  N  N98  1  0.94509000  0.64345000  0.59360000  1.0
  N  N99  1  0.55491000  0.85655000  0.09360000  1.0
  N  N100  1  0.05491000  0.35655000  0.40640000  1.0
  N  N101  1  0.44509000  0.14345000  0.90640000  1.0
