# generated using pymatgen
data_CdH11C15I(N2O)2
_symmetry_space_group_name_H-M   'P 1'
_cell_length_a   6.62462000
_cell_length_b   12.25416129
_cell_length_c   22.79730000
_cell_angle_alpha   81.28915541
_cell_angle_beta   89.99310000
_cell_angle_gamma   74.31997551
_symmetry_Int_Tables_number   1
_chemical_formula_structural   CdH11C15I(N2O)2
_chemical_formula_sum   'Cd4 H44 C60 I4 N16 O8'
_cell_volume   1759.62236898
_cell_formula_units_Z   4
loop_
 _symmetry_equiv_pos_site_id
 _symmetry_equiv_pos_as_xyz
  1  'x, y, z'
loop_
 _atom_site_type_symbol
 _atom_site_label
 _atom_site_symmetry_multiplicity
 _atom_site_fract_x
 _atom_site_fract_y
 _atom_site_fract_z
 _atom_site_occupancy
  Cd  Cd0  1  0.48487000  0.16940000  0.46884000  1.0
  Cd  Cd1  1  0.65384000  0.83057000  0.03122000  1.0
  Cd  Cd2  1  0.51514000  0.83060000  0.53117000  1.0
  Cd  Cd3  1  0.34615000  0.16942000  0.96878000  1.0
  H  H4  1  0.59900000  0.87532000  0.24632000  1.0
  H  H5  1  0.47369000  0.12511000  0.25349000  1.0
  H  H6  1  0.40101000  0.12466000  0.75368000  1.0
  H  H7  1  0.52629000  0.87490000  0.74652000  1.0
  H  H8  1  0.76673000  0.86080000  0.34813000  1.0
  H  H9  1  0.62738000  0.13966000  0.15172000  1.0
  H  H10  1  0.23329000  0.13919000  0.65187000  1.0
  H  H11  1  0.37260000  0.86034000  0.84828000  1.0
  H  H12  1  0.35996000  0.68045000  0.28659000  1.0
  H  H13  1  0.04042000  0.31966000  0.21352000  1.0
  H  H14  1  0.64006000  0.31956000  0.71341000  1.0
  H  H15  1  0.95958000  0.68033000  0.78648000  1.0
  H  H16  1  0.19405000  0.70105000  0.18524000  1.0
  H  H17  1  0.89463000  0.29896000  0.31480000  1.0
  H  H18  1  0.80596000  0.29895000  0.81476000  1.0
  H  H19  1  0.10537000  0.70104000  0.68520000  1.0
  H  H20  1  0.12366000  0.00055000  0.37381000  1.0
  H  H21  1  0.12378000  0.99986000  0.12663000  1.0
  H  H22  1  0.87636000  0.99946000  0.62620000  1.0
  H  H23  1  0.87621000  0.00013000  0.87338000  1.0
  H  H24  1  0.29610000  0.93346000  0.32213000  1.0
  H  H25  1  0.23062000  0.06718000  0.17788000  1.0
  H  H26  1  0.70391000  0.06655000  0.67787000  1.0
  H  H27  1  0.76936000  0.93282000  0.82212000  1.0
  H  H28  1  0.39860000  0.96491000  0.38825000  1.0
  H  H29  1  0.36323000  0.03508000  0.11163000  1.0
  H  H30  1  0.60142000  0.03510000  0.61175000  1.0
  H  H31  1  0.63675000  0.96492000  0.88837000  1.0
  H  H32  1  0.81354000  0.63690000  0.38136000  1.0
  H  H33  1  0.45040000  0.36279000  0.11842000  1.0
  H  H34  1  0.18646000  0.36310000  0.61864000  1.0
  H  H35  1  0.54959000  0.63721000  0.88159000  1.0
  H  H36  1  0.72532000  0.44814000  0.38357000  1.0
  H  H37  1  0.17304000  0.55132000  0.11633000  1.0
  H  H38  1  0.27469000  0.55186000  0.61643000  1.0
  H  H39  1  0.82695000  0.44868000  0.88367000  1.0
  H  H40  1  0.99063000  0.26756000  0.42422000  1.0
  H  H41  1  0.25712000  0.73212000  0.07576000  1.0
  H  H42  1  0.00938000  0.73244000  0.57577000  1.0
  H  H43  1  0.74284000  0.26789000  0.92423000  1.0
  H  H44  1  0.42067000  0.44185000  0.46165000  1.0
  H  H45  1  0.86139000  0.55844000  0.03793000  1.0
  H  H46  1  0.57933000  0.55816000  0.53835000  1.0
  H  H47  1  0.13859000  0.44156000  0.96207000  1.0
  C  C48  1  0.78460000  0.79663000  0.15006000  1.0
  C  C49  1  0.58091000  0.20327000  0.34987000  1.0
  C  C50  1  0.21542000  0.20336000  0.84994000  1.0
  C  C51  1  0.41909000  0.79674000  0.65013000  1.0
  C  C52  1  0.88556000  0.78686000  0.21049000  1.0
  C  C53  1  0.67197000  0.21329000  0.28943000  1.0
  C  C54  1  0.11447000  0.21312000  0.78951000  1.0
  C  C55  1  0.32802000  0.78672000  0.71058000  1.0
  C  C56  1  0.76531000  0.83290000  0.25605000  1.0
  C  C57  1  0.59774000  0.16744000  0.24380000  1.0
  C  C58  1  0.23471000  0.16709000  0.74395000  1.0
  C  C59  1  0.40225000  0.83257000  0.75620000  1.0
  C  C60  1  0.85686000  0.82439000  0.31221000  1.0
  C  C61  1  0.68096000  0.17600000  0.18768000  1.0
  C  C62  1  0.14317000  0.17560000  0.68780000  1.0
  C  C63  1  0.31901000  0.82401000  0.81233000  1.0
  C  C64  1  0.06995000  0.76739000  0.32256000  1.0
  C  C65  1  0.83730000  0.23292000  0.17740000  1.0
  C  C66  1  0.93007000  0.23261000  0.67744000  1.0
  C  C67  1  0.16269000  0.76708000  0.82260000  1.0
  C  C68  1  0.19322000  0.72291000  0.27744000  1.0
  C  C69  1  0.91600000  0.27727000  0.22257000  1.0
  C  C70  1  0.80680000  0.27710000  0.72256000  1.0
  C  C71  1  0.08399000  0.72273000  0.77743000  1.0
  C  C72  1  0.10057000  0.73366000  0.22128000  1.0
  C  C73  1  0.83388000  0.26644000  0.27871000  1.0
  C  C74  1  0.89946000  0.26633000  0.77872000  1.0
  C  C75  1  0.16612000  0.73356000  0.72129000  1.0
  C  C76  1  0.27307000  0.93618000  0.36965000  1.0
  C  C77  1  0.20932000  0.06414000  0.13042000  1.0
  C  C78  1  0.72695000  0.06383000  0.63035000  1.0
  C  C79  1  0.79065000  0.93586000  0.86958000  1.0
  C  C80  1  0.26850000  0.82263000  0.40163000  1.0
  C  C81  1  0.09115000  0.17758000  0.09834000  1.0
  C  C82  1  0.73153000  0.17737000  0.59837000  1.0
  C  C83  1  0.90883000  0.82241000  0.90165000  1.0
  C  C84  1  0.19645000  0.65610000  0.42414000  1.0
  C  C85  1  0.85256000  0.34403000  0.07575000  1.0
  C  C86  1  0.80356000  0.34391000  0.57586000  1.0
  C  C87  1  0.14741000  0.65597000  0.92425000  1.0
  C  C88  1  0.12560000  0.55397000  0.42110000  1.0
  C  C89  1  0.67923000  0.44605000  0.07869000  1.0
  C  C90  1  0.87441000  0.44604000  0.57890000  1.0
  C  C91  1  0.32074000  0.55395000  0.92131000  1.0
  C  C92  1  0.92731000  0.55573000  0.39853000  1.0
  C  C93  1  0.48276000  0.44406000  0.10127000  1.0
  C  C94  1  0.07270000  0.44427000  0.60147000  1.0
  C  C95  1  0.51722000  0.55594000  0.89874000  1.0
  C  C96  1  0.87774000  0.45207000  0.39961000  1.0
  C  C97  1  0.32929000  0.54761000  0.10025000  1.0
  C  C98  1  0.12227000  0.54793000  0.60039000  1.0
  C  C99  1  0.67069000  0.45239000  0.89975000  1.0
  C  C100  1  0.02600000  0.34985000  0.42271000  1.0
  C  C101  1  0.37494000  0.64996000  0.07717000  1.0
  C  C102  1  0.97401000  0.65015000  0.57729000  1.0
  C  C103  1  0.62503000  0.35004000  0.92283000  1.0
  C  C104  1  0.26496000  0.44736000  0.44355000  1.0
  C  C105  1  0.71139000  0.55275000  0.05615000  1.0
  C  C106  1  0.73505000  0.55264000  0.55645000  1.0
  C  C107  1  0.28859000  0.44724000  0.94385000  1.0
  I  I108  1  0.20759000  0.06187000  0.53221000  1.0
  I  I109  1  0.26941000  0.93827000  0.96763000  1.0
  I  I110  1  0.79242000  0.93813000  0.46778000  1.0
  I  I111  1  0.73056000  0.06173000  0.03238000  1.0
  N  N112  1  0.16679000  0.75149000  0.38066000  1.0
  N  N113  1  0.91841000  0.24881000  0.11931000  1.0
  N  N114  1  0.83324000  0.24851000  0.61933000  1.0
  N  N115  1  0.08157000  0.75118000  0.88069000  1.0
  N  N116  1  0.35491000  0.77164000  0.45485000  1.0
  N  N117  1  0.12635000  0.22835000  0.04506000  1.0
  N  N118  1  0.64510000  0.22836000  0.54515000  1.0
  N  N119  1  0.87362000  0.77164000  0.95494000  1.0
  N  N120  1  0.31064000  0.66795000  0.46911000  1.0
  N  N121  1  0.97837000  0.33199000  0.03072000  1.0
  N  N122  1  0.68938000  0.33205000  0.53089000  1.0
  N  N123  1  0.02161000  0.66800000  0.96928000  1.0
  N  N124  1  0.21612000  0.34803000  0.44414000  1.0
  N  N125  1  0.56297000  0.65200000  0.05561000  1.0
  N  N126  1  0.78388000  0.65198000  0.55586000  1.0
  N  N127  1  0.43701000  0.34800000  0.94439000  1.0
  O  O128  1  0.90653000  0.76242000  0.10879000  1.0
  O  O129  1  0.66915000  0.23708000  0.39119000  1.0
  O  O130  1  0.09349000  0.23756000  0.89121000  1.0
  O  O131  1  0.33084000  0.76293000  0.60881000  1.0
  O  O132  1  0.58820000  0.83905000  0.14239000  1.0
  O  O133  1  0.42671000  0.16103000  0.35751000  1.0
  O  O134  1  0.41181000  0.16095000  0.85761000  1.0
  O  O135  1  0.57329000  0.83898000  0.64250000  1.0
