# generated using pymatgen
data_ZnH18C20S2N2O5
_symmetry_space_group_name_H-M   'P 1'
_cell_length_a   7.57942000
_cell_length_b   16.87660000
_cell_length_c   17.26370000
_cell_angle_alpha   90.00050000
_cell_angle_beta   90.00060000
_cell_angle_gamma   86.19250000
_symmetry_Int_Tables_number   1
_chemical_formula_structural   ZnH18C20S2N2O5
_chemical_formula_sum   'Zn4 H72 C80 S8 N8 O20'
_cell_volume   2203.40925837
_cell_formula_units_Z   4
loop_
 _symmetry_equiv_pos_site_id
 _symmetry_equiv_pos_as_xyz
  1  'x, y, z'
loop_
 _atom_site_type_symbol
 _atom_site_label
 _atom_site_symmetry_multiplicity
 _atom_site_fract_x
 _atom_site_fract_y
 _atom_site_fract_z
 _atom_site_occupancy
  Zn  Zn0  1  0.15431000  0.74885000  0.61811000  1.0
  Zn  Zn1  1  0.84569000  0.75115000  0.11812000  1.0
  Zn  Zn2  1  0.84570000  0.25115000  0.38189000  1.0
  Zn  Zn3  1  0.15431000  0.24885000  0.88188000  1.0
  H  H4  1  0.84934000  0.72448000  0.53118000  1.0
  H  H5  1  0.15064000  0.77552000  0.03119000  1.0
  H  H6  1  0.15067000  0.27551000  0.46882000  1.0
  H  H7  1  0.84936000  0.22448000  0.96882000  1.0
  H  H8  1  0.97172000  0.79812000  0.50931000  1.0
  H  H9  1  0.02825000  0.70189000  0.00931000  1.0
  H  H10  1  0.02827000  0.20188000  0.49070000  1.0
  H  H11  1  0.97175000  0.29811000  0.99070000  1.0
  H  H12  1  0.65033000  0.63890000  0.67230000  1.0
  H  H13  1  0.34967000  0.86109000  0.17231000  1.0
  H  H14  1  0.34969000  0.36110000  0.32770000  1.0
  H  H15  1  0.65032000  0.13891000  0.82770000  1.0
  H  H16  1  0.76083000  0.52791000  0.75385000  1.0
  H  H17  1  0.23916000  0.97209000  0.25385000  1.0
  H  H18  1  0.23917000  0.47210000  0.24616000  1.0
  H  H19  1  0.76083000  0.02790000  0.74616000  1.0
  H  H20  1  0.51242000  0.64065000  0.95399000  1.0
  H  H21  1  0.48758000  0.85935000  0.45399000  1.0
  H  H22  1  0.48755000  0.35934000  0.04600000  1.0
  H  H23  1  0.51242000  0.14066000  0.54600000  1.0
  H  H24  1  0.41057000  0.75420000  0.87458000  1.0
  H  H25  1  0.58944000  0.74580000  0.37459000  1.0
  H  H26  1  0.58942000  0.24580000  0.12541000  1.0
  H  H27  1  0.41058000  0.25421000  0.62541000  1.0
  H  H28  1  0.56161000  0.84431000  0.60347000  1.0
  H  H29  1  0.43838000  0.65569000  0.10348000  1.0
  H  H30  1  0.43840000  0.15569000  0.39653000  1.0
  H  H31  1  0.56162000  0.34432000  0.89653000  1.0
  H  H32  1  0.71705000  0.77274000  0.64312000  1.0
  H  H33  1  0.28295000  0.72726000  0.14312000  1.0
  H  H34  1  0.28297000  0.22726000  0.35688000  1.0
  H  H35  1  0.71705000  0.27275000  0.85689000  1.0
  H  H36  1  0.59936000  0.53561000  0.03318000  1.0
  H  H37  1  0.40061000  0.96439000  0.53317000  1.0
  H  H38  1  0.40061000  0.46439000  0.96683000  1.0
  H  H39  1  0.59936000  0.03562000  0.46682000  1.0
  H  H40  1  0.79531000  0.47247000  0.04032000  1.0
  H  H41  1  0.20466000  0.02753000  0.54031000  1.0
  H  H42  1  0.20464000  0.52753000  0.95968000  1.0
  H  H43  1  0.79530000  0.97248000  0.45968000  1.0
  H  H44  1  0.28900000  0.57118000  0.59103000  1.0
  H  H45  1  0.71098000  0.92883000  0.09104000  1.0
  H  H46  1  0.71103000  0.42882000  0.40896000  1.0
  H  H47  1  0.28899000  0.07118000  0.90896000  1.0
  H  H48  1  0.34184000  0.44991000  0.67555000  1.0
  H  H49  1  0.65815000  0.05010000  0.17556000  1.0
  H  H50  1  0.65820000  0.55008000  0.32444000  1.0
  H  H51  1  0.34180000  0.94990000  0.82444000  1.0
  H  H52  1  0.23487000  0.45752000  0.81370000  1.0
  H  H53  1  0.76514000  0.04249000  0.31371000  1.0
  H  H54  1  0.76515000  0.54248000  0.18629000  1.0
  H  H55  1  0.23484000  0.95751000  0.68629000  1.0
  H  H56  1  0.07396000  0.58213000  0.85990000  1.0
  H  H57  1  0.92605000  0.91788000  0.35991000  1.0
  H  H58  1  0.92604000  0.41785000  0.14009000  1.0
  H  H59  1  0.07395000  0.08213000  0.64009000  1.0
  H  H60  1  0.93195000  0.68510000  0.88802000  1.0
  H  H61  1  0.06805000  0.81490000  0.38803000  1.0
  H  H62  1  0.06809000  0.31488000  0.11197000  1.0
  H  H63  1  0.93193000  0.18511000  0.61197000  1.0
  H  H64  1  0.79223000  0.81746000  0.92019000  1.0
  H  H65  1  0.20778000  0.68254000  0.42019000  1.0
  H  H66  1  0.20779000  0.18251000  0.07982000  1.0
  H  H67  1  0.79221000  0.31748000  0.57982000  1.0
  H  H68  1  0.79555000  0.92666000  0.81994000  1.0
  H  H69  1  0.20446000  0.57335000  0.31993000  1.0
  H  H70  1  0.20446000  0.07332000  0.18008000  1.0
  H  H71  1  0.79554000  0.42667000  0.68008000  1.0
  H  H72  1  0.94427000  0.89538000  0.69189000  1.0
  H  H73  1  0.05574000  0.60462000  0.19189000  1.0
  H  H74  1  0.05575000  0.10461000  0.30811000  1.0
  H  H75  1  0.94428000  0.39538000  0.80812000  1.0
  C  C76  1  0.52121000  0.70518000  0.76702000  1.0
  C  C77  1  0.47880000  0.79482000  0.26702000  1.0
  C  C78  1  0.47879000  0.29482000  0.23298000  1.0
  C  C79  1  0.52119000  0.20518000  0.73298000  1.0
  C  C80  1  0.61804000  0.64005000  0.73378000  1.0
  C  C81  1  0.38197000  0.85994000  0.23378000  1.0
  C  C82  1  0.38196000  0.35995000  0.26622000  1.0
  C  C83  1  0.61804000  0.14005000  0.76622000  1.0
  C  C84  1  0.67967000  0.57660000  0.77983000  1.0
  C  C85  1  0.32033000  0.92340000  0.27982000  1.0
  C  C86  1  0.32031000  0.42341000  0.22018000  1.0
  C  C87  1  0.67969000  0.07660000  0.72017000  1.0
  C  C88  1  0.64372000  0.57517000  0.85956000  1.0
  C  C89  1  0.35627000  0.92483000  0.35956000  1.0
  C  C90  1  0.35627000  0.42483000  0.14045000  1.0
  C  C91  1  0.64373000  0.07518000  0.64045000  1.0
  C  C92  1  0.54284000  0.63939000  0.89232000  1.0
  C  C93  1  0.45716000  0.86061000  0.39233000  1.0
  C  C94  1  0.45715000  0.36061000  0.10768000  1.0
  C  C95  1  0.54285000  0.13939000  0.60768000  1.0
  C  C96  1  0.48358000  0.70397000  0.84677000  1.0
  C  C97  1  0.51643000  0.79603000  0.34677000  1.0
  C  C98  1  0.51642000  0.29603000  0.15322000  1.0
  C  C99  1  0.48356000  0.20398000  0.65322000  1.0
  C  C100  1  0.57760000  0.78375000  0.62733000  1.0
  C  C101  1  0.42240000  0.71625000  0.12734000  1.0
  C  C102  1  0.42242000  0.21625000  0.37266000  1.0
  C  C103  1  0.57760000  0.28375000  0.87267000  1.0
  C  C104  1  0.52880000  0.72578000  0.56297000  1.0
  C  C105  1  0.47119000  0.77421000  0.06298000  1.0
  C  C106  1  0.47122000  0.27422000  0.43702000  1.0
  C  C107  1  0.52880000  0.22579000  0.93703000  1.0
  C  C108  1  0.73363000  0.52446000  0.00995000  1.0
  C  C109  1  0.26634000  0.97554000  0.50995000  1.0
  C  C110  1  0.26633000  0.47554000  0.99005000  1.0
  C  C111  1  0.73362000  0.02446000  0.49005000  1.0
  C  C112  1  0.84309000  0.59514000  0.02826000  1.0
  C  C113  1  0.15687000  0.90487000  0.52826000  1.0
  C  C114  1  0.15688000  0.40486000  0.97174000  1.0
  C  C115  1  0.84310000  0.09513000  0.47174000  1.0
  C  C116  1  0.24281000  0.57012000  0.65081000  1.0
  C  C117  1  0.75720000  0.92988000  0.15081000  1.0
  C  C118  1  0.75723000  0.42987000  0.34918000  1.0
  C  C119  1  0.24279000  0.07012000  0.84918000  1.0
  C  C120  1  0.27244000  0.50369000  0.69804000  1.0
  C  C121  1  0.72756000  0.99631000  0.19804000  1.0
  C  C122  1  0.72760000  0.49630000  0.30196000  1.0
  C  C123  1  0.27241000  0.00369000  0.80196000  1.0
  C  C124  1  0.21287000  0.50801000  0.77454000  1.0
  C  C125  1  0.78713000  0.99199000  0.27455000  1.0
  C  C126  1  0.78717000  0.49199000  0.22545000  1.0
  C  C127  1  0.21283000  0.00800000  0.72545000  1.0
  C  C128  1  0.12414000  0.57782000  0.80082000  1.0
  C  C129  1  0.87586000  0.92218000  0.30083000  1.0
  C  C130  1  0.87588000  0.42217000  0.19918000  1.0
  C  C131  1  0.12413000  0.07782000  0.69917000  1.0
  C  C132  1  0.09992000  0.64241000  0.75017000  1.0
  C  C133  1  0.90007000  0.85759000  0.25018000  1.0
  C  C134  1  0.90009000  0.35758000  0.24981000  1.0
  C  C135  1  0.09992000  0.14242000  0.74982000  1.0
  C  C136  1  0.01299000  0.71998000  0.77369000  1.0
  C  C137  1  0.98702000  0.78003000  0.27370000  1.0
  C  C138  1  0.98703000  0.28001000  0.22630000  1.0
  C  C139  1  0.01299000  0.21999000  0.72630000  1.0
  C  C140  1  0.93416000  0.73295000  0.84602000  1.0
  C  C141  1  0.06586000  0.76705000  0.34602000  1.0
  C  C142  1  0.06586000  0.26703000  0.15398000  1.0
  C  C143  1  0.93415000  0.23297000  0.65398000  1.0
  C  C144  1  0.85472000  0.80754000  0.86379000  1.0
  C  C145  1  0.14528000  0.69246000  0.36379000  1.0
  C  C146  1  0.14531000  0.19244000  0.13622000  1.0
  C  C147  1  0.85471000  0.30755000  0.63622000  1.0
  C  C148  1  0.85674000  0.86762000  0.80846000  1.0
  C  C149  1  0.14324000  0.63239000  0.30846000  1.0
  C  C150  1  0.14327000  0.13235000  0.19155000  1.0
  C  C151  1  0.85676000  0.36764000  0.69154000  1.0
  C  C152  1  0.93833000  0.85089000  0.73748000  1.0
  C  C153  1  0.06168000  0.64912000  0.23748000  1.0
  C  C154  1  0.06170000  0.14909000  0.26254000  1.0
  C  C155  1  0.93832000  0.35090000  0.76254000  1.0
  S  S156  1  0.44461000  0.78971000  0.71393000  1.0
  S  S157  1  0.55539000  0.71028000  0.21394000  1.0
  S  S158  1  0.55540000  0.21030000  0.28606000  1.0
  S  S159  1  0.44462000  0.28971000  0.78607000  1.0
  S  S160  1  0.73321000  0.49175000  0.91087000  1.0
  S  S161  1  0.26678000  0.00825000  0.41087000  1.0
  S  S162  1  0.26677000  0.50825000  0.08913000  1.0
  S  S163  1  0.73321000  0.99176000  0.58913000  1.0
  N  N164  1  0.15950000  0.63773000  0.67649000  1.0
  N  N165  1  0.84049000  0.86227000  0.17651000  1.0
  N  N166  1  0.84052000  0.36226000  0.32349000  1.0
  N  N167  1  0.15951000  0.13773000  0.82349000  1.0
  N  N168  1  0.01405000  0.77895000  0.72059000  1.0
  N  N169  1  0.98595000  0.72105000  0.22058000  1.0
  N  N170  1  0.98596000  0.22104000  0.27941000  1.0
  N  N171  1  0.01405000  0.27895000  0.77941000  1.0
  O  O172  1  0.36833000  0.70985000  0.55312000  1.0
  O  O173  1  0.63166000  0.79015000  0.05312000  1.0
  O  O174  1  0.63170000  0.29016000  0.44688000  1.0
  O  O175  1  0.36835000  0.20984000  0.94689000  1.0
  O  O176  1  0.65437000  0.69868000  0.52050000  1.0
  O  O177  1  0.34563000  0.80131000  0.02050000  1.0
  O  O178  1  0.34565000  0.30132000  0.47950000  1.0
  O  O179  1  0.65437000  0.19870000  0.97950000  1.0
  O  O180  1  0.96618000  0.61282000  0.98349000  1.0
  O  O181  1  0.03377000  0.88719000  0.48350000  1.0
  O  O182  1  0.03380000  0.38718000  0.01650000  1.0
  O  O183  1  0.96618000  0.11282000  0.51650000  1.0
  O  O184  1  0.79912000  0.63060000  0.09148000  1.0
  O  O185  1  0.20086000  0.86940000  0.59147000  1.0
  O  O186  1  0.20087000  0.36940000  0.90852000  1.0
  O  O187  1  0.79912000  0.13060000  0.40853000  1.0
  O  O188  1  0.97431000  0.74310000  0.53142000  1.0
  O  O189  1  0.02567000  0.75691000  0.03142000  1.0
  O  O190  1  0.02570000  0.25691000  0.46859000  1.0
  O  O191  1  0.97433000  0.24309000  0.96858000  1.0
