# generated using pymatgen
data_CuH28C22S2(N2O)4
_symmetry_space_group_name_H-M   'P 1'
_cell_length_a   9.00537000
_cell_length_b   9.05699000
_cell_length_c   12.70020000
_cell_angle_alpha   78.27430000
_cell_angle_beta   69.79850000
_cell_angle_gamma   63.94670000
_symmetry_Int_Tables_number   1
_chemical_formula_structural   CuH28C22S2(N2O)4
_chemical_formula_sum   'Cu1 H28 C22 S2 N8 O4'
_cell_volume   871.71040376
_cell_formula_units_Z   1
loop_
 _symmetry_equiv_pos_site_id
 _symmetry_equiv_pos_as_xyz
  1  'x, y, z'
loop_
 _atom_site_type_symbol
 _atom_site_label
 _atom_site_symmetry_multiplicity
 _atom_site_fract_x
 _atom_site_fract_y
 _atom_site_fract_z
 _atom_site_occupancy
  Cu  Cu0  1  0.00000000  0.49999000  0.99999000  1.0
  H  H1  1  0.59362000  0.27664000  0.32345000  1.0
  H  H2  1  0.40635000  0.72340000  0.67658000  1.0
  H  H3  1  0.45480000  0.10606000  0.39565000  1.0
  H  H4  1  0.54518000  0.89396000  0.60435000  1.0
  H  H5  1  0.40440000  0.18207000  0.52747000  1.0
  H  H6  1  0.59563000  0.81791000  0.47255000  1.0
  H  H7  1  0.74661000  0.38957000  0.16786000  1.0
  H  H8  1  0.25336000  0.61044000  0.83215000  1.0
  H  H9  1  0.22255000  0.36681000  0.14996000  1.0
  H  H10  1  0.77743000  0.63320000  0.85002000  1.0
  H  H11  1  0.21665000  0.20393000  0.33907000  1.0
  H  H12  1  0.78337000  0.79605000  0.66090000  1.0
  H  H13  1  0.96774000  0.13052000  0.44055000  1.0
  H  H14  1  0.03227000  0.86947000  0.55943000  1.0
  H  H15  1  0.95787000  0.24283000  0.87517000  1.0
  H  H16  1  0.04212000  0.75720000  0.12485000  1.0
  H  H17  1  0.75217000  0.04480000  0.83475000  1.0
  H  H18  1  0.24790000  0.95516000  0.16525000  1.0
  H  H19  1  0.84175000  0.92838000  0.94599000  1.0
  H  H20  1  0.15830000  0.07162000  0.05402000  1.0
  H  H21  1  0.95836000  0.02760000  0.83393000  1.0
  H  H22  1  0.04168000  0.97239000  0.16609000  1.0
  H  H23  1  0.49268000  0.21054000  0.98158000  1.0
  H  H24  1  0.50734000  0.78941000  0.01841000  1.0
  H  H25  1  0.51727000  0.34701000  0.05124000  1.0
  H  H26  1  0.48271000  0.65299000  0.94873000  1.0
  H  H27  1  0.57660000  0.13230000  0.09914000  1.0
  H  H28  1  0.42339000  0.86771000  0.90087000  1.0
  C  C29  1  0.30345000  0.24103000  0.85070000  1.0
  C  C30  1  0.69657000  0.75895000  0.14929000  1.0
  C  C31  1  0.67277000  0.09050000  0.43949000  1.0
  C  C32  1  0.32725000  0.90948000  0.56050000  1.0
  C  C33  1  0.49791000  0.08266000  0.47083000  1.0
  C  C34  1  0.50208000  0.91734000  0.52919000  1.0
  C  C35  1  0.83599000  0.25303000  0.31262000  1.0
  C  C36  1  0.16398000  0.74700000  0.68738000  1.0
  C  C37  1  0.84706000  0.34656000  0.20983000  1.0
  C  C38  1  0.15291000  0.65347000  0.79017000  1.0
  C  C39  1  0.11527000  0.33325000  0.19986000  1.0
  C  C40  1  0.88473000  0.66674000  0.80013000  1.0
  C  C41  1  0.11037000  0.24436000  0.30315000  1.0
  C  C42  1  0.88961000  0.75563000  0.69685000  1.0
  C  C43  1  0.97044000  0.20250000  0.36103000  1.0
  C  C44  1  0.02954000  0.79750000  0.63897000  1.0
  C  C45  1  0.82689000  0.28584000  0.93585000  1.0
  C  C46  1  0.17309000  0.71417000  0.06415000  1.0
  C  C47  1  0.82966000  0.03790000  0.88757000  1.0
  C  C48  1  0.17038000  0.96210000  0.11244000  1.0
  C  C49  1  0.57333000  0.22091000  0.02536000  1.0
  C  C50  1  0.42666000  0.77908000  0.97464000  1.0
  S  S51  1  0.46735000  0.15522000  0.74637000  1.0
  S  S52  1  0.53267000  0.84476000  0.25363000  1.0
  N  N53  1  0.18460000  0.29951000  0.93042000  1.0
  N  N54  1  0.81538000  0.70048000  0.06957000  1.0
  N  N55  1  0.98394000  0.38333000  0.15540000  1.0
  N  N56  1  0.01605000  0.61669000  0.84460000  1.0
  N  N57  1  0.69056000  0.21522000  0.35983000  1.0
  N  N58  1  0.30941000  0.78481000  0.64019000  1.0
  N  N59  1  0.74670000  0.18579000  0.94939000  1.0
  N  N60  1  0.25330000  0.81421000  0.05062000  1.0
  O  O61  1  0.78780000  0.99611000  0.48222000  1.0
  O  O62  1  0.21223000  0.00386000  0.51776000  1.0
  O  O63  1  0.76569000  0.41503000  0.98546000  1.0
  O  O64  1  0.23426000  0.58498000  0.01455000  1.0
