# generated using pymatgen
data_Ca3H22C22(SO8)2
_symmetry_space_group_name_H-M   'P 1'
_cell_length_a   10.32400000
_cell_length_b   10.32400000
_cell_length_c   18.72480000
_cell_angle_alpha   79.96750000
_cell_angle_beta   79.96800000
_cell_angle_gamma   81.01870000
_symmetry_Int_Tables_number   1
_chemical_formula_structural   Ca3H22C22(SO8)2
_chemical_formula_sum   'Ca6 H44 C44 S4 O32'
_cell_volume   1918.87071161
_cell_formula_units_Z   2
loop_
 _symmetry_equiv_pos_site_id
 _symmetry_equiv_pos_as_xyz
  1  'x, y, z'
loop_
 _atom_site_type_symbol
 _atom_site_label
 _atom_site_symmetry_multiplicity
 _atom_site_fract_x
 _atom_site_fract_y
 _atom_site_fract_z
 _atom_site_occupancy
  Ca  Ca0  1  0.14560000  0.92147000  0.93567000  1.0
  Ca  Ca1  1  0.07853000  0.85440000  0.56433000  1.0
  Ca  Ca2  1  0.85440000  0.07853000  0.06433000  1.0
  Ca  Ca3  1  0.92148000  0.14559000  0.43567000  1.0
  Ca  Ca4  1  0.19786000  0.80213000  0.75000000  1.0
  Ca  Ca5  1  0.80213000  0.19787000  0.25000000  1.0
  H  H6  1  0.17670000  0.37105000  0.77864000  1.0
  H  H7  1  0.11775000  0.45452000  0.55251000  1.0
  H  H8  1  0.85832000  0.63343000  0.85105000  1.0
  H  H9  1  0.91559000  0.46164000  0.88119000  1.0
  H  H10  1  0.00707000  0.55333000  0.80154000  1.0
  H  H11  1  0.06356000  0.07051000  0.67784000  1.0
  H  H12  1  0.22958000  0.49103000  0.85198000  1.0
  H  H13  1  0.14520000  0.38338000  0.92691000  1.0
  H  H14  1  0.24523000  0.49850000  0.94572000  1.0
  H  H15  1  0.20283000  0.74574000  0.06988000  1.0
  H  H16  1  0.04720000  0.77917000  0.08101000  1.0
  H  H17  1  0.62894000  0.82329000  0.72136000  1.0
  H  H18  1  0.54548000  0.88226000  0.94749000  1.0
  H  H19  1  0.36656000  0.14168000  0.64895000  1.0
  H  H20  1  0.53836000  0.08441000  0.61881000  1.0
  H  H21  1  0.44667000  0.99293000  0.69846000  1.0
  H  H22  1  0.92949000  0.93644000  0.82215000  1.0
  H  H23  1  0.50897000  0.77042000  0.64802000  1.0
  H  H24  1  0.61661000  0.85480000  0.57309000  1.0
  H  H25  1  0.50150000  0.75477000  0.55428000  1.0
  H  H26  1  0.25426000  0.79717000  0.43012000  1.0
  H  H27  1  0.22083000  0.95280000  0.41899000  1.0
  H  H28  1  0.82330000  0.62895000  0.22136000  1.0
  H  H29  1  0.88225000  0.54548000  0.44749000  1.0
  H  H30  1  0.14168000  0.36657000  0.14895000  1.0
  H  H31  1  0.08441000  0.53836000  0.11881000  1.0
  H  H32  1  0.99293000  0.44667000  0.19845000  1.0
  H  H33  1  0.93644000  0.92949000  0.32216000  1.0
  H  H34  1  0.77042000  0.50897000  0.14801000  1.0
  H  H35  1  0.85480000  0.61662000  0.07309000  1.0
  H  H36  1  0.75477000  0.50150000  0.05428000  1.0
  H  H37  1  0.79717000  0.25426000  0.93012000  1.0
  H  H38  1  0.95280000  0.22083000  0.91899000  1.0
  H  H39  1  0.37105000  0.17671000  0.27863000  1.0
  H  H40  1  0.45452000  0.11775000  0.05251000  1.0
  H  H41  1  0.63343000  0.85833000  0.35105000  1.0
  H  H42  1  0.46164000  0.91559000  0.38119000  1.0
  H  H43  1  0.55333000  0.00708000  0.30154000  1.0
  H  H44  1  0.07051000  0.06355000  0.17784000  1.0
  H  H45  1  0.49103000  0.22958000  0.35199000  1.0
  H  H46  1  0.38338000  0.14520000  0.42691000  1.0
  H  H47  1  0.49850000  0.24523000  0.44572000  1.0
  H  H48  1  0.74574000  0.20283000  0.56988000  1.0
  H  H49  1  0.77917000  0.04720000  0.58101000  1.0
  C  C50  1  0.11968000  0.11920000  0.80720000  1.0
  C  C51  1  0.15131000  0.33915000  0.73110000  1.0
  C  C52  1  0.18798000  0.56409000  0.66185000  1.0
  C  C53  1  0.08878000  0.25655000  0.60829000  1.0
  C  C54  1  0.15441000  0.42609000  0.66472000  1.0
  C  C55  1  0.11778000  0.21163000  0.73660000  1.0
  C  C56  1  0.12091000  0.38531000  0.60348000  1.0
  C  C57  1  0.94557000  0.55851000  0.85528000  1.0
  C  C58  1  0.08812000  0.17016000  0.67470000  1.0
  C  C59  1  0.05170000  0.21172000  0.54318000  1.0
  C  C60  1  0.17985000  0.48077000  0.90913000  1.0
  C  C61  1  0.88079000  0.88033000  0.69280000  1.0
  C  C62  1  0.66085000  0.84869000  0.76890000  1.0
  C  C63  1  0.43590000  0.81203000  0.83815000  1.0
  C  C64  1  0.74345000  0.91123000  0.89171000  1.0
  C  C65  1  0.57392000  0.84559000  0.83528000  1.0
  C  C66  1  0.78836000  0.88222000  0.76340000  1.0
  C  C67  1  0.61469000  0.87910000  0.89652000  1.0
  C  C68  1  0.44149000  0.05443000  0.64472000  1.0
  C  C69  1  0.82984000  0.91188000  0.82529000  1.0
  C  C70  1  0.78828000  0.94831000  0.95682000  1.0
  C  C71  1  0.51922000  0.82015000  0.59087000  1.0
  C  C72  1  0.88033000  0.88080000  0.19281000  1.0
  C  C73  1  0.84869000  0.66085000  0.26890000  1.0
  C  C74  1  0.81202000  0.43591000  0.33815000  1.0
  C  C75  1  0.91122000  0.74345000  0.39171000  1.0
  C  C76  1  0.84559000  0.57392000  0.33528000  1.0
  C  C77  1  0.88222000  0.78837000  0.26340000  1.0
  C  C78  1  0.87909000  0.61469000  0.39652000  1.0
  C  C79  1  0.05443000  0.44149000  0.14472000  1.0
  C  C80  1  0.91188000  0.82984000  0.32530000  1.0
  C  C81  1  0.94830000  0.78828000  0.45682000  1.0
  C  C82  1  0.82015000  0.51923000  0.09086000  1.0
  C  C83  1  0.11921000  0.11967000  0.30720000  1.0
  C  C84  1  0.33915000  0.15131000  0.23109000  1.0
  C  C85  1  0.56410000  0.18798000  0.16185000  1.0
  C  C86  1  0.25655000  0.08877000  0.10829000  1.0
  C  C87  1  0.42608000  0.15441000  0.16471000  1.0
  C  C88  1  0.21164000  0.11778000  0.23660000  1.0
  C  C89  1  0.38531000  0.12091000  0.10348000  1.0
  C  C90  1  0.55851000  0.94557000  0.35528000  1.0
  C  C91  1  0.17016000  0.08811000  0.17471000  1.0
  C  C92  1  0.21172000  0.05169000  0.04318000  1.0
  C  C93  1  0.48077000  0.17984000  0.40914000  1.0
  S  S94  1  0.04018000  0.60864000  0.91523000  1.0
  S  S95  1  0.39136000  0.95982000  0.58477000  1.0
  S  S96  1  0.95981000  0.39136000  0.08477000  1.0
  S  S97  1  0.60864000  0.04018000  0.41523000  1.0
  O  O98  1  0.14789000  0.99451000  0.80404000  1.0
  O  O99  1  0.04742000  0.08692000  0.54506000  1.0
  O  O100  1  0.09425000  0.73487000  0.87367000  1.0
  O  O101  1  0.19044000  0.64278000  0.60197000  1.0
  O  O102  1  0.02147000  0.29717000  0.48975000  1.0
  O  O103  1  0.09704000  0.16285000  0.86819000  1.0
  O  O104  1  0.20925000  0.59319000  0.72231000  1.0
  O  O105  1  0.12590000  0.74748000  0.04605000  1.0
  O  O106  1  0.00548000  0.85212000  0.69596000  1.0
  O  O107  1  0.91309000  0.95258000  0.95494000  1.0
  O  O108  1  0.26513000  0.90575000  0.62633000  1.0
  O  O109  1  0.35723000  0.80956000  0.89803000  1.0
  O  O110  1  0.70283000  0.97854000  0.01026000  1.0
  O  O111  1  0.83714000  0.90296000  0.63181000  1.0
  O  O112  1  0.40680000  0.79076000  0.77769000  1.0
  O  O113  1  0.25252000  0.87409000  0.45395000  1.0
  O  O114  1  0.85212000  0.00549000  0.19596000  1.0
  O  O115  1  0.95258000  0.91308000  0.45495000  1.0
  O  O116  1  0.90575000  0.26513000  0.12633000  1.0
  O  O117  1  0.80957000  0.35723000  0.39803000  1.0
  O  O118  1  0.97853000  0.70283000  0.51026000  1.0
  O  O119  1  0.90297000  0.83715000  0.13181000  1.0
  O  O120  1  0.79074000  0.40681000  0.27769000  1.0
  O  O121  1  0.87410000  0.25252000  0.95395000  1.0
  O  O122  1  0.99451000  0.14788000  0.30404000  1.0
  O  O123  1  0.08692000  0.04741000  0.04505000  1.0
  O  O124  1  0.73487000  0.09425000  0.37367000  1.0
  O  O125  1  0.64277000  0.19044000  0.10197000  1.0
  O  O126  1  0.29717000  0.02146000  0.98975000  1.0
  O  O127  1  0.16286000  0.09704000  0.36819000  1.0
  O  O128  1  0.59319000  0.20926000  0.22231000  1.0
  O  O129  1  0.74748000  0.12590000  0.54605000  1.0
