# generated using pymatgen
data_CsH3C11(N3O)2
_symmetry_space_group_name_H-M   'P 1'
_cell_length_a   6.80788000
_cell_length_b   10.94320000
_cell_length_c   19.83920000
_cell_angle_alpha   104.89000000
_cell_angle_beta   92.54010000
_cell_angle_gamma   100.85200000
_symmetry_Int_Tables_number   1
_chemical_formula_structural   CsH3C11(N3O)2
_chemical_formula_sum   'Cs4 H12 C44 N24 O8'
_cell_volume   1396.13895381
_cell_formula_units_Z   4
loop_
 _symmetry_equiv_pos_site_id
 _symmetry_equiv_pos_as_xyz
  1  'x, y, z'
loop_
 _atom_site_type_symbol
 _atom_site_label
 _atom_site_symmetry_multiplicity
 _atom_site_fract_x
 _atom_site_fract_y
 _atom_site_fract_z
 _atom_site_occupancy
  Cs  Cs0  1  0.18880000  0.82525000  0.96782000  1.0
  Cs  Cs1  1  0.81120000  0.17474000  0.03218000  1.0
  Cs  Cs2  1  0.69517000  0.32682000  0.39968000  1.0
  Cs  Cs3  1  0.30483000  0.67318000  0.60032000  1.0
  H  H4  1  0.39393000  0.29526000  0.17594000  1.0
  H  H5  1  0.60607000  0.70474000  0.82406000  1.0
  H  H6  1  0.51437000  0.20079000  0.22033000  1.0
  H  H7  1  0.48563000  0.79921000  0.77967000  1.0
  H  H8  1  0.25083000  0.20968000  0.22957000  1.0
  H  H9  1  0.74918000  0.79032000  0.77043000  1.0
  H  H10  1  0.73673000  0.86455000  0.52839000  1.0
  H  H11  1  0.26327000  0.13544000  0.47161000  1.0
  H  H12  1  0.00256000  0.86242000  0.53033000  1.0
  H  H13  1  0.99744000  0.13758000  0.46967000  1.0
  H  H14  1  0.85160000  0.80424000  0.59304000  1.0
  H  H15  1  0.14840000  0.19576000  0.40696000  1.0
  C  C16  1  0.22397000  0.75593000  0.17275000  1.0
  C  C17  1  0.77602000  0.24406000  0.82725000  1.0
  C  C18  1  0.15022000  0.48801000  0.19440000  1.0
  C  C19  1  0.84978000  0.51198000  0.80560000  1.0
  C  C20  1  0.22321000  0.51247000  0.35179000  1.0
  C  C21  1  0.77679000  0.48753000  0.64821000  1.0
  C  C22  1  0.33210000  0.80589000  0.42919000  1.0
  C  C23  1  0.66790000  0.19411000  0.57081000  1.0
  C  C24  1  0.33663000  0.95470000  0.31603000  1.0
  C  C25  1  0.66336000  0.04529000  0.68397000  1.0
  C  C26  1  0.24075000  0.72887000  0.23798000  1.0
  C  C27  1  0.75924000  0.27113000  0.76202000  1.0
  C  C28  1  0.20798000  0.60323000  0.24825000  1.0
  C  C29  1  0.79202000  0.39676000  0.75175000  1.0
  C  C30  1  0.24019000  0.61633000  0.32139000  1.0
  C  C31  1  0.75980000  0.38367000  0.67861000  1.0
  C  C32  1  0.29218000  0.75069000  0.35639000  1.0
  C  C33  1  0.70782000  0.24931000  0.64361000  1.0
  C  C34  1  0.29264000  0.82001000  0.30470000  1.0
  C  C35  1  0.70735000  0.17999000  0.69530000  1.0
  C  C36  1  0.37284000  0.20921000  0.19560000  1.0
  C  C37  1  0.62716000  0.79079000  0.80440000  1.0
  C  C38  1  0.72281000  0.82056000  0.08266000  1.0
  C  C39  1  0.27719000  0.17945000  0.91734000  1.0
  C  C40  1  0.66371000  0.54324000  0.10236000  1.0
  C  C41  1  0.33628000  0.45676000  0.89763000  1.0
  C  C42  1  0.70537000  0.56762000  0.25859000  1.0
  C  C43  1  0.29462000  0.43238000  0.74141000  1.0
  C  C44  1  0.80943000  0.85508000  0.33794000  1.0
  C  C45  1  0.19056000  0.14492000  0.66206000  1.0
  C  C46  1  0.80578000  0.01310000  0.23238000  1.0
  C  C47  1  0.19423000  0.98691000  0.76762000  1.0
  C  C48  1  0.72818000  0.78838000  0.14684000  1.0
  C  C49  1  0.27182000  0.21163000  0.85315000  1.0
  C  C50  1  0.70003000  0.66115000  0.15511000  1.0
  C  C51  1  0.29996000  0.33885000  0.84488000  1.0
  C  C52  1  0.72415000  0.67129000  0.22817000  1.0
  C  C53  1  0.27583000  0.32872000  0.77183000  1.0
  C  C54  1  0.76875000  0.80451000  0.26494000  1.0
  C  C55  1  0.23124000  0.19550000  0.73506000  1.0
  C  C56  1  0.77028000  0.87719000  0.21483000  1.0
  C  C57  1  0.22972000  0.12282000  0.78517000  1.0
  C  C58  1  0.85413000  0.81483000  0.53947000  1.0
  C  C59  1  0.14587000  0.18517000  0.46053000  1.0
  N  N60  1  0.20846000  0.77588000  0.11785000  1.0
  N  N61  1  0.79154000  0.22411000  0.88215000  1.0
  N  N62  1  0.10213000  0.39374000  0.14841000  1.0
  N  N63  1  0.89788000  0.60626000  0.85159000  1.0
  N  N64  1  0.20799000  0.42366000  0.37520000  1.0
  N  N65  1  0.79202000  0.57633000  0.62480000  1.0
  N  N66  1  0.36286000  0.85056000  0.48983000  1.0
  N  N67  1  0.63714000  0.14944000  0.51017000  1.0
  N  N68  1  0.37314000  0.06649000  0.32369000  1.0
  N  N69  1  0.62684000  0.93351000  0.67631000  1.0
  N  N70  1  0.31194000  0.09721000  0.13275000  1.0
  N  N71  1  0.68806000  0.90279000  0.86725000  1.0
  N  N72  1  0.72141000  0.84763000  0.02932000  1.0
  N  N73  1  0.27859000  0.15238000  0.97068000  1.0
  N  N74  1  0.63760000  0.44220000  0.06130000  1.0
  N  N75  1  0.36241000  0.55780000  0.93870000  1.0
  N  N76  1  0.68825000  0.48110000  0.28384000  1.0
  N  N77  1  0.31175000  0.51890000  0.71616000  1.0
  N  N78  1  0.84647000  0.89654000  0.39864000  1.0
  N  N79  1  0.15353000  0.10346000  0.60136000  1.0
  N  N80  1  0.83374000  0.12609000  0.25038000  1.0
  N  N81  1  0.16627000  0.87392000  0.74962000  1.0
  N  N82  1  0.80533000  0.68104000  0.49281000  1.0
  N  N83  1  0.19467000  0.31895000  0.50719000  1.0
  O  O84  1  0.44748000  0.05085000  0.10231000  1.0
  O  O85  1  0.55252000  0.94915000  0.89769000  1.0
  O  O86  1  0.13093000  0.05714000  0.11282000  1.0
  O  O87  1  0.86907000  0.94286000  0.88718000  1.0
  O  O88  1  0.62605000  0.62723000  0.47663000  1.0
  O  O89  1  0.37395000  0.37276000  0.52337000  1.0
  O  O90  1  0.94625000  0.62708000  0.47371000  1.0
  O  O91  1  0.05375000  0.37292000  0.52629000  1.0
