# generated using pymatgen
data_CdH6C8(N2O)2
_symmetry_space_group_name_H-M   'P 1'
_cell_length_a   8.73380000
_cell_length_b   8.73383000
_cell_length_c   12.18080000
_cell_angle_alpha   90.00000000
_cell_angle_beta   89.99960000
_cell_angle_gamma   96.26190000
_symmetry_Int_Tables_number   1
_chemical_formula_structural   CdH6C8(N2O)2
_chemical_formula_sum   'Cd4 H24 C32 N16 O8'
_cell_volume   923.60207522
_cell_formula_units_Z   4
loop_
 _symmetry_equiv_pos_site_id
 _symmetry_equiv_pos_as_xyz
  1  'x, y, z'
loop_
 _atom_site_type_symbol
 _atom_site_label
 _atom_site_symmetry_multiplicity
 _atom_site_fract_x
 _atom_site_fract_y
 _atom_site_fract_z
 _atom_site_occupancy
  Cd  Cd0  1  0.50000000  0.00000000  0.23869000  1.0
  Cd  Cd1  1  0.00000000  0.50000000  0.73869000  1.0
  Cd  Cd2  1  0.00000000  0.99999000  0.84214000  1.0
  Cd  Cd3  1  0.00000000  0.00000000  0.34214000  1.0
  H  H4  1  0.29593000  0.59524000  0.57628000  1.0
  H  H5  1  0.70407000  0.40476000  0.57628000  1.0
  H  H6  1  0.40476000  0.70407000  0.07628000  1.0
  H  H7  1  0.59524000  0.29593000  0.07628000  1.0
  H  H8  1  0.26228000  0.75814000  0.38292000  1.0
  H  H9  1  0.73772000  0.24186000  0.38292000  1.0
  H  H10  1  0.24186000  0.73772000  0.88292000  1.0
  H  H11  1  0.75815000  0.26227000  0.88292000  1.0
  H  H12  1  0.48159000  0.82542000  0.60704000  1.0
  H  H13  1  0.51840000  0.17458000  0.60704000  1.0
  H  H14  1  0.17458000  0.51840000  0.10704000  1.0
  H  H15  1  0.82542000  0.48160000  0.10704000  1.0
  H  H16  1  0.63736000  0.97687000  0.78244000  1.0
  H  H17  1  0.36264000  0.02313000  0.78244000  1.0
  H  H18  1  0.02313000  0.36264000  0.28244000  1.0
  H  H19  1  0.97687000  0.63736000  0.28244000  1.0
  H  H20  1  0.58926000  0.59959000  0.48010000  1.0
  H  H21  1  0.41075000  0.40041000  0.48010000  1.0
  H  H22  1  0.40041000  0.41074000  0.98010000  1.0
  H  H23  1  0.59959000  0.58926000  0.98011000  1.0
  H  H24  1  0.78314000  0.64635000  0.43741000  1.0
  H  H25  1  0.21686000  0.35365000  0.43741000  1.0
  H  H26  1  0.35365000  0.21685000  0.93741000  1.0
  H  H27  1  0.64635000  0.78314000  0.93741000  1.0
  C  C28  1  0.20707000  0.66543000  0.55098000  1.0
  C  C29  1  0.79293000  0.33457000  0.55098000  1.0
  C  C30  1  0.33457000  0.79292000  0.05098000  1.0
  C  C31  1  0.66543000  0.20707000  0.05098000  1.0
  C  C32  1  0.81160000  0.25514000  0.45465000  1.0
  C  C33  1  0.18840000  0.74486000  0.45465000  1.0
  C  C34  1  0.74486000  0.18840000  0.95465000  1.0
  C  C35  1  0.25514000  0.81160000  0.95466000  1.0
  C  C36  1  0.00217000  0.22186000  0.56474000  1.0
  C  C37  1  0.99783000  0.77814000  0.56474000  1.0
  C  C38  1  0.77814000  0.99782000  0.06474000  1.0
  C  C39  1  0.22186000  0.00218000  0.06474000  1.0
  C  C40  1  0.85435000  0.82329000  0.61047000  1.0
  C  C41  1  0.14564000  0.17671000  0.61047000  1.0
  C  C42  1  0.17670000  0.14564000  0.11047000  1.0
  C  C43  1  0.82330000  0.85436000  0.11047000  1.0
  C  C44  1  0.60270000  0.84005000  0.62869000  1.0
  C  C45  1  0.39730000  0.15995000  0.62869000  1.0
  C  C46  1  0.15995000  0.39730000  0.12869000  1.0
  C  C47  1  0.84005000  0.60270000  0.12869000  1.0
  C  C48  1  0.68096000  0.91497000  0.71409000  1.0
  C  C49  1  0.31903000  0.08503000  0.71410000  1.0
  C  C50  1  0.08503000  0.31903000  0.21409000  1.0
  C  C51  1  0.91497000  0.68096000  0.21409000  1.0
  C  C52  1  0.67879000  0.69503000  0.46448000  1.0
  C  C53  1  0.32121000  0.30497000  0.46448000  1.0
  C  C54  1  0.30497000  0.32121000  0.96448000  1.0
  C  C55  1  0.69503000  0.67879000  0.96448000  1.0
  C  C56  1  0.62438000  0.79802000  0.37442000  1.0
  C  C57  1  0.37562000  0.20198000  0.37443000  1.0
  C  C58  1  0.20198000  0.37562000  0.87443000  1.0
  C  C59  1  0.79802000  0.62438000  0.87443000  1.0
  N  N60  1  0.08678000  0.68671000  0.62002000  1.0
  N  N61  1  0.91322000  0.31330000  0.62002000  1.0
  N  N62  1  0.31330000  0.91322000  0.12002000  1.0
  N  N63  1  0.68671000  0.08678000  0.12002000  1.0
  N  N64  1  0.94423000  0.18376000  0.46337000  1.0
  N  N65  1  0.05577000  0.81624000  0.46336000  1.0
  N  N66  1  0.81624000  0.05577000  0.96336000  1.0
  N  N67  1  0.18376000  0.94423000  0.96337000  1.0
  N  N68  1  0.71253000  0.78132000  0.56495000  1.0
  N  N69  1  0.28747000  0.21869000  0.56495000  1.0
  N  N70  1  0.21868000  0.28747000  0.06495000  1.0
  N  N71  1  0.78131000  0.71253000  0.06495000  1.0
  N  N72  1  0.83623000  0.90380000  0.70264000  1.0
  N  N73  1  0.16377000  0.09621000  0.70264000  1.0
  N  N74  1  0.09620000  0.16377000  0.20264000  1.0
  N  N75  1  0.90380000  0.83623000  0.20264000  1.0
  O  O76  1  0.68229000  0.93861000  0.37400000  1.0
  O  O77  1  0.31771000  0.06139000  0.37400000  1.0
  O  O78  1  0.06139000  0.31771000  0.87400000  1.0
  O  O79  1  0.93861000  0.68229000  0.87400000  1.0
  O  O80  1  0.52350000  0.74020000  0.30757000  1.0
  O  O81  1  0.47650000  0.25980000  0.30757000  1.0
  O  O82  1  0.25981000  0.47650000  0.80757000  1.0
  O  O83  1  0.74019000  0.52350000  0.80757000  1.0
