# generated using pymatgen
data_Cu3H10C12I3N4
_symmetry_space_group_name_H-M   'P 1'
_cell_length_a   7.37375000
_cell_length_b   12.07060000
_cell_length_c   18.37400000
_cell_angle_alpha   90.00000000
_cell_angle_beta   90.00000000
_cell_angle_gamma   90.00000000
_symmetry_Int_Tables_number   1
_chemical_formula_structural   Cu3H10C12I3N4
_chemical_formula_sum   'Cu12 H40 C48 I12 N16'
_cell_volume   1635.38865094
_cell_formula_units_Z   4
loop_
 _symmetry_equiv_pos_site_id
 _symmetry_equiv_pos_as_xyz
  1  'x, y, z'
loop_
 _atom_site_type_symbol
 _atom_site_label
 _atom_site_symmetry_multiplicity
 _atom_site_fract_x
 _atom_site_fract_y
 _atom_site_fract_z
 _atom_site_occupancy
  Cu  Cu0  1  0.56164000  0.72163000  0.27083000  1.0
  Cu  Cu1  1  0.93836000  0.27837000  0.77083000  1.0
  Cu  Cu2  1  0.43835000  0.22163000  0.22917000  1.0
  Cu  Cu3  1  0.06164000  0.77837000  0.72917000  1.0
  Cu  Cu4  1  0.57008000  0.99765000  0.28203000  1.0
  Cu  Cu5  1  0.92993000  0.00234000  0.78203000  1.0
  Cu  Cu6  1  0.42992000  0.49766000  0.21797000  1.0
  Cu  Cu7  1  0.07008000  0.50235000  0.71797000  1.0
  Cu  Cu8  1  0.41663000  0.86853000  0.18095000  1.0
  Cu  Cu9  1  0.08337000  0.13147000  0.68095000  1.0
  Cu  Cu10  1  0.58337000  0.36853000  0.31905000  1.0
  Cu  Cu11  1  0.91663000  0.63147000  0.81905000  1.0
  H  H12  1  0.64425000  0.09517000  0.42401000  1.0
  H  H13  1  0.85574000  0.90482000  0.92401000  1.0
  H  H14  1  0.35574000  0.59517000  0.07599000  1.0
  H  H15  1  0.14426000  0.40483000  0.57599000  1.0
  H  H16  1  0.66938000  0.05136000  0.51672000  1.0
  H  H17  1  0.83062000  0.94863000  0.01672000  1.0
  H  H18  1  0.33061000  0.55137000  0.98328000  1.0
  H  H19  1  0.16939000  0.44864000  0.48327000  1.0
  H  H20  1  0.32640000  0.13150000  0.37422000  1.0
  H  H21  1  0.17360000  0.86850000  0.87422000  1.0
  H  H22  1  0.67360000  0.63150000  0.12578000  1.0
  H  H23  1  0.82641000  0.36850000  0.62578000  1.0
  H  H24  1  0.01075000  0.18965000  0.40631000  1.0
  H  H25  1  0.48925000  0.81035000  0.90631000  1.0
  H  H26  1  0.98925000  0.68965000  0.09369000  1.0
  H  H27  1  0.51076000  0.31035000  0.59369000  1.0
  H  H28  1  0.91231000  0.17805000  0.53754000  1.0
  H  H29  1  0.58769000  0.82195000  0.03754000  1.0
  H  H30  1  0.08769000  0.67805000  0.96246000  1.0
  H  H31  1  0.41231000  0.32195000  0.46246000  1.0
  H  H32  1  0.41424000  0.06209000  0.60206000  1.0
  H  H33  1  0.08575000  0.93791000  0.10206000  1.0
  H  H34  1  0.58576000  0.56209000  0.89794000  1.0
  H  H35  1  0.91425000  0.43791000  0.39794000  1.0
  H  H36  1  0.56846000  0.89208000  0.60183000  1.0
  H  H37  1  0.93155000  0.10792000  0.10183000  1.0
  H  H38  1  0.43154000  0.39208000  0.89817000  1.0
  H  H39  1  0.06845000  0.60793000  0.39817000  1.0
  H  H40  1  0.53259000  0.69867000  0.64484000  1.0
  H  H41  1  0.96741000  0.30132000  0.14484000  1.0
  H  H42  1  0.46741000  0.19868000  0.85516000  1.0
  H  H43  1  0.03258000  0.80133000  0.35517000  1.0
  H  H44  1  0.50536000  0.54321000  0.55874000  1.0
  H  H45  1  0.99464000  0.45678000  0.05875000  1.0
  H  H46  1  0.49464000  0.04322000  0.94126000  1.0
  H  H47  1  0.00535000  0.95679000  0.44126000  1.0
  H  H48  1  0.51351000  0.57397000  0.42329000  1.0
  H  H49  1  0.98649000  0.42603000  0.92330000  1.0
  H  H50  1  0.48648000  0.07397000  0.07671000  1.0
  H  H51  1  0.01351000  0.92603000  0.57671000  1.0
  C  C52  1  0.58157000  0.04746000  0.46841000  1.0
  C  C53  1  0.91843000  0.95254000  0.96841000  1.0
  C  C54  1  0.41843000  0.54746000  0.03159000  1.0
  C  C55  1  0.08157000  0.45255000  0.53159000  1.0
  C  C56  1  0.39375000  0.08949000  0.48553000  1.0
  C  C57  1  0.10625000  0.91050000  0.98553000  1.0
  C  C58  1  0.60625000  0.58950000  0.01447000  1.0
  C  C59  1  0.89375000  0.41051000  0.51447000  1.0
  C  C60  1  0.27931000  0.12767000  0.43042000  1.0
  C  C61  1  0.22069000  0.87233000  0.93042000  1.0
  C  C62  1  0.72069000  0.62767000  0.06958000  1.0
  C  C63  1  0.77931000  0.37233000  0.56958000  1.0
  C  C64  1  0.10391000  0.16070000  0.44832000  1.0
  C  C65  1  0.39608000  0.83930000  0.94832000  1.0
  C  C66  1  0.89608000  0.66070000  0.05168000  1.0
  C  C67  1  0.60392000  0.33930000  0.55168000  1.0
  C  C68  1  0.04884000  0.15499000  0.52059000  1.0
  C  C69  1  0.45117000  0.84501000  0.02059000  1.0
  C  C70  1  0.95117000  0.65499000  0.97941000  1.0
  C  C71  1  0.54883000  0.34501000  0.47941000  1.0
  C  C72  1  0.32885000  0.08885000  0.55679000  1.0
  C  C73  1  0.17115000  0.91115000  0.05679000  1.0
  C  C74  1  0.67115000  0.58885000  0.94321000  1.0
  C  C75  1  0.82885000  0.41115000  0.44320000  1.0
  C  C76  1  0.55857000  0.84006000  0.48747000  1.0
  C  C77  1  0.94142000  0.15993000  0.98747000  1.0
  C  C78  1  0.44143000  0.34007000  0.01253000  1.0
  C  C79  1  0.05858000  0.65994000  0.51253000  1.0
  C  C80  1  0.55545000  0.82424000  0.56307000  1.0
  C  C81  1  0.94455000  0.17576000  0.06308000  1.0
  C  C82  1  0.44455000  0.32424000  0.93692000  1.0
  C  C83  1  0.05545000  0.67576000  0.43692000  1.0
  C  C84  1  0.53601000  0.71563000  0.58653000  1.0
  C  C85  1  0.96399000  0.28436000  0.08653000  1.0
  C  C86  1  0.46399000  0.21564000  0.91347000  1.0
  C  C87  1  0.03600000  0.78437000  0.41347000  1.0
  C  C88  1  0.52059000  0.62646000  0.53681000  1.0
  C  C89  1  0.97941000  0.37354000  0.03681000  1.0
  C  C90  1  0.47941000  0.12646000  0.96319000  1.0
  C  C91  1  0.02058000  0.87355000  0.46319000  1.0
  C  C92  1  0.52502000  0.64206000  0.46195000  1.0
  C  C93  1  0.97498000  0.35794000  0.96195000  1.0
  C  C94  1  0.47498000  0.14206000  0.03805000  1.0
  C  C95  1  0.02503000  0.85794000  0.53805000  1.0
  C  C96  1  0.54512000  0.75147000  0.43750000  1.0
  C  C97  1  0.95488000  0.24853000  0.93750000  1.0
  C  C98  1  0.45488000  0.25147000  0.06250000  1.0
  C  C99  1  0.04512000  0.74853000  0.56250000  1.0
  I  I100  1  0.76632000  0.87210000  0.18976000  1.0
  I  I101  1  0.73368000  0.12790000  0.68976000  1.0
  I  I102  1  0.23368000  0.37210000  0.31024000  1.0
  I  I103  1  0.26632000  0.62790000  0.81024000  1.0
  I  I104  1  0.23759000  0.04043000  0.23684000  1.0
  I  I105  1  0.26241000  0.95957000  0.73684000  1.0
  I  I106  1  0.76241000  0.54043000  0.26316000  1.0
  I  I107  1  0.73759000  0.45957000  0.76316000  1.0
  I  I108  1  0.23833000  0.68341000  0.21761000  1.0
  I  I109  1  0.26167000  0.31659000  0.71761000  1.0
  I  I110  1  0.76167000  0.18341000  0.28239000  1.0
  I  I111  1  0.73833000  0.81659000  0.78239000  1.0
  N  N112  1  0.57635000  0.93222000  0.44482000  1.0
  N  N113  1  0.92364000  0.06778000  0.94482000  1.0
  N  N114  1  0.42365000  0.43222000  0.05518000  1.0
  N  N115  1  0.07636000  0.56778000  0.55518000  1.0
  N  N116  1  0.57182000  0.90380000  0.37327000  1.0
  N  N117  1  0.92818000  0.09619000  0.87327000  1.0
  N  N118  1  0.42818000  0.40381000  0.12673000  1.0
  N  N119  1  0.07183000  0.59620000  0.62673000  1.0
  N  N120  1  0.55536000  0.79498000  0.36832000  1.0
  N  N121  1  0.94464000  0.20502000  0.86832000  1.0
  N  N122  1  0.44464000  0.29498000  0.13168000  1.0
  N  N123  1  0.05537000  0.70502000  0.63168000  1.0
  N  N124  1  0.15990000  0.12120000  0.57450000  1.0
  N  N125  1  0.34010000  0.87880000  0.07450000  1.0
  N  N126  1  0.84010000  0.62120000  0.92549000  1.0
  N  N127  1  0.65990000  0.37880000  0.42550000  1.0
