# generated using pymatgen
data_AlH24C45(BrO2)3
_symmetry_space_group_name_H-M   'P 1'
_cell_length_a   3.96824000
_cell_length_b   23.50760000
_cell_length_c   23.52660000
_cell_angle_alpha   60.04200000
_cell_angle_beta   86.91000000
_cell_angle_gamma   86.57260000
_symmetry_Int_Tables_number   1
_chemical_formula_structural   AlH24C45(BrO2)3
_chemical_formula_sum   'Al1 H24 C45 Br3 O6'
_cell_volume   1897.29200782
_cell_formula_units_Z   1
loop_
 _symmetry_equiv_pos_site_id
 _symmetry_equiv_pos_as_xyz
  1  'x, y, z'
loop_
 _atom_site_type_symbol
 _atom_site_label
 _atom_site_symmetry_multiplicity
 _atom_site_fract_x
 _atom_site_fract_y
 _atom_site_fract_z
 _atom_site_occupancy
  Al  Al0  1  0.98866000  0.49963000  0.50058000  1.0
  H  H1  1  0.51340000  0.32174000  0.68056000  1.0
  H  H2  1  0.51229000  0.25832000  0.80213000  1.0
  H  H3  1  0.82360000  0.22599000  0.89184000  1.0
  H  H4  1  0.83673000  0.16529000  0.01214000  1.0
  H  H5  1  0.47601000  0.80495000  0.25432000  1.0
  H  H6  1  0.23153000  0.89858000  0.22403000  1.0
  H  H7  1  0.24454000  0.01825000  0.16455000  1.0
  H  H8  1  0.52588000  0.10595000  0.10520000  1.0
  H  H9  1  0.54906000  0.67881000  0.49631000  1.0
  H  H10  1  0.54577000  0.80020000  0.43930000  1.0
  H  H11  1  0.79860000  0.89131000  0.37899000  1.0
  H  H12  1  0.81073000  0.01105000  0.31953000  1.0
  H  H13  1  0.55552000  0.25445000  0.43920000  1.0
  H  H14  1  0.26232000  0.22768000  0.38056000  1.0
  H  H15  1  0.26026000  0.16738000  0.32076000  1.0
  H  H16  1  0.54855000  0.10528000  0.28809000  1.0
  H  H17  1  0.59367000  0.49736000  0.32240000  1.0
  H  H18  1  0.58605000  0.44010000  0.25813000  1.0
  H  H19  1  0.85508000  0.37677000  0.22337000  1.0
  H  H20  1  0.85249000  0.31638000  0.16353000  1.0
  H  H21  1  0.50690000  0.44031000  0.80554000  1.0
  H  H22  1  0.20555000  0.37978000  0.89856000  1.0
  H  H23  1  0.21969000  0.31916000  0.01880000  1.0
  H  H24  1  0.54956000  0.28813000  0.10570000  1.0
  C  C25  1  0.47835000  0.45080000  0.60139000  1.0
  C  C26  1  0.52467000  0.44786000  0.45118000  1.0
  C  C27  1  0.47537000  0.60046000  0.44826000  1.0
  C  C28  1  0.50648000  0.34719000  0.70874000  1.0
  C  C29  1  0.50999000  0.31185000  0.77685000  1.0
  C  C30  1  0.68417000  0.24618000  0.91940000  1.0
  C  C31  1  0.69135000  0.21176000  0.98755000  1.0
  C  C32  1  0.46095000  0.71034000  0.34071000  1.0
  C  C33  1  0.47889000  0.77844000  0.30771000  1.0
  C  C34  1  0.36764000  0.92262000  0.24471000  1.0
  C  C35  1  0.37455000  0.99074000  0.21090000  1.0
  C  C36  1  0.48713000  0.41612000  0.67455000  1.0
  C  C37  1  0.50611000  0.34447000  0.81330000  1.0
  C  C38  1  0.51442000  0.30782000  0.88560000  1.0
  C  C39  1  0.52963000  0.23751000  0.02491000  1.0
  C  C40  1  0.53746000  0.20110000  0.09726000  1.0
  C  C41  1  0.53372000  0.13235000  0.13221000  1.0
  C  C42  1  0.52642000  0.70745000  0.44316000  1.0
  C  C43  1  0.52932000  0.77553000  0.41079000  1.0
  C  C44  1  0.66872000  0.91871000  0.33267000  1.0
  C  C45  1  0.67517000  0.98688000  0.29888000  1.0
  C  C46  1  0.54139000  0.34085000  0.44810000  1.0
  C  C47  1  0.55157000  0.30795000  0.41262000  1.0
  C  C48  1  0.40011000  0.24680000  0.33363000  1.0
  C  C49  1  0.39923000  0.21249000  0.29975000  1.0
  C  C50  1  0.48610000  0.67345000  0.40916000  1.0
  C  C51  1  0.50753000  0.81251000  0.34207000  1.0
  C  C52  1  0.51510000  0.88486000  0.30637000  1.0
  C  C53  1  0.52888000  0.02457000  0.23711000  1.0
  C  C54  1  0.53712000  0.09700000  0.20098000  1.0
  C  C55  1  0.54626000  0.13205000  0.23463000  1.0
  C  C56  1  0.58006000  0.44401000  0.34734000  1.0
  C  C57  1  0.57979000  0.41156000  0.31159000  1.0
  C  C58  1  0.71693000  0.33159000  0.24453000  1.0
  C  C59  1  0.71581000  0.29727000  0.21061000  1.0
  C  C60  1  0.48183000  0.44857000  0.71092000  1.0
  C  C61  1  0.49617000  0.41347000  0.77907000  1.0
  C  C62  1  0.35172000  0.33343000  0.92302000  1.0
  C  C63  1  0.35939000  0.29908000  0.99114000  1.0
  C  C64  1  0.55238000  0.40952000  0.41612000  1.0
  C  C65  1  0.56323000  0.34276000  0.34366000  1.0
  C  C66  1  0.55974000  0.30706000  0.30695000  1.0
  C  C67  1  0.55698000  0.23694000  0.23742000  1.0
  C  C68  1  0.55125000  0.20081000  0.20114000  1.0
  C  C69  1  0.54655000  0.23463000  0.13240000  1.0
  Br  Br70  1  0.53892000  0.28884000  0.54128000  1.0
  Br  Br71  1  0.48015000  0.54189000  0.66888000  1.0
  Br  Br72  1  0.42506000  0.66998000  0.28858000  1.0
  O  O73  1  0.24423000  0.57231000  0.43725000  1.0
  O  O74  1  0.22984000  0.49023000  0.57355000  1.0
  O  O75  1  0.27601000  0.43669000  0.49136000  1.0
  O  O76  1  0.69846000  0.57109000  0.49183000  1.0
  O  O77  1  0.74591000  0.49038000  0.43718000  1.0
  O  O78  1  0.72053000  0.43679000  0.57207000  1.0
