# generated using pymatgen
data_Zn2B2H48C55N6(O2F)4
_symmetry_space_group_name_H-M   'P 1'
_cell_length_a   14.92110000
_cell_length_b   14.92110000
_cell_length_c   15.93820000
_cell_angle_alpha   83.06700000
_cell_angle_beta   83.06710000
_cell_angle_gamma   86.93530000
_symmetry_Int_Tables_number   1
_chemical_formula_structural   Zn2B2H48C55N6(O2F)4
_chemical_formula_sum   'Zn4 B4 H96 C110 N12 O16 F8'
_cell_volume   3494.04144025
_cell_formula_units_Z   2
loop_
 _symmetry_equiv_pos_site_id
 _symmetry_equiv_pos_as_xyz
  1  'x, y, z'
loop_
 _atom_site_type_symbol
 _atom_site_label
 _atom_site_symmetry_multiplicity
 _atom_site_fract_x
 _atom_site_fract_y
 _atom_site_fract_z
 _atom_site_occupancy
  Zn  Zn0  1  0.89515000  0.12251000  0.15776000  1.0
  Zn  Zn1  1  0.87749000  0.10485000  0.34224000  1.0
  Zn  Zn2  1  0.10485000  0.87749000  0.84224000  1.0
  Zn  Zn3  1  0.12251000  0.89515000  0.65776000  1.0
  B  B4  1  0.92007000  0.59477000  0.35895000  1.0
  B  B5  1  0.40523000  0.07993000  0.14105000  1.0
  B  B6  1  0.07993000  0.40523000  0.64105000  1.0
  B  B7  1  0.59477000  0.92007000  0.85895000  1.0
  H  H8  1  0.74020000  0.29272000  0.69561000  1.0
  H  H9  1  0.70728000  0.25980000  0.80439000  1.0
  H  H10  1  0.25980000  0.70728000  0.30439000  1.0
  H  H11  1  0.29273000  0.74020000  0.19561000  1.0
  H  H12  1  0.86566000  0.33056000  0.76002000  1.0
  H  H13  1  0.66944000  0.13434000  0.73998000  1.0
  H  H14  1  0.13434000  0.66944000  0.23998000  1.0
  H  H15  1  0.33056000  0.86566000  0.26002000  1.0
  H  H16  1  0.90229000  0.22620000  0.72429000  1.0
  H  H17  1  0.77380000  0.09771000  0.77571000  1.0
  H  H18  1  0.09771000  0.77380000  0.27571000  1.0
  H  H19  1  0.22620000  0.90229000  0.22429000  1.0
  H  H20  1  0.76837000  0.31613000  0.91616000  1.0
  H  H21  1  0.68387000  0.23163000  0.58384000  1.0
  H  H22  1  0.23163000  0.68387000  0.08384000  1.0
  H  H23  1  0.31613000  0.76837000  0.41616000  1.0
  H  H24  1  0.78705000  0.25051000  0.06473000  1.0
  H  H25  1  0.74949000  0.21294000  0.43527000  1.0
  H  H26  1  0.21294000  0.74949000  0.93527000  1.0
  H  H27  1  0.25051000  0.78705000  0.56473000  1.0
  H  H28  1  0.98244000  0.06382000  0.98136000  1.0
  H  H29  1  0.93618000  0.01756000  0.51864000  1.0
  H  H30  1  0.01756000  0.93618000  0.01864000  1.0
  H  H31  1  0.06382000  0.98244000  0.48136000  1.0
  H  H32  1  0.96691000  0.11507000  0.83019000  1.0
  H  H33  1  0.88493000  0.03309000  0.66981000  1.0
  H  H34  1  0.03309000  0.88493000  0.16981000  1.0
  H  H35  1  0.11507000  0.96691000  0.33019000  1.0
  H  H36  1  0.90407000  0.73173000  0.47005000  1.0
  H  H37  1  0.26827000  0.09593000  0.02995000  1.0
  H  H38  1  0.09593000  0.26827000  0.52995000  1.0
  H  H39  1  0.73173000  0.90407000  0.97005000  1.0
  H  H40  1  0.93166000  0.84687000  0.43443000  1.0
  H  H41  1  0.15313000  0.06834000  0.06557000  1.0
  H  H42  1  0.06834000  0.15313000  0.56557000  1.0
  H  H43  1  0.84687000  0.93166000  0.93443000  1.0
  H  H44  1  0.01310000  0.75590000  0.41935000  1.0
  H  H45  1  0.24410000  0.98690000  0.08065000  1.0
  H  H46  1  0.98690000  0.24410000  0.58065000  1.0
  H  H47  1  0.75590000  0.01310000  0.91935000  1.0
  H  H48  1  0.79124000  0.91056000  0.14158000  1.0
  H  H49  1  0.08944000  0.20876000  0.35842000  1.0
  H  H50  1  0.20876000  0.08944000  0.85843000  1.0
  H  H51  1  0.91056000  0.79124000  0.64157000  1.0
  H  H52  1  0.76926000  0.80432000  0.10782000  1.0
  H  H53  1  0.19568000  0.23074000  0.39218000  1.0
  H  H54  1  0.23074000  0.19568000  0.89218000  1.0
  H  H55  1  0.80432000  0.76926000  0.60782000  1.0
  H  H56  1  0.87323000  0.85546000  0.07450000  1.0
  H  H57  1  0.14454000  0.12677000  0.42550000  1.0
  H  H58  1  0.12677000  0.14454000  0.92550000  1.0
  H  H59  1  0.85546000  0.87323000  0.57450000  1.0
  H  H60  1  0.97231000  0.68019000  0.03876000  1.0
  H  H61  1  0.31981000  0.02769000  0.46124000  1.0
  H  H62  1  0.02769000  0.31981000  0.96124000  1.0
  H  H63  1  0.68019000  0.97231000  0.53876000  1.0
  H  H64  1  0.93057000  0.71460000  0.89217000  1.0
  H  H65  1  0.28540000  0.06943000  0.60783000  1.0
  H  H66  1  0.06943000  0.28540000  0.10783000  1.0
  H  H67  1  0.71460000  0.93057000  0.39217000  1.0
  H  H68  1  0.77001000  0.70414000  0.86502000  1.0
  H  H69  1  0.29586000  0.22999000  0.63498000  1.0
  H  H70  1  0.22999000  0.29586000  0.13498000  1.0
  H  H71  1  0.70413000  0.77001000  0.36502000  1.0
  H  H72  1  0.65322000  0.65759000  0.98512000  1.0
  H  H73  1  0.34241000  0.34678000  0.51488000  1.0
  H  H74  1  0.34678000  0.34241000  0.01488000  1.0
  H  H75  1  0.65759000  0.65322000  0.48512000  1.0
  H  H76  1  0.69680000  0.61929000  0.13173000  1.0
  H  H77  1  0.38071000  0.30320000  0.36826000  1.0
  H  H78  1  0.30320000  0.38071000  0.86827000  1.0
  H  H79  1  0.61929000  0.69680000  0.63174000  1.0
  H  H80  1  0.88168000  0.37238000  0.08473000  1.0
  H  H81  1  0.62762000  0.11832000  0.41527000  1.0
  H  H82  1  0.11832000  0.62762000  0.91527000  1.0
  H  H83  1  0.37238000  0.88168000  0.58473000  1.0
  H  H84  1  0.89844000  0.48899000  0.04774000  1.0
  H  H85  1  0.51101000  0.10156000  0.45226000  1.0
  H  H86  1  0.10156000  0.51101000  0.95226000  1.0
  H  H87  1  0.48899000  0.89844000  0.54774000  1.0
  H  H88  1  0.78915000  0.45312000  0.08607000  1.0
  H  H89  1  0.54688000  0.21085000  0.41392000  1.0
  H  H90  1  0.21085000  0.54688000  0.91393000  1.0
  H  H91  1  0.45312000  0.78915000  0.58607000  1.0
  H  H92  1  0.96925000  0.43427000  0.43715000  1.0
  H  H93  1  0.56573000  0.03075000  0.06285000  1.0
  H  H94  1  0.03075000  0.56573000  0.56285000  1.0
  H  H95  1  0.43427000  0.96925000  0.93715000  1.0
  H  H96  1  0.96638000  0.32477000  0.40137000  1.0
  H  H97  1  0.67523000  0.03362000  0.09863000  1.0
  H  H98  1  0.03362000  0.67523000  0.59863000  1.0
  H  H99  1  0.32477000  0.96638000  0.90137000  1.0
  H  H100  1  0.86733000  0.37575000  0.44963000  1.0
  H  H101  1  0.62425000  0.13267000  0.05037000  1.0
  H  H102  1  0.13267000  0.62425000  0.55037000  1.0
  H  H103  1  0.37575000  0.86733000  0.94963000  1.0
  C  C104  1  0.75583000  0.24417000  0.75000000  1.0
  C  C105  1  0.24417000  0.75583000  0.25000000  1.0
  C  C106  1  0.85257000  0.25794000  0.76941000  1.0
  C  C107  1  0.74206000  0.14743000  0.73059000  1.0
  C  C108  1  0.14743000  0.74206000  0.23059000  1.0
  C  C109  1  0.25794000  0.85257000  0.26941000  1.0
  C  C110  1  0.86602000  0.22115000  0.85923000  1.0
  C  C111  1  0.77885000  0.13398000  0.64077000  1.0
  C  C112  1  0.13398000  0.77885000  0.14077000  1.0
  C  C113  1  0.22115000  0.86602000  0.35923000  1.0
  C  C114  1  0.81594000  0.25906000  0.92752000  1.0
  C  C115  1  0.74094000  0.18406000  0.57248000  1.0
  C  C116  1  0.18406000  0.74094000  0.07248000  1.0
  C  C117  1  0.25906000  0.81594000  0.42752000  1.0
  C  C118  1  0.82632000  0.22400000  0.01043000  1.0
  C  C119  1  0.77600000  0.17368000  0.48957000  1.0
  C  C120  1  0.17368000  0.77600000  0.98957000  1.0
  C  C121  1  0.22400000  0.82632000  0.51043000  1.0
  C  C122  1  0.93437000  0.11854000  0.96430000  1.0
  C  C123  1  0.88146000  0.06563000  0.53570000  1.0
  C  C124  1  0.06563000  0.88146000  0.03570000  1.0
  C  C125  1  0.11854000  0.93437000  0.46430000  1.0
  C  C126  1  0.92579000  0.14842000  0.87938000  1.0
  C  C127  1  0.85158000  0.07421000  0.62062000  1.0
  C  C128  1  0.07421000  0.85159000  0.12062000  1.0
  C  C129  1  0.14841000  0.92579000  0.37938000  1.0
  C  C130  1  0.88868000  0.93736000  0.27497000  1.0
  C  C131  1  0.06264000  0.11132000  0.22504000  1.0
  C  C132  1  0.11132000  0.06264000  0.72503000  1.0
  C  C133  1  0.93736000  0.88868000  0.77496000  1.0
  C  C134  1  0.88468000  0.83894000  0.27300000  1.0
  C  C135  1  0.16106000  0.11532000  0.22700000  1.0
  C  C136  1  0.11532000  0.16107000  0.72700000  1.0
  C  C137  1  0.83894000  0.88468000  0.77300000  1.0
  C  C138  1  0.90948000  0.76940000  0.33646000  1.0
  C  C139  1  0.23060000  0.09052000  0.16354000  1.0
  C  C140  1  0.09052000  0.23060000  0.66355000  1.0
  C  C141  1  0.76940000  0.90948000  0.83646000  1.0
  C  C142  1  0.94125000  0.77707000  0.42003000  1.0
  C  C143  1  0.22293000  0.05875000  0.07997000  1.0
  C  C144  1  0.05875000  0.22293000  0.57997000  1.0
  C  C145  1  0.77707000  0.94125000  0.92003000  1.0
  C  C146  1  0.85837000  0.79729000  0.20531000  1.0
  C  C147  1  0.20271000  0.14163000  0.29469000  1.0
  C  C148  1  0.14163000  0.20271000  0.79469000  1.0
  C  C149  1  0.79729000  0.85837000  0.70531000  1.0
  C  C150  1  0.82029000  0.84407000  0.12857000  1.0
  C  C151  1  0.15593000  0.17971000  0.37143000  1.0
  C  C152  1  0.17971000  0.15593000  0.87143000  1.0
  C  C153  1  0.84407000  0.82029000  0.62857000  1.0
  C  C154  1  0.87135000  0.70246000  0.22790000  1.0
  C  C155  1  0.29754000  0.12865000  0.27210000  1.0
  C  C156  1  0.12865000  0.29754000  0.77210000  1.0
  C  C157  1  0.70246000  0.87135000  0.72790000  1.0
  C  C158  1  0.86292000  0.62910000  0.18206000  1.0
  C  C159  1  0.37090000  0.13708000  0.31794000  1.0
  C  C160  1  0.13708000  0.37090000  0.81794000  1.0
  C  C161  1  0.62910000  0.86292000  0.68206000  1.0
  C  C162  1  0.87989000  0.54032000  0.21767000  1.0
  C  C163  1  0.45968000  0.12011000  0.28233000  1.0
  C  C164  1  0.12011000  0.45968000  0.78233000  1.0
  C  C165  1  0.54032000  0.87989000  0.71767000  1.0
  C  C166  1  0.83727000  0.64711000  0.09421000  1.0
  C  C167  1  0.35289000  0.16272000  0.40579000  1.0
  C  C168  1  0.16273000  0.35289000  0.90579000  1.0
  C  C169  1  0.64711000  0.83727000  0.59421000  1.0
  C  C170  1  0.90267000  0.67404000  0.02644000  1.0
  C  C171  1  0.32596000  0.09732000  0.47356000  1.0
  C  C172  1  0.09732000  0.32596000  0.97356000  1.0
  C  C173  1  0.67404000  0.90267000  0.52644000  1.0
  C  C174  1  0.87887000  0.69327000  0.94395000  1.0
  C  C175  1  0.30673000  0.12113000  0.55604000  1.0
  C  C176  1  0.12113000  0.30673000  0.05604000  1.0
  C  C177  1  0.69327000  0.87887000  0.44396000  1.0
  C  C178  1  0.78912000  0.68713000  0.92910000  1.0
  C  C179  1  0.31287000  0.21088000  0.57090000  1.0
  C  C180  1  0.21088000  0.31287000  0.07090000  1.0
  C  C181  1  0.68713000  0.78912000  0.42910000  1.0
  C  C182  1  0.72354000  0.66062000  0.99648000  1.0
  C  C183  1  0.33938000  0.27646000  0.50352000  1.0
  C  C184  1  0.27646000  0.33938000  0.00352000  1.0
  C  C185  1  0.66062000  0.72354000  0.49648000  1.0
  C  C186  1  0.74765000  0.63973000  0.07872000  1.0
  C  C187  1  0.36027000  0.25235000  0.42127000  1.0
  C  C188  1  0.25235000  0.36027000  0.92127000  1.0
  C  C189  1  0.63973000  0.74765000  0.57873000  1.0
  C  C190  1  0.87689000  0.45615000  0.18365000  1.0
  C  C191  1  0.54385000  0.12310000  0.31635000  1.0
  C  C192  1  0.12311000  0.54385000  0.81635000  1.0
  C  C193  1  0.45615000  0.87689000  0.68365000  1.0
  C  C194  1  0.86087000  0.44176000  0.09568000  1.0
  C  C195  1  0.55824000  0.13913000  0.40432000  1.0
  C  C196  1  0.13913000  0.55824000  0.90432000  1.0
  C  C197  1  0.44176000  0.86087000  0.59568000  1.0
  C  C198  1  0.89242000  0.38849000  0.25019000  1.0
  C  C199  1  0.61151000  0.10758000  0.24981000  1.0
  C  C200  1  0.10758000  0.61151000  0.74981000  1.0
  C  C201  1  0.38849000  0.89241000  0.75019000  1.0
  C  C202  1  0.88885000  0.28957000  0.24989000  1.0
  C  C203  1  0.71043000  0.11115000  0.25011000  1.0
  C  C204  1  0.11116000  0.71043000  0.75011000  1.0
  C  C205  1  0.28957000  0.88884000  0.74989000  1.0
  C  C206  1  0.90793000  0.43175000  0.32224000  1.0
  C  C207  1  0.56825000  0.09207000  0.17776000  1.0
  C  C208  1  0.09207000  0.56825000  0.67776000  1.0
  C  C209  1  0.43175000  0.90793000  0.82224000  1.0
  C  C210  1  0.92999000  0.38986000  0.40705000  1.0
  C  C211  1  0.61014000  0.07001000  0.09295000  1.0
  C  C212  1  0.07001000  0.61014000  0.59295000  1.0
  C  C213  1  0.38986000  0.92999000  0.90705000  1.0
  N  N214  1  0.88537000  0.15484000  0.02906000  1.0
  N  N215  1  0.84516000  0.11463000  0.47094000  1.0
  N  N216  1  0.11463000  0.84516000  0.97094000  1.0
  N  N217  1  0.15484000  0.88537000  0.52906000  1.0
  N  N218  1  0.90136000  0.68854000  0.30860000  1.0
  N  N219  1  0.31146000  0.09864000  0.19140000  1.0
  N  N220  1  0.09864000  0.31146000  0.69140000  1.0
  N  N221  1  0.68854000  0.90136000  0.80860000  1.0
  N  N222  1  0.90143000  0.52200000  0.30151000  1.0
  N  N223  1  0.47800000  0.09857000  0.19849000  1.0
  N  N224  1  0.09857000  0.47800000  0.69849000  1.0
  N  N225  1  0.52200000  0.90143000  0.80151000  1.0
  O  O226  1  0.88999000  0.98642000  0.20326000  1.0
  O  O227  1  0.01358000  0.11001000  0.29674000  1.0
  O  O228  1  0.11001000  0.01358000  0.79674000  1.0
  O  O229  1  0.98642000  0.88999000  0.70326000  1.0
  O  O230  1  0.89138000  0.96726000  0.34649000  1.0
  O  O231  1  0.03274000  0.10862000  0.15351000  1.0
  O  O232  1  0.10863000  0.03274000  0.65351000  1.0
  O  O233  1  0.96726000  0.89138000  0.84649000  1.0
  O  O234  1  0.90549000  0.25646000  0.17922000  1.0
  O  O235  1  0.74354000  0.09451000  0.32078000  1.0
  O  O236  1  0.09451000  0.74354000  0.82078000  1.0
  O  O237  1  0.25646000  0.90549000  0.67922000  1.0
  O  O238  1  0.86811000  0.24359000  0.32187000  1.0
  O  O239  1  0.75641000  0.13189000  0.17813000  1.0
  O  O240  1  0.13189000  0.75641000  0.67813000  1.0
  O  O241  1  0.24359000  0.86811000  0.82187000  1.0
  F  F242  1  0.01119000  0.58712000  0.37567000  1.0
  F  F243  1  0.41288000  0.98881000  0.12433000  1.0
  F  F244  1  0.98881000  0.41288000  0.62433000  1.0
  F  F245  1  0.58712000  0.01119000  0.87567000  1.0
  F  F246  1  0.86185000  0.58457000  0.43563000  1.0
  F  F247  1  0.41543000  0.13815000  0.06437000  1.0
  F  F248  1  0.13815000  0.41543000  0.56437000  1.0
  F  F249  1  0.58457000  0.86185000  0.93563000  1.0
