# generated using pymatgen
data_HoH9C8SO10
_symmetry_space_group_name_H-M   'P 1'
_cell_length_a   6.78375000
_cell_length_b   11.62080000
_cell_length_c   14.79180000
_cell_angle_alpha   90.00020000
_cell_angle_beta   90.00130000
_cell_angle_gamma   83.63860000
_symmetry_Int_Tables_number   1
_chemical_formula_structural   HoH9C8SO10
_chemical_formula_sum   'Ho4 H36 C32 S4 O40'
_cell_volume   1158.89630657
_cell_formula_units_Z   4
loop_
 _symmetry_equiv_pos_site_id
 _symmetry_equiv_pos_as_xyz
  1  'x, y, z'
loop_
 _atom_site_type_symbol
 _atom_site_label
 _atom_site_symmetry_multiplicity
 _atom_site_fract_x
 _atom_site_fract_y
 _atom_site_fract_z
 _atom_site_occupancy
  Ho  Ho0  1  0.32512000  0.09852000  0.40280000  1.0
  Ho  Ho1  1  0.17486000  0.40148000  0.90280000  1.0
  Ho  Ho2  1  0.67487000  0.90147000  0.59720000  1.0
  Ho  Ho3  1  0.82513000  0.59853000  0.09720000  1.0
  H  H4  1  0.06442000  0.08575000  0.57585000  1.0
  H  H5  1  0.43558000  0.41425000  0.07584000  1.0
  H  H6  1  0.93557000  0.91424000  0.42416000  1.0
  H  H7  1  0.56441000  0.58576000  0.92415000  1.0
  H  H8  1  0.19182000  0.19365000  0.57020000  1.0
  H  H9  1  0.30817000  0.30636000  0.07020000  1.0
  H  H10  1  0.80818000  0.80635000  0.42981000  1.0
  H  H11  1  0.69182000  0.69365000  0.92980000  1.0
  H  H12  1  0.64810000  0.93631000  0.35390000  1.0
  H  H13  1  0.85189000  0.56369000  0.85389000  1.0
  H  H14  1  0.35190000  0.06367000  0.64610000  1.0
  H  H15  1  0.14811000  0.43632000  0.14611000  1.0
  H  H16  1  0.48426000  0.90598000  0.28058000  1.0
  H  H17  1  0.01574000  0.59403000  0.78057000  1.0
  H  H18  1  0.51574000  0.09402000  0.71942000  1.0
  H  H19  1  0.98426000  0.40598000  0.21942000  1.0
  H  H20  1  0.29030000  0.14667000  0.19435000  1.0
  H  H21  1  0.20968000  0.35333000  0.69435000  1.0
  H  H22  1  0.70970000  0.85331000  0.80566000  1.0
  H  H23  1  0.79032000  0.64668000  0.30565000  1.0
  H  H24  1  0.11131000  0.20139000  0.25527000  1.0
  H  H25  1  0.38868000  0.29862000  0.75526000  1.0
  H  H26  1  0.88869000  0.79860000  0.74474000  1.0
  H  H27  1  0.61133000  0.70140000  0.24473000  1.0
  H  H28  1  0.28667000  0.47417000  0.34134000  1.0
  H  H29  1  0.21332000  0.02583000  0.84134000  1.0
  H  H30  1  0.71330000  0.52583000  0.65867000  1.0
  H  H31  1  0.78668000  0.97417000  0.15865000  1.0
  H  H32  1  0.29499000  0.68649000  0.32121000  1.0
  H  H33  1  0.20502000  0.81351000  0.82122000  1.0
  H  H34  1  0.70499000  0.31351000  0.67879000  1.0
  H  H35  1  0.79500000  0.18649000  0.17877000  1.0
  H  H36  1  0.19732000  0.52742000  0.62697000  1.0
  H  H37  1  0.30267000  0.97258000  0.12697000  1.0
  H  H38  1  0.80267000  0.47258000  0.37304000  1.0
  H  H39  1  0.69733000  0.02742000  0.87302000  1.0
  C  C40  1  0.24003000  0.35925000  0.49950000  1.0
  C  C41  1  0.25997000  0.14075000  0.99951000  1.0
  C  C42  1  0.75996000  0.64075000  0.50051000  1.0
  C  C43  1  0.74003000  0.85925000  0.00049000  1.0
  C  C44  1  0.24845000  0.48620000  0.48574000  1.0
  C  C45  1  0.25155000  0.01380000  0.98574000  1.0
  C  C46  1  0.75154000  0.51380000  0.51426000  1.0
  C  C47  1  0.74846000  0.98621000  0.01425000  1.0
  C  C48  1  0.27381000  0.53192000  0.39962000  1.0
  C  C49  1  0.22620000  0.96809000  0.89962000  1.0
  C  C50  1  0.72618000  0.46809000  0.60038000  1.0
  C  C51  1  0.77380000  0.03192000  0.10037000  1.0
  C  C52  1  0.27951000  0.65068000  0.38822000  1.0
  C  C53  1  0.22050000  0.84932000  0.88821000  1.0
  C  C54  1  0.72048000  0.34932000  0.61179000  1.0
  C  C55  1  0.77950000  0.15069000  0.11178000  1.0
  C  C56  1  0.26408000  0.72568000  0.46238000  1.0
  C  C57  1  0.23594000  0.77432000  0.96238000  1.0
  C  C58  1  0.73592000  0.27432000  0.53762000  1.0
  C  C59  1  0.76409000  0.22568000  0.03761000  1.0
  C  C60  1  0.23341000  0.67868000  0.54820000  1.0
  C  C61  1  0.26659000  0.82132000  0.04819000  1.0
  C  C62  1  0.76658000  0.32132000  0.45181000  1.0
  C  C63  1  0.73342000  0.17868000  0.95179000  1.0
  C  C64  1  0.22497000  0.56089000  0.56006000  1.0
  C  C65  1  0.27504000  0.93911000  0.06007000  1.0
  C  C66  1  0.77505000  0.43911000  0.43994000  1.0
  C  C67  1  0.72497000  0.06090000  0.93992000  1.0
  C  C68  1  0.28688000  0.85190000  0.45013000  1.0
  C  C69  1  0.21312000  0.64810000  0.95013000  1.0
  C  C70  1  0.71314000  0.14810000  0.54986000  1.0
  C  C71  1  0.78687000  0.35191000  0.04987000  1.0
  S  S72  1  0.18878000  0.77314000  0.64134000  1.0
  S  S73  1  0.31124000  0.72686000  0.14133000  1.0
  S  S74  1  0.81124000  0.22686000  0.35867000  1.0
  S  S75  1  0.68876000  0.27314000  0.85866000  1.0
  O  O76  1  0.19812000  0.10591000  0.55846000  1.0
  O  O77  1  0.30188000  0.39409000  0.05846000  1.0
  O  O78  1  0.80188000  0.89409000  0.44154000  1.0
  O  O79  1  0.69811000  0.60591000  0.94154000  1.0
  O  O80  1  0.53675000  0.96924000  0.31376000  1.0
  O  O81  1  0.96325000  0.53077000  0.81376000  1.0
  O  O82  1  0.46324000  0.03076000  0.68624000  1.0
  O  O83  1  0.03676000  0.46924000  0.18623000  1.0
  O  O84  1  0.23379000  0.14666000  0.25615000  1.0
  O  O85  1  0.26618000  0.35334000  0.75614000  1.0
  O  O86  1  0.76619000  0.85332000  0.74386000  1.0
  O  O87  1  0.73384000  0.64668000  0.24386000  1.0
  O  O88  1  0.27078000  0.29251000  0.43134000  1.0
  O  O89  1  0.22922000  0.20749000  0.93134000  1.0
  O  O90  1  0.72923000  0.70748000  0.56866000  1.0
  O  O91  1  0.77078000  0.79252000  0.06866000  1.0
  O  O92  1  0.20142000  0.32373000  0.57852000  1.0
  O  O93  1  0.29857000  0.17627000  0.07853000  1.0
  O  O94  1  0.79858000  0.67627000  0.42148000  1.0
  O  O95  1  0.70143000  0.82373000  0.92146000  1.0
  O  O96  1  0.37869000  0.81166000  0.66700000  1.0
  O  O97  1  0.12131000  0.68834000  0.16699000  1.0
  O  O98  1  0.62132000  0.18835000  0.33300000  1.0
  O  O99  1  0.87869000  0.31166000  0.83300000  1.0
  O  O100  1  0.04234000  0.86791000  0.60822000  1.0
  O  O101  1  0.45768000  0.63209000  0.10821000  1.0
  O  O102  1  0.95767000  0.13209000  0.39180000  1.0
  O  O103  1  0.54233000  0.36790000  0.89179000  1.0
  O  O104  1  0.10312000  0.70731000  0.71404000  1.0
  O  O105  1  0.39690000  0.79268000  0.21403000  1.0
  O  O106  1  0.89690000  0.29268000  0.28596000  1.0
  O  O107  1  0.60310000  0.20731000  0.78596000  1.0
  O  O108  1  0.42471000  0.89541000  0.49226000  1.0
  O  O109  1  0.07526000  0.60461000  0.99226000  1.0
  O  O110  1  0.57528000  0.10459000  0.50775000  1.0
  O  O111  1  0.92474000  0.39542000  0.00773000  1.0
  O  O112  1  0.17649000  0.91504000  0.39592000  1.0
  O  O113  1  0.32352000  0.58495000  0.89593000  1.0
  O  O114  1  0.82350000  0.08495000  0.60408000  1.0
  O  O115  1  0.67649000  0.41504000  0.10407000  1.0
