# generated using pymatgen
data_Al2H10C21(Cl2O5)2
_symmetry_space_group_name_H-M   'P 1'
_cell_length_a   6.79032000
_cell_length_b   10.99700000
_cell_length_c   11.04732404
_cell_angle_alpha   88.36031778
_cell_angle_beta   73.28758359
_cell_angle_gamma   73.81970000
_symmetry_Int_Tables_number   1
_chemical_formula_structural   Al2H10C21(Cl2O5)2
_chemical_formula_sum   'Al2 H10 C21 Cl4 O10'
_cell_volume   757.60610340
_cell_formula_units_Z   1
loop_
 _symmetry_equiv_pos_site_id
 _symmetry_equiv_pos_as_xyz
  1  'x, y, z'
loop_
 _atom_site_type_symbol
 _atom_site_label
 _atom_site_symmetry_multiplicity
 _atom_site_fract_x
 _atom_site_fract_y
 _atom_site_fract_z
 _atom_site_occupancy
  Al  Al0  1  0.99857000  0.50058000  0.49728000  1.0
  Al  Al1  1  0.50106000  0.49464000  0.49719000  1.0
  H  H2  1  0.64247000  0.57460000  0.64912000  1.0
  H  H3  1  0.36368000  0.36782000  0.37993000  1.0
  H  H4  1  0.63016000  0.09552000  0.50151000  1.0
  H  H5  1  0.24305000  0.13593000  0.49298000  1.0
  H  H6  1  0.78372000  0.85795000  0.50295000  1.0
  H  H7  1  0.46056000  0.31846000  0.76564000  1.0
  H  H8  1  0.20092000  0.33324000  0.23549000  1.0
  H  H9  1  0.55634000  0.92540000  0.41257000  1.0
  H  H10  1  0.51088000  0.79535000  0.50437000  1.0
  H  H11  1  0.46843000  0.94567000  0.57980000  1.0
  C  C12  1  0.13874000  0.48729000  0.72277000  1.0
  C  C13  1  0.15930000  0.72365000  0.49853000  1.0
  C  C14  1  0.85639000  0.50968000  0.27421000  1.0
  C  C15  1  0.85073000  0.27024000  0.49342000  1.0
  C  C16  1  0.09251000  0.86539000  0.49794000  1.0
  C  C17  1  0.92980000  0.12988000  0.49567000  1.0
  C  C18  1  0.22662000  0.94302000  0.49610000  1.0
  C  C19  1  0.79619000  0.05230000  0.49953000  1.0
  C  C20  1  0.14157000  0.07430000  0.49431000  1.0
  C  C21  1  0.87948000  0.92216000  0.50031000  1.0
  C  C22  1  0.06798000  0.49167000  0.86469000  1.0
  C  C23  1  0.20043000  0.41063000  0.93142000  1.0
  C  C24  1  0.87442000  0.57632000  0.93071000  1.0
  C  C25  1  0.40108000  0.32420000  0.86843000  1.0
  C  C26  1  0.52721000  0.24821000  0.93528000  1.0
  C  C27  1  0.92811000  0.50363000  0.13221000  1.0
  C  C28  1  0.80436000  0.58297000  0.06557000  1.0
  C  C29  1  0.12771000  0.41601000  0.06697000  1.0
  C  C30  1  0.25656000  0.33338000  0.13295000  1.0
  C  C31  1  0.45337000  0.25282000  0.06985000  1.0
  C  C32  1  0.45334000  0.89755000  0.49863000  1.0
  Cl  Cl33  1  0.57078000  0.69398000  0.14460000  1.0
  Cl  Cl34  1  0.72003000  0.68190000  0.85265000  1.0
  Cl  Cl35  1  0.77297000  0.14842000  0.85450000  1.0
  Cl  Cl36  1  0.60763000  0.15957000  0.15617000  1.0
  O  O37  1  0.00942000  0.46751000  0.66772000  1.0
  O  O38  1  0.35693000  0.66567000  0.47902000  1.0
  O  O39  1  0.68172000  0.48381000  0.32684000  1.0
  O  O40  1  0.99282000  0.33017000  0.46979000  1.0
  O  O41  1  0.98159000  0.53580000  0.32905000  1.0
  O  O42  1  0.64940000  0.32014000  0.51351000  1.0
  O  O43  1  0.32138000  0.50462000  0.67022000  1.0
  O  O44  1  0.01035000  0.66900000  0.51948000  1.0
  O  O45  1  0.69577000  0.55087000  0.55904000  1.0
  O  O46  1  0.30185000  0.44123000  0.43916000  1.0
