# generated using pymatgen
data_ZnH12C16NO5F
_symmetry_space_group_name_H-M   'P 1'
_cell_length_a   8.83511000
_cell_length_b   13.93570000
_cell_length_c   15.31280000
_cell_angle_alpha   91.47500000
_cell_angle_beta   91.05370000
_cell_angle_gamma   102.42890000
_symmetry_Int_Tables_number   1
_chemical_formula_structural   ZnH12C16NO5F
_chemical_formula_sum   'Zn2 H24 C32 N2 O10 F2'
_cell_volume   1840.01584663
_cell_formula_units_Z   2
loop_
 _symmetry_equiv_pos_site_id
 _symmetry_equiv_pos_as_xyz
  1  'x, y, z'
loop_
 _atom_site_type_symbol
 _atom_site_label
 _atom_site_symmetry_multiplicity
 _atom_site_fract_x
 _atom_site_fract_y
 _atom_site_fract_z
 _atom_site_occupancy
  Zn  Zn0  1  0.52406000  0.60244000  0.49929000  1.0
  Zn  Zn1  1  0.47699000  0.39588000  0.49944000  1.0
  H  H2  1  0.47003000  0.64922000  0.94240000  1.0
  H  H3  1  0.43954000  0.34590000  0.04725000  1.0
  H  H4  1  0.61970000  0.37666000  0.77464000  1.0
  H  H5  1  0.55682000  0.64896000  0.23431000  1.0
  H  H6  1  0.61655000  0.37238000  0.93689000  1.0
  H  H7  1  0.60036000  0.66117000  0.07451000  1.0
  H  H8  1  0.24643000  0.02934000  0.53295000  1.0
  H  H9  1  0.64877000  0.95316000  0.38946000  1.0
  H  H10  1  0.25018000  0.21022000  0.53135000  1.0
  H  H11  1  0.65943000  0.77495000  0.39507000  1.0
  H  H12  1  0.71475000  0.27937000  0.47228000  1.0
  H  H13  1  0.36304000  0.72971000  0.60285000  1.0
  H  H14  1  0.73204000  0.10188000  0.46918000  1.0
  H  H15  1  0.34276000  0.90657000  0.60900000  1.0
  H  H16  1  0.95352000  0.43798000  0.68770000  1.0
  H  H17  1  0.09955000  0.37199000  0.65910000  1.0
  H  H18  1  0.89535000  0.21605000  0.64137000  1.0
  H  H19  1  0.89162000  0.26880000  0.74829000  1.0
  H  H20  1  0.74937000  0.28199000  0.66783000  1.0
  H  H21  1  0.90984000  0.63902000  0.34475000  1.0
  H  H22  1  0.03619000  0.56026000  0.31256000  1.0
  H  H23  1  0.26556000  0.70052000  0.33148000  1.0
  H  H24  1  0.12842000  0.73023000  0.25530000  1.0
  H  H25  1  0.14172000  0.78017000  0.36429000  1.0
  C  C26  1  0.54943000  0.51155000  0.66888000  1.0
  C  C27  1  0.46230000  0.49209000  0.32924000  1.0
  C  C28  1  0.35316000  0.08199000  0.51943000  1.0
  C  C29  1  0.58550000  0.90685000  0.43887000  1.0
  C  C30  1  0.35361000  0.18171000  0.51842000  1.0
  C  C31  1  0.59121000  0.80817000  0.44095000  1.0
  C  C32  1  0.61415000  0.22060000  0.48363000  1.0
  C  C33  1  0.42461000  0.78268000  0.55757000  1.0
  C  C34  1  0.62201000  0.12208000  0.48238000  1.0
  C  C35  1  0.41296000  0.88064000  0.55960000  1.0
  C  C36  1  0.48970000  0.05029000  0.50046000  1.0
  C  C37  1  0.49535000  0.94520000  0.49966000  1.0
  C  C38  1  0.20429000  0.46929000  0.52319000  1.0
  C  C39  1  0.79739000  0.52749000  0.47623000  1.0
  C  C40  1  0.03286000  0.46482000  0.52146000  1.0
  C  C41  1  0.96887000  0.53190000  0.47867000  1.0
  C  C42  1  0.50801000  0.58960000  0.90781000  1.0
  C  C43  1  0.46971000  0.41383000  0.08665000  1.0
  C  C44  1  0.51515000  0.59138000  0.81732000  1.0
  C  C45  1  0.44759000  0.40920000  0.17619000  1.0
  C  C46  1  0.55309000  0.51492000  0.76699000  1.0
  C  C47  1  0.47771000  0.49315000  0.23170000  1.0
  C  C48  1  0.58930000  0.43648000  0.81293000  1.0
  C  C49  1  0.53200000  0.58339000  0.19173000  1.0
  C  C50  1  0.58524000  0.43375000  0.90349000  1.0
  C  C51  1  0.55517000  0.58984000  0.10249000  1.0
  C  C52  1  0.54135000  0.50973000  0.95251000  1.0
  C  C53  1  0.52376000  0.50466000  0.04808000  1.0
  C  C54  1  0.97612000  0.37396000  0.65031000  1.0
  C  C55  1  0.87176000  0.27954000  0.67853000  1.0
  C  C56  1  0.02856000  0.62669000  0.35156000  1.0
  C  C57  1  0.14856000  0.71481000  0.32407000  1.0
  N  N58  1  0.48163000  0.24949000  0.50080000  1.0
  N  N59  1  0.51302000  0.74760000  0.49955000  1.0
  O  O60  1  0.57420000  0.59281000  0.63039000  1.0
  O  O61  1  0.43980000  0.41003000  0.36610000  1.0
  O  O62  1  0.52065000  0.42595000  0.63266000  1.0
  O  O63  1  0.47737000  0.57631000  0.36763000  1.0
  O  O64  1  0.29497000  0.55314000  0.53007000  1.0
  O  O65  1  0.70760000  0.44296000  0.47500000  1.0
  O  O66  1  0.24480000  0.38678000  0.51713000  1.0
  O  O67  1  0.75578000  0.60955000  0.47606000  1.0
  O  O68  1  0.94126000  0.38534000  0.55899000  1.0
  O  O69  1  0.06249000  0.61080000  0.44213000  1.0
  F  F70  1  0.47527000  0.66960000  0.77854000  1.0
  F  F71  1  0.39173000  0.31854000  0.20777000  1.0
