# generated using pymatgen
data_Al4H47C58(N3O5)5
_symmetry_space_group_name_H-M   'P 1'
_cell_length_a   6.77280000
_cell_length_b   22.34660000
_cell_length_c   24.86920000
_cell_angle_alpha   72.92790000
_cell_angle_beta   89.46910000
_cell_angle_gamma   89.47270000
_symmetry_Int_Tables_number   1
_chemical_formula_structural   Al4H47C58(N3O5)5
_chemical_formula_sum   'Al4 H47 C58 N15 O25'
_cell_volume   3597.83916198
_cell_formula_units_Z   1
loop_
 _symmetry_equiv_pos_site_id
 _symmetry_equiv_pos_as_xyz
  1  'x, y, z'
loop_
 _atom_site_type_symbol
 _atom_site_label
 _atom_site_symmetry_multiplicity
 _atom_site_fract_x
 _atom_site_fract_y
 _atom_site_fract_z
 _atom_site_occupancy
  Al  Al0  1  0.15195000  0.49841000  0.49973000  1.0
  Al  Al1  1  0.65221000  0.49834000  0.49760000  1.0
  Al  Al2  1  0.63953000  0.99934000  0.00016000  1.0
  Al  Al3  1  0.13794000  0.99827000  0.99896000  1.0
  H  H4  1  0.66598000  0.72588000  0.62777000  1.0
  H  H5  1  0.67559000  0.34557000  0.30327000  1.0
  H  H6  1  0.64940000  0.14085000  0.19941000  1.0
  H  H7  1  0.66354000  0.07486000  0.13411000  1.0
  H  H8  1  0.67296000  0.83770000  0.98914000  1.0
  H  H9  1  0.65440000  0.77619000  0.95685000  1.0
  H  H10  1  0.39662000  0.76679000  0.03221000  1.0
  H  H11  1  0.29929000  0.84149000  0.99664000  1.0
  H  H12  1  0.28301000  0.77947000  0.96548000  1.0
  H  H13  1  0.07891000  0.21296000  0.43687000  1.0
  H  H14  1  0.17817000  0.19749000  0.37549000  1.0
  H  H15  1  0.83465000  0.19770000  0.33748000  1.0
  H  H16  1  0.86073000  0.13968000  0.40424000  1.0
  H  H17  1  0.73467000  0.21159000  0.39901000  1.0
  H  H18  1  0.03602000  0.39206000  0.44586000  1.0
  H  H19  1  0.93730000  0.33695000  0.41879000  1.0
  H  H20  1  0.16084000  0.18497000  0.99782000  1.0
  H  H21  1  0.05242000  0.23201000  0.03750000  1.0
  H  H22  1  0.83013000  0.23622000  0.95948000  1.0
  H  H23  1  0.83066000  0.15372000  0.97362000  1.0
  H  H24  1  0.71396000  0.18868000  0.02177000  1.0
  H  H25  1  0.99200000  0.22140000  0.17905000  1.0
  H  H26  1  0.88939000  0.18685000  0.12957000  1.0
  H  H27  1  0.57662000  0.84452000  0.75985000  1.0
  H  H28  1  0.45716000  0.89218000  0.79656000  1.0
  H  H29  1  0.25805000  0.77666000  0.82092000  1.0
  H  H30  1  0.36669000  0.81413000  0.86663000  1.0
  H  H31  1  0.21295000  0.96289000  0.88112000  1.0
  H  H32  1  0.36884000  0.90627000  0.87806000  1.0
  H  H33  1  0.56496000  0.62154000  0.54538000  1.0
  H  H34  1  0.49078000  0.68657000  0.56486000  1.0
  H  H35  1  0.19603000  0.51823000  0.62616000  1.0
  H  H36  1  0.26440000  0.53327000  0.68891000  1.0
  H  H37  1  0.37989000  0.68363000  0.69911000  1.0
  H  H38  1  0.44582000  0.61387000  0.68167000  1.0
  H  H39  1  0.65028000  0.62233000  0.76173000  1.0
  H  H40  1  0.43323000  0.63044000  0.80043000  1.0
  H  H41  1  0.48640000  0.55821000  0.78630000  1.0
  H  H42  1  0.64849000  0.51320000  0.34107000  1.0
  H  H43  1  0.66676000  0.47936000  0.28423000  1.0
  H  H44  1  0.03210000  0.46849000  0.29632000  1.0
  H  H45  1  0.96066000  0.54794000  0.28733000  1.0
  H  H46  1  0.01941000  0.49767000  0.35544000  1.0
  H  H47  1  0.39785000  0.57715000  0.46269000  1.0
  H  H48  1  0.90129000  0.41911000  0.53383000  1.0
  H  H49  1  0.39930000  0.92994000  0.98174000  1.0
  H  H50  1  0.89192000  0.06249000  0.02394000  1.0
  C  C51  1  0.40043000  0.43278000  0.43668000  1.0
  C  C52  1  0.40925000  0.41415000  0.58545000  1.0
  C  C53  1  0.90031000  0.56211000  0.56289000  1.0
  C  C54  1  0.89853000  0.58395000  0.41331000  1.0
  C  C55  1  0.90127000  0.63556000  0.36286000  1.0
  C  C56  1  0.90018000  0.67888000  0.31902000  1.0
  C  C57  1  0.89833000  0.72584000  0.27100000  1.0
  C  C58  1  0.89534000  0.76897000  0.22656000  1.0
  C  C59  1  0.89232000  0.81564000  0.17834000  1.0
  C  C60  1  0.88974000  0.85836000  0.13410000  1.0
  C  C61  1  0.72468000  0.87580000  0.87558000  1.0
  C  C62  1  0.73052000  0.85792000  0.82563000  1.0
  C  C63  1  0.91238000  0.83050000  0.81334000  1.0
  C  C64  1  0.08115000  0.83837000  0.84436000  1.0
  C  C65  1  0.07630000  0.88950000  0.86896000  1.0
  C  C66  1  0.89570000  0.90095000  0.89283000  1.0
  C  C67  1  0.92577000  0.72217000  0.70708000  1.0
  C  C68  1  0.92124000  0.79487000  0.77318000  1.0
  C  C69  1  0.76997000  0.68727000  0.63248000  1.0
  C  C70  1  0.75213000  0.64754000  0.59843000  1.0
  C  C71  1  0.89714000  0.59946000  0.60260000  1.0
  C  C72  1  0.04291000  0.58856000  0.64574000  1.0
  C  C73  1  0.05104000  0.62780000  0.68130000  1.0
  C  C74  1  0.91837000  0.67838000  0.67319000  1.0
  C  C75  1  0.55565000  0.38646000  0.36442000  1.0
  C  C76  1  0.54820000  0.34833000  0.32947000  1.0
  C  C77  1  0.37563000  0.31456000  0.32686000  1.0
  C  C78  1  0.21569000  0.31737000  0.36200000  1.0
  C  C79  1  0.22085000  0.35577000  0.39867000  1.0
  C  C80  1  0.39358000  0.39183000  0.39949000  1.0
  C  C81  1  0.35712000  0.21363000  0.21472000  1.0
  C  C82  1  0.36748000  0.28007000  0.28493000  1.0
  C  C83  1  0.52276000  0.13811000  0.17359000  1.0
  C  C84  1  0.53141000  0.10169000  0.13744000  1.0
  C  C85  1  0.36723000  0.09881000  0.10353000  1.0
  C  C86  1  0.19582000  0.13277000  0.10747000  1.0
  C  C87  1  0.18082000  0.16816000  0.14685000  1.0
  C  C88  1  0.35129000  0.17263000  0.17881000  1.0
  C  C89  1  0.40972000  0.36382000  0.63690000  1.0
  C  C90  1  0.40814000  0.32050000  0.68076000  1.0
  C  C91  1  0.40570000  0.27310000  0.72853000  1.0
  C  C92  1  0.40248000  0.22934000  0.77249000  1.0
  C  C93  1  0.39824000  0.18203000  0.82033000  1.0
  C  C94  1  0.39377000  0.13882000  0.86423000  1.0
  C  C95  1  0.39023000  0.08821000  0.91594000  1.0
  C  C96  1  0.38144000  0.05852000  0.06536000  1.0
  C  C97  1  0.88941000  0.90886000  0.08243000  1.0
  C  C98  1  0.88773000  0.93973000  0.93178000  1.0
  C  C99  1  0.57850000  0.81736000  0.96340000  1.0
  C  C100  1  0.37736000  0.80068000  0.99048000  1.0
  C  C101  1  0.05237000  0.21881000  0.39187000  1.0
  C  C102  1  0.85902000  0.19019000  0.38254000  1.0
  C  C103  1  0.03295000  0.18953000  0.02415000  1.0
  C  C104  1  0.84055000  0.19169000  0.99315000  1.0
  C  C105  1  0.38159000  0.63225000  0.71459000  1.0
  C  C106  1  0.49427000  0.60939000  0.76907000  1.0
  C  C107  1  0.73495000  0.48071000  0.32400000  1.0
  C  C108  1  0.94950000  0.49981000  0.31526000  1.0
  N  N109  1  0.09121000  0.76385000  0.76735000  1.0
  N  N110  1  0.09500000  0.72854000  0.73337000  1.0
  N  N111  1  0.76437000  0.75875000  0.70671000  1.0
  N  N112  1  0.76361000  0.79604000  0.73874000  1.0
  N  N113  1  0.19515000  0.27811000  0.25857000  1.0
  N  N114  1  0.19006000  0.24349000  0.22387000  1.0
  N  N115  1  0.53703000  0.22634000  0.23305000  1.0
  N  N116  1  0.54115000  0.25882000  0.26912000  1.0
  N  N117  1  0.05976000  0.35369000  0.43257000  1.0
  N  N118  1  0.00646000  0.19702000  0.15032000  1.0
  N  N119  1  0.56839000  0.86301000  0.79298000  1.0
  N  N120  1  0.24427000  0.80236000  0.84895000  1.0
  N  N121  1  0.23819000  0.92823000  0.86289000  1.0
  N  N122  1  0.60176000  0.65794000  0.55995000  1.0
  N  N123  1  0.16888000  0.53859000  0.65688000  1.0
  O  O124  1  0.57649000  0.43729000  0.56676000  1.0
  O  O125  1  0.23331000  0.45342000  0.44918000  1.0
  O  O126  1  0.06373000  0.56695000  0.43742000  1.0
  O  O127  1  0.24105000  0.43118000  0.56322000  1.0
  O  O128  1  0.06862000  0.54059000  0.55236000  1.0
  O  O129  1  0.56596000  0.44460000  0.45523000  1.0
  O  O130  1  0.40125000  0.53768000  0.49251000  1.0
  O  O131  1  0.73870000  0.55376000  0.53950000  1.0
  O  O132  1  0.73010000  0.55975000  0.42929000  1.0
  O  O133  1  0.90318000  0.45934000  0.50499000  1.0
  O  O134  1  0.22031000  0.04142000  0.04883000  1.0
  O  O135  1  0.55816000  0.06993000  0.93756000  1.0
  O  O136  1  0.72023000  0.95517000  0.94786000  1.0
  O  O137  1  0.55341000  0.04334000  0.05204000  1.0
  O  O138  1  0.71990000  0.92841000  0.06257000  1.0
  O  O139  1  0.21995000  0.06781000  0.93434000  1.0
  O  O140  1  0.39080000  0.96235000  0.00045000  1.0
  O  O141  1  0.05878000  0.92781000  0.06218000  1.0
  O  O142  1  0.05294000  0.95563000  0.94856000  1.0
  O  O143  1  0.88845000  0.03554000  0.99945000  1.0
  O  O144  1  0.55328000  0.86335000  0.90832000  1.0
  O  O145  1  0.04335000  0.28510000  0.36212000  1.0
  O  O146  1  0.03141000  0.13525000  0.07423000  1.0
  O  O147  1  0.17919000  0.61054000  0.72626000  1.0
  O  O148  1  0.72819000  0.41877000  0.36355000  1.0
