# generated using pymatgen
data_NaGdH12(CO)12
_symmetry_space_group_name_H-M   'P 1'
_cell_length_a   6.85821000
_cell_length_b   7.51022000
_cell_length_c   15.65880000
_cell_angle_alpha   90.00020000
_cell_angle_beta   102.65400000
_cell_angle_gamma   89.99990000
_symmetry_Int_Tables_number   1
_chemical_formula_structural   NaGdH12(CO)12
_chemical_formula_sum   'Na2 Gd2 H24 C24 O24'
_cell_volume   786.94249520
_cell_formula_units_Z   2
loop_
 _symmetry_equiv_pos_site_id
 _symmetry_equiv_pos_as_xyz
  1  'x, y, z'
loop_
 _atom_site_type_symbol
 _atom_site_label
 _atom_site_symmetry_multiplicity
 _atom_site_fract_x
 _atom_site_fract_y
 _atom_site_fract_z
 _atom_site_occupancy
  Na  Na0  1  0.86027000  0.24987000  0.72063000  1.0
  Na  Na1  1  0.13973000  0.74987000  0.27937000  1.0
  Gd  Gd2  1  0.69526000  0.75011000  0.39045000  1.0
  Gd  Gd3  1  0.30474000  0.25011000  0.60955000  1.0
  H  H4  1  0.76295000  0.25558000  0.89869000  1.0
  H  H5  1  0.23705000  0.75558000  0.10131000  1.0
  H  H6  1  0.13583000  0.24430000  0.89871000  1.0
  H  H7  1  0.86417000  0.74430000  0.10129000  1.0
  H  H8  1  0.84470000  0.26047000  0.06176000  1.0
  H  H9  1  0.15530000  0.76048000  0.93824000  1.0
  H  H10  1  0.21718000  0.23934000  0.06178000  1.0
  H  H11  1  0.78281000  0.73933000  0.93822000  1.0
  H  H12  1  0.01953000  0.91421000  0.80498000  1.0
  H  H13  1  0.98047000  0.41421000  0.19502000  1.0
  H  H14  1  0.78552000  0.58565000  0.80495000  1.0
  H  H15  1  0.21447000  0.08565000  0.19505000  1.0
  H  H16  1  0.48755000  0.26955000  0.41904000  1.0
  H  H17  1  0.51245000  0.76955000  0.58096000  1.0
  H  H18  1  0.93134000  0.23063000  0.41910000  1.0
  H  H19  1  0.06866000  0.73063000  0.58090000  1.0
  H  H20  1  0.78599000  0.90313000  0.79449000  1.0
  H  H21  1  0.21401000  0.40312000  0.20551000  1.0
  H  H22  1  0.00854000  0.59659000  0.79443000  1.0
  H  H23  1  0.99146000  0.09658000  0.20557000  1.0
  H  H24  1  0.54135000  0.11946000  0.30124000  1.0
  H  H25  1  0.45865000  0.61946000  0.69876000  1.0
  H  H26  1  0.75993000  0.38069000  0.30128000  1.0
  H  H27  1  0.24007000  0.88069000  0.69873000  1.0
  C  C28  1  0.39589000  0.25000000  0.79200000  1.0
  C  C29  1  0.60412000  0.75000000  0.20800000  1.0
  C  C30  1  0.44458000  0.24994000  0.88917000  1.0
  C  C31  1  0.55542000  0.74994000  0.11083000  1.0
  C  C32  1  0.62357000  0.18764000  0.42795000  1.0
  C  C33  1  0.37643000  0.68763000  0.57205000  1.0
  C  C34  1  0.80420000  0.31254000  0.42798000  1.0
  C  C35  1  0.19580000  0.81253000  0.57202000  1.0
  C  C36  1  0.64949000  0.08737000  0.51424000  1.0
  C  C37  1  0.35051000  0.58737000  0.48576000  1.0
  C  C38  1  0.86457000  0.41281000  0.51430000  1.0
  C  C39  1  0.13543000  0.91282000  0.48570000  1.0
  C  C40  1  0.64459000  0.25362000  0.93497000  1.0
  C  C41  1  0.35541000  0.75362000  0.06503000  1.0
  C  C42  1  0.29046000  0.24624000  0.93501000  1.0
  C  C43  1  0.70954000  0.74624000  0.06499000  1.0
  C  C44  1  0.53618000  0.24994000  0.07216000  1.0
  C  C45  1  0.46382000  0.74994000  0.92784000  1.0
  C  C46  1  0.68969000  0.25570000  0.02589000  1.0
  C  C47  1  0.31031000  0.75570000  0.97411000  1.0
  C  C48  1  0.33634000  0.24417000  0.02593000  1.0
  C  C49  1  0.66365000  0.74416000  0.97407000  1.0
  C  C50  1  0.58511000  0.25000000  0.16994000  1.0
  C  C51  1  0.41488000  0.75000000  0.83006000  1.0
  O  O52  1  0.53606000  0.24355000  0.74972000  1.0
  O  O53  1  0.46394000  0.74355000  0.25028000  1.0
  O  O54  1  0.21345000  0.25653000  0.74973000  1.0
  O  O55  1  0.78656000  0.75654000  0.25026000  1.0
  O  O56  1  0.60350000  0.05915000  0.35929000  1.0
  O  O57  1  0.39650000  0.55915000  0.64071000  1.0
  O  O58  1  0.75567000  0.44102000  0.35930000  1.0
  O  O59  1  0.24433000  0.94102000  0.64070000  1.0
  O  O60  1  0.89832000  0.98612000  0.80272000  1.0
  O  O61  1  0.10168000  0.48612000  0.19728000  1.0
  O  O62  1  0.90440000  0.51366000  0.80269000  1.0
  O  O63  1  0.09560000  0.01366000  0.19731000  1.0
  O  O64  1  0.44764000  0.21144000  0.21071000  1.0
  O  O65  1  0.55236000  0.71144000  0.78929000  1.0
  O  O66  1  0.76335000  0.28861000  0.21073000  1.0
  O  O67  1  0.23665000  0.78861000  0.78927000  1.0
  O  O68  1  0.60803000  0.16823000  0.57965000  1.0
  O  O69  1  0.39197000  0.66823000  0.42035000  1.0
  O  O70  1  0.97151000  0.33197000  0.57968000  1.0
  O  O71  1  0.02849000  0.83196000  0.42032000  1.0
  O  O72  1  0.71237000  0.92918000  0.51651000  1.0
  O  O73  1  0.28764000  0.42918000  0.48349000  1.0
  O  O74  1  0.80399000  0.57102000  0.51656000  1.0
  O  O75  1  0.19600000  0.07101000  0.48344000  1.0
