# generated using pymatgen
data_CdH19C21S(NO2)3
_symmetry_space_group_name_H-M   'P 1'
_cell_length_a   8.45836000
_cell_length_b   10.36290000
_cell_length_c   12.76280000
_cell_angle_alpha   79.84020000
_cell_angle_beta   73.43660000
_cell_angle_gamma   81.95080000
_symmetry_Int_Tables_number   1
_chemical_formula_structural   CdH19C21S(NO2)3
_chemical_formula_sum   'Cd2 H38 C42 S2 N6 O12'
_cell_volume   1050.68009192
_cell_formula_units_Z   2
loop_
 _symmetry_equiv_pos_site_id
 _symmetry_equiv_pos_as_xyz
  1  'x, y, z'
loop_
 _atom_site_type_symbol
 _atom_site_label
 _atom_site_symmetry_multiplicity
 _atom_site_fract_x
 _atom_site_fract_y
 _atom_site_fract_z
 _atom_site_occupancy
  Cd  Cd0  1  0.04446000  0.17167000  0.49187000  1.0
  Cd  Cd1  1  0.95554000  0.82834000  0.50813000  1.0
  H  H2  1  0.07210000  0.77862000  0.75366000  1.0
  H  H3  1  0.92790000  0.22138000  0.24635000  1.0
  H  H4  1  0.36923000  0.72388000  0.75318000  1.0
  H  H5  1  0.63077000  0.27612000  0.24682000  1.0
  H  H6  1  0.34085000  0.77084000  0.61803000  1.0
  H  H7  1  0.65915000  0.22917000  0.38197000  1.0
  H  H8  1  0.41366000  0.99725000  0.61257000  1.0
  H  H9  1  0.58634000  0.00275000  0.38743000  1.0
  H  H10  1  0.43717000  0.95608000  0.74849000  1.0
  H  H11  1  0.56283000  0.04392000  0.25151000  1.0
  H  H12  1  0.78973000  0.97493000  0.90785000  1.0
  H  H13  1  0.21027000  0.02506000  0.09215000  1.0
  H  H14  1  0.50402000  0.93547000  0.91213000  1.0
  H  H15  1  0.49598000  0.06453000  0.08787000  1.0
  H  H16  1  0.40908000  0.71182000  0.97437000  1.0
  H  H17  1  0.59092000  0.28817000  0.02563000  1.0
  H  H18  1  0.60120000  0.52510000  0.03485000  1.0
  H  H19  1  0.39880000  0.47490000  0.96515000  1.0
  H  H20  1  0.88505000  0.56316000  0.02942000  1.0
  H  H21  1  0.11495000  0.43684000  0.97058000  1.0
  H  H22  1  0.20388000  0.34179000  0.25535000  1.0
  H  H23  1  0.79612000  0.65821000  0.74465000  1.0
  H  H24  1  0.16898000  0.56866000  0.14794000  1.0
  H  H25  1  0.83102000  0.43133000  0.85206000  1.0
  H  H26  1  0.93805000  0.72892000  0.23384000  1.0
  H  H27  1  0.06196000  0.27108000  0.76616000  1.0
  H  H28  1  0.74628000  0.65772000  0.41583000  1.0
  H  H29  1  0.25372000  0.34228000  0.58416000  1.0
  H  H30  1  0.59581000  0.58803000  0.56299000  1.0
  H  H31  1  0.40419000  0.41197000  0.43701000  1.0
  H  H32  1  0.40341000  0.48253000  0.73292000  1.0
  H  H33  1  0.59658000  0.51747000  0.26708000  1.0
  H  H34  1  0.46480000  0.24337000  0.80211000  1.0
  H  H35  1  0.53520000  0.75663000  0.19789000  1.0
  H  H36  1  0.72599000  0.12135000  0.69957000  1.0
  H  H37  1  0.27401000  0.87865000  0.30043000  1.0
  H  H38  1  0.08025000  0.99359000  0.85966000  1.0
  H  H39  1  0.91974000  0.00641000  0.14034000  1.0
  C  C40  1  0.09812000  0.97409000  0.66853000  1.0
  C  C41  1  0.90188000  0.02590000  0.33147000  1.0
  C  C42  1  0.15237000  0.85687000  0.74587000  1.0
  C  C43  1  0.84763000  0.14313000  0.25413000  1.0
  C  C44  1  0.33333333  0.80702000  0.69530000  1.0
  C  C45  1  0.66666667  0.19298000  0.30470000  1.0
  C  C46  1  0.44868000  0.91568000  0.67251000  1.0
  C  C47  1  0.55131000  0.08432000  0.32749000  1.0
  C  C48  1  0.62898000  0.87050000  0.62388000  1.0
  C  C49  1  0.37102000  0.12950000  0.37612000  1.0
  C  C50  1  0.85296000  0.77108000  0.96879000  1.0
  C  C51  1  0.14704000  0.22892000  0.03121000  1.0
  C  C52  1  0.74710000  0.87704000  0.93615000  1.0
  C  C53  1  0.25290000  0.12296000  0.06385000  1.0
  C  C54  1  0.58719000  0.85437000  0.93871000  1.0
  C  C55  1  0.41281000  0.14563000  0.06128000  1.0
  C  C56  1  0.53393000  0.72832000  0.97358000  1.0
  C  C57  1  0.46607000  0.27168000  0.02642000  1.0
  C  C58  1  0.64084000  0.62388000  0.00694000  1.0
  C  C59  1  0.35917000  0.37612000  0.99306000  1.0
  C  C60  1  0.80121000  0.64464000  0.00468000  1.0
  C  C61  1  0.19880000  0.35536000  0.99532000  1.0
  C  C62  1  0.10407000  0.41546000  0.28707000  1.0
  C  C63  1  0.89593000  0.58454000  0.71293000  1.0
  C  C64  1  0.08447000  0.54069000  0.22838000  1.0
  C  C65  1  0.91553000  0.45931000  0.77162000  1.0
  C  C66  1  0.95402000  0.62878000  0.27540000  1.0
  C  C67  1  0.04598000  0.37123000  0.72460000  1.0
  C  C68  1  0.84672000  0.58869000  0.37794000  1.0
  C  C69  1  0.15328000  0.41131000  0.62206000  1.0
  C  C70  1  0.87248000  0.46046000  0.43158000  1.0
  C  C71  1  0.12752000  0.53954000  0.56842000  1.0
  C  C72  1  0.75935000  0.40802000  0.53876000  1.0
  C  C73  1  0.24065000  0.59199000  0.46124000  1.0
  C  C74  1  0.61950000  0.48408000  0.59346000  1.0
  C  C75  1  0.38050000  0.51592000  0.40654000  1.0
  C  C76  1  0.51293000  0.42525000  0.68932000  1.0
  C  C77  1  0.48707000  0.57476000  0.31068000  1.0
  C  C78  1  0.54694000  0.29281000  0.72848000  1.0
  C  C79  1  0.45306000  0.70720000  0.27152000  1.0
  C  C80  1  0.69129000  0.22464000  0.67227000  1.0
  C  C81  1  0.30871000  0.77536000  0.32773000  1.0
  S  S82  1  0.05910000  0.79550000  0.96464000  1.0
  S  S83  1  0.94090000  0.20451000  0.03536000  1.0
  N  N84  1  0.12993000  0.89743000  0.85441000  1.0
  N  N85  1  0.87007000  0.10257000  0.14559000  1.0
  N  N86  1  0.00097000  0.37711000  0.38565000  1.0
  N  N87  1  0.99903000  0.62289000  0.61435000  1.0
  N  N88  1  0.79447000  0.28159000  0.58056000  1.0
  N  N89  1  0.20553000  0.71841000  0.41944000  1.0
  O  O90  1  0.04896000  0.08379000  0.70087000  1.0
  O  O91  1  0.95103000  0.91621000  0.29914000  1.0
  O  O92  1  0.11477000  0.95349000  0.56940000  1.0
  O  O93  1  0.88523000  0.04651000  0.43060000  1.0
  O  O94  1  0.66622000  0.80846000  0.54011000  1.0
  O  O95  1  0.33378000  0.19153000  0.45989000  1.0
  O  O96  1  0.73801000  0.89796000  0.66549000  1.0
  O  O97  1  0.26199000  0.10204000  0.33451000  1.0
  O  O98  1  0.05413000  0.85906000  0.05823000  1.0
  O  O99  1  0.94586000  0.14094000  0.94177000  1.0
  O  O100  1  0.15645000  0.66939000  0.95282000  1.0
  O  O101  1  0.84355000  0.33060000  0.04718000  1.0
