# generated using pymatgen
data_MnH10C5O6
_symmetry_space_group_name_H-M   'P 1'
_cell_length_a   7.58306000
_cell_length_b   9.09192000
_cell_length_c   12.15420000
_cell_angle_alpha   89.99980000
_cell_angle_beta   89.99970000
_cell_angle_gamma   94.09830000
_symmetry_Int_Tables_number   1
_chemical_formula_structural   MnH10C5O6
_chemical_formula_sum   'Mn4 H40 C20 O24'
_cell_volume   835.82339192
_cell_formula_units_Z   4
loop_
 _symmetry_equiv_pos_site_id
 _symmetry_equiv_pos_as_xyz
  1  'x, y, z'
loop_
 _atom_site_type_symbol
 _atom_site_label
 _atom_site_symmetry_multiplicity
 _atom_site_fract_x
 _atom_site_fract_y
 _atom_site_fract_z
 _atom_site_occupancy
  Mn  Mn0  1  0.94293000  0.27906000  0.93528000  1.0
  Mn  Mn1  1  0.55708000  0.72094000  0.43528000  1.0
  Mn  Mn2  1  0.05707000  0.72094000  0.06473000  1.0
  Mn  Mn3  1  0.44294000  0.27907000  0.56472000  1.0
  H  H4  1  0.91691000  0.66089000  0.67467000  1.0
  H  H5  1  0.58308000  0.33912000  0.17467000  1.0
  H  H6  1  0.08309000  0.33911000  0.32532000  1.0
  H  H7  1  0.41691000  0.66089000  0.82533000  1.0
  H  H8  1  0.13815000  0.62108000  0.68115000  1.0
  H  H9  1  0.36185000  0.37893000  0.18114000  1.0
  H  H10  1  0.86186000  0.37892000  0.31886000  1.0
  H  H11  1  0.63815000  0.62108000  0.81885000  1.0
  H  H12  1  0.21894000  0.85285000  0.78341000  1.0
  H  H13  1  0.28105000  0.14715000  0.28340000  1.0
  H  H14  1  0.78105000  0.14714000  0.21661000  1.0
  H  H15  1  0.71893000  0.85285000  0.71659000  1.0
  H  H16  1  0.99708000  0.89600000  0.78857000  1.0
  H  H17  1  0.50293000  0.10401000  0.28856000  1.0
  H  H18  1  0.00292000  0.10400000  0.21144000  1.0
  H  H19  1  0.49708000  0.89599000  0.71143000  1.0
  H  H20  1  0.16610000  0.82427000  0.56764000  1.0
  H  H21  1  0.33391000  0.17573000  0.06763000  1.0
  H  H22  1  0.83393000  0.17573000  0.43238000  1.0
  H  H23  1  0.66609000  0.82427000  0.93236000  1.0
  H  H24  1  0.97869000  0.92192000  0.58954000  1.0
  H  H25  1  0.52130000  0.07809000  0.08953000  1.0
  H  H26  1  0.02133000  0.07809000  0.41047000  1.0
  H  H27  1  0.47870000  0.92191000  0.91046000  1.0
  H  H28  1  0.19534000  0.15068000  0.81388000  1.0
  H  H29  1  0.30467000  0.84932000  0.31388000  1.0
  H  H30  1  0.80467000  0.84931000  0.18613000  1.0
  H  H31  1  0.69533000  0.15069000  0.68612000  1.0
  H  H32  1  0.18389000  0.07002000  0.93287000  1.0
  H  H33  1  0.31611000  0.92997000  0.43286000  1.0
  H  H34  1  0.81611000  0.92997000  0.06714000  1.0
  H  H35  1  0.68389000  0.07003000  0.56714000  1.0
  H  H36  1  0.61106000  0.40263000  0.92765000  1.0
  H  H37  1  0.88894000  0.59737000  0.42764000  1.0
  H  H38  1  0.38895000  0.59737000  0.07236000  1.0
  H  H39  1  0.11106000  0.40263000  0.57235000  1.0
  H  H40  1  0.76794000  0.51311000  0.96643000  1.0
  H  H41  1  0.73206000  0.48688000  0.46641000  1.0
  H  H42  1  0.23206000  0.48688000  0.03358000  1.0
  H  H43  1  0.26794000  0.51311000  0.53358000  1.0
  C  C44  1  0.99485000  0.58437000  0.82870000  1.0
  C  C45  1  0.50513000  0.41565000  0.32871000  1.0
  C  C46  1  0.00513000  0.41563000  0.17129000  1.0
  C  C47  1  0.49486000  0.58436000  0.67130000  1.0
  C  C48  1  0.03623000  0.67538000  0.72687000  1.0
  C  C49  1  0.46376000  0.32464000  0.22686000  1.0
  C  C50  1  0.96376000  0.32464000  0.27314000  1.0
  C  C51  1  0.53623000  0.67537000  0.77313000  1.0
  C  C52  1  0.09257000  0.83923000  0.73917000  1.0
  C  C53  1  0.40743000  0.16076000  0.23915000  1.0
  C  C54  1  0.90743000  0.16076000  0.26085000  1.0
  C  C55  1  0.59258000  0.83923000  0.76083000  1.0
  C  C56  1  0.11074000  0.90448000  0.62330000  1.0
  C  C57  1  0.38925000  0.09552000  0.12329000  1.0
  C  C58  1  0.88926000  0.09551000  0.37672000  1.0
  C  C59  1  0.61075000  0.90448000  0.87669000  1.0
  C  C60  1  0.22144000  0.04712000  0.60843000  1.0
  C  C61  1  0.27858000  0.95289000  0.10843000  1.0
  C  C62  1  0.77858000  0.95289000  0.39158000  1.0
  C  C63  1  0.72144000  0.04712000  0.89156000  1.0
  O  O64  1  0.01116000  0.44694000  0.82082000  1.0
  O  O65  1  0.48881000  0.55304000  0.32082000  1.0
  O  O66  1  0.98881000  0.55304000  0.17918000  1.0
  O  O67  1  0.51117000  0.44695000  0.67918000  1.0
  O  O68  1  0.93547000  0.64620000  0.91552000  1.0
  O  O69  1  0.56452000  0.35382000  0.41550000  1.0
  O  O70  1  0.06451000  0.35381000  0.08450000  1.0
  O  O71  1  0.43547000  0.64620000  0.58449000  1.0
  O  O72  1  0.25300000  0.14038000  0.68520000  1.0
  O  O73  1  0.24700000  0.85962000  0.18519000  1.0
  O  O74  1  0.74701000  0.85961000  0.31483000  1.0
  O  O75  1  0.75301000  0.14038000  0.81480000  1.0
  O  O76  1  0.28692000  0.07579000  0.51205000  1.0
  O  O77  1  0.21308000  0.92422000  0.01204000  1.0
  O  O78  1  0.71310000  0.92422000  0.48796000  1.0
  O  O79  1  0.78691000  0.07578000  0.98795000  1.0
  O  O80  1  0.16616000  0.16459000  0.89351000  1.0
  O  O81  1  0.33385000  0.83541000  0.39351000  1.0
  O  O82  1  0.83384000  0.83541000  0.10650000  1.0
  O  O83  1  0.66616000  0.16459000  0.60649000  1.0
  O  O84  1  0.70564000  0.41518000  0.98200000  1.0
  O  O85  1  0.79436000  0.58482000  0.48199000  1.0
  O  O86  1  0.29436000  0.58482000  0.01801000  1.0
  O  O87  1  0.20565000  0.41518000  0.51801000  1.0
