# generated using pymatgen
data_MnH4(CN)8
_symmetry_space_group_name_H-M   'P 1'
_cell_length_a   6.25273000
_cell_length_b   7.54126000
_cell_length_c   23.13470000
_cell_angle_alpha   90.00040000
_cell_angle_beta   90.00000000
_cell_angle_gamma   89.99940000
_symmetry_Int_Tables_number   1
_chemical_formula_structural   MnH4(CN)8
_chemical_formula_sum   'Mn4 H16 C32 N32'
_cell_volume   1090.88121205
_cell_formula_units_Z   4
loop_
 _symmetry_equiv_pos_site_id
 _symmetry_equiv_pos_as_xyz
  1  'x, y, z'
loop_
 _atom_site_type_symbol
 _atom_site_label
 _atom_site_symmetry_multiplicity
 _atom_site_fract_x
 _atom_site_fract_y
 _atom_site_fract_z
 _atom_site_occupancy
  Mn  Mn0  1  0.21741000  0.25000000  0.66710000  1.0
  Mn  Mn1  1  0.71741000  0.75000000  0.83290000  1.0
  Mn  Mn2  1  0.78260000  0.75000000  0.33290000  1.0
  Mn  Mn3  1  0.28259000  0.25000000  0.16709000  1.0
  H  H4  1  0.15205000  0.25000000  0.44505000  1.0
  H  H5  1  0.65205000  0.75000000  0.05495000  1.0
  H  H6  1  0.84795000  0.75000000  0.55495000  1.0
  H  H7  1  0.34795000  0.25000000  0.94505000  1.0
  H  H8  1  0.75066000  0.25000000  0.43822000  1.0
  H  H9  1  0.25066000  0.75000000  0.06178000  1.0
  H  H10  1  0.24934000  0.75000000  0.56177000  1.0
  H  H11  1  0.74934000  0.25000000  0.93822000  1.0
  H  H12  1  0.53861000  0.24999000  0.53311000  1.0
  H  H13  1  0.03861000  0.74999000  0.96689000  1.0
  H  H14  1  0.46140000  0.75000000  0.46689000  1.0
  H  H15  1  0.96139000  0.24999000  0.03311000  1.0
  H  H16  1  0.75653000  0.25000000  0.62483000  1.0
  H  H17  1  0.25652000  0.74999000  0.87517000  1.0
  H  H18  1  0.24348000  0.75001000  0.37517000  1.0
  H  H19  1  0.74348000  0.25000000  0.12483000  1.0
  C  C20  1  0.05189000  0.25000000  0.48376000  1.0
  C  C21  1  0.55189000  0.75000000  0.01624000  1.0
  C  C22  1  0.94811000  0.75000000  0.51624000  1.0
  C  C23  1  0.44811000  0.25000000  0.98376000  1.0
  C  C24  1  0.82832000  0.25000000  0.48025000  1.0
  C  C25  1  0.32832000  0.75000000  0.01975000  1.0
  C  C26  1  0.17168000  0.75000000  0.51975000  1.0
  C  C27  1  0.67168000  0.25000000  0.98025000  1.0
  C  C28  1  0.71332000  0.25000000  0.53138000  1.0
  C  C29  1  0.21332000  0.75000000  0.96862000  1.0
  C  C30  1  0.28669000  0.75000000  0.46862000  1.0
  C  C31  1  0.78668000  0.25000000  0.03138000  1.0
  C  C32  1  0.83257000  0.25000000  0.58250000  1.0
  C  C33  1  0.33257000  0.74999000  0.91750000  1.0
  C  C34  1  0.16743000  0.75001000  0.41749000  1.0
  C  C35  1  0.66743000  0.25000000  0.08250000  1.0
  C  C36  1  0.47438000  0.40172000  0.78067000  1.0
  C  C37  1  0.97438000  0.59827000  0.71933000  1.0
  C  C38  1  0.52562000  0.90173000  0.21933000  1.0
  C  C39  1  0.02562000  0.09826000  0.28067000  1.0
  C  C40  1  0.52561000  0.59827000  0.21933000  1.0
  C  C41  1  0.02563000  0.40173000  0.28067000  1.0
  C  C42  1  0.47438000  0.09826000  0.78067000  1.0
  C  C43  1  0.97438000  0.90173000  0.71933000  1.0
  C  C44  1  0.50746000  0.59858000  0.63703000  1.0
  C  C45  1  0.00745000  0.40142000  0.86297000  1.0
  C  C46  1  0.49255000  0.09859000  0.36297000  1.0
  C  C47  1  0.99254000  0.90142000  0.13703000  1.0
  C  C48  1  0.49255000  0.40142000  0.36297000  1.0
  C  C49  1  0.99254000  0.59858000  0.13703000  1.0
  C  C50  1  0.50745000  0.90142000  0.63703000  1.0
  C  C51  1  0.00745000  0.09859000  0.86297000  1.0
  N  N52  1  0.04660000  0.25000000  0.58296000  1.0
  N  N53  1  0.54659000  0.74999000  0.91704000  1.0
  N  N54  1  0.95341000  0.75000000  0.41703000  1.0
  N  N55  1  0.45340000  0.25000000  0.08296000  1.0
  N  N56  1  0.15889000  0.25000000  0.53378000  1.0
  N  N57  1  0.65888000  0.75000000  0.96622000  1.0
  N  N58  1  0.84112000  0.75000000  0.46622000  1.0
  N  N59  1  0.34111000  0.25000000  0.03378000  1.0
  N  N60  1  0.41991000  0.25000000  0.75845000  1.0
  N  N61  1  0.91991000  0.75000000  0.74155000  1.0
  N  N62  1  0.58009000  0.75000000  0.24155000  1.0
  N  N63  1  0.08009000  0.25000000  0.25845000  1.0
  N  N64  1  0.51338000  0.54597000  0.79712000  1.0
  N  N65  1  0.01337000  0.45403000  0.70288000  1.0
  N  N66  1  0.48663000  0.04597000  0.20288000  1.0
  N  N67  1  0.98663000  0.95403000  0.29712000  1.0
  N  N68  1  0.48661000  0.45403000  0.20288000  1.0
  N  N69  1  0.98663000  0.54597000  0.29712000  1.0
  N  N70  1  0.51336000  0.95402000  0.79712000  1.0
  N  N71  1  0.01337000  0.04597000  0.70288000  1.0
  N  N72  1  0.43653000  0.45463000  0.64194000  1.0
  N  N73  1  0.93654000  0.54537000  0.85806000  1.0
  N  N74  1  0.56347000  0.95464000  0.35806000  1.0
  N  N75  1  0.06346000  0.04537000  0.14194000  1.0
  N  N76  1  0.56346000  0.54538000  0.35806000  1.0
  N  N77  1  0.06346000  0.45463000  0.14194000  1.0
  N  N78  1  0.43654000  0.04537000  0.64194000  1.0
  N  N79  1  0.93653000  0.95463000  0.85806000  1.0
  N  N80  1  0.60014000  0.75000000  0.62884000  1.0
  N  N81  1  0.10014000  0.25000000  0.87116000  1.0
  N  N82  1  0.39986000  0.25001000  0.37116000  1.0
  N  N83  1  0.89985000  0.75000000  0.12884000  1.0
