# generated using pymatgen
data_AlH12C24(ClO2)3
_symmetry_space_group_name_H-M   'P 1'
_cell_length_a   3.96667000
_cell_length_b   28.55232362
_cell_length_c   28.55350000
_cell_angle_alpha   60.00391167
_cell_angle_beta   89.99270000
_cell_angle_gamma   89.99740007
_symmetry_Int_Tables_number   1
_chemical_formula_structural   AlH12C24(ClO2)3
_chemical_formula_sum   'Al2 H24 C48 Cl6 O12'
_cell_volume   2800.75180473
_cell_formula_units_Z   2
loop_
 _symmetry_equiv_pos_site_id
 _symmetry_equiv_pos_as_xyz
  1  'x, y, z'
loop_
 _atom_site_type_symbol
 _atom_site_label
 _atom_site_symmetry_multiplicity
 _atom_site_fract_x
 _atom_site_fract_y
 _atom_site_fract_z
 _atom_site_occupancy
  Al  Al0  1  0.98471000  0.50000000  0.00000000  1.0
  Al  Al1  1  0.98478000  0.16667000  0.66666000  1.0
  H  H2  1  0.66328000  0.30014000  0.51602000  1.0
  H  H3  1  0.67178000  0.34951000  0.41588000  1.0
  H  H4  1  0.36884000  0.20273000  0.41888000  1.0
  H  H5  1  0.36889000  0.46394000  0.24780000  1.0
  H  H6  1  0.67157000  0.31716000  0.25077000  1.0
  H  H7  1  0.66299000  0.36652000  0.15065000  1.0
  H  H8  1  0.50169000  0.27895000  0.33441000  1.0
  H  H9  1  0.50151000  0.38771000  0.33227000  1.0
  H  H10  1  0.66322000  0.18386000  0.80010000  1.0
  H  H11  1  0.67169000  0.23463000  0.84948000  1.0
  H  H12  1  0.36862000  0.37840000  0.70275000  1.0
  H  H13  1  0.36901000  0.28825000  0.96393000  1.0
  H  H14  1  0.67149000  0.43205000  0.81716000  1.0
  H  H15  1  0.66301000  0.48281000  0.86655000  1.0
  H  H16  1  0.50136000  0.38664000  0.77897000  1.0
  H  H17  1  0.50155000  0.28002000  0.88769000  1.0
  H  H18  1  0.66323000  0.01603000  0.68385000  1.0
  H  H19  1  0.67174000  0.91588000  0.73463000  1.0
  H  H20  1  0.36873000  0.91888000  0.87840000  1.0
  H  H21  1  0.36894000  0.74781000  0.78826000  1.0
  H  H22  1  0.67157000  0.75079000  0.93204000  1.0
  H  H23  1  0.66305000  0.65064000  0.98281000  1.0
  H  H24  1  0.50165000  0.83442000  0.88664000  1.0
  H  H25  1  0.50154000  0.83227000  0.78002000  1.0
  C  C26  1  0.48652000  0.58264000  0.95070000  1.0
  C  C27  1  0.48641000  0.46665000  0.08264000  1.0
  C  C28  1  0.48652000  0.45069000  0.96666000  1.0
  C  C29  1  0.48656000  0.20003000  0.58402000  1.0
  C  C30  1  0.48643000  0.21596000  0.70002000  1.0
  C  C31  1  0.48649000  0.08403000  0.71595000  1.0
  C  C32  1  0.49414000  0.22518000  0.52411000  1.0
  C  C33  1  0.59162000  0.27979000  0.49383000  1.0
  C  C34  1  0.59539000  0.30718000  0.43787000  1.0
  C  C35  1  0.51184000  0.28014000  0.40950000  1.0
  C  C36  1  0.42651000  0.22506000  0.43965000  1.0
  C  C37  1  0.41098000  0.19810000  0.49594000  1.0
  C  C38  1  0.51260000  0.30637000  0.35073000  1.0
  C  C39  1  0.51256000  0.36030000  0.31593000  1.0
  C  C40  1  0.42649000  0.44160000  0.22704000  1.0
  C  C41  1  0.51175000  0.38652000  0.25718000  1.0
  C  C42  1  0.59524000  0.35948000  0.22880000  1.0
  C  C43  1  0.59142000  0.38688000  0.17284000  1.0
  C  C44  1  0.49397000  0.44149000  0.14256000  1.0
  C  C45  1  0.41091000  0.46857000  0.17074000  1.0
  C  C46  1  0.49402000  0.25073000  0.72516000  1.0
  C  C47  1  0.59150000  0.22640000  0.77976000  1.0
  C  C48  1  0.59527000  0.25496000  0.80717000  1.0
  C  C49  1  0.51169000  0.31038000  0.78013000  1.0
  C  C50  1  0.42630000  0.33531000  0.72506000  1.0
  C  C51  1  0.41078000  0.30598000  0.69809000  1.0
  C  C52  1  0.51241000  0.34290000  0.80637000  1.0
  C  C53  1  0.51257000  0.32376000  0.86029000  1.0
  C  C54  1  0.42659000  0.33135000  0.94161000  1.0
  C  C55  1  0.51178000  0.35629000  0.88653000  1.0
  C  C56  1  0.59527000  0.41171000  0.85948000  1.0
  C  C57  1  0.59148000  0.44027000  0.88689000  1.0
  C  C58  1  0.49408000  0.41593000  0.94151000  1.0
  C  C59  1  0.41106000  0.36067000  0.96859000  1.0
  C  C60  1  0.49407000  0.02412000  0.75072000  1.0
  C  C61  1  0.59155000  0.99384000  0.72638000  1.0
  C  C62  1  0.59532000  0.93787000  0.75496000  1.0
  C  C63  1  0.51177000  0.90950000  0.81037000  1.0
  C  C64  1  0.42639000  0.93965000  0.83530000  1.0
  C  C65  1  0.41085000  0.99595000  0.80596000  1.0
  C  C66  1  0.51256000  0.85074000  0.84290000  1.0
  C  C67  1  0.51260000  0.81594000  0.82377000  1.0
  C  C68  1  0.42658000  0.72704000  0.83135000  1.0
  C  C69  1  0.51178000  0.75718000  0.85630000  1.0
  C  C70  1  0.59532000  0.72880000  0.91171000  1.0
  C  C71  1  0.59152000  0.67283000  0.94027000  1.0
  C  C72  1  0.49406000  0.64256000  0.91593000  1.0
  C  C73  1  0.41103000  0.67074000  0.86068000  1.0
  Cl  Cl74  1  0.30404000  0.13033000  0.52892000  1.0
  Cl  Cl75  1  0.30402000  0.53634000  0.13776000  1.0
  Cl  Cl76  1  0.30380000  0.34076000  0.63033000  1.0
  Cl  Cl77  1  0.30421000  0.32588000  0.03636000  1.0
  Cl  Cl78  1  0.30386000  0.02894000  0.84075000  1.0
  Cl  Cl79  1  0.30409000  0.63775000  0.82590000  1.0
  O  O80  1  0.24793000  0.44424000  0.99914000  1.0
  O  O81  1  0.24793000  0.55661000  0.94424000  1.0
  O  O82  1  0.24786000  0.49914000  0.05662000  1.0
  O  O83  1  0.71887000  0.48623000  0.95232000  1.0
  O  O84  1  0.71880000  0.45231000  0.06145000  1.0
  O  O85  1  0.71881000  0.56145000  0.98623000  1.0
  O  O86  1  0.24790000  0.11006000  0.72242000  1.0
  O  O87  1  0.24801000  0.16753000  0.61005000  1.0
  O  O88  1  0.24791000  0.22242000  0.66752000  1.0
  O  O89  1  0.71885000  0.10522000  0.68042000  1.0
  O  O90  1  0.71877000  0.18043000  0.71435000  1.0
  O  O91  1  0.71891000  0.21436000  0.60522000  1.0
