# generated using pymatgen
data_SrH7C5(NO2)3
_symmetry_space_group_name_H-M   'P 1'
_cell_length_a   6.95420000
_cell_length_b   10.53570000
_cell_length_c   12.17820000
_cell_angle_alpha   89.99980000
_cell_angle_beta   95.77280000
_cell_angle_gamma   90.00000000
_symmetry_Int_Tables_number   1
_chemical_formula_structural   SrH7C5(NO2)3
_chemical_formula_sum   'Sr4 H28 C20 N12 O24'
_cell_volume   887.73956714
_cell_formula_units_Z   4
loop_
 _symmetry_equiv_pos_site_id
 _symmetry_equiv_pos_as_xyz
  1  'x, y, z'
loop_
 _atom_site_type_symbol
 _atom_site_label
 _atom_site_symmetry_multiplicity
 _atom_site_fract_x
 _atom_site_fract_y
 _atom_site_fract_z
 _atom_site_occupancy
  Sr  Sr0  1  0.74998000  0.38982000  0.98031000  1.0
  Sr  Sr1  1  0.25002000  0.88982000  0.51969000  1.0
  Sr  Sr2  1  0.25002000  0.61018000  0.01969000  1.0
  Sr  Sr3  1  0.74998000  0.11018000  0.48031000  1.0
  H  H4  1  0.76249000  0.76787000  0.67696000  1.0
  H  H5  1  0.23750000  0.26787000  0.82304000  1.0
  H  H6  1  0.23751000  0.23212000  0.32304000  1.0
  H  H7  1  0.76250000  0.73213000  0.17696000  1.0
  H  H8  1  0.57093000  0.80141000  0.84728000  1.0
  H  H9  1  0.42907000  0.30141000  0.65272000  1.0
  H  H10  1  0.42907000  0.19859000  0.15272000  1.0
  H  H11  1  0.57093000  0.69859000  0.34728000  1.0
  H  H12  1  0.69156000  0.87661000  0.96625000  1.0
  H  H13  1  0.30844000  0.37661000  0.53376000  1.0
  H  H14  1  0.30844000  0.12339000  0.03375000  1.0
  H  H15  1  0.69156000  0.62339000  0.46624000  1.0
  H  H16  1  0.59872000  0.10807000  0.91214000  1.0
  H  H17  1  0.40128000  0.60807000  0.58786000  1.0
  H  H18  1  0.40128000  0.89193000  0.08786000  1.0
  H  H19  1  0.59872000  0.39193000  0.41214000  1.0
  H  H20  1  0.75996000  0.35219000  0.26113000  1.0
  H  H21  1  0.24005000  0.85219000  0.23887000  1.0
  H  H22  1  0.24004000  0.64781000  0.73887000  1.0
  H  H23  1  0.75995000  0.14781000  0.76113000  1.0
  H  H24  1  0.81189000  0.10283000  0.97671000  1.0
  H  H25  1  0.18811000  0.60282000  0.52329000  1.0
  H  H26  1  0.18811000  0.89717000  0.02329000  1.0
  H  H27  1  0.81189000  0.39718000  0.47671000  1.0
  H  H28  1  0.59308000  0.43286000  0.20100000  1.0
  H  H29  1  0.40692000  0.93287000  0.29900000  1.0
  H  H30  1  0.40692000  0.56714000  0.79900000  1.0
  H  H31  1  0.59308000  0.06713000  0.70100000  1.0
  C  C32  1  0.87333000  0.81915000  0.72808000  1.0
  C  C33  1  0.12666000  0.31915000  0.77192000  1.0
  C  C34  1  0.12667000  0.18085000  0.27192000  1.0
  C  C35  1  0.87334000  0.68085000  0.22808000  1.0
  C  C36  1  0.12167000  0.92110000  0.79244000  1.0
  C  C37  1  0.87833000  0.42110000  0.70756000  1.0
  C  C38  1  0.87833000  0.07890000  0.20756000  1.0
  C  C39  1  0.12167000  0.57890000  0.29244000  1.0
  C  C40  1  0.70733000  0.80658000  0.90091000  1.0
  C  C41  1  0.29267000  0.30658000  0.59909000  1.0
  C  C42  1  0.29267000  0.19342000  0.09909000  1.0
  C  C43  1  0.70733000  0.69342000  0.40091000  1.0
  C  C44  1  0.74514000  0.67638000  0.95326000  1.0
  C  C45  1  0.25486000  0.17638000  0.54675000  1.0
  C  C46  1  0.25486000  0.32362000  0.04674000  1.0
  C  C47  1  0.74514000  0.82362000  0.45326000  1.0
  C  C48  1  0.31451000  0.98502000  0.79714000  1.0
  C  C49  1  0.68549000  0.48503000  0.70286000  1.0
  C  C50  1  0.68549000  0.01498000  0.20286000  1.0
  C  C51  1  0.31451000  0.51497000  0.29715000  1.0
  N  N52  1  0.85840000  0.84666000  0.83514000  1.0
  N  N53  1  0.14159000  0.34666000  0.66486000  1.0
  N  N54  1  0.14159000  0.15334000  0.16486000  1.0
  N  N55  1  0.85841000  0.65334000  0.33514000  1.0
  N  N56  1  0.03838000  0.86486000  0.69823000  1.0
  N  N57  1  0.96161000  0.36486000  0.80177000  1.0
  N  N58  1  0.96162000  0.13514000  0.30177000  1.0
  N  N59  1  0.03839000  0.63514000  0.19823000  1.0
  N  N60  1  0.01678000  0.91133000  0.87820000  1.0
  N  N61  1  0.98322000  0.41134000  0.62180000  1.0
  N  N62  1  0.98322000  0.08867000  0.12180000  1.0
  N  N63  1  0.01678000  0.58866000  0.37820000  1.0
  O  O64  1  0.61173000  0.62880000  0.00422000  1.0
  O  O65  1  0.38826000  0.12880000  0.49578000  1.0
  O  O66  1  0.38827000  0.37120000  0.99578000  1.0
  O  O67  1  0.61173000  0.87120000  0.50422000  1.0
  O  O68  1  0.90371000  0.62085000  0.94268000  1.0
  O  O69  1  0.09629000  0.12085000  0.55733000  1.0
  O  O70  1  0.09629000  0.37915000  0.05732000  1.0
  O  O71  1  0.90371000  0.87915000  0.44268000  1.0
  O  O72  1  0.37283000  0.04792000  0.88230000  1.0
  O  O73  1  0.62717000  0.54792000  0.61769000  1.0
  O  O74  1  0.62717000  0.95208000  0.11770000  1.0
  O  O75  1  0.37283000  0.45208000  0.38231000  1.0
  O  O76  1  0.40574000  0.96899000  0.71209000  1.0
  O  O77  1  0.59426000  0.46900000  0.78791000  1.0
  O  O78  1  0.59426000  0.03101000  0.28791000  1.0
  O  O79  1  0.40574000  0.53100000  0.21209000  1.0
  O  O80  1  0.70083000  0.37362000  0.18690000  1.0
  O  O81  1  0.29917000  0.87362000  0.31310000  1.0
  O  O82  1  0.29917000  0.62638000  0.81310000  1.0
  O  O83  1  0.70083000  0.12638000  0.68690000  1.0
  O  O84  1  0.72593000  0.15346000  0.92444000  1.0
  O  O85  1  0.27407000  0.65346000  0.57556000  1.0
  O  O86  1  0.27407000  0.84654000  0.07556000  1.0
  O  O87  1  0.72593000  0.34654000  0.42444000  1.0
