# generated using pymatgen
data_ZnH12C22(NO2)3
_symmetry_space_group_name_H-M   'P 1'
_cell_length_a   16.52320000
_cell_length_b   17.86020000
_cell_length_c   19.46250000
_cell_angle_alpha   89.65140000
_cell_angle_beta   89.99360000
_cell_angle_gamma   89.98670000
_symmetry_Int_Tables_number   1
_chemical_formula_structural   ZnH12C22(NO2)3
_chemical_formula_sum   'Zn2 H24 C44 N6 O12'
_cell_volume   5743.42627181
_cell_formula_units_Z   2
loop_
 _symmetry_equiv_pos_site_id
 _symmetry_equiv_pos_as_xyz
  1  'x, y, z'
loop_
 _atom_site_type_symbol
 _atom_site_label
 _atom_site_symmetry_multiplicity
 _atom_site_fract_x
 _atom_site_fract_y
 _atom_site_fract_z
 _atom_site_occupancy
  Zn  Zn0  1  0.58448000  0.49997000  0.49846000  1.0
  Zn  Zn1  1  0.41551000  0.50000000  0.49846000  1.0
  H  H2  1  0.63023000  0.50233000  0.71822000  1.0
  H  H3  1  0.36947000  0.12215000  0.52475000  1.0
  H  H4  1  0.63046000  0.12203000  0.52476000  1.0
  H  H5  1  0.36951000  0.87744000  0.52466000  1.0
  H  H6  1  0.62965000  0.73767000  0.51125000  1.0
  H  H7  1  0.37037000  0.26202000  0.51187000  1.0
  H  H8  1  0.62965000  0.26191000  0.51187000  1.0
  H  H9  1  0.37030000  0.73780000  0.51121000  1.0
  H  H10  1  0.86466000  0.41523000  0.57975000  1.0
  H  H11  1  0.13420000  0.58507000  0.42008000  1.0
  H  H12  1  0.86576000  0.58506000  0.42005000  1.0
  H  H13  1  0.36977000  0.49789000  0.27902000  1.0
  H  H14  1  0.13536000  0.41524000  0.57977000  1.0
  H  H15  1  0.71237000  0.41905000  0.57542000  1.0
  H  H16  1  0.28650000  0.58131000  0.42287000  1.0
  H  H17  1  0.71347000  0.58129000  0.42286000  1.0
  H  H18  1  0.28765000  0.41905000  0.57542000  1.0
  H  H19  1  0.63040000  0.50329000  0.27890000  1.0
  H  H20  1  0.36967000  0.49667000  0.71829000  1.0
  H  H21  1  0.63899000  0.50371000  0.89990000  1.0
  H  H22  1  0.36112000  0.49641000  0.09730000  1.0
  H  H23  1  0.63889000  0.50464000  0.09716000  1.0
  H  H24  1  0.36099000  0.49525000  0.90001000  1.0
  H  H25  1  0.63055000  0.87731000  0.52469000  1.0
  C  C26  1  0.50003000  0.35336000  0.50373000  1.0
  C  C27  1  0.16601000  0.54761000  0.45519000  1.0
  C  C28  1  0.83397000  0.54760000  0.45516000  1.0
  C  C29  1  0.16667000  0.45270000  0.54433000  1.0
  C  C30  1  0.74942000  0.45453000  0.54217000  1.0
  C  C31  1  0.24996000  0.54577000  0.45651000  1.0
  C  C32  1  0.75002000  0.54576000  0.45649000  1.0
  C  C33  1  0.25059000  0.45454000  0.54218000  1.0
  C  C34  1  0.87751000  0.50010000  0.49992000  1.0
  C  C35  1  0.12248000  0.50011000  0.49995000  1.0
  C  C36  1  0.96310000  0.50003000  0.50022000  1.0
  C  C37  1  0.49996000  0.64657000  0.50178000  1.0
  C  C38  1  0.03688000  0.50003000  0.50023000  1.0
  C  C39  1  0.49998000  0.49910000  0.63380000  1.0
  C  C40  1  0.50005000  0.50090000  0.36353000  1.0
  C  C41  1  0.57350000  0.50082000  0.74649000  1.0
  C  C42  1  0.42653000  0.49937000  0.25076000  1.0
  C  C43  1  0.57361000  0.50251000  0.25070000  1.0
  C  C44  1  0.42643000  0.49759000  0.74653000  1.0
  C  C45  1  0.57454000  0.50122000  0.81804000  1.0
  C  C46  1  0.42547000  0.49901000  0.17921000  1.0
  C  C47  1  0.57460000  0.50268000  0.17914000  1.0
  C  C48  1  0.49998000  0.72992000  0.50968000  1.0
  C  C49  1  0.42540000  0.49738000  0.81807000  1.0
  C  C50  1  0.49997000  0.49945000  0.85620000  1.0
  C  C51  1  0.50002000  0.50077000  0.14104000  1.0
  C  C52  1  0.49996000  0.49916000  0.71126000  1.0
  C  C53  1  0.50007000  0.50100000  0.28603000  1.0
  C  C54  1  0.50000000  0.50041000  0.06703000  1.0
  C  C55  1  0.49998000  0.49975000  0.93022000  1.0
  C  C56  1  0.57370000  0.84652000  0.52157000  1.0
  C  C57  1  0.42630000  0.15306000  0.52228000  1.0
  C  C58  1  0.57366000  0.15299000  0.52227000  1.0
  C  C59  1  0.50001000  0.26990000  0.51131000  1.0
  C  C60  1  0.42633000  0.84658000  0.52156000  1.0
  C  C61  1  0.57330000  0.76925000  0.51397000  1.0
  C  C62  1  0.42670000  0.23046000  0.51511000  1.0
  C  C63  1  0.57330000  0.23039000  0.51511000  1.0
  C  C64  1  0.42668000  0.76932000  0.51395000  1.0
  C  C65  1  0.50003000  0.88653000  0.52496000  1.0
  C  C66  1  0.49997000  0.11299000  0.52558000  1.0
  C  C67  1  0.50003000  0.96552000  0.52946000  1.0
  C  C68  1  0.49996000  0.03391000  0.52963000  1.0
  C  C69  1  0.83334000  0.45268000  0.54430000  1.0
  N  N70  1  0.42817000  0.49725000  0.96520000  1.0
  N  N71  1  0.57181000  0.50279000  0.03204000  1.0
  N  N72  1  0.42818000  0.49758000  0.03212000  1.0
  N  N73  1  0.57181000  0.50246000  0.96512000  1.0
  N  N74  1  0.70867000  0.50009000  0.49907000  1.0
  N  N75  1  0.29132000  0.50011000  0.49908000  1.0
  O  O76  1  0.56870000  0.38579000  0.50090000  1.0
  O  O77  1  0.35231000  0.49700000  0.14822000  1.0
  O  O78  1  0.64775000  0.50461000  0.14809000  1.0
  O  O79  1  0.35222000  0.49527000  0.84907000  1.0
  O  O80  1  0.43129000  0.61418000  0.49893000  1.0
  O  O81  1  0.56863000  0.61413000  0.49900000  1.0
  O  O82  1  0.43135000  0.38583000  0.50098000  1.0
  O  O83  1  0.56863000  0.49911000  0.60421000  1.0
  O  O84  1  0.43137000  0.50079000  0.39313000  1.0
  O  O85  1  0.56869000  0.50088000  0.39314000  1.0
  O  O86  1  0.43131000  0.49912000  0.60420000  1.0
  O  O87  1  0.64774000  0.50324000  0.84897000  1.0
