# generated using pymatgen
data_AgH6C12N11O5
_symmetry_space_group_name_H-M   'P 1'
_cell_length_a   8.23215000
_cell_length_b   10.84220382
_cell_length_c   22.74250000
_cell_angle_alpha   89.79121018
_cell_angle_beta   79.59500000
_cell_angle_gamma   67.70321915
_symmetry_Int_Tables_number   1
_chemical_formula_structural   AgH6C12N11O5
_chemical_formula_sum   'Ag4 H24 C48 N44 O20'
_cell_volume   1842.51775942
_cell_formula_units_Z   4
loop_
 _symmetry_equiv_pos_site_id
 _symmetry_equiv_pos_as_xyz
  1  'x, y, z'
loop_
 _atom_site_type_symbol
 _atom_site_label
 _atom_site_symmetry_multiplicity
 _atom_site_fract_x
 _atom_site_fract_y
 _atom_site_fract_z
 _atom_site_occupancy
  Ag  Ag0  1  0.26695000  0.88939000  0.15348000  1.0
  Ag  Ag1  1  0.80944000  0.61049000  0.34648000  1.0
  Ag  Ag2  1  0.73305000  0.11061000  0.84652000  1.0
  Ag  Ag3  1  0.19057000  0.38952000  0.65352000  1.0
  H  H4  1  0.41281000  0.85655000  0.99349000  1.0
  H  H5  1  0.76251000  0.64335000  0.50640000  1.0
  H  H6  1  0.58719000  0.14345000  0.00651000  1.0
  H  H7  1  0.23748000  0.35665000  0.49360000  1.0
  H  H8  1  0.18521000  0.62107000  0.09877000  1.0
  H  H9  1  0.40482000  0.87903000  0.40111000  1.0
  H  H10  1  0.81479000  0.37893000  0.90123000  1.0
  H  H11  1  0.59517000  0.12098000  0.59889000  1.0
  H  H12  1  0.53228000  0.14363000  0.71395000  1.0
  H  H13  1  0.88955000  0.35643000  0.78611000  1.0
  H  H14  1  0.46771000  0.85638000  0.28605000  1.0
  H  H15  1  0.11044000  0.64357000  0.21389000  1.0
  H  H16  1  0.11997000  0.49075000  0.80388000  1.0
  H  H17  1  0.91534000  0.00889000  0.69616000  1.0
  H  H18  1  0.88002000  0.50925000  0.19612000  1.0
  H  H19  1  0.08467000  0.99110000  0.30384000  1.0
  H  H20  1  0.95583000  0.02084000  0.07470000  1.0
  H  H21  1  0.55157000  0.47913000  0.42519000  1.0
  H  H22  1  0.04417000  0.97916000  0.92530000  1.0
  H  H23  1  0.44843000  0.52087000  0.57481000  1.0
  H  H24  1  0.31171000  0.19772000  0.10452000  1.0
  H  H25  1  0.11398000  0.30211000  0.39552000  1.0
  H  H26  1  0.68830000  0.80227000  0.89548000  1.0
  H  H27  1  0.88601000  0.69790000  0.60448000  1.0
  C  C28  1  0.20259000  0.42195000  0.02353000  1.0
  C  C29  1  0.14790000  0.07796000  0.47645000  1.0
  C  C30  1  0.79741000  0.57805000  0.97647000  1.0
  C  C31  1  0.85209000  0.92204000  0.52355000  1.0
  C  C32  1  0.26438000  0.50434000  0.98129000  1.0
  C  C33  1  0.24995000  0.99558000  0.51867000  1.0
  C  C34  1  0.73562000  0.49566000  0.01871000  1.0
  C  C35  1  0.75005000  0.00442000  0.48133000  1.0
  C  C36  1  0.30281000  0.47153000  0.91986000  1.0
  C  C37  1  0.19453000  0.02846000  0.58011000  1.0
  C  C38  1  0.69719000  0.52847000  0.08014000  1.0
  C  C39  1  0.80546000  0.97155000  0.41989000  1.0
  C  C40  1  0.29187000  0.35679000  0.89579000  1.0
  C  C41  1  0.04480000  0.14309000  0.60425000  1.0
  C  C42  1  0.70813000  0.64321000  0.10421000  1.0
  C  C43  1  0.95519000  0.85691000  0.39575000  1.0
  C  C44  1  0.24703000  0.27046000  0.93528000  1.0
  C  C45  1  0.95297000  0.22931000  0.56474000  1.0
  C  C46  1  0.75297000  0.72954000  0.06472000  1.0
  C  C47  1  0.04702000  0.77069000  0.43526000  1.0
  C  C48  1  0.20492000  0.30012000  0.99671000  1.0
  C  C49  1  0.00163000  0.19969000  0.50331000  1.0
  C  C50  1  0.79509000  0.69988000  0.00329000  1.0
  C  C51  1  0.99836000  0.80031000  0.49669000  1.0
  C  C52  1  0.36364000  0.77938000  0.00754000  1.0
  C  C53  1  0.65028000  0.72057000  0.49234000  1.0
  C  C54  1  0.63636000  0.22062000  0.99245000  1.0
  C  C55  1  0.34971000  0.27944000  0.50766000  1.0
  C  C56  1  0.24610000  0.66479000  0.06309000  1.0
  C  C57  1  0.47368000  0.83523000  0.43680000  1.0
  C  C58  1  0.75390000  0.33521000  0.93691000  1.0
  C  C59  1  0.52632000  0.16477000  0.56320000  1.0
  C  C60  1  0.44583667  0.22083000  0.74856000  1.0
  C  C61  1  0.91524000  0.27914000  0.75149000  1.0
  C  C62  1  0.55416333  0.77917000  0.25145000  1.0
  C  C63  1  0.08475000  0.72086000  0.24851000  1.0
  C  C64  1  0.23512000  0.39726000  0.79229000  1.0
  C  C65  1  0.92517000  0.10251000  0.70774000  1.0
  C  C66  1  0.76488000  0.60274000  0.20771000  1.0
  C  C67  1  0.07483000  0.89749000  0.29226000  1.0
  C  C68  1  0.03760000  0.07999000  0.06938000  1.0
  C  C69  1  0.68710000  0.41992000  0.43055000  1.0
  C  C70  1  0.96240000  0.92001000  0.93062000  1.0
  C  C71  1  0.31290000  0.58008000  0.56945000  1.0
  C  C72  1  0.21835000  0.16749000  0.08640000  1.0
  C  C73  1  0.97231000  0.33236000  0.41360000  1.0
  C  C74  1  0.78167000  0.83250000  0.91360000  1.0
  C  C75  1  0.02770000  0.66763000  0.58640000  1.0
  N  N76  1  0.28763000  0.61468000  0.00500000  1.0
  N  N77  1  0.40714000  0.88528000  0.49491000  1.0
  N  N78  1  0.71237000  0.38532000  0.99500000  1.0
  N  N79  1  0.59286000  0.11473000  0.50509000  1.0
  N  N80  1  0.36394000  0.68792000  0.96919000  1.0
  N  N81  1  0.52089000  0.81197000  0.53071000  1.0
  N  N82  1  0.63606000  0.31208000  0.03081000  1.0
  N  N83  1  0.47911000  0.18803000  0.46929000  1.0
  N  N84  1  0.29431000  0.76819000  0.06576000  1.0
  N  N85  1  0.62787000  0.73182000  0.43412000  1.0
  N  N86  1  0.70570000  0.23181000  0.93423000  1.0
  N  N87  1  0.37212000  0.26819000  0.56588000  1.0
  N  N88  1  0.35817000  0.55410000  0.87409000  1.0
  N  N89  1  0.28700000  0.94588000  0.62583000  1.0
  N  N90  1  0.64184000  0.44590000  0.12591000  1.0
  N  N91  1  0.71300000  0.05412000  0.37417000  1.0
  N  N92  1  0.32790000  0.32800000  0.83312000  1.0
  N  N93  1  0.98945000  0.17184000  0.66692000  1.0
  N  N94  1  0.67210000  0.67200000  0.16688000  1.0
  N  N95  1  0.01054000  0.82816000  0.33308000  1.0
  N  N96  1  0.46470000  0.21413000  0.80543000  1.0
  N  N97  1  0.98439000  0.28585000  0.69464000  1.0
  N  N98  1  0.53530000  0.78587000  0.19457000  1.0
  N  N99  1  0.01560000  0.71415000  0.30536000  1.0
  N  N100  1  0.30751000  0.33247000  0.73847000  1.0
  N  N101  1  0.87873000  0.16737000  0.76155000  1.0
  N  N102  1  0.69249000  0.66753000  0.26153000  1.0
  N  N103  1  0.12126000  0.83263000  0.23845000  1.0
  N  N104  1  0.25224000  0.14366000  0.91004000  1.0
  N  N105  1  0.80609000  0.35601000  0.58999000  1.0
  N  N106  1  0.74776000  0.85634000  0.08996000  1.0
  N  N107  1  0.19390000  0.64399000  0.41002000  1.0
  N  N108  1  0.15791000  0.21264000  0.03572000  1.0
  N  N109  1  0.90626000  0.28722000  0.46426000  1.0
  N  N110  1  0.84209000  0.78736000  0.96428000  1.0
  N  N111  1  0.09373000  0.71279000  0.53574000  1.0
  N  N112  1  0.04144000  0.15706000  0.02440000  1.0
  N  N113  1  0.72295000  0.34285000  0.47553000  1.0
  N  N114  1  0.95856000  0.84294000  0.97561000  1.0
  N  N115  1  0.27704000  0.65716000  0.52446000  1.0
  N  N116  1  0.14623000  0.08178000  0.10836000  1.0
  N  N117  1  0.83651000  0.41807000  0.39161000  1.0
  N  N118  1  0.85377000  0.91822000  0.89165000  1.0
  N  N119  1  0.16349000  0.58193000  0.60839000  1.0
  O  O120  1  0.15449000  0.45060000  0.07936000  1.0
  O  O121  1  0.18420000  0.04943000  0.42061000  1.0
  O  O122  1  0.84552000  0.54940000  0.92064000  1.0
  O  O123  1  0.81581000  0.95057000  0.57939000  1.0
  O  O124  1  0.23743000  0.65134000  0.85996000  1.0
  O  O125  1  0.24923000  0.84874000  0.64005000  1.0
  O  O126  1  0.76257000  0.34866000  0.14004000  1.0
  O  O127  1  0.75077000  0.15126000  0.35994000  1.0
  O  O128  1  0.51840000  0.51259000  0.85065000  1.0
  O  O129  1  0.38268000  0.98727000  0.64916000  1.0
  O  O130  1  0.48159000  0.48742000  0.14935000  1.0
  O  O131  1  0.61732000  0.01273000  0.35084000  1.0
  O  O132  1  0.35727000  0.03931000  0.92628000  1.0
  O  O133  1  0.82292000  0.46045000  0.57382000  1.0
  O  O134  1  0.64273000  0.96069000  0.07372000  1.0
  O  O135  1  0.17707000  0.53956000  0.42618000  1.0
  O  O136  1  0.15401000  0.14970000  0.87397000  1.0
  O  O137  1  0.67796000  0.34977000  0.62601000  1.0
  O  O138  1  0.84599000  0.85030000  0.12603000  1.0
  O  O139  1  0.32204000  0.65023000  0.37399000  1.0
