# generated using pymatgen
data_MnH25C32N3O4
_symmetry_space_group_name_H-M   'P 1'
_cell_length_a   9.23777000
_cell_length_b   11.88540000
_cell_length_c   13.15800000
_cell_angle_alpha   70.69210000
_cell_angle_beta   85.35130000
_cell_angle_gamma   80.35620000
_symmetry_Int_Tables_number   1
_chemical_formula_structural   MnH25C32N3O4
_chemical_formula_sum   'Mn2 H50 C64 N6 O8'
_cell_volume   1343.64326900
_cell_formula_units_Z   2
loop_
 _symmetry_equiv_pos_site_id
 _symmetry_equiv_pos_as_xyz
  1  'x, y, z'
loop_
 _atom_site_type_symbol
 _atom_site_label
 _atom_site_symmetry_multiplicity
 _atom_site_fract_x
 _atom_site_fract_y
 _atom_site_fract_z
 _atom_site_occupancy
  Mn  Mn0  1  0.33302000  0.93470000  0.10358000  1.0
  Mn  Mn1  1  0.66698000  0.06530000  0.89641000  1.0
  H  H2  1  0.22640000  0.81293000  0.47915000  1.0
  H  H3  1  0.77360000  0.18706000  0.52085000  1.0
  H  H4  1  0.08943000  0.71150000  0.64702000  1.0
  H  H5  1  0.91057000  0.28849000  0.35298000  1.0
  H  H6  1  0.87736000  0.61015000  0.63460000  1.0
  H  H7  1  0.12264000  0.38985000  0.36540000  1.0
  H  H8  1  0.80497000  0.61176000  0.45716000  1.0
  H  H9  1  0.19502000  0.38824000  0.54283000  1.0
  H  H10  1  0.94537000  0.71560000  0.28928000  1.0
  H  H11  1  0.05463000  0.28440000  0.71072000  1.0
  H  H12  1  0.28062000  0.13808000  0.20246000  1.0
  H  H13  1  0.71938000  0.86192000  0.79754000  1.0
  H  H14  1  0.10181000  0.31848000  0.20182000  1.0
  H  H15  1  0.89819000  0.68152000  0.79818000  1.0
  H  H16  1  0.88883000  0.26959000  0.94011000  1.0
  H  H17  1  0.11117000  0.73041000  0.05990000  1.0
  H  H18  1  0.07951000  0.09555000  0.94998000  1.0
  H  H19  1  0.92049000  0.90445000  0.05002000  1.0
  H  H20  1  0.78541000  0.43604000  0.99975000  1.0
  H  H21  1  0.21460000  0.56396000  0.00025000  1.0
  H  H22  1  0.91169000  0.45330000  0.20288000  1.0
  H  H23  1  0.08831000  0.54670000  0.79712000  1.0
  H  H24  1  0.77835000  0.60096000  0.27595000  1.0
  H  H25  1  0.22165000  0.39904000  0.72405000  1.0
  H  H26  1  0.57953000  0.77574000  0.26113000  1.0
  H  H27  1  0.42048000  0.22426000  0.73887000  1.0
  H  H28  1  0.42538000  0.74732000  0.98531000  1.0
  H  H29  1  0.57462000  0.25268000  0.01469000  1.0
  H  H30  1  0.62090000  0.57990000  0.98204000  1.0
  H  H31  1  0.37910000  0.42010000  0.01797000  1.0
  H  H32  1  0.89209000  0.07774000  0.18034000  1.0
  H  H33  1  0.10792000  0.92225000  0.81966000  1.0
  H  H34  1  0.49607000  0.94354000  0.32857000  1.0
  H  H35  1  0.50393000  0.05646000  0.67144000  1.0
  H  H36  1  0.59247000  0.90891000  0.51031000  1.0
  H  H37  1  0.40753000  0.09110000  0.48969000  1.0
  H  H38  1  0.83344000  0.96649000  0.52624000  1.0
  H  H39  1  0.16656000  0.03351000  0.47376000  1.0
  H  H40  1  0.98382000  0.05270000  0.36071000  1.0
  H  H41  1  0.01619000  0.94729000  0.63929000  1.0
  H  H42  1  0.48848000  0.24757000  0.24057000  1.0
  H  H43  1  0.51151000  0.75243000  0.75943000  1.0
  H  H44  1  0.58107000  0.26093000  0.40747000  1.0
  H  H45  1  0.41893000  0.73907000  0.59253000  1.0
  H  H46  1  0.31479000  0.61220000  0.33861000  1.0
  H  H47  1  0.68520000  0.38780000  0.66138000  1.0
  H  H48  1  0.23460000  0.58491000  0.17644000  1.0
  H  H49  1  0.76538000  0.41508000  0.82356000  1.0
  H  H50  1  0.58060000  0.36898000  0.53496000  1.0
  H  H51  1  0.41940000  0.63102000  0.46503000  1.0
  C  C52  1  0.17998000  0.82852000  0.27639000  1.0
  C  C53  1  0.82002000  0.17148000  0.72360000  1.0
  C  C54  1  0.09516000  0.76768000  0.37549000  1.0
  C  C55  1  0.90485000  0.23232000  0.62452000  1.0
  C  C56  1  0.13532000  0.76667000  0.47616000  1.0
  C  C57  1  0.86468000  0.23332000  0.52385000  1.0
  C  C58  1  0.05769000  0.71028000  0.56933000  1.0
  C  C59  1  0.94231000  0.28972000  0.43067000  1.0
  C  C60  1  0.93902000  0.65437000  0.56223000  1.0
  C  C61  1  0.06098000  0.34563000  0.43777000  1.0
  C  C62  1  0.89800000  0.65542000  0.46185000  1.0
  C  C63  1  0.10200000  0.34458000  0.53816000  1.0
  C  C64  1  0.97569000  0.71202000  0.36874000  1.0
  C  C65  1  0.02431000  0.28798000  0.63126000  1.0
  C  C66  1  0.19110000  0.17128000  0.14597000  1.0
  C  C67  1  0.80890000  0.82873000  0.85403000  1.0
  C  C68  1  0.08933000  0.27116000  0.14574000  1.0
  C  C69  1  0.91067000  0.72884000  0.85426000  1.0
  C  C70  1  0.97518000  0.31086000  0.07140000  1.0
  C  C71  1  0.02482000  0.68914000  0.92860000  1.0
  C  C72  1  0.97369000  0.24607000  0.99952000  1.0
  C  C73  1  0.02631000  0.75393000  0.00048000  1.0
  C  C74  1  0.08008000  0.14703000  0.00477000  1.0
  C  C75  1  0.91992000  0.85297000  0.99523000  1.0
  C  C76  1  0.86019000  0.41193000  0.06640000  1.0
  C  C77  1  0.13982000  0.58807000  0.93360000  1.0
  C  C78  1  0.83792000  0.47575000  0.13589000  1.0
  C  C79  1  0.16208000  0.52425000  0.86411000  1.0
  C  C80  1  0.71923000  0.57461000  0.12998000  1.0
  C  C81  1  0.28077000  0.42539000  0.87002000  1.0
  C  C82  1  0.70351000  0.63216000  0.20895000  1.0
  C  C83  1  0.29649000  0.36784000  0.79105000  1.0
  C  C84  1  0.59233000  0.72865000  0.20174000  1.0
  C  C85  1  0.40767000  0.27136000  0.79826000  1.0
  C  C86  1  0.50702000  0.71278000  0.04775000  1.0
  C  C87  1  0.49298000  0.28722000  0.95225000  1.0
  C  C88  1  0.61571000  0.61730000  0.04783000  1.0
  C  C89  1  0.38429000  0.38270000  0.95217000  1.0
  C  C90  1  0.68873000  0.01326000  0.24341000  1.0
  C  C91  1  0.31127000  0.98673000  0.75659000  1.0
  C  C92  1  0.63295000  0.03151000  0.13439000  1.0
  C  C93  1  0.36705000  0.96849000  0.86561000  1.0
  C  C94  1  0.82631000  0.04321000  0.25308000  1.0
  C  C95  1  0.17369000  0.95678000  0.74692000  1.0
  C  C96  1  0.60337000  0.96628000  0.33655000  1.0
  C  C97  1  0.39663000  0.03372000  0.66346000  1.0
  C  C98  1  0.65694000  0.94800000  0.43783000  1.0
  C  C99  1  0.34306000  0.05200000  0.56217000  1.0
  C  C100  1  0.79297000  0.98004000  0.44688000  1.0
  C  C101  1  0.20703000  0.01996000  0.55313000  1.0
  C  C102  1  0.87714000  0.02832000  0.35426000  1.0
  C  C103  1  0.12286000  0.97167000  0.64574000  1.0
  C  C104  1  0.45225000  0.32787000  0.26452000  1.0
  C  C105  1  0.54775000  0.67213000  0.73548000  1.0
  C  C106  1  0.50423000  0.33529000  0.35833000  1.0
  C  C107  1  0.49577000  0.66472000  0.64166000  1.0
  C  C108  1  0.45796000  0.43922000  0.38825000  1.0
  C  C109  1  0.54204000  0.56079000  0.61174000  1.0
  C  C110  1  0.35808000  0.53003000  0.32029000  1.0
  C  C111  1  0.64192000  0.46997000  0.67970000  1.0
  C  C112  1  0.31241000  0.51412000  0.22874000  1.0
  C  C113  1  0.68758000  0.48588000  0.77126000  1.0
  C  C114  1  0.51284000  0.44985000  0.48500000  1.0
  C  C115  1  0.48716000  0.55016000  0.51499000  1.0
  N  N116  1  0.18780000  0.10917000  0.07692000  1.0
  N  N117  1  0.81220000  0.89083000  0.92308000  1.0
  N  N118  1  0.49509000  0.76981000  0.12196000  1.0
  N  N119  1  0.50491000  0.23020000  0.87804000  1.0
  N  N120  1  0.35765000  0.41532000  0.19938000  1.0
  N  N121  1  0.64235000  0.58468000  0.80063000  1.0
  O  O122  1  0.28757000  0.87910000  0.28613000  1.0
  O  O123  1  0.71244000  0.12090000  0.71387000  1.0
  O  O124  1  0.14553000  0.82742000  0.18467000  1.0
  O  O125  1  0.85447000  0.17258000  0.81533000  1.0
  O  O126  1  0.49875000  0.02363000  0.12739000  1.0
  O  O127  1  0.50125000  0.97637000  0.87261000  1.0
  O  O128  1  0.72215000  0.05738000  0.05344000  1.0
  O  O129  1  0.27785000  0.94262000  0.94656000  1.0
