# generated using pymatgen
data_CuH10(C7N5)2
_symmetry_space_group_name_H-M   'P 1'
_cell_length_a   8.92231000
_cell_length_b   9.21829000
_cell_length_c   9.92650000
_cell_angle_alpha   80.37310000
_cell_angle_beta   68.19130000
_cell_angle_gamma   70.38250000
_symmetry_Int_Tables_number   1
_chemical_formula_structural   CuH10(C7N5)2
_chemical_formula_sum   'Cu2 H20 C28 N20'
_cell_volume   713.16394273
_cell_formula_units_Z   2
loop_
 _symmetry_equiv_pos_site_id
 _symmetry_equiv_pos_as_xyz
  1  'x, y, z'
loop_
 _atom_site_type_symbol
 _atom_site_label
 _atom_site_symmetry_multiplicity
 _atom_site_fract_x
 _atom_site_fract_y
 _atom_site_fract_z
 _atom_site_occupancy
  Cu  Cu0  1  0.17323000  0.38653000  0.07349000  1.0
  Cu  Cu1  1  0.82677000  0.61347000  0.92651000  1.0
  H  H2  1  0.38518000  0.07860000  0.94252000  1.0
  H  H3  1  0.61482000  0.92140000  0.05747000  1.0
  H  H4  1  0.64675000  0.98069000  0.73002000  1.0
  H  H5  1  0.35326000  0.01931000  0.26998000  1.0
  H  H6  1  0.79789000  0.16979000  0.57502000  1.0
  H  H7  1  0.20211000  0.83022000  0.42497000  1.0
  H  H8  1  0.68556000  0.44257000  0.64329000  1.0
  H  H9  1  0.31444000  0.55744000  0.35671000  1.0
  H  H10  1  0.03526000  0.71971000  0.13773000  1.0
  H  H11  1  0.96474000  0.28029000  0.86227000  1.0
  H  H12  1  0.13139000  0.96061000  0.02899000  1.0
  H  H13  1  0.86860000  0.03939000  0.97101000  1.0
  H  H14  1  0.42607000  0.81927000  0.56077000  1.0
  H  H15  1  0.57393000  0.18073000  0.43923000  1.0
  H  H16  1  0.66678000  0.87044000  0.34345000  1.0
  H  H17  1  0.33321000  0.12956000  0.65655000  1.0
  H  H18  1  0.95778000  0.78233000  0.36280000  1.0
  H  H19  1  0.04222000  0.21766000  0.63720000  1.0
  H  H20  1  0.99723000  0.64404000  0.58923000  1.0
  H  H21  1  0.00277000  0.35595000  0.41076000  1.0
  C  C22  1  0.45884000  0.15394000  0.87529000  1.0
  C  C23  1  0.54116000  0.84606000  0.12471000  1.0
  C  C24  1  0.60355000  0.10115000  0.75603000  1.0
  C  C25  1  0.39645000  0.89885000  0.24396000  1.0
  C  C26  1  0.68733000  0.20589000  0.67184000  1.0
  C  C27  1  0.31267000  0.79411000  0.32816000  1.0
  C  C28  1  0.62473000  0.35901000  0.71058000  1.0
  C  C29  1  0.37527000  0.64100000  0.28942000  1.0
  C  C30  1  0.47932000  0.40461000  0.83204000  1.0
  C  C31  1  0.52068000  0.59540000  0.16796000  1.0
  C  C32  1  0.39340000  0.56400000  0.88144000  1.0
  C  C33  1  0.60660000  0.43600000  0.11856000  1.0
  C  C34  1  0.15312000  0.71670000  0.04865000  1.0
  C  C35  1  0.84688000  0.28330000  0.95135000  1.0
  C  C36  1  0.20434000  0.84653000  0.98721000  1.0
  C  C37  1  0.79566000  0.15346000  0.01280000  1.0
  C  C38  1  0.44125000  0.69861000  0.81959000  1.0
  C  C39  1  0.55874000  0.30139000  0.18041000  1.0
  C  C40  1  0.58860000  0.70952000  0.68705000  1.0
  C  C41  1  0.41139000  0.29048000  0.31296000  1.0
  C  C42  1  0.55520000  0.78357000  0.56165000  1.0
  C  C43  1  0.44480000  0.21643000  0.43835000  1.0
  C  C44  1  0.68861000  0.81037000  0.44194000  1.0
  C  C45  1  0.31138000  0.18963000  0.55806000  1.0
  C  C46  1  0.85015000  0.76046000  0.45163000  1.0
  C  C47  1  0.14985000  0.23954000  0.54836000  1.0
  C  C48  1  0.87205000  0.68476000  0.57971000  1.0
  C  C49  1  0.12794000  0.31523000  0.42029000  1.0
  N  N50  1  0.39874000  0.30086000  0.91238000  1.0
  N  N51  1  0.60126000  0.69914000  0.08762000  1.0
  N  N52  1  0.24791000  0.57851000  0.99627000  1.0
  N  N53  1  0.75209000  0.42149000  0.00373000  1.0
  N  N54  1  0.34630000  0.83729000  0.87348000  1.0
  N  N55  1  0.65370000  0.16271000  0.12653000  1.0
  N  N56  1  0.74426000  0.65992000  0.69747000  1.0
  N  N57  1  0.25574000  0.34008000  0.30253000  1.0
  N  N58  1  0.12470000  0.18829000  0.11142000  1.0
  N  N59  1  0.87531000  0.81171000  0.88857000  1.0
  N  N60  1  0.03101000  0.14100000  0.21874000  1.0
  N  N61  1  0.96899000  0.85900000  0.78125000  1.0
  N  N62  1  0.94471000  0.08446000  0.31823000  1.0
  N  N63  1  0.05529000  0.91553000  0.68177000  1.0
  N  N64  1  0.94282000  0.51625000  0.17948000  1.0
  N  N65  1  0.05718000  0.48375000  0.82052000  1.0
  N  N66  1  0.83377000  0.47290000  0.27437000  1.0
  N  N67  1  0.16623000  0.52709000  0.72563000  1.0
  N  N68  1  0.72273000  0.43760000  0.36697000  1.0
  N  N69  1  0.27727000  0.56240000  0.63303000  1.0
