# generated using pymatgen
data_Al4H28(C19O7)3
_symmetry_space_group_name_H-M   'P 1'
_cell_length_a   6.67696000
_cell_length_b   22.62690000
_cell_length_c   25.04860000
_cell_angle_alpha   72.27750000
_cell_angle_beta   89.80840000
_cell_angle_gamma   89.52950000
_symmetry_Int_Tables_number   1
_chemical_formula_structural   Al4H28(C19O7)3
_chemical_formula_sum   'Al4 H28 C57 O21'
_cell_volume   3604.59616450
_cell_formula_units_Z   1
loop_
 _symmetry_equiv_pos_site_id
 _symmetry_equiv_pos_as_xyz
  1  'x, y, z'
loop_
 _atom_site_type_symbol
 _atom_site_label
 _atom_site_symmetry_multiplicity
 _atom_site_fract_x
 _atom_site_fract_y
 _atom_site_fract_z
 _atom_site_occupancy
  Al  Al0  1  0.86753000  0.49986000  0.50008000  1.0
  Al  Al1  1  0.36759000  0.50039000  0.50013000  1.0
  Al  Al2  1  0.32194000  0.00046000  0.99943000  1.0
  Al  Al3  1  0.82224000  0.99975000  0.00006000  1.0
  H  H4  1  0.39686000  0.90528000  0.88688000  1.0
  H  H5  1  0.40513000  0.84245000  0.82084000  1.0
  H  H6  1  0.76412000  0.82221000  0.83540000  1.0
  H  H7  1  0.75779000  0.88787000  0.89905000  1.0
  H  H8  1  0.80197000  0.81889000  0.74761000  1.0
  H  H9  1  0.81129000  0.75359000  0.68543000  1.0
  H  H10  1  0.38905000  0.68157000  0.75197000  1.0
  H  H11  1  0.37971000  0.74683000  0.81421000  1.0
  H  H12  1  0.42638000  0.67789000  0.66405000  1.0
  H  H13  1  0.43101000  0.61206000  0.60054000  1.0
  H  H14  1  0.79231000  0.59444000  0.61380000  1.0
  H  H15  1  0.78545000  0.65771000  0.67948000  1.0
  H  H16  1  0.86695000  0.13227000  0.07766000  1.0
  H  H17  1  0.88441000  0.19964000  0.13901000  1.0
  H  H18  1  0.29633000  0.13768000  0.20289000  1.0
  H  H19  1  0.28673000  0.24411000  0.19904000  1.0
  H  H20  1  0.29684000  0.30918000  0.26152000  1.0
  H  H21  1  0.91658000  0.25837000  0.29884000  1.0
  H  H22  1  0.90752000  0.19488000  0.23479000  1.0
  H  H23  1  0.92659000  0.34944000  0.31188000  1.0
  H  H24  1  0.93255000  0.41124000  0.37848000  1.0
  H  H25  1  0.30306000  0.38069000  0.40895000  1.0
  H  H26  1  0.29728000  0.31479000  0.34593000  1.0
  H  H27  1  0.24279000  0.02015000  0.12998000  1.0
  H  H28  1  0.61692000  0.58160000  0.47753000  1.0
  H  H29  1  0.12060000  0.41854000  0.52013000  1.0
  H  H30  1  0.57283000  0.91885000  0.02402000  1.0
  H  H31  1  0.06882000  0.08128000  0.97447000  1.0
  C  C32  1  0.61697000  0.41471000  0.58650000  1.0
  C  C33  1  0.62095000  0.43703000  0.43751000  1.0
  C  C34  1  0.11714000  0.58573000  0.41368000  1.0
  C  C35  1  0.11363000  0.56274000  0.56303000  1.0
  C  C36  1  0.25933000  0.88682000  0.87512000  1.0
  C  C37  1  0.26287000  0.85119000  0.83869000  1.0
  C  C38  1  0.08530000  0.82724000  0.82350000  1.0
  C  C39  1  0.90322000  0.84125000  0.84566000  1.0
  C  C40  1  0.89868000  0.87740000  0.88167000  1.0
  C  C41  1  0.07701000  0.90016000  0.89708000  1.0
  C  C42  1  0.93019000  0.78814000  0.74951000  1.0
  C  C43  1  0.93536000  0.75107000  0.71428000  1.0
  C  C44  1  0.10077000  0.71230000  0.71373000  1.0
  C  C45  1  0.26103000  0.71241000  0.75004000  1.0
  C  C46  1  0.25579000  0.74944000  0.78530000  1.0
  C  C47  1  0.09036000  0.78821000  0.78585000  1.0
  C  C48  1  0.28698000  0.65877000  0.65408000  1.0
  C  C49  1  0.29054000  0.62255000  0.61812000  1.0
  C  C50  1  0.11179000  0.59975000  0.60300000  1.0
  C  C51  1  0.93005000  0.61306000  0.62525000  1.0
  C  C52  1  0.92734000  0.64890000  0.66149000  1.0
  C  C53  1  0.10531000  0.67297000  0.67632000  1.0
  C  C54  1  0.07773000  0.86408000  0.13772000  1.0
  C  C55  1  0.08447000  0.82030000  0.18102000  1.0
  C  C56  1  0.09221000  0.77229000  0.22822000  1.0
  C  C57  1  0.09977000  0.72799000  0.27155000  1.0
  C  C58  1  0.10725000  0.68003000  0.31881000  1.0
  C  C59  1  0.11361000  0.63630000  0.36214000  1.0
  C  C60  1  0.61622000  0.36400000  0.63794000  1.0
  C  C61  1  0.60977000  0.32025000  0.68122000  1.0
  C  C62  1  0.60143000  0.27227000  0.72839000  1.0
  C  C63  1  0.59184000  0.22797000  0.77165000  1.0
  C  C64  1  0.58234000  0.17994000  0.81876000  1.0
  C  C65  1  0.57395000  0.13620000  0.86202000  1.0
  C  C66  1  0.74147000  0.13460000  0.10480000  1.0
  C  C67  1  0.75053000  0.17226000  0.13937000  1.0
  C  C68  1  0.58894000  0.17557000  0.17452000  1.0
  C  C69  1  0.42078000  0.13909000  0.17419000  1.0
  C  C70  1  0.40967000  0.10052000  0.13998000  1.0
  C  C71  1  0.57187000  0.09890000  0.10390000  1.0
  C  C72  1  0.42515000  0.24676000  0.22122000  1.0
  C  C73  1  0.43085000  0.28334000  0.25681000  1.0
  C  C74  1  0.60745000  0.28903000  0.28536000  1.0
  C  C75  1  0.77876000  0.25679000  0.27608000  1.0
  C  C76  1  0.77397000  0.22077000  0.23990000  1.0
  C  C77  1  0.59665000  0.21478000  0.21194000  1.0
  C  C78  1  0.78992000  0.35477000  0.33401000  1.0
  C  C79  1  0.79400000  0.39003000  0.37077000  1.0
  C  C80  1  0.61822000  0.39975000  0.39780000  1.0
  C  C81  1  0.43899000  0.37318000  0.38760000  1.0
  C  C82  1  0.43649000  0.33699000  0.35168000  1.0
  C  C83  1  0.61151000  0.32716000  0.32384000  1.0
  C  C84  1  0.57101000  0.06248000  0.06321000  1.0
  C  C85  1  0.57089000  0.08555000  0.91339000  1.0
  C  C86  1  0.07375000  0.93718000  0.93703000  1.0
  C  C87  1  0.07468000  0.91477000  0.08641000  1.0
  C  C88  1  0.23368000  0.05856000  0.14866000  1.0
  O  O89  1  0.45175000  0.44970000  0.45542000  1.0
  O  O90  1  0.78729000  0.43285000  0.56510000  1.0
  O  O91  1  0.94437000  0.54695000  0.54846000  1.0
  O  O92  1  0.79135000  0.45269000  0.45151000  1.0
  O  O93  1  0.94730000  0.56689000  0.43506000  1.0
  O  O94  1  0.44590000  0.43573000  0.56733000  1.0
  O  O95  1  0.61693000  0.53700000  0.49439000  1.0
  O  O96  1  0.28881000  0.56542000  0.43298000  1.0
  O  O97  1  0.28389000  0.55053000  0.54545000  1.0
  O  O98  1  0.11875000  0.46338000  0.50568000  1.0
  O  O99  1  0.74099000  0.06619000  0.93471000  1.0
  O  O100  1  0.40183000  0.05077000  0.04523000  1.0
  O  O101  1  0.24480000  0.93583000  0.06665000  1.0
  O  O102  1  0.39967000  0.06553000  0.93281000  1.0
  O  O103  1  0.24273000  0.95089000  0.95361000  1.0
  O  O104  1  0.74130000  0.04762000  0.04789000  1.0
  O  O105  1  0.57256000  0.96324000  0.00584000  1.0
  O  O106  1  0.90278000  0.95152000  0.95256000  1.0
  O  O107  1  0.90367000  0.93333000  0.06543000  1.0
  O  O108  1  0.07088000  0.03718000  0.99403000  1.0
  O  O109  1  0.08700000  0.06461000  0.17631000  1.0
