# generated using pymatgen
data_AlH9C24(NO4)3
_symmetry_space_group_name_H-M   'P 1'
_cell_length_a   4.01523000
_cell_length_b   29.01535421
_cell_length_c   29.01470000
_cell_angle_alpha   120.00576218
_cell_angle_beta   90.00140000
_cell_angle_gamma   89.99820007
_symmetry_Int_Tables_number   1
_chemical_formula_structural   AlH9C24(NO4)3
_chemical_formula_sum   'Al2 H18 C48 N6 O24'
_cell_volume   2927.26338504
_cell_formula_units_Z   2
loop_
 _symmetry_equiv_pos_site_id
 _symmetry_equiv_pos_as_xyz
  1  'x, y, z'
loop_
 _atom_site_type_symbol
 _atom_site_label
 _atom_site_symmetry_multiplicity
 _atom_site_fract_x
 _atom_site_fract_y
 _atom_site_fract_z
 _atom_site_occupancy
  Al  Al0  1  0.99599000  0.50001000  0.00000000  1.0
  Al  Al1  1  0.99594000  0.83334000  0.66669000  1.0
  H  H2  1  0.55142000  0.69517000  0.52367000  1.0
  H  H3  1  0.57221000  0.64188000  0.42484000  1.0
  H  H4  1  0.47670000  0.78666000  0.41759000  1.0
  H  H5  1  0.47662000  0.54668000  0.24908000  1.0
  H  H6  1  0.55156000  0.63816000  0.14300000  1.0
  H  H7  1  0.57229000  0.69146000  0.24184000  1.0
  H  H8  1  0.55139000  0.82850000  0.80483000  1.0
  H  H9  1  0.57222000  0.78295000  0.85813000  1.0
  H  H10  1  0.47687000  0.63093000  0.71336000  1.0
  H  H11  1  0.47667000  0.70241000  0.95332000  1.0
  H  H12  1  0.55153000  0.50484000  0.86185000  1.0
  H  H13  1  0.57236000  0.55038000  0.80854000  1.0
  H  H14  1  0.55125000  0.97631000  0.67151000  1.0
  H  H15  1  0.57207000  0.07515000  0.71702000  1.0
  H  H16  1  0.47695000  0.08244000  0.86907000  1.0
  H  H17  1  0.47671000  0.25092000  0.79759000  1.0
  H  H18  1  0.55143000  0.35701000  0.99515000  1.0
  H  H19  1  0.57225000  0.25817000  0.94961000  1.0
  C  C20  1  0.49595000  0.41917000  0.95289000  1.0
  C  C21  1  0.49596000  0.53374000  0.08084000  1.0
  C  C22  1  0.49592000  0.54711000  0.96627000  1.0
  C  C23  1  0.49593000  0.79961000  0.58584000  1.0
  C  C24  1  0.49596000  0.78622000  0.70040000  1.0
  C  C25  1  0.49592000  0.91417000  0.71380000  1.0
  C  C26  1  0.50436000  0.77029000  0.52623000  1.0
  C  C27  1  0.53609000  0.71475000  0.49997000  1.0
  C  C28  1  0.54756000  0.68502000  0.44479000  1.0
  C  C29  1  0.52463000  0.71004000  0.41381000  1.0
  C  C30  1  0.49691000  0.76583000  0.43994000  1.0
  C  C31  1  0.48768000  0.79474000  0.49516000  1.0
  C  C32  1  0.52620000  0.67973000  0.35758000  1.0
  C  C33  1  0.52619000  0.65360000  0.30910000  1.0
  C  C34  1  0.52461000  0.62329000  0.25285000  1.0
  C  C35  1  0.49684000  0.56751000  0.22674000  1.0
  C  C36  1  0.48761000  0.53859000  0.17150000  1.0
  C  C37  1  0.50436000  0.56305000  0.14044000  1.0
  C  C38  1  0.53615000  0.61859000  0.16670000  1.0
  C  C39  1  0.54758000  0.64832000  0.22189000  1.0
  C  C40  1  0.50441000  0.75593000  0.72971000  1.0
  C  C41  1  0.53610000  0.78522000  0.78525000  1.0
  C  C42  1  0.54757000  0.75977000  0.81499000  1.0
  C  C43  1  0.52469000  0.70377000  0.78997000  1.0
  C  C44  1  0.49700000  0.67410000  0.73418000  1.0
  C  C45  1  0.48775000  0.70041000  0.70526000  1.0
  C  C46  1  0.52623000  0.67784000  0.82027000  1.0
  C  C47  1  0.52623000  0.65549000  0.84641000  1.0
  C  C48  1  0.52466000  0.62956000  0.87671000  1.0
  C  C49  1  0.49685000  0.65923000  0.93249000  1.0
  C  C50  1  0.48759000  0.63292000  0.96141000  1.0
  C  C51  1  0.50436000  0.57740000  0.93696000  1.0
  C  C52  1  0.53615000  0.54811000  0.88144333  1.0
  C  C53  1  0.54761000  0.57356000  0.85168000  1.0
  C  C54  1  0.50438000  0.97378000  0.74408000  1.0
  C  C55  1  0.53598000  0.00001000  0.71477000  1.0
  C  C56  1  0.54748000  0.05520000  0.74021000  1.0
  C  C57  1  0.52470000  0.08619000  0.79622000  1.0
  C  C58  1  0.49703000  0.06009000  0.82590000  1.0
  C  C59  1  0.48775000  0.00486000  0.79960000  1.0
  C  C60  1  0.52625000  0.14243000  0.82214000  1.0
  C  C61  1  0.52621000  0.19091000  0.84450000  1.0
  C  C62  1  0.52465000  0.24715000  0.87043000  1.0
  C  C63  1  0.49687000  0.27327000  0.84077000  1.0
  C  C64  1  0.48762000  0.32850000  0.86708000  1.0
  C  C65  1  0.50437000  0.35957000  0.92259000  1.0
  C  C66  1  0.53608000  0.33333333  0.95189333  1.0
  C  C67  1  0.54756000  0.27813000  0.92644000  1.0
  N  N68  1  0.44250000  0.85294000  0.52063000  1.0
  N  N69  1  0.44241000  0.48040000  0.14605000  1.0
  N  N70  1  0.44264000  0.66767000  0.64706000  1.0
  N  N71  1  0.44237000  0.66565000  0.01959000  1.0
  N  N72  1  0.44263000  0.97940000  0.83234000  1.0
  N  N73  1  0.44239000  0.35395000  0.83433000  1.0
  O  O74  1  0.73266000  0.55392000  0.99804000  1.0
  O  O75  1  0.73269000  0.44413000  0.94608000  1.0
  O  O76  1  0.73268000  0.50196000  0.05587000  1.0
  O  O77  1  0.25890000  0.51394000  0.95353000  1.0
  O  O78  1  0.25892000  0.54647000  0.06040000  1.0
  O  O79  1  0.25896000  0.43961000  0.98607000  1.0
  O  O80  1  0.73265000  0.88921000  0.72061000  1.0
  O  O81  1  0.73264000  0.83139000  0.61081000  1.0
  O  O82  1  0.73268000  0.77941000  0.66862000  1.0
  O  O83  1  0.25888000  0.89374000  0.68063000  1.0
  O  O84  1  0.25890000  0.81938000  0.71313000  1.0
  O  O85  1  0.25887000  0.78687000  0.60626000  1.0
  O  O86  1  0.30321000  0.87555000  0.56467000  1.0
  O  O87  1  0.54213000  0.87492000  0.49601000  1.0
  O  O88  1  0.30325000  0.45779000  0.10200000  1.0
  O  O89  1  0.54191000  0.45843000  0.17068000  1.0
  O  O90  1  0.30341000  0.68910000  0.62445000  1.0
  O  O91  1  0.54231000  0.62108000  0.62511000  1.0
  O  O92  1  0.30325000  0.64422000  0.04221000  1.0
  O  O93  1  0.54180000  0.71226000  0.04156000  1.0
  O  O94  1  0.30341000  0.93536000  0.81092000  1.0
  O  O95  1  0.54230000  0.00404000  0.87894000  1.0
  O  O96  1  0.30329000  0.39800000  0.85577000  1.0
  O  O97  1  0.54182000  0.32931000  0.78772000  1.0
