# generated using pymatgen
data_ZnH8(CN2)6
_symmetry_space_group_name_H-M   'P 1'
_cell_length_a   7.73899000
_cell_length_b   8.67763000
_cell_length_c   9.11520000
_cell_angle_alpha   95.15240000
_cell_angle_beta   105.18800000
_cell_angle_gamma   101.03000000
_symmetry_Int_Tables_number   1
_chemical_formula_structural   ZnH8(CN2)6
_chemical_formula_sum   'Zn2 H16 C12 N24'
_cell_volume   573.48533990
_cell_formula_units_Z   2
loop_
 _symmetry_equiv_pos_site_id
 _symmetry_equiv_pos_as_xyz
  1  'x, y, z'
loop_
 _atom_site_type_symbol
 _atom_site_label
 _atom_site_symmetry_multiplicity
 _atom_site_fract_x
 _atom_site_fract_y
 _atom_site_fract_z
 _atom_site_occupancy
  Zn  Zn0  1  0.13112000  0.68326000  0.95478000  1.0
  Zn  Zn1  1  0.86887000  0.31673000  0.04522000  1.0
  H  H2  1  0.42485000  0.00570000  0.10537000  1.0
  H  H3  1  0.57514000  0.99429000  0.89463000  1.0
  H  H4  1  0.34516000  0.58136000  0.29369000  1.0
  H  H5  1  0.65485000  0.41864000  0.70630000  1.0
  H  H6  1  0.70200000  0.23076000  0.33007000  1.0
  H  H7  1  0.29801000  0.76924000  0.66993000  1.0
  H  H8  1  0.91680000  0.68297000  0.23146000  1.0
  H  H9  1  0.08320000  0.31703000  0.76854000  1.0
  H  H10  1  0.57265000  0.68821000  0.56410000  1.0
  H  H11  1  0.42735000  0.31179000  0.43589000  1.0
  H  H12  1  0.67800000  0.89522000  0.60434000  1.0
  H  H13  1  0.32200000  0.10478000  0.39566000  1.0
  H  H14  1  0.90721000  0.84786000  0.46395000  1.0
  H  H15  1  0.09279000  0.15214000  0.53606000  1.0
  H  H16  1  0.91854000  0.74718000  0.62761000  1.0
  H  H17  1  0.08146000  0.25282000  0.37240000  1.0
  C  C18  1  0.44404000  0.91776000  0.18200000  1.0
  C  C19  1  0.55595000  0.08224000  0.81800000  1.0
  C  C20  1  0.39954000  0.69953000  0.27356000  1.0
  C  C21  1  0.60046000  0.30046000  0.72644000  1.0
  C  C22  1  0.74685000  0.35857000  0.33728000  1.0
  C  C23  1  0.25316000  0.64143000  0.66272000  1.0
  C  C24  1  0.85603000  0.58497000  0.28196000  1.0
  C  C25  1  0.14397000  0.41503000  0.71804000  1.0
  C  C26  1  0.65047000  0.78616000  0.52339000  1.0
  C  C27  1  0.34953000  0.21384000  0.47661000  1.0
  C  C28  1  0.83367000  0.75354000  0.51222000  1.0
  C  C29  1  0.16632000  0.24645000  0.48778000  1.0
  N  N30  1  0.53542000  0.80724000  0.37598000  1.0
  N  N31  1  0.46458000  0.19276000  0.62402000  1.0
  N  N32  1  0.56637000  0.94708000  0.31915000  1.0
  N  N33  1  0.43363000  0.05292000  0.68085000  1.0
  N  N34  1  0.33857000  0.76616000  0.14913000  1.0
  N  N35  1  0.66143000  0.23384000  0.85087000  1.0
  N  N36  1  0.81181000  0.60525000  0.41403000  1.0
  N  N37  1  0.18820000  0.39475000  0.58597000  1.0
  N  N38  1  0.74188000  0.46217000  0.45164000  1.0
  N  N39  1  0.25812000  0.53782000  0.54837000  1.0
  N  N40  1  0.81621000  0.42936000  0.23030000  1.0
  N  N41  1  0.18379000  0.57064000  0.76970000  1.0
  N  N42  1  0.14876000  0.89798000  0.88040000  1.0
  N  N43  1  0.85124000  0.10202000  0.11960000  1.0
  N  N44  1  0.06030000  0.98541000  0.82090000  1.0
  N  N45  1  0.93970000  0.01459000  0.17910000  1.0
  N  N46  1  0.97837000  0.07388000  0.75943000  1.0
  N  N47  1  0.02163000  0.92612000  0.24057000  1.0
  N  N48  1  0.87116000  0.59265000  0.94431000  1.0
  N  N49  1  0.12884000  0.40735000  0.05569000  1.0
  N  N50  1  0.75061000  0.66543000  0.92964000  1.0
  N  N51  1  0.24938000  0.33458000  0.07036000  1.0
  N  N52  1  0.62817000  0.72818000  0.91516000  1.0
  N  N53  1  0.37183000  0.27182000  0.08485000  1.0
