# generated using pymatgen
data_CuH20C15N5O3
_symmetry_space_group_name_H-M   'P 1'
_cell_length_a   9.00847000
_cell_length_b   9.70928000
_cell_length_c   11.05030000
_cell_angle_alpha   90.45960000
_cell_angle_beta   113.65000000
_cell_angle_gamma   98.03670000
_symmetry_Int_Tables_number   1
_chemical_formula_structural   CuH20C15N5O3
_chemical_formula_sum   'Cu2 H40 C30 N10 O6'
_cell_volume   874.46000154
_cell_formula_units_Z   2
loop_
 _symmetry_equiv_pos_site_id
 _symmetry_equiv_pos_as_xyz
  1  'x, y, z'
loop_
 _atom_site_type_symbol
 _atom_site_label
 _atom_site_symmetry_multiplicity
 _atom_site_fract_x
 _atom_site_fract_y
 _atom_site_fract_z
 _atom_site_occupancy
  Cu  Cu0  1  0.60275000  0.66288000  0.14804000  1.0
  Cu  Cu1  1  0.74231000  0.84724000  0.74613000  1.0
  H  H2  1  0.37603000  0.59179000  0.29070000  1.0
  H  H3  1  0.97287000  0.92600000  0.60533000  1.0
  H  H4  1  0.78391000  0.65977000  0.52023000  1.0
  H  H5  1  0.55951000  0.84671000  0.38214000  1.0
  H  H6  1  0.18769000  0.12423000  0.99438000  1.0
  H  H7  1  0.12438000  0.11710000  0.12442000  1.0
  H  H8  1  0.22149000  0.39831000  0.78453000  1.0
  H  H9  1  0.15461000  0.38655000  0.91271000  1.0
  H  H10  1  0.31927000  0.78937000  0.91976000  1.0
  H  H11  1  0.38774000  0.96647000  0.90615000  1.0
  H  H12  1  0.18490000  0.91428000  0.89281000  1.0
  H  H13  1  0.20240000  0.36021000  0.38393000  1.0
  H  H14  1  0.05419000  0.27311000  0.23279000  1.0
  H  H15  1  0.07974000  0.45797000  0.25938000  1.0
  H  H16  1  0.02342000  0.72729000  0.98244000  1.0
  H  H17  1  0.16867000  0.61248000  0.00796000  1.0
  H  H18  1  0.97254000  0.54801000  0.00319000  1.0
  H  H19  1  0.33333333  0.15392000  0.71190000  1.0
  H  H20  1  0.21222000  0.25319000  0.58654000  1.0
  H  H21  1  0.18803000  0.06854000  0.55840000  1.0
  H  H22  1  0.42475000  0.54638000  0.65868000  1.0
  H  H23  1  0.71274000  0.25120000  0.78439000  1.0
  H  H24  1  0.88937000  0.26875000  0.93486000  1.0
  H  H25  1  0.75273000  0.10706000  0.88658000  1.0
  H  H26  1  0.45471000  0.29781000  0.94000000  1.0
  H  H27  1  0.56975000  0.21307000  0.08129000  1.0
  H  H28  1  0.64038000  0.38951000  0.06068000  1.0
  H  H29  1  0.34769000  0.04335000  0.44916000  1.0
  H  H30  1  0.43921000  0.19770000  0.40441000  1.0
  H  H31  1  0.56329000  0.07748000  0.50174000  1.0
  H  H32  1  0.82090000  0.46480000  0.39921000  1.0
  H  H33  1  0.82519000  0.30678000  0.48109000  1.0
  H  H34  1  0.00987000  0.40403000  0.48725000  1.0
  H  H35  1  0.87318000  0.07189000  0.14272000  1.0
  H  H36  1  0.95586000  0.08438000  0.32021000  1.0
  H  H37  1  0.74119000  0.03182000  0.22644000  1.0
  H  H38  1  0.23958000  0.65942000  0.73109000  1.0
  H  H39  1  0.17161000  0.66054000  0.55558000  1.0
  H  H40  1  0.27861000  0.81489000  0.65677000  1.0
  H  H41  1  0.01440000  0.86830000  0.23470000  1.0
  C  C42  1  0.74605000  0.80191000  0.99475000  1.0
  C  C43  1  0.59610000  0.70888000  0.89784000  1.0
  C  C44  1  0.23435000  0.13859000  0.10289000  1.0
  C  C45  1  0.99864000  0.47846000  0.74438000  1.0
  C  C46  1  0.88332000  0.81122000  0.35655000  1.0
  C  C47  1  0.45858000  0.70611000  0.53563000  1.0
  C  C48  1  0.34343000  0.03150000  0.16174000  1.0
  C  C49  1  0.11023000  0.37372000  0.80424000  1.0
  C  C50  1  0.37072000  0.92220000  0.09113000  1.0
  C  C51  1  0.97409000  0.59106000  0.81282000  1.0
  C  C52  1  0.26836000  0.38259000  0.21790000  1.0
  C  C53  1  0.31158000  0.28770000  0.14661000  1.0
  C  C54  1  0.08099000  0.13385000  0.68521000  1.0
  C  C55  1  0.91032000  0.49455000  0.61008000  1.0
  C  C56  1  0.03548000  0.22500000  0.75784000  1.0
  C  C57  1  0.43020000  0.01131000  0.29548000  1.0
  C  C58  1  0.90521000  0.14684000  0.77990000  1.0
  C  C59  1  0.31224000  0.89672000  0.94502000  1.0
  C  C60  1  0.14423000  0.36736000  0.27604000  1.0
  C  C61  1  0.44018000  0.36366000  0.12033000  1.0
  C  C62  1  0.03805000  0.62157000  0.95903000  1.0
  C  C63  1  0.21049000  0.15346000  0.63263000  1.0
  C  C64  1  0.43212000  0.66100000  0.65932000  1.0
  C  C65  1  0.80930000  0.19522000  0.85026000  1.0
  C  C66  1  0.53171000  0.31352000  0.04695000  1.0
  C  C67  1  0.44641000  0.08685000  0.41925000  1.0
  C  C68  1  0.88991000  0.41324000  0.48789000  1.0
  C  C69  1  0.86366000  0.02565000  0.23005000  1.0
  C  C70  1  0.27012000  0.70103000  0.65088000  1.0
  C  C71  1  0.89101000  0.87290000  0.23116000  1.0
  N  N72  1  0.57203000  0.72695000  0.77459000  1.0
  N  N73  1  0.47169000  0.49630000  0.17220000  1.0
  N  N74  1  0.76648000  0.78891000  0.11781000  1.0
  N  N75  1  0.87474000  0.01557000  0.72468000  1.0
  N  N76  1  0.87899000  0.67243000  0.72609000  1.0
  N  N77  1  0.46585000  0.83934000  0.17577000  1.0
  N  N78  1  0.36629000  0.50556000  0.23007000  1.0
  N  N79  1  0.98251000  0.01001000  0.66830000  1.0
  N  N80  1  0.84025000  0.61030000  0.60469000  1.0
  N  N81  1  0.50257000  0.89739000  0.29829000  1.0
  O  O82  1  0.76508000  0.71123000  0.34214000  1.0
  O  O83  1  0.58750000  0.79545000  0.55217000  1.0
  O  O84  1  0.83567000  0.88289000  0.95126000  1.0
  O  O85  1  0.50694000  0.62807000  0.94189000  1.0
  O  O86  1  0.98900000  0.86283000  0.46652000  1.0
  O  O87  1  0.35333000  0.65707000  0.42466000  1.0
