# generated using pymatgen
data_Cu2H21C21(NO3)3
_symmetry_space_group_name_H-M   'P 1'
_cell_length_a   8.57789000
_cell_length_b   11.84400000
_cell_length_c   13.13760000
_cell_angle_alpha   102.12400000
_cell_angle_beta   91.29580000
_cell_angle_gamma   108.70800000
_symmetry_Int_Tables_number   1
_chemical_formula_structural   Cu2H21C21(NO3)3
_chemical_formula_sum   'Cu4 H42 C42 N6 O18'
_cell_volume   1230.16806282
_cell_formula_units_Z   2
loop_
 _symmetry_equiv_pos_site_id
 _symmetry_equiv_pos_as_xyz
  1  'x, y, z'
loop_
 _atom_site_type_symbol
 _atom_site_label
 _atom_site_symmetry_multiplicity
 _atom_site_fract_x
 _atom_site_fract_y
 _atom_site_fract_z
 _atom_site_occupancy
  Cu  Cu0  1  0.50841000  0.40298000  0.02702000  1.0
  Cu  Cu1  1  0.49158000  0.59703000  0.97298000  1.0
  Cu  Cu2  1  0.00601000  0.40444000  0.43621000  1.0
  Cu  Cu3  1  0.99398000  0.59556000  0.56379000  1.0
  H  H4  1  0.78170000  0.95480000  0.98107000  1.0
  H  H5  1  0.21830000  0.04520000  0.01893000  1.0
  H  H6  1  0.57287000  0.64024000  0.55482000  1.0
  H  H7  1  0.42714000  0.35977000  0.44518000  1.0
  H  H8  1  0.52727000  0.76432000  0.52121000  1.0
  H  H9  1  0.47273000  0.23568000  0.47880000  1.0
  H  H10  1  0.53314000  0.52744000  0.37095000  1.0
  H  H11  1  0.46689000  0.47257000  0.62905000  1.0
  H  H12  1  0.68642000  0.67268000  0.38968000  1.0
  H  H13  1  0.31358000  0.32734000  0.61031000  1.0
  H  H14  1  0.32287000  0.61330000  0.30963000  1.0
  H  H15  1  0.67713000  0.38667000  0.69037000  1.0
  H  H16  1  0.48347000  0.75215000  0.31101000  1.0
  H  H17  1  0.51650000  0.24785000  0.68899000  1.0
  H  H18  1  0.93375000  0.36489000  0.99905000  1.0
  H  H19  1  0.06624000  0.63510000  0.00094000  1.0
  H  H20  1  0.97071000  0.23694000  0.91969000  1.0
  H  H21  1  0.02929000  0.76305000  0.08032000  1.0
  H  H22  1  0.97039000  0.47266000  0.85605000  1.0
  H  H23  1  0.02964000  0.52735000  0.14396000  1.0
  H  H24  1  0.81474000  0.32688000  0.81736000  1.0
  H  H25  1  0.18527000  0.67314000  0.18264000  1.0
  H  H26  1  0.17594000  0.37803000  0.76808000  1.0
  H  H27  1  0.82406000  0.62198000  0.23190000  1.0
  H  H28  1  0.00724000  0.24326000  0.71357000  1.0
  H  H29  1  0.99278000  0.75674000  0.28643000  1.0
  H  H30  1  0.59689000  0.18223000  0.92027000  1.0
  H  H31  1  0.40312000  0.81776000  0.07973000  1.0
  H  H32  1  0.76241000  0.02818000  0.15540000  1.0
  H  H33  1  0.23759000  0.97182000  0.84460000  1.0
  H  H34  1  0.67782000  0.17641000  0.29082000  1.0
  H  H35  1  0.32219000  0.82359000  0.70918000  1.0
  H  H36  1  0.55644000  0.32031000  0.23173000  1.0
  H  H37  1  0.44357000  0.67969000  0.76827000  1.0
  H  H38  1  0.86981000  0.00853000  0.66253000  1.0
  H  H39  1  0.13018000  0.99147000  0.33747000  1.0
  H  H40  1  0.98510000  0.85215000  0.55969000  1.0
  H  H41  1  0.01490000  0.14785000  0.44031000  1.0
  H  H42  1  0.90082000  0.65296000  0.78806000  1.0
  H  H43  1  0.09919000  0.34704000  0.21194000  1.0
  H  H44  1  0.78696000  0.79538000  0.89953000  1.0
  H  H45  1  0.21305000  0.20461000  0.10047000  1.0
  C  C46  1  0.31829000  0.60192000  0.50601000  1.0
  C  C47  1  0.68171000  0.39808000  0.49399000  1.0
  C  C48  1  0.50094000  0.66480000  0.49769000  1.0
  C  C49  1  0.49907000  0.33521000  0.50231000  1.0
  C  C50  1  0.55294000  0.62600000  0.38871000  1.0
  C  C51  1  0.44707000  0.37401000  0.61130000  1.0
  C  C52  1  0.45637000  0.65338000  0.30329000  1.0
  C  C53  1  0.54362000  0.34661000  0.69671000  1.0
  C  C54  1  0.47948000  0.59715000  0.19199000  1.0
  C  C55  1  0.52052000  0.40286000  0.80801000  1.0
  C  C56  1  0.18474000  0.39596000  0.96635000  1.0
  C  C57  1  0.81525000  0.60404000  0.03366000  1.0
  C  C58  1  0.00085000  0.33644000  0.93342000  1.0
  C  C59  1  0.99915000  0.66356000  0.06659000  1.0
  C  C60  1  0.94811000  0.37377000  0.83717000  1.0
  C  C61  1  0.05190000  0.62623000  0.16283000  1.0
  C  C62  1  0.04194000  0.34269000  0.74372000  1.0
  C  C63  1  0.95806000  0.65731000  0.25627000  1.0
  C  C64  1  0.02240000  0.40022000  0.65361000  1.0
  C  C65  1  0.97758000  0.59977000  0.34639000  1.0
  C  C66  1  0.61642000  0.17731000  0.00099000  1.0
  C  C67  1  0.38358000  0.82268000  0.99901000  1.0
  C  C68  1  0.68967000  0.09543000  0.02702000  1.0
  C  C69  1  0.31033000  0.90457000  0.97298000  1.0
  C  C70  1  0.70904000  0.09258000  0.13265000  1.0
  C  C71  1  0.29097000  0.90742000  0.86735000  1.0
  C  C72  1  0.66078000  0.17292000  0.20780000  1.0
  C  C73  1  0.33922000  0.82708000  0.79220000  1.0
  C  C74  1  0.59276000  0.25345000  0.17578000  1.0
  C  C75  1  0.40724000  0.74654000  0.82422000  1.0
  C  C76  1  0.87838000  0.93170000  0.69291000  1.0
  C  C77  1  0.12161000  0.06829000  0.30709000  1.0
  C  C78  1  0.82240000  0.91755000  0.79033000  1.0
  C  C79  1  0.17760000  0.08245000  0.20967000  1.0
  C  C80  1  0.94158000  0.84589000  0.63639000  1.0
  C  C81  1  0.05842000  0.15410000  0.36361000  1.0
  C  C82  1  0.89483000  0.73421000  0.76382000  1.0
  C  C83  1  0.10517000  0.26578000  0.23618000  1.0
  C  C84  1  0.83154000  0.81648000  0.82632000  1.0
  C  C85  1  0.16846000  0.18352000  0.17368000  1.0
  C  C86  1  0.75117000  0.01069000  0.84739000  1.0
  C  C87  1  0.24884000  0.98932000  0.15260000  1.0
  N  N88  1  0.56891000  0.25367000  0.07440000  1.0
  N  N89  1  0.43109000  0.74633000  0.92560000  1.0
  N  N90  1  0.74335000  0.01595000  0.95269000  1.0
  N  N91  1  0.25665000  0.98404000  0.04731000  1.0
  N  N92  1  0.94972000  0.74847000  0.67086000  1.0
  N  N93  1  0.05028000  0.25153000  0.32914000  1.0
  O  O94  1  0.25324000  0.49194000  0.45351000  1.0
  O  O95  1  0.74676000  0.50806000  0.54648000  1.0
  O  O96  1  0.01108000  0.50726000  0.67540000  1.0
  O  O97  1  0.98889000  0.49274000  0.32460000  1.0
  O  O98  1  0.48978000  0.48979000  0.17308000  1.0
  O  O99  1  0.51021000  0.51021000  0.82691000  1.0
  O  O100  1  0.24228000  0.66351000  0.56378000  1.0
  O  O101  1  0.75771000  0.33650000  0.43622000  1.0
  O  O102  1  0.24920000  0.50573000  0.95743000  1.0
  O  O103  1  0.75079000  0.49427000  0.04258000  1.0
  O  O104  1  0.26133000  0.33168000  0.99842000  1.0
  O  O105  1  0.73867000  0.66832000  0.00159000  1.0
  O  O106  1  0.48136000  0.66144000  0.12513000  1.0
  O  O107  1  0.51865000  0.33857000  0.87487000  1.0
  O  O108  1  0.02372000  0.33792000  0.56180000  1.0
  O  O109  1  0.97625000  0.66207000  0.43819000  1.0
  O  O110  1  0.70759000  0.07804000  0.80136000  1.0
  O  O111  1  0.29242000  0.92197000  0.19864000  1.0
