# generated using pymatgen
data_KH16(C3N)4
_symmetry_space_group_name_H-M   'P 1'
_cell_length_a   8.79213000
_cell_length_b   9.56349000
_cell_length_c   15.16180000
_cell_angle_alpha   89.99980000
_cell_angle_beta   89.99960000
_cell_angle_gamma   103.76900000
_symmetry_Int_Tables_number   1
_chemical_formula_structural   KH16(C3N)4
_chemical_formula_sum   'K4 H64 C48 N16'
_cell_volume   1238.22111390
_cell_formula_units_Z   4
loop_
 _symmetry_equiv_pos_site_id
 _symmetry_equiv_pos_as_xyz
  1  'x, y, z'
loop_
 _atom_site_type_symbol
 _atom_site_label
 _atom_site_symmetry_multiplicity
 _atom_site_fract_x
 _atom_site_fract_y
 _atom_site_fract_z
 _atom_site_occupancy
  K  K0  1  0.82894000  0.02408000  0.45194000  1.0
  K  K1  1  0.67106000  0.97591000  0.95194000  1.0
  K  K2  1  0.17105000  0.97592000  0.54806000  1.0
  K  K3  1  0.32894000  0.02409000  0.04807000  1.0
  H  H4  1  0.84585000  0.66187000  0.42868000  1.0
  H  H5  1  0.65415000  0.33814000  0.92869000  1.0
  H  H6  1  0.15415000  0.33812000  0.57132000  1.0
  H  H7  1  0.34584000  0.66186000  0.07132000  1.0
  H  H8  1  0.92766000  0.48740000  0.32789000  1.0
  H  H9  1  0.57236000  0.51261000  0.82789000  1.0
  H  H10  1  0.07235000  0.51260000  0.67212000  1.0
  H  H11  1  0.42766000  0.48740000  0.17212000  1.0
  H  H12  1  0.16301000  0.58021000  0.22801000  1.0
  H  H13  1  0.33704000  0.41980000  0.72800000  1.0
  H  H14  1  0.83700000  0.41980000  0.77200000  1.0
  H  H15  1  0.66300000  0.58021000  0.27201000  1.0
  H  H16  1  0.29224000  0.83717000  0.22998000  1.0
  H  H17  1  0.20782000  0.16285000  0.72997000  1.0
  H  H18  1  0.70775000  0.16283000  0.77002000  1.0
  H  H19  1  0.79222000  0.83717000  0.27003000  1.0
  H  H20  1  0.41318000  0.04354000  0.25104000  1.0
  H  H21  1  0.08684000  0.95648000  0.75103000  1.0
  H  H22  1  0.58682000  0.95647000  0.74896000  1.0
  H  H23  1  0.91317000  0.04354000  0.24897000  1.0
  H  H24  1  0.51008000  0.30492000  0.24724000  1.0
  H  H25  1  0.98992000  0.69509000  0.74723000  1.0
  H  H26  1  0.48991000  0.69509000  0.75276000  1.0
  H  H27  1  0.01008000  0.30492000  0.25276000  1.0
  H  H28  1  0.35739000  0.46309000  0.32810000  1.0
  H  H29  1  0.14260000  0.53693000  0.82810000  1.0
  H  H30  1  0.64260000  0.53691000  0.67190000  1.0
  H  H31  1  0.85740000  0.46308000  0.17190000  1.0
  H  H32  1  0.12699000  0.34055000  0.41727000  1.0
  H  H33  1  0.37301000  0.65945000  0.91728000  1.0
  H  H34  1  0.87300000  0.65945000  0.58273000  1.0
  H  H35  1  0.62700000  0.34055000  0.08273000  1.0
  H  H36  1  0.82964000  0.34205000  0.42319000  1.0
  H  H37  1  0.67037000  0.65795000  0.92318000  1.0
  H  H38  1  0.17035000  0.65794000  0.57681000  1.0
  H  H39  1  0.32963000  0.34205000  0.07682000  1.0
  H  H40  1  0.65340000  0.27376000  0.38493000  1.0
  H  H41  1  0.84660000  0.72624000  0.88493000  1.0
  H  H42  1  0.34658000  0.72623000  0.61507000  1.0
  H  H43  1  0.15340000  0.27376000  0.11507000  1.0
  H  H44  1  0.64368000  0.46711000  0.48883000  1.0
  H  H45  1  0.85633000  0.53288000  0.98882000  1.0
  H  H46  1  0.35631000  0.53288000  0.51117000  1.0
  H  H47  1  0.14366000  0.46711000  0.01118000  1.0
  H  H48  1  0.73505000  0.37428000  0.56664000  1.0
  H  H49  1  0.76495000  0.62571000  0.06664000  1.0
  H  H50  1  0.26494000  0.62571000  0.43335000  1.0
  H  H51  1  0.23505000  0.37429000  0.93336000  1.0
  H  H52  1  0.44118000  0.33523000  0.58367000  1.0
  H  H53  1  0.05882000  0.66477000  0.08366000  1.0
  H  H54  1  0.55880000  0.66477000  0.41633000  1.0
  H  H55  1  0.94117000  0.33522000  0.91634000  1.0
  H  H56  1  0.41794000  0.25546000  0.47807000  1.0
  H  H57  1  0.08206000  0.74455000  0.97807000  1.0
  H  H58  1  0.58204000  0.74453000  0.52193000  1.0
  H  H59  1  0.91794000  0.25544000  0.02193000  1.0
  H  H60  1  0.56385000  0.08337000  0.54599000  1.0
  H  H61  1  0.93614000  0.91663000  0.04598000  1.0
  H  H62  1  0.43614000  0.91663000  0.45401000  1.0
  H  H63  1  0.06386000  0.08337000  0.95401000  1.0
  H  H64  1  0.52575000  0.14536000  0.64145000  1.0
  H  H65  1  0.97423000  0.85463000  0.14145000  1.0
  H  H66  1  0.47424000  0.85464000  0.35854000  1.0
  H  H67  1  0.02576000  0.14536000  0.85854000  1.0
  C  C68  1  0.94463000  0.69876000  0.38347000  1.0
  C  C69  1  0.55538000  0.30124000  0.88347000  1.0
  C  C70  1  0.05537000  0.30123000  0.61653000  1.0
  C  C71  1  0.44463000  0.69876000  0.11654000  1.0
  C  C72  1  0.99091000  0.59988000  0.32848000  1.0
  C  C73  1  0.50911000  0.40012000  0.82847000  1.0
  C  C74  1  0.00911000  0.40012000  0.67152000  1.0
  C  C75  1  0.49090000  0.59988000  0.17154000  1.0
  C  C76  1  0.12032000  0.65256000  0.27211000  1.0
  C  C77  1  0.37971000  0.34745000  0.77209000  1.0
  C  C78  1  0.87969000  0.34743000  0.72790000  1.0
  C  C79  1  0.62032000  0.65257000  0.22791000  1.0
  C  C80  1  0.19333000  0.79719000  0.27384000  1.0
  C  C81  1  0.30670000  0.20282000  0.77382000  1.0
  C  C82  1  0.80669000  0.20282000  0.72616000  1.0
  C  C83  1  0.69331000  0.79719000  0.22618000  1.0
  C  C84  1  0.13704000  0.89353000  0.33025000  1.0
  C  C85  1  0.36298000  0.10648000  0.83023000  1.0
  C  C86  1  0.86296000  0.10645000  0.66975000  1.0
  C  C87  1  0.63704000  0.89354000  0.16977000  1.0
  C  C88  1  0.20609000  0.04648000  0.33157000  1.0
  C  C89  1  0.29391000  0.95354000  0.83156000  1.0
  C  C90  1  0.79391000  0.95351000  0.66844000  1.0
  C  C91  1  0.70609000  0.04647000  0.16844000  1.0
  C  C92  1  0.34657000  0.11023000  0.28480000  1.0
  C  C93  1  0.15343000  0.88977000  0.78479000  1.0
  C  C94  1  0.65342000  0.88978000  0.71521000  1.0
  C  C95  1  0.84658000  0.11024000  0.21521000  1.0
  C  C96  1  0.40220000  0.25797000  0.28291000  1.0
  C  C97  1  0.09781000  0.74204000  0.78291000  1.0
  C  C98  1  0.59780000  0.74204000  0.71709000  1.0
  C  C99  1  0.90219000  0.25798000  0.21709000  1.0
  C  C100  1  0.31954000  0.34615000  0.32861000  1.0
  C  C101  1  0.18045000  0.65385000  0.82861000  1.0
  C  C102  1  0.68045000  0.65386000  0.67139000  1.0
  C  C103  1  0.81955000  0.34615000  0.17138000  1.0
  C  C104  1  0.18933000  0.27624000  0.37746000  1.0
  C  C105  1  0.31067000  0.72376000  0.87746000  1.0
  C  C106  1  0.81066000  0.72377000  0.62254000  1.0
  C  C107  1  0.68933000  0.27624000  0.12254000  1.0
  C  C108  1  0.65516000  0.35915000  0.50971000  1.0
  C  C109  1  0.84484000  0.64084000  0.00971000  1.0
  C  C110  1  0.34483000  0.64084000  0.49028000  1.0
  C  C111  1  0.15515000  0.35916000  0.99029000  1.0
  C  C112  1  0.49324000  0.27167000  0.53708000  1.0
  C  C113  1  0.00677000  0.72833000  0.03708000  1.0
  C  C114  1  0.50675000  0.72832000  0.46292000  1.0
  C  C115  1  0.99323000  0.27166000  0.96292000  1.0
  N  N116  1  0.01049000  0.84031000  0.38561000  1.0
  N  N117  1  0.48953000  0.15968000  0.88561000  1.0
  N  N118  1  0.98951000  0.15970000  0.61439000  1.0
  N  N119  1  0.51049000  0.84031000  0.11440000  1.0
  N  N120  1  0.13200000  0.13341000  0.38127000  1.0
  N  N121  1  0.36800000  0.86659000  0.88127000  1.0
  N  N122  1  0.86799000  0.86659000  0.61873000  1.0
  N  N123  1  0.63200000  0.13341000  0.11874000  1.0
  N  N124  1  0.72110000  0.28282000  0.44062000  1.0
  N  N125  1  0.77890000  0.71718000  0.94062000  1.0
  N  N126  1  0.27889000  0.71717000  0.55938000  1.0
  N  N127  1  0.22110000  0.28282000  0.05938000  1.0
  N  N128  1  0.48685000  0.13092000  0.57782000  1.0
  N  N129  1  0.01314000  0.86908000  0.07782000  1.0
  N  N130  1  0.51314000  0.86908000  0.42218000  1.0
  N  N131  1  0.98686000  0.13091000  0.92217000  1.0
