# generated using pymatgen
data_ZnH7C9SN2O3F
_symmetry_space_group_name_H-M   'P 1'
_cell_length_a   6.10213000
_cell_length_b   8.08837000
_cell_length_c   23.22750253
_cell_angle_alpha   87.16568466
_cell_angle_beta   82.43782851
_cell_angle_gamma   67.86840000
_symmetry_Int_Tables_number   1
_chemical_formula_structural   ZnH7C9SN2O3F
_chemical_formula_sum   'Zn4 H28 C36 S4 N8 O12 F4'
_cell_volume   1052.71969525
_cell_formula_units_Z   4
loop_
 _symmetry_equiv_pos_site_id
 _symmetry_equiv_pos_as_xyz
  1  'x, y, z'
loop_
 _atom_site_type_symbol
 _atom_site_label
 _atom_site_symmetry_multiplicity
 _atom_site_fract_x
 _atom_site_fract_y
 _atom_site_fract_z
 _atom_site_occupancy
  Zn  Zn0  1  0.76502000  0.37371000  0.75098000  1.0
  Zn  Zn1  1  0.88731000  0.62679000  0.24901000  1.0
  Zn  Zn2  1  0.26621000  0.87384000  0.74923000  1.0
  Zn  Zn3  1  0.88829000  0.12637000  0.25066000  1.0
  H  H4  1  0.14181000  0.27628000  0.15338000  1.0
  H  H5  1  0.57249000  0.72423000  0.84641000  1.0
  H  H6  1  0.04554000  0.77408000  0.34698000  1.0
  H  H7  1  0.17023000  0.22491000  0.65323000  1.0
  H  H8  1  0.17408000  0.37894000  0.93181000  1.0
  H  H9  1  0.48287000  0.62205000  0.06811000  1.0
  H  H10  1  0.85653000  0.87881000  0.56850000  1.0
  H  H11  1  0.30593000  0.12010000  0.43185000  1.0
  H  H12  1  0.30343000  0.41420000  0.82759000  1.0
  H  H13  1  0.54208000  0.58748000  0.17236000  1.0
  H  H14  1  0.88189000  0.91447000  0.67267000  1.0
  H  H15  1  0.46940000  0.08520000  0.32754000  1.0
  H  H16  1  0.01619000  0.20735000  0.85264000  1.0
  H  H17  1  0.07489000  0.79273000  0.14739000  1.0
  H  H18  1  0.61977000  0.70769000  0.64741000  1.0
  H  H19  1  0.97580000  0.29216000  0.35231000  1.0
  H  H20  1  0.91759000  0.15738000  0.95886000  1.0
  H  H21  1  0.03353000  0.84237000  0.04115000  1.0
  H  H22  1  0.62703000  0.65751000  0.54123000  1.0
  H  H23  1  0.82819000  0.34190000  0.45857000  1.0
  H  H24  1  0.19251000  0.40749000  0.73750000  1.0
  H  H25  1  0.33511000  0.59272000  0.26249000  1.0
  H  H26  1  0.68018000  0.90786000  0.76250000  1.0
  H  H27  1  0.34946000  0.09233000  0.23756000  1.0
  H  H28  1  0.99228000  0.59204000  0.76595000  1.0
  H  H29  1  0.34779000  0.40821000  0.23399000  1.0
  H  H30  1  0.50839000  0.09265000  0.73409000  1.0
  H  H31  1  0.33324000  0.90777000  0.26606000  1.0
  C  C32  1  0.64653000  0.18281000  0.16173000  1.0
  C  C33  1  0.99217000  0.81730000  0.83829000  1.0
  C  C34  1  0.55844000  0.68235000  0.33844000  1.0
  C  C35  1  0.58191000  0.31751000  0.66158000  1.0
  C  C36  1  0.51284000  0.22085000  0.11056000  1.0
  C  C37  1  0.84493000  0.77934000  0.88942000  1.0
  C  C38  1  0.37365000  0.72008000  0.38964000  1.0
  C  C39  1  0.48653000  0.27927000  0.61039000  1.0
  C  C40  1  0.26929000  0.26169000  0.11468000  1.0
  C  C41  1  0.64630000  0.73866000  0.88518000  1.0
  C  C42  1  0.13437000  0.76024000  0.38562000  1.0
  C  C43  1  0.28361000  0.23871000  0.61451000  1.0
  C  C44  1  0.47320000  0.25130000  0.01679000  1.0
  C  C45  1  0.74118000  0.74866000  0.98315000  1.0
  C  C46  1  0.24045000  0.75110000  0.48344000  1.0
  C  C47  1  0.47785000  0.24804000  0.51663000  1.0
  C  C48  1  0.53705000  0.26606000  0.95448000  1.0
  C  C49  1  0.75684000  0.73407000  0.04547000  1.0
  C  C50  1  0.24219000  0.76616000  0.54572000  1.0
  C  C51  1  0.55638000  0.23308000  0.45432000  1.0
  C  C52  1  0.36365000  0.33622000  0.91631000  1.0
  C  C53  1  0.61447000  0.66453000  0.08362000  1.0
  C  C54  1  0.03063000  0.83629000  0.58393000  1.0
  C  C55  1  0.45259000  0.16297000  0.41625000  1.0
  C  C56  1  0.43397000  0.35848000  0.85813000  1.0
  C  C57  1  0.64818000  0.64268000  0.14184000  1.0
  C  C58  1  0.04285000  0.85871000  0.64209000  1.0
  C  C59  1  0.54446000  0.14093000  0.35803000  1.0
  C  C60  1  0.83242000  0.24431000  0.87250000  1.0
  C  C61  1  0.94782000  0.75595000  0.12753000  1.0
  C  C62  1  0.45569000  0.74465000  0.62763000  1.0
  C  C63  1  0.82909000  0.25512000  0.37221000  1.0
  C  C64  1  0.77720000  0.21697000  0.93118000  1.0
  C  C65  1  0.92461000  0.78303000  0.06883000  1.0
  C  C66  1  0.45907000  0.71729000  0.56897000  1.0
  C  C67  1  0.74727000  0.28225000  0.43092000  1.0
  S  S68  1  0.18002000  0.28975000  0.04750000  1.0
  S  S69  1  0.51729000  0.71050000  0.95230000  1.0
  S  S70  1  0.97808000  0.78846000  0.45285000  1.0
  S  S71  1  0.22249000  0.21039000  0.54733000  1.0
  N  N72  1  0.62561000  0.21529000  0.05517000  1.0
  N  N73  1  0.89646000  0.78454000  0.94484000  1.0
  N  N74  1  0.43112000  0.71525000  0.44500000  1.0
  N  N75  1  0.59435000  0.28405000  0.55501000  1.0
  N  N76  1  0.66451000  0.31482000  0.83647000  1.0
  N  N77  1  0.81353000  0.68602000  0.16355000  1.0
  N  N78  1  0.25175000  0.81507000  0.66369000  1.0
  N  N79  1  0.73107000  0.18479000  0.33627000  1.0
  O  O80  1  0.87050000  0.13125000  0.15560000  1.0
  O  O81  1  0.15871000  0.86858000  0.84444000  1.0
  O  O82  1  0.77627000  0.63132000  0.34446000  1.0
  O  O83  1  0.75465000  0.36873000  0.65555000  1.0
  O  O84  1  0.52551000  0.20380000  0.21290000  1.0
  O  O85  1  0.94343000  0.79650000  0.78709000  1.0
  O  O86  1  0.48845000  0.70307000  0.28728000  1.0
  O  O87  1  0.48120000  0.29705000  0.71275000  1.0
  O  O88  1  0.03006000  0.46314000  0.75897000  1.0
  O  O89  1  0.24976000  0.53706000  0.24103000  1.0
  O  O90  1  0.53837000  0.96403000  0.74134000  1.0
  O  O91  1  0.24238000  0.03648000  0.25884000  1.0
  F  F92  1  0.51659000  0.62566000  0.76195000  1.0
  F  F93  1  0.90208000  0.37486000  0.23777000  1.0
  F  F94  1  0.02750000  0.12529000  0.73830000  1.0
  F  F95  1  0.88931000  0.87500000  0.26172000  1.0
