# generated using pymatgen
data_CuH12(C3N2)4
_symmetry_space_group_name_H-M   'P 1'
_cell_length_a   7.86570000
_cell_length_b   9.07067000
_cell_length_c   10.85000000
_cell_angle_alpha   113.83900000
_cell_angle_beta   102.92600000
_cell_angle_gamma   99.52320000
_symmetry_Int_Tables_number   1
_chemical_formula_structural   CuH12(C3N2)4
_chemical_formula_sum   'Cu2 H24 C24 N16'
_cell_volume   661.09815423
_cell_formula_units_Z   2
loop_
 _symmetry_equiv_pos_site_id
 _symmetry_equiv_pos_as_xyz
  1  'x, y, z'
loop_
 _atom_site_type_symbol
 _atom_site_label
 _atom_site_symmetry_multiplicity
 _atom_site_fract_x
 _atom_site_fract_y
 _atom_site_fract_z
 _atom_site_occupancy
  Cu  Cu0  1  0.71286000  0.99425000  0.09108000  1.0
  Cu  Cu1  1  0.28715000  0.00575000  0.90893000  1.0
  H  H2  1  0.03090000  0.30236000  0.30126000  1.0
  H  H3  1  0.96911000  0.69765000  0.69874000  1.0
  H  H4  1  0.17978000  0.45308000  0.56634000  1.0
  H  H5  1  0.82022000  0.54693000  0.43366000  1.0
  H  H6  1  0.79343000  0.07910000  0.59256000  1.0
  H  H7  1  0.20658000  0.92091000  0.40745000  1.0
  H  H8  1  0.60092000  0.84047000  0.46984000  1.0
  H  H9  1  0.39908000  0.15953000  0.53016000  1.0
  H  H10  1  0.26796000  0.47335000  0.04463000  1.0
  H  H11  1  0.73205000  0.52665000  0.95537000  1.0
  H  H12  1  0.40991000  0.66541000  0.95582000  1.0
  H  H13  1  0.59010000  0.33458000  0.04418000  1.0
  H  H14  1  0.09565000  0.50895000  0.79899000  1.0
  H  H15  1  0.90436000  0.49106000  0.20100000  1.0
  H  H16  1  0.20493000  0.35226000  0.79477000  1.0
  H  H17  1  0.79506000  0.64775000  0.20524000  1.0
  H  H18  1  0.98525000  0.32741000  0.81087000  1.0
  H  H19  1  0.01474000  0.67262000  0.18914000  1.0
  H  H20  1  0.32617000  0.60226000  0.42184000  1.0
  H  H21  1  0.67382000  0.39774000  0.57816000  1.0
  H  H22  1  0.45557000  0.46854000  0.34953000  1.0
  H  H23  1  0.54443000  0.53145000  0.65047000  1.0
  H  H24  1  0.23071000  0.43051000  0.24492000  1.0
  H  H25  1  0.76929000  0.56948000  0.75507000  1.0
  C  C26  1  0.98467000  0.25774000  0.37070000  1.0
  C  C27  1  0.01533000  0.74226000  0.62931000  1.0
  C  C28  1  0.06472000  0.34030000  0.51742000  1.0
  C  C29  1  0.93529000  0.65971000  0.48259000  1.0
  C  C30  1  0.99427000  0.28034000  0.60152000  1.0
  C  C31  1  0.00573000  0.71966000  0.39848000  1.0
  C  C32  1  0.84949000  0.13216000  0.53114000  1.0
  C  C33  1  0.15052000  0.86785000  0.46886000  1.0
  C  C34  1  0.77719000  0.05383000  0.38273000  1.0
  C  C35  1  0.22281000  0.94617000  0.61728000  1.0
  C  C36  1  0.62973000  0.89496000  0.29762000  1.0
  C  C37  1  0.37027000  0.10504000  0.70238000  1.0
  C  C38  1  0.55546000  0.79827000  0.35537000  1.0
  C  C39  1  0.44454000  0.20173000  0.64462000  1.0
  C  C40  1  0.42506000  0.64249000  0.26501000  1.0
  C  C41  1  0.57494000  0.35752000  0.73499000  1.0
  C  C42  1  0.36919000  0.59371000  0.11886000  1.0
  C  C43  1  0.63081000  0.40629000  0.88113000  1.0
  C  C44  1  0.44726000  0.69760000  0.06839000  1.0
  C  C45  1  0.55273000  0.30240000  0.93161000  1.0
  C  C46  1  0.07226000  0.37258000  0.76012000  1.0
  C  C47  1  0.92774000  0.62743000  0.23988000  1.0
  C  C48  1  0.35386000  0.53018000  0.32328000  1.0
  C  C49  1  0.64614000  0.46982000  0.67672000  1.0
  N  N50  1  0.84251000  0.11944000  0.30482000  1.0
  N  N51  1  0.15751000  0.88056000  0.69519000  1.0
  N  N52  1  0.57645000  0.84340000  0.15530000  1.0
  N  N53  1  0.42355000  0.15660000  0.84469000  1.0
  N  N54  1  0.84609000  0.17883000  0.06505000  1.0
  N  N55  1  0.15392000  0.82117000  0.93496000  1.0
  N  N56  1  0.95111000  0.16471000  0.99879000  1.0
  N  N57  1  0.04890000  0.83527000  0.00119000  1.0
  N  N58  1  0.05589000  0.16137000  0.93648000  1.0
  N  N59  1  0.94408000  0.83860000  0.06349000  1.0
  N  N60  1  0.56334000  0.85359000  0.88723000  1.0
  N  N61  1  0.43666000  0.14642000  0.11277000  1.0
  N  N62  1  0.61051000  0.86366000  0.79201000  1.0
  N  N63  1  0.38948000  0.13634000  0.20799000  1.0
  N  N64  1  0.64908000  0.86789000  0.69501000  1.0
  N  N65  1  0.35090000  0.13209000  0.30498000  1.0
