# generated using pymatgen
data_Zr6H50C61O34
_symmetry_space_group_name_H-M   'P 1'
_cell_length_a   14.76264434
_cell_length_b   14.77220000
_cell_length_c   14.77870000
_cell_angle_alpha   119.94180000
_cell_angle_beta   119.90626906
_cell_angle_gamma   89.90196010
_symmetry_Int_Tables_number   1
_chemical_formula_structural   Zr6H50C61O34
_chemical_formula_sum   'Zr6 H50 C61 O34'
_cell_volume   2286.07991818
_cell_formula_units_Z   1
loop_
 _symmetry_equiv_pos_site_id
 _symmetry_equiv_pos_as_xyz
  1  'x, y, z'
loop_
 _atom_site_type_symbol
 _atom_site_label
 _atom_site_symmetry_multiplicity
 _atom_site_fract_x
 _atom_site_fract_y
 _atom_site_fract_z
 _atom_site_occupancy
  Zr  Zr0  1  0.61352000  0.11624000  0.49287000  1.0
  Zr  Zr1  1  0.37999000  0.88255000  0.50347000  1.0
  Zr  Zr2  1  0.61791000  0.12042000  0.73668000  1.0
  Zr  Zr3  1  0.37533000  0.87765000  0.25934000  1.0
  Zr  Zr4  1  0.37701000  0.11870000  0.49780000  1.0
  Zr  Zr5  1  0.61691000  0.88001000  0.49799000  1.0
  H  H6  1  0.59011000  0.28126000  0.68273000  1.0
  H  H7  1  0.21435000  0.90557000  0.31368000  1.0
  H  H8  1  0.59566000  0.90944000  0.69037000  1.0
  H  H9  1  0.58739000  0.90112000  0.30616000  1.0
  H  H10  1  0.41784000  0.45168000  0.58591000  1.0
  H  H11  1  0.57467000  0.54396000  0.40440000  1.0
  H  H12  1  0.95051000  0.92031000  0.58906000  1.0
  H  H13  1  0.05367000  0.09249000  0.42718000  1.0
  H  H14  1  0.09389000  0.86512000  0.95060000  1.0
  H  H15  1  0.91492000  0.14769000  0.04483000  1.0
  H  H16  1  0.34866000  0.58200000  0.95124000  1.0
  H  H17  1  0.63076000  0.40242000  0.04460000  1.0
  H  H18  1  0.91654000  0.39994000  0.05072000  1.0
  H  H19  1  0.97323000  0.36989000  0.70616000  1.0
  H  H20  1  0.88685000  0.45442000  0.70793000  1.0
  H  H21  1  0.05614000  0.62543000  0.88575000  1.0
  H  H22  1  0.14267000  0.54118000  0.88355000  1.0
  H  H23  1  0.62682000  0.14025000  0.22759000  1.0
  H  H24  1  0.35925000  0.86290000  0.76711000  1.0
  H  H25  1  0.46286000  0.73559000  0.69348000  1.0
  H  H26  1  0.32691000  0.64701000  0.56175000  1.0
  H  H27  1  0.40138000  0.62433000  0.68332000  1.0
  H  H28  1  0.60383000  0.37789000  0.31963000  1.0
  H  H29  1  0.66958000  0.35077000  0.43838000  1.0
  H  H30  1  0.53628000  0.26335000  0.30041000  1.0
  H  H31  1  0.13590000  0.82091000  0.55054000  1.0
  H  H32  1  0.23205000  0.95207000  0.68834000  1.0
  H  H33  1  0.11839000  0.89278000  0.67683000  1.0
  H  H34  1  0.77346000  0.05536000  0.31797000  1.0
  H  H35  1  0.85813000  0.18609000  0.46212000  1.0
  H  H36  1  0.89221000  0.12910000  0.34904000  1.0
  H  H37  1  0.97666000  0.77604000  0.73862000  1.0
  H  H38  1  0.83646000  0.77108000  0.68039000  1.0
  H  H39  1  0.91752000  0.85499000  0.67793000  1.0
  H  H40  1  0.03606000  0.24055000  0.25661000  1.0
  H  H41  1  0.08536000  0.15790000  0.31506000  1.0
  H  H42  1  0.17465000  0.23837000  0.31736000  1.0
  H  H43  1  0.25558000  0.46097000  0.73921000  1.0
  H  H44  1  0.33639000  0.40810000  0.67909000  1.0
  H  H45  1  0.25571000  0.32179000  0.67964000  1.0
  H  H46  1  0.71803000  0.51748000  0.25642000  1.0
  H  H47  1  0.72767000  0.65777000  0.31236000  1.0
  H  H48  1  0.64230000  0.58337000  0.31969000  1.0
  H  H49  1  0.71672000  0.23918000  0.20350000  1.0
  H  H50  1  0.72756000  0.16138000  0.07227000  1.0
  H  H51  1  0.63819000  0.23998000  0.06492000  1.0
  H  H52  1  0.26650000  0.76665000  0.79113000  1.0
  H  H53  1  0.34518000  0.76388000  0.92831000  1.0
  H  H54  1  0.25787000  0.84469000  0.92412000  1.0
  H  H55  1  0.22955000  0.54897000  0.29950000  1.0
  C  C56  1  0.49281000  0.29791000  0.48630000  1.0
  C  C57  1  0.19963000  0.00504000  0.51209000  1.0
  C  C58  1  0.49782000  0.69631000  0.50131000  1.0
  C  C59  1  0.80130000  0.00228000  0.49760000  1.0
  C  C60  1  0.80533000  0.29556000  0.79681000  1.0
  C  C61  1  0.48625000  0.99493000  0.18636000  1.0
  C  C62  1  0.19995000  0.68981000  0.19953000  1.0
  C  C63  1  0.50004000  0.00878000  0.80879000  1.0
  C  C64  1  0.49075000  0.30043000  0.79907000  1.0
  C  C65  1  0.80783000  0.00311000  0.79925000  1.0
  C  C66  1  0.49310000  0.68838000  0.19669000  1.0
  C  C67  1  0.19527000  0.00427000  0.19622000  1.0
  C  C68  1  0.49663000  0.59588000  0.50253000  1.0
  C  C69  1  0.49516000  0.39929000  0.48689000  1.0
  C  C70  1  0.45212000  0.57296000  0.55717000  1.0
  C  C71  1  0.54189000  0.42358000  0.43488000  1.0
  C  C72  1  0.45193000  0.47327000  0.54590000  1.0
  C  C73  1  0.54051000  0.52226000  0.44425000  1.0
  C  C74  1  0.09992000  0.00548000  0.51484000  1.0
  C  C75  1  0.90373000  0.00632000  0.50046000  1.0
  C  C76  1  0.07333000  0.95572000  0.56289000  1.0
  C  C77  1  0.93086000  0.05711000  0.45348000  1.0
  C  C78  1  0.97459000  0.95789000  0.55353000  1.0
  C  C79  1  0.02962000  0.05509000  0.46293000  1.0
  C  C80  1  0.91026000  0.00178000  0.89769000  1.0
  C  C81  1  0.09756000  0.01004000  0.09773000  1.0
  C  C82  1  0.96023000  0.91943000  0.86688000  1.0
  C  C83  1  0.04865000  0.09342000  0.12854000  1.0
  C  C84  1  0.05310000  0.92705000  0.96955000  1.0
  C  C85  1  0.95573000  0.08577000  0.02585000  1.0
  C  C86  1  0.48524000  0.39835000  0.89770000  1.0
  C  C87  1  0.49426000  0.58603000  0.09806000  1.0
  C  C88  1  0.40202000  0.44749000  0.86712000  1.0
  C  C89  1  0.57644000  0.53587000  0.12859000  1.0
  C  C90  1  0.41014000  0.54067000  0.96994000  1.0
  C  C91  1  0.56852000  0.44287000  0.02571000  1.0
  C  C92  1  0.91001000  0.39121000  0.89792000  1.0
  C  C93  1  0.10514000  0.58464000  0.09956000  1.0
  C  C94  1  0.96403000  0.44249000  0.87243000  1.0
  C  C95  1  0.05254000  0.53108000  0.12679000  1.0
  C  C96  1  0.05807000  0.53657000  0.97064000  1.0
  C  C97  1  0.95728000  0.43766000  0.02753000  1.0
  C  C98  1  0.96080000  0.44230000  0.76824000  1.0
  C  C99  1  0.06694000  0.54936000  0.87944000  1.0
  C  C100  1  0.49996000  0.00994000  0.91039000  1.0
  C  C101  1  0.48516000  0.99430000  0.08442000  1.0
  C  C102  1  0.57837000  0.09154000  0.04240000  1.0
  C  C103  1  0.40658000  0.91282000  0.95235000  1.0
  C  C104  1  0.56795000  0.07993000  0.12516000  1.0
  C  C105  1  0.41749000  0.92391000  0.86952000  1.0
  C  C106  1  0.40869000  0.64921000  0.62794000  1.0
  C  C107  1  0.59020000  0.34995000  0.36948000  1.0
  C  C108  1  0.14400000  0.90287000  0.62334000  1.0
  C  C109  1  0.85994000  0.10956000  0.39225000  1.0
  C  C110  1  0.92083000  0.82531000  0.73402000  1.0
  C  C111  1  0.08818000  0.18774000  0.26140000  1.0
  C  C112  1  0.30728000  0.40759000  0.73428000  1.0
  C  C113  1  0.67104000  0.57537000  0.26125000  1.0
  C  C114  1  0.67026000  0.18833000  0.09909000  1.0
  C  C115  1  0.31394000  0.81666000  0.89561000  1.0
  C  C116  1  0.08794000  0.56909000  0.25872000  1.0
  O  O117  1  0.56935000  0.25698000  0.48660000  1.0
  O  O118  1  0.23989000  0.92805000  0.51080000  1.0
  O  O119  1  0.42068000  0.73651000  0.50009000  1.0
  O  O120  1  0.75816000  0.07683000  0.49470000  1.0
  O  O121  1  0.76337000  0.25902000  0.83469000  1.0
  O  O122  1  0.41171000  0.91832000  0.15265000  1.0
  O  O123  1  0.23507000  0.73075000  0.15997000  1.0
  O  O124  1  0.57654000  0.08357000  0.84278000  1.0
  O  O125  1  0.41682000  0.26092000  0.68201000  1.0
  O  O126  1  0.76536000  0.92654000  0.68203000  1.0
  O  O127  1  0.57034000  0.73148000  0.31384000  1.0
  O  O128  1  0.23544000  0.07872000  0.31334000  1.0
  O  O129  1  0.76755000  0.07913000  0.83790000  1.0
  O  O130  1  0.41618000  0.72790000  0.15815000  1.0
  O  O131  1  0.23189000  0.92450000  0.15772000  1.0
  O  O132  1  0.56982000  0.26310000  0.83745000  1.0
  O  O133  1  0.76472000  0.25925000  0.68133000  1.0
  O  O134  1  0.42356000  0.93104000  0.69294000  1.0
  O  O135  1  0.23755000  0.73183000  0.31576000  1.0
  O  O136  1  0.56339000  0.07223000  0.30205000  1.0
  O  O137  1  0.76335000  0.92516000  0.49845000  1.0
  O  O138  1  0.41690000  0.26092000  0.48934000  1.0
  O  O139  1  0.23619000  0.07981000  0.50712000  1.0
  O  O140  1  0.57432000  0.73414000  0.49961000  1.0
  O  O141  1  0.56145000  0.92910000  0.36058000  1.0
  O  O142  1  0.56699000  0.93447000  0.63512000  1.0
  O  O143  1  0.29458000  0.93140000  0.36567000  1.0
  O  O144  1  0.56393000  0.20106000  0.62997000  1.0
  O  O145  1  0.44866000  0.05060000  0.59896000  1.0
  O  O146  1  0.44499000  0.04687000  0.39654000  1.0
  O  O147  1  0.44738000  0.85025000  0.40089000  1.0
  O  O148  1  0.64538000  0.04879000  0.59495000  1.0
  O  O149  1  0.18345000  0.55669000  0.33097000  1.0
  O  O150  1  0.02906000  0.59822000  0.29581000  1.0
