# generated using pymatgen
data_CoH21C19SN3O5
_symmetry_space_group_name_H-M   'P 1'
_cell_length_a   13.56780000
_cell_length_b   14.98670000
_cell_length_c   14.98570000
_cell_angle_alpha   82.59410000
_cell_angle_beta   78.52480000
_cell_angle_gamma   78.50560000
_symmetry_Int_Tables_number   1
_chemical_formula_structural   CoH21C19SN3O5
_chemical_formula_sum   'Co4 H84 C76 S4 N12 O20'
_cell_volume   2913.67409294
_cell_formula_units_Z   4
loop_
 _symmetry_equiv_pos_site_id
 _symmetry_equiv_pos_as_xyz
  1  'x, y, z'
loop_
 _atom_site_type_symbol
 _atom_site_label
 _atom_site_symmetry_multiplicity
 _atom_site_fract_x
 _atom_site_fract_y
 _atom_site_fract_z
 _atom_site_occupancy
  Co  Co0  1  0.50403000  0.99735000  0.49775000  1.0
  Co  Co1  1  0.99588000  0.50226000  0.00259000  1.0
  Co  Co2  1  0.74994000  0.81915000  0.18085000  1.0
  Co  Co3  1  0.25006000  0.18104000  0.81888000  1.0
  H  H4  1  0.83862000  0.62209000  0.20681000  1.0
  H  H5  1  0.34094000  0.20413000  0.62268000  1.0
  H  H6  1  0.15915000  0.37725000  0.79600000  1.0
  H  H7  1  0.66130000  0.79323000  0.37790000  1.0
  H  H8  1  0.77701000  0.47317000  0.24663000  1.0
  H  H9  1  0.28001000  0.24371000  0.47308000  1.0
  H  H10  1  0.22005000  0.52686000  0.75646000  1.0
  H  H11  1  0.72297000  0.75343000  0.52682000  1.0
  H  H12  1  0.30829000  0.98557000  0.63930000  1.0
  H  H13  1  0.79871000  0.64580000  0.98811000  1.0
  H  H14  1  0.70123000  0.01180000  0.35433000  1.0
  H  H15  1  0.19163000  0.36073000  0.01451000  1.0
  H  H16  1  0.49960000  0.30092000  0.27639000  1.0
  H  H17  1  0.99416000  0.28010000  0.30330000  1.0
  H  H18  1  0.50576000  0.69665000  0.71997000  1.0
  H  H19  1  0.00019000  0.72371000  0.69912000  1.0
  H  H20  1  0.35957000  0.03493000  0.35526000  1.0
  H  H21  1  0.85202000  0.36207000  0.04006000  1.0
  H  H22  1  0.64782000  0.95984000  0.63805000  1.0
  H  H23  1  0.14029000  0.64476000  0.96499000  1.0
  H  H24  1  0.53217000  0.15708000  0.58465000  1.0
  H  H25  1  0.03276000  0.58759000  0.16094000  1.0
  H  H26  1  0.46712000  0.83898000  0.41247000  1.0
  H  H27  1  0.96820000  0.41527000  0.84270000  1.0
  H  H28  1  0.48000000  0.14116000  0.32493000  1.0
  H  H29  1  0.96863000  0.33201000  0.14546000  1.0
  H  H30  1  0.53126000  0.85449000  0.66804000  1.0
  H  H31  1  0.01968000  0.67516000  0.85891000  1.0
  H  H32  1  0.47921000  0.47074000  0.41118000  1.0
  H  H33  1  0.98170000  0.41005000  0.47336000  1.0
  H  H34  1  0.51834000  0.52659000  0.59000000  1.0
  H  H35  1  0.02082000  0.58890000  0.52917000  1.0
  H  H36  1  0.60893000  0.43230000  0.41719000  1.0
  H  H37  1  0.11102000  0.41699000  0.43363000  1.0
  H  H38  1  0.38899000  0.56626000  0.58307000  1.0
  H  H39  1  0.89112000  0.58286000  0.56763000  1.0
  H  H40  1  0.12138000  0.00822000  0.64693000  1.0
  H  H41  1  0.61206000  0.65191000  0.00700000  1.0
  H  H42  1  0.88785000  0.99301000  0.34835000  1.0
  H  H43  1  0.37853000  0.35309000  0.99191000  1.0
  H  H44  1  0.46933000  0.62564000  0.25998000  1.0
  H  H45  1  0.97169000  0.26034000  0.62464000  1.0
  H  H46  1  0.52840000  0.37524000  0.73950000  1.0
  H  H47  1  0.03061000  0.74008000  0.37433000  1.0
  H  H48  1  0.55473000  0.31999000  0.54723000  1.0
  H  H49  1  0.06002000  0.54704000  0.32236000  1.0
  H  H50  1  0.43992000  0.67754000  0.45303000  1.0
  H  H51  1  0.94569000  0.45274000  0.67979000  1.0
  H  H52  1  0.54503000  0.76849000  0.22161000  1.0
  H  H53  1  0.04673000  0.22203000  0.76823000  1.0
  H  H54  1  0.45340000  0.23166000  0.77777000  1.0
  H  H55  1  0.95485000  0.77846000  0.23150000  1.0
  H  H56  1  0.51006000  0.45313000  0.24669000  1.0
  H  H57  1  0.01289000  0.24635000  0.45233000  1.0
  H  H58  1  0.48720000  0.54753000  0.75369000  1.0
  H  H59  1  0.98990000  0.75338000  0.54686000  1.0
  H  H60  1  0.63575000  0.39307000  0.24962000  1.0
  H  H61  1  0.13828000  0.25030000  0.39206000  1.0
  H  H62  1  0.36180000  0.60784000  0.74977000  1.0
  H  H63  1  0.86423000  0.75041000  0.60690000  1.0
  H  H64  1  0.17382000  0.06129000  0.35212000  1.0
  H  H65  1  0.66707000  0.35738000  0.06280000  1.0
  H  H66  1  0.83272000  0.93719000  0.64288000  1.0
  H  H67  1  0.32604000  0.64790000  0.93866000  1.0
  H  H68  1  0.99623000  0.09356000  0.44184000  1.0
  H  H69  1  0.48918000  0.44552000  0.09276000  1.0
  H  H70  1  0.01066000  0.90738000  0.55485000  1.0
  H  H71  1  0.50364000  0.55811000  0.90636000  1.0
  H  H72  1  0.97384000  0.07639000  0.56321000  1.0
  H  H73  1  0.46540000  0.56685000  0.07581000  1.0
  H  H74  1  0.03443000  0.92404000  0.43352000  1.0
  H  H75  1  0.52606000  0.43676000  0.92381000  1.0
  H  H76  1  0.63025000  0.91422000  0.97946000  1.0
  H  H77  1  0.13390000  0.97867000  0.91899000  1.0
  H  H78  1  0.36694000  0.08079000  0.02086000  1.0
  H  H79  1  0.86953000  0.02056000  0.08578000  1.0
  H  H80  1  0.65845000  0.97573000  0.06433000  1.0
  H  H81  1  0.16612000  0.06375000  0.97762000  1.0
  H  H82  1  0.33564000  0.02226000  0.93523000  1.0
  H  H83  1  0.84141000  0.93567000  0.02425000  1.0
  H  H84  1  0.55376000  0.91631000  0.09223000  1.0
  H  H85  1  0.05616000  0.09061000  0.92524000  1.0
  H  H86  1  0.44474000  0.07579000  0.90889000  1.0
  H  H87  1  0.94609000  0.90780000  0.08371000  1.0
  C  C88  1  0.75747000  0.61919000  0.22162000  1.0
  C  C89  1  0.25984000  0.21968000  0.61930000  1.0
  C  C90  1  0.24025000  0.38062000  0.78041000  1.0
  C  C91  1  0.74244000  0.77843000  0.38080000  1.0
  C  C92  1  0.72194000  0.53688000  0.24372000  1.0
  C  C93  1  0.22476000  0.24156000  0.53675000  1.0
  C  C94  1  0.27530000  0.46318000  0.75854000  1.0
  C  C95  1  0.77801000  0.75634000  0.46310000  1.0
  C  C96  1  0.52938000  0.32583000  0.40778000  1.0
  C  C97  1  0.02928000  0.40941000  0.32810000  1.0
  C  C98  1  0.47067000  0.67183000  0.59065000  1.0
  C  C99  1  0.97069000  0.59226000  0.67408000  1.0
  C  C100  1  0.27604000  0.00278000  0.57670000  1.0
  C  C101  1  0.76691000  0.58304000  0.00498000  1.0
  C  C102  1  0.73300000  0.99495000  0.41712000  1.0
  C  C103  1  0.22387000  0.42334000  0.99728000  1.0
  C  C104  1  0.61695000  0.53643000  0.25796000  1.0
  C  C105  1  0.11975000  0.25676000  0.53598000  1.0
  C  C106  1  0.38033000  0.46392000  0.74327000  1.0
  C  C107  1  0.88300000  0.74211000  0.46355000  1.0
  C  C108  1  0.50641000  0.27358000  0.34632000  1.0
  C  C109  1  0.00208000  0.34990000  0.27637000  1.0
  C  C110  1  0.49784000  0.72357000  0.65017000  1.0
  C  C111  1  0.99350000  0.65375000  0.72641000  1.0
  C  C112  1  0.30432000  0.03178000  0.41889000  1.0
  C  C113  1  0.79642000  0.42538000  0.03535000  1.0
  C  C114  1  0.70344000  0.96456000  0.57477000  1.0
  C  C115  1  0.19555000  0.58114000  0.96820000  1.0
  C  C116  1  0.52559000  0.19257000  0.51729000  1.0
  C  C117  1  0.02439000  0.52050000  0.19624000  1.0
  C  C118  1  0.47550000  0.80368000  0.47956000  1.0
  C  C119  1  0.97464000  0.48269000  0.80727000  1.0
  C  C120  1  0.49475000  0.18308000  0.37326000  1.0
  C  C121  1  0.98735000  0.37864000  0.18695000  1.0
  C  C122  1  0.51254000  0.81299000  0.62142000  1.0
  C  C123  1  0.00512000  0.62679000  0.81691000  1.0
  C  C124  1  0.54774000  0.42271000  0.38274000  1.0
  C  C125  1  0.04968000  0.38269000  0.42414000  1.0
  C  C126  1  0.45033000  0.57578000  0.61736000  1.0
  C  C127  1  0.95230000  0.61732000  0.57721000  1.0
  C  C128  1  0.17096000  0.01495000  0.58037000  1.0
  C  C129  1  0.66216000  0.58583000  0.01518000  1.0
  C  C130  1  0.83773000  0.98480000  0.41441000  1.0
  C  C131  1  0.32895000  0.41966000  0.98513000  1.0
  C  C132  1  0.13074000  0.03718000  0.49968000  1.0
  C  C133  1  0.62275000  0.50468000  0.03722000  1.0
  C  C134  1  0.87710000  0.96278000  0.49558000  1.0
  C  C135  1  0.36914000  0.50034000  0.96286000  1.0
  C  C136  1  0.55201000  0.62124000  0.25041000  1.0
  C  C137  1  0.05439000  0.24995000  0.62064000  1.0
  C  C138  1  0.44570000  0.37926000  0.74998000  1.0
  C  C139  1  0.94793000  0.74966000  0.37873000  1.0
  C  C140  1  0.53763000  0.28312000  0.49557000  1.0
  C  C141  1  0.03933000  0.49701000  0.28583000  1.0
  C  C142  1  0.46060000  0.71409000  0.50305000  1.0
  C  C143  1  0.96262000  0.50443000  0.71673000  1.0
  C  C144  1  0.59266000  0.70113000  0.22814000  1.0
  C  C145  1  0.09448000  0.22774000  0.70081000  1.0
  C  C146  1  0.40563000  0.29908000  0.77215000  1.0
  C  C147  1  0.90725000  0.77192000  0.29886000  1.0
  C  C148  1  0.57689000  0.44816000  0.27948000  1.0
  C  C149  1  0.07959000  0.27920000  0.44777000  1.0
  C  C150  1  0.42048000  0.55212000  0.72084000  1.0
  C  C151  1  0.92310000  0.72057000  0.55181000  1.0
  C  C152  1  0.20008000  0.04509000  0.41761000  1.0
  C  C153  1  0.69255000  0.42321000  0.04669000  1.0
  C  C154  1  0.80728000  0.95328000  0.57702000  1.0
  C  C155  1  0.29979000  0.58241000  0.95489000  1.0
  C  C156  1  0.01824000  0.04715000  0.50057000  1.0
  C  C157  1  0.51059000  0.50453000  0.04645000  1.0
  C  C158  1  0.98926000  0.95356000  0.49575000  1.0
  C  C159  1  0.48164000  0.49947000  0.95290000  1.0
  C  C160  1  0.63209000  0.91374000  0.05282000  1.0
  C  C161  1  0.13535000  0.05215000  0.91810000  1.0
  C  C162  1  0.36559000  0.08205000  0.94733000  1.0
  C  C163  1  0.86773000  0.94719000  0.08626000  1.0
  S  S164  1  0.56067000  0.97187000  0.26724000  1.0
  S  S165  1  0.05112000  0.27330000  0.98045000  1.0
  S  S166  1  0.44887000  0.01953000  0.72668000  1.0
  S  S167  1  0.93924000  0.73281000  0.02817000  1.0
  N  N168  1  0.50479000  0.14238000  0.45708000  1.0
  N  N169  1  0.99868000  0.46241000  0.14679000  1.0
  N  N170  1  0.50120000  0.85314000  0.53765000  1.0
  N  N171  1  0.99523000  0.54293000  0.85755000  1.0
  N  N172  1  0.34207000  0.01158000  0.49717000  1.0
  N  N173  1  0.83331000  0.50411000  0.01555000  1.0
  N  N174  1  0.66658000  0.98434000  0.49601000  1.0
  N  N175  1  0.15783000  0.50285000  0.98843000  1.0
  N  N176  1  0.69403000  0.69996000  0.21405000  1.0
  N  N177  1  0.19592000  0.21301000  0.70006000  1.0
  N  N178  1  0.30418000  0.29986000  0.78696000  1.0
  N  N179  1  0.80587000  0.78599000  0.30002000  1.0
  O  O180  1  0.62115000  0.87495000  0.25056000  1.0
  O  O181  1  0.10292000  0.25527000  0.88456000  1.0
  O  O182  1  0.39708000  0.11545000  0.74470000  1.0
  O  O183  1  0.87870000  0.74937000  0.12508000  1.0
  O  O184  1  0.53415000  0.96524000  0.37121000  1.0
  O  O185  1  0.02130000  0.37883000  0.97384000  1.0
  O  O186  1  0.47861000  0.02612000  0.62118000  1.0
  O  O187  1  0.96572000  0.62884000  0.03463000  1.0
  O  O188  1  0.62204000  0.04253000  0.23318000  1.0
  O  O189  1  0.11955000  0.24421000  0.04683000  1.0
  O  O190  1  0.38042000  0.95319000  0.75584000  1.0
  O  O191  1  0.87794000  0.76703000  0.95748000  1.0
  O  O192  1  0.69809000  0.83304000  0.07700000  1.0
  O  O193  1  0.19405000  0.07942000  0.83416000  1.0
  O  O194  1  0.30601000  0.16574000  0.92057000  1.0
  O  O195  1  0.80175000  0.92300000  0.16694000  1.0
  O  O196  1  0.46527000  0.98351000  0.23213000  1.0
  O  O197  1  0.95508000  0.23775000  0.00478000  1.0
  O  O198  1  0.54491000  0.99520000  0.76223000  1.0
  O  O199  1  0.03466000  0.76784000  0.01671000  1.0
