# generated using pymatgen
data_MnH12C12(ClO2)4
_symmetry_space_group_name_H-M   'P 1'
_cell_length_a   7.23695000
_cell_length_b   7.34104000
_cell_length_c   10.69720000
_cell_angle_alpha   74.31780000
_cell_angle_beta   77.96220000
_cell_angle_gamma   69.62320000
_symmetry_Int_Tables_number   1
_chemical_formula_structural   MnH12C12(ClO2)4
_chemical_formula_sum   'Mn1 H12 C12 Cl4 O8'
_cell_volume   508.77337282
_cell_formula_units_Z   1
loop_
 _symmetry_equiv_pos_site_id
 _symmetry_equiv_pos_as_xyz
  1  'x, y, z'
loop_
 _atom_site_type_symbol
 _atom_site_label
 _atom_site_symmetry_multiplicity
 _atom_site_fract_x
 _atom_site_fract_y
 _atom_site_fract_z
 _atom_site_occupancy
  Mn  Mn0  1  0.50000000  0.50000000  0.50000000  1.0
  H  H1  1  0.80429000  0.73734000  0.47239000  1.0
  H  H2  1  0.19571000  0.26266000  0.52761000  1.0
  H  H3  1  0.67327000  0.80050000  0.62449000  1.0
  H  H4  1  0.32672000  0.19950000  0.37551000  1.0
  H  H5  1  0.31014000  0.91258000  0.64478000  1.0
  H  H6  1  0.68986000  0.08742000  0.35522000  1.0
  H  H7  1  0.19865000  0.92731000  0.50579000  1.0
  H  H8  1  0.80135000  0.07268000  0.49422000  1.0
  H  H9  1  0.12685000  0.60293000  0.50099000  1.0
  H  H10  1  0.87316000  0.39708000  0.49901000  1.0
  H  H11  1  0.17463000  0.59108000  0.35352000  1.0
  H  H12  1  0.82536000  0.40891000  0.64648000  1.0
  C  C13  1  0.12103000  0.32634000  0.95770000  1.0
  C  C14  1  0.87897000  0.67367000  0.04230000  1.0
  C  C15  1  0.04574000  0.31777000  0.09048000  1.0
  C  C16  1  0.95426000  0.68224000  0.90952000  1.0
  C  C17  1  0.07530000  0.50866000  0.86728000  1.0
  C  C18  1  0.92470000  0.49135000  0.13272000  1.0
  C  C19  1  0.15227000  0.51679000  0.72406000  1.0
  C  C20  1  0.84774000  0.48322000  0.27595000  1.0
  C  C21  1  0.67418000  0.83954000  0.51742000  1.0
  C  C22  1  0.32581000  0.16047000  0.48258000  1.0
  C  C23  1  0.32285000  0.94926000  0.53706000  1.0
  C  C24  1  0.67714000  0.05074000  0.46294000  1.0
  Cl  Cl25  1  0.26819000  0.11387000  0.90429000  1.0
  Cl  Cl26  1  0.73180000  0.88612000  0.09571000  1.0
  Cl  Cl27  1  0.10219000  0.09363000  0.20230000  1.0
  Cl  Cl28  1  0.89780000  0.90636000  0.79771000  1.0
  O  O29  1  0.03156000  0.52345000  0.65107000  1.0
  O  O30  1  0.96847000  0.47655000  0.34893000  1.0
  O  O31  1  0.33032000  0.51835000  0.68770000  1.0
  O  O32  1  0.66967000  0.48165000  0.31231000  1.0
  O  O33  1  0.21509000  0.63863000  0.41786000  1.0
  O  O34  1  0.78492000  0.36136000  0.58214000  1.0
  O  O35  1  0.50216000  0.81199000  0.48559000  1.0
  O  O36  1  0.49784000  0.18801000  0.51441000  1.0
