# generated using pymatgen
data_YbH18C20N4Cl3
_symmetry_space_group_name_H-M   'P 1'
_cell_length_a   12.63470000
_cell_length_b   14.20000000
_cell_length_c   14.70250000
_cell_angle_alpha   90.00000000
_cell_angle_beta   90.00000000
_cell_angle_gamma   90.00000000
_symmetry_Int_Tables_number   1
_chemical_formula_structural   YbH18C20N4Cl3
_chemical_formula_sum   'Yb4 H72 C80 N16 Cl12'
_cell_volume   2637.81580985
_cell_formula_units_Z   4
loop_
 _symmetry_equiv_pos_site_id
 _symmetry_equiv_pos_as_xyz
  1  'x, y, z'
loop_
 _atom_site_type_symbol
 _atom_site_label
 _atom_site_symmetry_multiplicity
 _atom_site_fract_x
 _atom_site_fract_y
 _atom_site_fract_z
 _atom_site_occupancy
  Yb  Yb0  1  0.33389000  0.16755000  0.63609000  1.0
  Yb  Yb1  1  0.16611000  0.83245000  0.13609000  1.0
  Yb  Yb2  1  0.83389000  0.33245000  0.36391000  1.0
  Yb  Yb3  1  0.66611000  0.66755000  0.86391000  1.0
  H  H4  1  0.18888000  0.13700000  0.82478000  1.0
  H  H5  1  0.31112000  0.86300000  0.32478000  1.0
  H  H6  1  0.68888000  0.36300000  0.17522000  1.0
  H  H7  1  0.81112000  0.63700000  0.67522000  1.0
  H  H8  1  0.17802000  0.17552000  0.44876000  1.0
  H  H9  1  0.32198000  0.82448000  0.94876000  1.0
  H  H10  1  0.67802000  0.32448000  0.55124000  1.0
  H  H11  1  0.82198000  0.67552000  0.05124000  1.0
  H  H12  1  0.33598000  0.06419000  0.21283000  1.0
  H  H13  1  0.16402000  0.93581000  0.71283000  1.0
  H  H14  1  0.83598000  0.43581000  0.78717000  1.0
  H  H15  1  0.66402000  0.56419000  0.28717000  1.0
  H  H16  1  0.17525000  0.13670000  0.28368000  1.0
  H  H17  1  0.32475000  0.86330000  0.78368000  1.0
  H  H18  1  0.67525000  0.36330000  0.71632000  1.0
  H  H19  1  0.82475000  0.63670000  0.21632000  1.0
  H  H20  1  0.46684000  0.31124000  0.49364000  1.0
  H  H21  1  0.03316000  0.68876000  0.99364000  1.0
  H  H22  1  0.96684000  0.18876000  0.50636000  1.0
  H  H23  1  0.53316000  0.81124000  0.00636000  1.0
  H  H24  1  0.41575000  0.60056000  0.35855000  1.0
  H  H25  1  0.08425000  0.39944000  0.85855000  1.0
  H  H26  1  0.91575000  0.89944000  0.64145000  1.0
  H  H27  1  0.58425000  0.10056000  0.14145000  1.0
  H  H28  1  0.51189000  0.10810000  0.78874000  1.0
  H  H29  1  0.98812000  0.89190000  0.28874000  1.0
  H  H30  1  0.01189000  0.39190000  0.21126000  1.0
  H  H31  1  0.48811000  0.60810000  0.71126000  1.0
  H  H32  1  0.37213000  0.73027000  0.25114000  1.0
  H  H33  1  0.12787000  0.26973000  0.75114000  1.0
  H  H34  1  0.87213000  0.76973000  0.74886000  1.0
  H  H35  1  0.62787000  0.23027000  0.24886000  1.0
  H  H36  1  0.48590000  0.08123000  0.47659000  1.0
  H  H37  1  0.01410000  0.91877000  0.97658000  1.0
  H  H38  1  0.98590000  0.41877000  0.52341000  1.0
  H  H39  1  0.51410000  0.58123000  0.02342000  1.0
  H  H40  1  0.15439000  0.32913000  0.57773000  1.0
  H  H41  1  0.34561000  0.67087000  0.07773000  1.0
  H  H42  1  0.65439000  0.17087000  0.42227000  1.0
  H  H43  1  0.84561000  0.82913000  0.92227000  1.0
  H  H44  1  0.11873000  0.46240000  0.47113000  1.0
  H  H45  1  0.38127000  0.53760000  0.97113000  1.0
  H  H46  1  0.61873000  0.03760000  0.52887000  1.0
  H  H47  1  0.88126000  0.96240000  0.02887000  1.0
  H  H48  1  0.44402000  0.43899000  0.38229000  1.0
  H  H49  1  0.05598000  0.56101000  0.88229000  1.0
  H  H50  1  0.94402000  0.06101000  0.61771000  1.0
  H  H51  1  0.55598000  0.93899000  0.11771000  1.0
  H  H52  1  0.53688000  0.05281000  0.94874000  1.0
  H  H53  1  0.96312000  0.94719000  0.44874000  1.0
  H  H54  1  0.03688000  0.44719000  0.05126000  1.0
  H  H55  1  0.46312000  0.55281000  0.55126000  1.0
  H  H56  1  0.49820000  0.04010000  0.31138000  1.0
  H  H57  1  0.00180000  0.95990000  0.81138000  1.0
  H  H58  1  0.99820000  0.45990000  0.68862000  1.0
  H  H59  1  0.50180000  0.54010000  0.18862000  1.0
  H  H60  1  0.06283000  0.63836000  0.22342000  1.0
  H  H61  1  0.43717000  0.36164000  0.72342000  1.0
  H  H62  1  0.56283000  0.86164000  0.77658000  1.0
  H  H63  1  0.93717000  0.13836000  0.27658000  1.0
  H  H64  1  0.09261000  0.50293000  0.32623000  1.0
  H  H65  1  0.40739000  0.49707000  0.82623000  1.0
  H  H66  1  0.59261000  0.99707000  0.67377000  1.0
  H  H67  1  0.90739000  0.00293000  0.17377000  1.0
  H  H68  1  0.37632000  0.04133000  0.05110000  1.0
  H  H69  1  0.12368000  0.95867000  0.55110000  1.0
  H  H70  1  0.87632000  0.45867000  0.94890000  1.0
  H  H71  1  0.62368000  0.54133000  0.44890000  1.0
  H  H72  1  0.20040000  0.08700000  0.98837000  1.0
  H  H73  1  0.29960000  0.91300000  0.48837000  1.0
  H  H74  1  0.70040000  0.41300000  0.01163000  1.0
  H  H75  1  0.79960000  0.58700000  0.51163000  1.0
  C  C76  1  0.26492000  0.12003000  0.85577000  1.0
  C  C77  1  0.23508000  0.87997000  0.35577000  1.0
  C  C78  1  0.76492000  0.37997000  0.14423000  1.0
  C  C79  1  0.73508000  0.62003000  0.64423000  1.0
  C  C80  1  0.24770000  0.14558000  0.41598000  1.0
  C  C81  1  0.25231000  0.85442000  0.91598000  1.0
  C  C82  1  0.74770000  0.35442000  0.58402000  1.0
  C  C83  1  0.75231000  0.64558000  0.08402000  1.0
  C  C84  1  0.33670000  0.08518000  0.28415000  1.0
  C  C85  1  0.16330000  0.91482000  0.78414000  1.0
  C  C86  1  0.83670000  0.41482000  0.71585000  1.0
  C  C87  1  0.66330000  0.58518000  0.21585000  1.0
  C  C88  1  0.24652000  0.12431000  0.32350000  1.0
  C  C89  1  0.25348000  0.87568000  0.82350000  1.0
  C  C90  1  0.74652000  0.37568000  0.67650000  1.0
  C  C91  1  0.75348000  0.62431000  0.17650000  1.0
  C  C92  1  0.39056000  0.34637000  0.48694000  1.0
  C  C93  1  0.10944000  0.65363000  0.98694000  1.0
  C  C94  1  0.89056000  0.15363000  0.51306000  1.0
  C  C95  1  0.60944000  0.84637000  0.01306000  1.0
  C  C96  1  0.33663000  0.60493000  0.32920000  1.0
  C  C97  1  0.16337000  0.39507000  0.82920000  1.0
  C  C98  1  0.83663000  0.89507000  0.67080000  1.0
  C  C99  1  0.66337000  0.10493000  0.17080000  1.0
  C  C100  1  0.27799000  0.46294000  0.41745000  1.0
  C  C101  1  0.22201000  0.53706000  0.91745000  1.0
  C  C102  1  0.77799000  0.03706000  0.58255000  1.0
  C  C103  1  0.72201000  0.96294000  0.08255000  1.0
  C  C104  1  0.44505000  0.10224000  0.83529000  1.0
  C  C105  1  0.05495000  0.89776000  0.33529000  1.0
  C  C106  1  0.94505000  0.39776000  0.16471000  1.0
  C  C107  1  0.55495000  0.60224000  0.66471000  1.0
  C  C108  1  0.31250000  0.67841000  0.27041000  1.0
  C  C109  1  0.18750000  0.32159000  0.77041000  1.0
  C  C110  1  0.81250000  0.82159000  0.72959000  1.0
  C  C111  1  0.68750000  0.17841000  0.22959000  1.0
  C  C112  1  0.41983000  0.09342000  0.43066000  1.0
  C  C113  1  0.08017000  0.90658000  0.93066000  1.0
  C  C114  1  0.91983000  0.40658000  0.56934000  1.0
  C  C115  1  0.58017000  0.59342000  0.06934000  1.0
  C  C116  1  0.21687000  0.35701000  0.53421000  1.0
  C  C117  1  0.28313000  0.64299000  0.03421000  1.0
  C  C118  1  0.71687000  0.14299000  0.46579000  1.0
  C  C119  1  0.78313000  0.85701000  0.96579000  1.0
  C  C120  1  0.19696000  0.43053000  0.47441000  1.0
  C  C121  1  0.30304000  0.56947000  0.97441000  1.0
  C  C122  1  0.69696000  0.06947000  0.52559000  1.0
  C  C123  1  0.80304000  0.93053000  0.02559000  1.0
  C  C124  1  0.37715000  0.41942000  0.42512000  1.0
  C  C125  1  0.12285000  0.58058000  0.92512000  1.0
  C  C126  1  0.87715000  0.08058000  0.57488000  1.0
  C  C127  1  0.62285000  0.91942000  0.07488000  1.0
  C  C128  1  0.45827000  0.07252000  0.92481000  1.0
  C  C129  1  0.04173000  0.92748000  0.42481000  1.0
  C  C130  1  0.95827000  0.42748000  0.07519000  1.0
  C  C131  1  0.54173000  0.57252000  0.57519000  1.0
  C  C132  1  0.42560000  0.07045000  0.33879000  1.0
  C  C133  1  0.07440000  0.92955000  0.83879000  1.0
  C  C134  1  0.92560000  0.42955000  0.66121000  1.0
  C  C135  1  0.57440000  0.57045000  0.16121000  1.0
  C  C136  1  0.14028000  0.62714000  0.25441000  1.0
  C  C137  1  0.35972000  0.37286000  0.75441000  1.0
  C  C138  1  0.64028000  0.87286000  0.74559000  1.0
  C  C139  1  0.85972000  0.12714000  0.24559000  1.0
  C  C140  1  0.25776000  0.53971000  0.35235000  1.0
  C  C141  1  0.24224000  0.46028000  0.85235000  1.0
  C  C142  1  0.75776000  0.96029000  0.64765000  1.0
  C  C143  1  0.74224000  0.03971000  0.14764000  1.0
  C  C144  1  0.15772000  0.55134000  0.31235000  1.0
  C  C145  1  0.34228000  0.44866000  0.81235000  1.0
  C  C146  1  0.65772000  0.94866000  0.68765000  1.0
  C  C147  1  0.84228000  0.05134000  0.18765000  1.0
  C  C148  1  0.36990000  0.06719000  0.98149000  1.0
  C  C149  1  0.13010000  0.93281000  0.48149000  1.0
  C  C150  1  0.86990000  0.43281000  0.01851000  1.0
  C  C151  1  0.63010000  0.56719000  0.51851000  1.0
  C  C152  1  0.27133000  0.09218000  0.94636000  1.0
  C  C153  1  0.22867000  0.90782000  0.44636000  1.0
  C  C154  1  0.77133000  0.40782000  0.05364000  1.0
  C  C155  1  0.72867000  0.59218000  0.55364000  1.0
  N  N156  1  0.31192000  0.31448000  0.54077000  1.0
  N  N157  1  0.18808000  0.68551000  0.04077000  1.0
  N  N158  1  0.81192000  0.18551000  0.45923000  1.0
  N  N159  1  0.68808000  0.81449000  0.95923000  1.0
  N  N160  1  0.33245000  0.12993000  0.46962000  1.0
  N  N161  1  0.16755000  0.87007000  0.96962000  1.0
  N  N162  1  0.83245000  0.37007000  0.53038000  1.0
  N  N163  1  0.66755000  0.62993000  0.03038000  1.0
  N  N164  1  0.34981000  0.12551000  0.80042000  1.0
  N  N165  1  0.15019000  0.87448000  0.30042000  1.0
  N  N166  1  0.84981000  0.37448000  0.19958000  1.0
  N  N167  1  0.65019000  0.62552000  0.69958000  1.0
  N  N168  1  0.21562000  0.69104000  0.23387000  1.0
  N  N169  1  0.28438000  0.30896000  0.73387000  1.0
  N  N170  1  0.71562000  0.80896000  0.76613000  1.0
  N  N171  1  0.78438000  0.19104000  0.26613000  1.0
  Cl  Cl172  1  0.13356000  0.13757000  0.63791000  1.0
  Cl  Cl173  1  0.36644000  0.86243000  0.13791000  1.0
  Cl  Cl174  1  0.63356000  0.36243000  0.36209000  1.0
  Cl  Cl175  1  0.86644000  0.63757000  0.86209000  1.0
  Cl  Cl176  1  0.38576000  0.99134000  0.63271000  1.0
  Cl  Cl177  1  0.11424000  0.00866000  0.13271000  1.0
  Cl  Cl178  1  0.88576000  0.50866000  0.36729000  1.0
  Cl  Cl179  1  0.61424000  0.49134000  0.86729000  1.0
  Cl  Cl180  1  0.52769000  0.21662000  0.63992000  1.0
  Cl  Cl181  1  0.97231000  0.78338000  0.13992000  1.0
  Cl  Cl182  1  0.02769000  0.28338000  0.36008000  1.0
  Cl  Cl183  1  0.47231000  0.71662000  0.86008000  1.0
