# generated using pymatgen
data_AgH10C16N2ClO4
_symmetry_space_group_name_H-M   'P 1'
_cell_length_a   5.36374000
_cell_length_b   10.83010000
_cell_length_c   13.25170000
_cell_angle_alpha   113.51100000
_cell_angle_beta   89.99980000
_cell_angle_gamma   89.99980000
_symmetry_Int_Tables_number   1
_chemical_formula_structural   AgH10C16N2ClO4
_chemical_formula_sum   'Ag2 H20 C32 N4 Cl2 O8'
_cell_volume   705.88394258
_cell_formula_units_Z   2
loop_
 _symmetry_equiv_pos_site_id
 _symmetry_equiv_pos_as_xyz
  1  'x, y, z'
loop_
 _atom_site_type_symbol
 _atom_site_label
 _atom_site_symmetry_multiplicity
 _atom_site_fract_x
 _atom_site_fract_y
 _atom_site_fract_z
 _atom_site_occupancy
  Ag  Ag0  1  0.79722000  0.47428000  0.28258000  1.0
  Ag  Ag1  1  0.20276000  0.97427000  0.78258000  1.0
  H  H2  1  0.01675000  0.19839000  0.19943000  1.0
  H  H3  1  0.98325000  0.69836000  0.69942000  1.0
  H  H4  1  0.23359000  0.04027000  0.02547000  1.0
  H  H5  1  0.76641000  0.54025000  0.52546000  1.0
  H  H6  1  0.34295000  0.18582000  0.77735000  1.0
  H  H7  1  0.65705000  0.68582000  0.27735000  1.0
  H  H8  1  0.37568000  0.25951000  0.62386000  1.0
  H  H9  1  0.62431000  0.75951000  0.12387000  1.0
  H  H10  1  0.06208000  0.41587000  0.60376000  1.0
  H  H11  1  0.93793000  0.91585000  0.10376000  1.0
  H  H12  1  0.72759000  0.50803000  0.74154000  1.0
  H  H13  1  0.27243000  0.00801000  0.24154000  1.0
  H  H14  1  0.45665000  0.56932000  0.84471000  1.0
  H  H15  1  0.54334000  0.06931000  0.34471000  1.0
  H  H16  1  0.13728000  0.66181000  0.98544000  1.0
  H  H17  1  0.86271000  0.16181000  0.48544000  1.0
  H  H18  1  0.11881000  0.59272000  0.14455000  1.0
  H  H19  1  0.88117000  0.09271000  0.64455000  1.0
  H  H20  1  0.43139000  0.43605000  0.16192000  1.0
  H  H21  1  0.56859000  0.93603000  0.66192000  1.0
  C  C22  1  0.99921000  0.21029000  0.12196000  1.0
  C  C23  1  0.00079000  0.71027000  0.62195000  1.0
  C  C24  1  0.12463000  0.12606000  0.02722000  1.0
  C  C25  1  0.87538000  0.62605000  0.52721000  1.0
  C  C26  1  0.82642000  0.32769000  0.02588000  1.0
  C  C27  1  0.17358000  0.82767000  0.52587000  1.0
  C  C28  1  0.98356000  0.25516000  0.93493000  1.0
  C  C29  1  0.01645000  0.75514000  0.43492000  1.0
  C  C30  1  0.00353000  0.29752000  0.84418000  1.0
  C  C31  1  0.99647000  0.79752000  0.34418000  1.0
  C  C32  1  0.20001000  0.25172000  0.76730000  1.0
  C  C33  1  0.79998000  0.75171000  0.26730000  1.0
  C  C34  1  0.22181000  0.29428000  0.68202000  1.0
  C  C35  1  0.77818000  0.79427000  0.18202000  1.0
  C  C36  1  0.04627000  0.38477000  0.67212000  1.0
  C  C37  1  0.95371000  0.88475000  0.17211000  1.0
  C  C38  1  0.85738000  0.43499000  0.74915000  1.0
  C  C39  1  0.14262000  0.93498000  0.24915000  1.0
  C  C40  1  0.83350000  0.39505000  0.83790000  1.0
  C  C41  1  0.16649000  0.89504000  0.33789000  1.0
  C  C42  1  0.64247000  0.45214000  0.92244000  1.0
  C  C43  1  0.35752000  0.95214000  0.42245000  1.0
  C  C44  1  0.45843000  0.54068000  0.91445000  1.0
  C  C45  1  0.54157000  0.04067000  0.41445000  1.0
  C  C46  1  0.27551000  0.59291000  0.99407000  1.0
  C  C47  1  0.72449000  0.09290000  0.49408000  1.0
  C  C48  1  0.26711000  0.55525000  0.08375000  1.0
  C  C49  1  0.73287000  0.05524000  0.58375000  1.0
  C  C50  1  0.44588000  0.46874000  0.09415000  1.0
  C  C51  1  0.55413000  0.96872000  0.59416000  1.0
  C  C52  1  0.63911000  0.41891000  0.01606000  1.0
  C  C53  1  0.36089000  0.91890000  0.51606000  1.0
  N  N54  1  0.85242000  0.30984000  0.12114000  1.0
  N  N55  1  0.14758000  0.80983000  0.62114000  1.0
  N  N56  1  0.11913000  0.14967000  0.93554000  1.0
  N  N57  1  0.88087000  0.64966000  0.43553000  1.0
  Cl  Cl58  1  0.33930000  0.35113000  0.38091000  1.0
  Cl  Cl59  1  0.66073000  0.85115000  0.88091000  1.0
  O  O60  1  0.46249000  0.24251000  0.29022000  1.0
  O  O61  1  0.53753000  0.74253000  0.79022000  1.0
  O  O62  1  0.34395000  0.47398000  0.35744000  1.0
  O  O63  1  0.65605000  0.97399000  0.85744000  1.0
  O  O64  1  0.07897000  0.31509000  0.38888000  1.0
  O  O65  1  0.92106000  0.81511000  0.88887000  1.0
  O  O66  1  0.46789000  0.37809000  0.48420000  1.0
  O  O67  1  0.53213000  0.87810000  0.98420000  1.0
