# generated using pymatgen
data_SmH12C11O8
_symmetry_space_group_name_H-M   'P 1'
_cell_length_a   5.86619000
_cell_length_b   13.33340000
_cell_length_c   15.59660000
_cell_angle_alpha   86.53360000
_cell_angle_beta   89.99980000
_cell_angle_gamma   89.99970000
_symmetry_Int_Tables_number   1
_chemical_formula_structural   SmH12C11O8
_chemical_formula_sum   'Sm4 H48 C44 O32'
_cell_volume   1217.67577601
_cell_formula_units_Z   4
loop_
 _symmetry_equiv_pos_site_id
 _symmetry_equiv_pos_as_xyz
  1  'x, y, z'
loop_
 _atom_site_type_symbol
 _atom_site_label
 _atom_site_symmetry_multiplicity
 _atom_site_fract_x
 _atom_site_fract_y
 _atom_site_fract_z
 _atom_site_occupancy
  Sm  Sm0  1  0.93971000  0.86717000  0.58235000  1.0
  Sm  Sm1  1  0.43972000  0.63282000  0.91765000  1.0
  Sm  Sm2  1  0.06027000  0.13282000  0.41765000  1.0
  Sm  Sm3  1  0.56028000  0.36718000  0.08235000  1.0
  H  H4  1  0.69092000  0.02784000  0.84328000  1.0
  H  H5  1  0.19092000  0.47217000  0.65673000  1.0
  H  H6  1  0.30907000  0.97216000  0.15672000  1.0
  H  H7  1  0.80910000  0.52783000  0.34328000  1.0
  H  H8  1  0.44636000  0.13658000  0.93054000  1.0
  H  H9  1  0.94637000  0.36343000  0.56947000  1.0
  H  H10  1  0.55363000  0.86343000  0.06946000  1.0
  H  H11  1  0.05364000  0.63657000  0.43054000  1.0
  H  H12  1  0.09608000  0.21537000  0.86302000  1.0
  H  H13  1  0.59611000  0.28463000  0.63698000  1.0
  H  H14  1  0.90391000  0.78463000  0.13697000  1.0
  H  H15  1  0.40391000  0.71536000  0.36303000  1.0
  H  H16  1  0.01140000  0.19438000  0.71032000  1.0
  H  H17  1  0.51142000  0.30562000  0.78968000  1.0
  H  H18  1  0.98860000  0.80561000  0.28967000  1.0
  H  H19  1  0.48860000  0.69439000  0.21033000  1.0
  H  H20  1  0.38065000  0.62226000  0.59366000  1.0
  H  H21  1  0.88065000  0.87774000  0.90633000  1.0
  H  H22  1  0.61935000  0.37773000  0.40634000  1.0
  H  H23  1  0.11935000  0.12228000  0.09365000  1.0
  H  H24  1  0.57229000  0.53877000  0.64599000  1.0
  H  H25  1  0.07229000  0.96123000  0.85400000  1.0
  H  H26  1  0.42771000  0.46122000  0.35401000  1.0
  H  H27  1  0.92773000  0.03878000  0.14599000  1.0
  H  H28  1  0.76140000  0.50564000  0.50659000  1.0
  H  H29  1  0.26139000  0.99436000  0.99341000  1.0
  H  H30  1  0.23862000  0.49435000  0.49341000  1.0
  H  H31  1  0.73861000  0.00565000  0.00659000  1.0
  H  H32  1  0.58819000  0.59624000  0.45185000  1.0
  H  H33  1  0.08819000  0.90376000  0.04814000  1.0
  H  H34  1  0.41181000  0.40375000  0.54815000  1.0
  H  H35  1  0.91180000  0.09625000  0.95185000  1.0
  H  H36  1  0.40172000  0.80919000  0.49071000  1.0
  H  H37  1  0.90173000  0.69081000  0.00930000  1.0
  H  H38  1  0.59826000  0.19080000  0.50930000  1.0
  H  H39  1  0.09828000  0.30920000  0.99071000  1.0
  H  H40  1  0.29674000  0.90928000  0.45688000  1.0
  H  H41  1  0.79676000  0.59072000  0.04312000  1.0
  H  H42  1  0.70324000  0.09071000  0.54312000  1.0
  H  H43  1  0.20325000  0.40929000  0.95688000  1.0
  H  H44  1  0.19605000  0.78632000  0.74295000  1.0
  H  H45  1  0.69606000  0.71368000  0.75705000  1.0
  H  H46  1  0.80394000  0.21368000  0.25705000  1.0
  H  H47  1  0.30393000  0.28632000  0.24295000  1.0
  H  H48  1  0.38021000  0.78362000  0.66776000  1.0
  H  H49  1  0.88022000  0.71638000  0.83224000  1.0
  H  H50  1  0.61978000  0.21637000  0.33223000  1.0
  H  H51  1  0.11978000  0.28363000  0.16776000  1.0
  C  C52  1  0.30532000  0.10172000  0.68962000  1.0
  C  C53  1  0.80535000  0.39828000  0.81038000  1.0
  C  C54  1  0.69465000  0.89827000  0.31038000  1.0
  C  C55  1  0.19466000  0.60173000  0.18962000  1.0
  C  C56  1  0.49569000  0.05306000  0.72825000  1.0
  C  C57  1  0.99570000  0.44694000  0.77175000  1.0
  C  C58  1  0.50430000  0.94693000  0.27175000  1.0
  C  C59  1  0.00431000  0.55307000  0.22825000  1.0
  C  C60  1  0.54192000  0.06552000  0.81520000  1.0
  C  C61  1  0.04194000  0.43447000  0.68480000  1.0
  C  C62  1  0.45806000  0.93447000  0.18480000  1.0
  C  C63  1  0.95808000  0.56552000  0.31520000  1.0
  C  C64  1  0.40306000  0.12481000  0.86387000  1.0
  C  C65  1  0.90307000  0.37519000  0.63613000  1.0
  C  C66  1  0.59693000  0.87519000  0.13613000  1.0
  C  C67  1  0.09694000  0.62481000  0.36387000  1.0
  C  C68  1  0.20926000  0.16966000  0.82600000  1.0
  C  C69  1  0.70927000  0.33035000  0.67400000  1.0
  C  C70  1  0.79074000  0.83035000  0.17399000  1.0
  C  C71  1  0.29074000  0.66965000  0.32601000  1.0
  C  C72  1  0.16091000  0.15808000  0.73960000  1.0
  C  C73  1  0.66092000  0.34192000  0.76040000  1.0
  C  C74  1  0.83909000  0.84191000  0.26040000  1.0
  C  C75  1  0.33910000  0.65809000  0.23960000  1.0
  C  C76  1  0.24388000  0.10018000  0.59629000  1.0
  C  C77  1  0.74390000  0.39982000  0.90371000  1.0
  C  C78  1  0.75611000  0.89981000  0.40371000  1.0
  C  C79  1  0.25611000  0.60019000  0.09629000  1.0
  C  C80  1  0.65071000  0.98922000  0.67928000  1.0
  C  C81  1  0.15074000  0.51078000  0.82072000  1.0
  C  C82  1  0.34927000  0.01077000  0.32072000  1.0
  C  C83  1  0.84928000  0.48923000  0.17927000  1.0
  C  C84  1  0.71959000  0.67618000  0.60181000  1.0
  C  C85  1  0.21958000  0.82382000  0.89819000  1.0
  C  C86  1  0.28041000  0.32381000  0.39819000  1.0
  C  C87  1  0.78040000  0.17619000  0.10181000  1.0
  C  C88  1  0.55477000  0.59217000  0.58948000  1.0
  C  C89  1  0.05477000  0.90783000  0.91052000  1.0
  C  C90  1  0.44523000  0.40782000  0.41052000  1.0
  C  C91  1  0.94524000  0.09218000  0.08947000  1.0
  C  C92  1  0.59071000  0.53978000  0.50636000  1.0
  C  C93  1  0.09071000  0.96022000  0.99363000  1.0
  C  C94  1  0.40930000  0.46021000  0.49363000  1.0
  C  C95  1  0.90929000  0.03979000  0.00636000  1.0
  O  O96  1  0.62270000  0.98647000  0.59692000  1.0
  O  O97  1  0.12271000  0.51353000  0.90308000  1.0
  O  O98  1  0.37728000  0.01353000  0.40308000  1.0
  O  O99  1  0.87730000  0.48647000  0.09692000  1.0
  O  O100  1  0.80816000  0.93831000  0.71693000  1.0
  O  O101  1  0.30818000  0.56169000  0.78307000  1.0
  O  O102  1  0.19182000  0.06168000  0.28308000  1.0
  O  O103  1  0.69184000  0.43831000  0.21693000  1.0
  O  O104  1  0.11576000  0.03111000  0.56969000  1.0
  O  O105  1  0.61579000  0.46889000  0.93032000  1.0
  O  O106  1  0.88422000  0.96889000  0.43032000  1.0
  O  O107  1  0.38423000  0.53112000  0.06969000  1.0
  O  O108  1  0.29887000  0.17467000  0.54551000  1.0
  O  O109  1  0.79889000  0.32533000  0.95450000  1.0
  O  O110  1  0.70111000  0.82533000  0.45450000  1.0
  O  O111  1  0.20112000  0.67468000  0.04551000  1.0
  O  O112  1  0.25364000  0.84346000  0.48719000  1.0
  O  O113  1  0.75365000  0.65654000  0.01281000  1.0
  O  O114  1  0.74635000  0.15653000  0.51281000  1.0
  O  O115  1  0.24636000  0.34347000  0.98719000  1.0
  O  O116  1  0.22755000  0.81089000  0.68296000  1.0
  O  O117  1  0.72756000  0.68911000  0.81704000  1.0
  O  O118  1  0.77245000  0.18911000  0.31704000  1.0
  O  O119  1  0.27244000  0.31090000  0.18296000  1.0
  O  O120  1  0.65216000  0.75064000  0.64720000  1.0
  O  O121  1  0.15217000  0.74936000  0.85280000  1.0
  O  O122  1  0.34782000  0.24935000  0.35280000  1.0
  O  O123  1  0.84783000  0.25065000  0.14720000  1.0
  O  O124  1  0.91578000  0.67965000  0.56903000  1.0
  O  O125  1  0.41579000  0.82035000  0.93096000  1.0
  O  O126  1  0.08423000  0.32035000  0.43097000  1.0
  O  O127  1  0.58422000  0.17965000  0.06904000  1.0
