# generated using pymatgen
data_ZnH11C20NO5
_symmetry_space_group_name_H-M   'P 1'
_cell_length_a   13.97180000
_cell_length_b   15.19800000
_cell_length_c   16.09470000
_cell_angle_alpha   90.50180000
_cell_angle_beta   89.92860000
_cell_angle_gamma   89.96520000
_symmetry_Int_Tables_number   1
_chemical_formula_structural   ZnH11C20NO5
_chemical_formula_sum   'Zn2 H22 C40 N2 O10'
_cell_volume   3417.46920662
_cell_formula_units_Z   2
loop_
 _symmetry_equiv_pos_site_id
 _symmetry_equiv_pos_as_xyz
  1  'x, y, z'
loop_
 _atom_site_type_symbol
 _atom_site_label
 _atom_site_symmetry_multiplicity
 _atom_site_fract_x
 _atom_site_fract_y
 _atom_site_fract_z
 _atom_site_occupancy
  Zn  Zn0  1  0.39977000  0.50167000  0.50575000  1.0
  Zn  Zn1  1  0.60076000  0.49799000  0.50596000  1.0
  H  H2  1  0.59381000  0.62656000  0.95645000  1.0
  H  H3  1  0.33502000  0.51348000  0.95749000  1.0
  H  H4  1  0.36158000  0.95104000  0.51409000  1.0
  H  H5  1  0.63578000  0.05087000  0.51388000  1.0
  H  H6  1  0.35961000  0.78894000  0.53574000  1.0
  H  H7  1  0.63563000  0.21373000  0.53507000  1.0
  H  H8  1  0.63252000  0.76663000  0.41387000  1.0
  H  H9  1  0.36381000  0.23010000  0.41154000  1.0
  H  H10  1  0.93321000  0.56588000  0.62114000  1.0
  H  H11  1  0.06994000  0.37124000  0.44507000  1.0
  H  H12  1  0.75381000  0.56009000  0.61877000  1.0
  H  H13  1  0.40819000  0.37470000  0.05570000  1.0
  H  H14  1  0.24913000  0.37746000  0.45017000  1.0
  H  H15  1  0.63935000  0.00362000  0.34848000  1.0
  H  H16  1  0.35969000  0.99225000  0.34685000  1.0
  H  H17  1  0.75144000  0.43669000  0.38900000  1.0
  H  H18  1  0.24649000  0.62623000  0.55564000  1.0
  H  H19  1  0.93095000  0.43488000  0.38147000  1.0
  H  H20  1  0.06697000  0.63185000  0.55558000  1.0
  H  H21  1  0.43100000  0.63672000  0.06161000  1.0
  H  H22  1  0.57061000  0.36427000  0.95004000  1.0
  H  H23  1  0.66685000  0.48737000  0.05438000  1.0
  C  C24  1  0.49734000  0.67054000  0.49565000  1.0
  C  C25  1  0.42429000  0.10035000  0.41936000  1.0
  C  C26  1  0.49718000  0.95081000  0.44997000  1.0
  C  C27  1  0.50059000  0.04826000  0.44946000  1.0
  C  C28  1  0.89614000  0.53701000  0.56805000  1.0
  C  C29  1  0.10571000  0.42962000  0.46950000  1.0
  C  C30  1  0.79682000  0.53413000  0.56754000  1.0
  C  C31  1  0.20506000  0.43213000  0.47219000  1.0
  C  C32  1  0.79557000  0.46338000  0.43906000  1.0
  C  C33  1  0.20353000  0.57144000  0.53245000  1.0
  C  C34  1  0.89496000  0.46277000  0.43569000  1.0
  C  C35  1  0.49615000  0.32923000  0.49503000  1.0
  C  C36  1  0.10417000  0.57359000  0.53242000  1.0
  C  C37  1  0.94742000  0.50042000  0.50119000  1.0
  C  C38  1  0.05309000  0.50129000  0.50066000  1.0
  C  C39  1  0.50355000  0.50209000  0.66687000  1.0
  C  C40  1  0.50430000  0.49730000  0.34443000  1.0
  C  C41  1  0.46197000  0.57625000  0.03590000  1.0
  C  C42  1  0.53991000  0.42478000  0.97587000  1.0
  C  C43  1  0.55266000  0.57051000  0.97921000  1.0
  C  C44  1  0.44928000  0.43060000  0.03256000  1.0
  C  C45  1  0.50230000  0.50255000  0.75662000  1.0
  C  C46  1  0.41936000  0.81995000  0.50381000  1.0
  C  C47  1  0.50406000  0.49698000  0.25480000  1.0
  C  C48  1  0.40872000  0.50779000  0.97959000  1.0
  C  C49  1  0.59324000  0.49319000  0.03207000  1.0
  C  C50  1  0.49930000  0.50220000  0.92037000  1.0
  C  C51  1  0.50282000  0.49906000  0.09125000  1.0
  C  C52  1  0.50013000  0.50263000  0.83241000  1.0
  C  C53  1  0.50338000  0.49759000  0.17906000  1.0
  C  C54  1  0.41990000  0.91019000  0.49034000  1.0
  C  C55  1  0.57713000  0.09060000  0.48987000  1.0
  C  C56  1  0.65140000  0.93484000  0.36971000  1.0
  C  C57  1  0.57657000  0.18114000  0.50312000  1.0
  C  C58  1  0.34713000  0.06138000  0.36791000  1.0
  C  C59  1  0.49696000  0.76757000  0.47840000  1.0
  C  C60  1  0.49830000  0.23204000  0.47747000  1.0
  C  C61  1  0.57290000  0.80667000  0.43625000  1.0
  C  C62  1  0.42355000  0.19130000  0.43472000  1.0
  C  C63  1  0.57330000  0.89736000  0.42069000  1.0
  N  N64  1  0.74757000  0.49810000  0.50406000  1.0
  N  N65  1  0.25296000  0.50173000  0.50329000  1.0
  O  O66  1  0.41910000  0.63643000  0.52045000  1.0
  O  O67  1  0.27458000  0.10087000  0.34684000  1.0
  O  O68  1  0.57330000  0.36473000  0.52043000  1.0
  O  O69  1  0.57584000  0.62998000  0.48374000  1.0
  O  O70  1  0.41697000  0.36858000  0.48269000  1.0
  O  O71  1  0.42454000  0.48536000  0.63056000  1.0
  O  O72  1  0.58246000  0.47557000  0.37985000  1.0
  O  O73  1  0.58358000  0.51833000  0.63173000  1.0
  O  O74  1  0.42653000  0.51942000  0.38034000  1.0
  O  O75  1  0.72406000  0.89479000  0.34931000  1.0
