# generated using pymatgen
data_KCu6H12C18Br(N3O2)6
_symmetry_space_group_name_H-M   'P 1'
_cell_length_a   10.12060000
_cell_length_b   13.07650000
_cell_length_c   13.13260000
_cell_angle_alpha   89.89960000
_cell_angle_beta   80.97040000
_cell_angle_gamma   68.85400000
_symmetry_Int_Tables_number   1
_chemical_formula_structural   KCu6H12C18Br(N3O2)6
_chemical_formula_sum   'K2 Cu12 H24 C36 Br2 N36 O24'
_cell_volume   1598.03525702
_cell_formula_units_Z   2
loop_
 _symmetry_equiv_pos_site_id
 _symmetry_equiv_pos_as_xyz
  1  'x, y, z'
loop_
 _atom_site_type_symbol
 _atom_site_label
 _atom_site_symmetry_multiplicity
 _atom_site_fract_x
 _atom_site_fract_y
 _atom_site_fract_z
 _atom_site_occupancy
  K  K0  1  0.20562000  0.44397000  0.97416000  1.0
  K  K1  1  0.79439000  0.55602000  0.02584000  1.0
  Cu  Cu2  1  0.35595000  0.96784000  0.63262000  1.0
  Cu  Cu3  1  0.64405000  0.03216000  0.36738000  1.0
  Cu  Cu4  1  0.36015000  0.08142000  0.38813000  1.0
  Cu  Cu5  1  0.63985000  0.91858000  0.61187000  1.0
  Cu  Cu6  1  0.33289000  0.84489000  0.28063000  1.0
  Cu  Cu7  1  0.66711000  0.15511000  0.71937000  1.0
  Cu  Cu8  1  0.32730000  0.73343000  0.52269000  1.0
  Cu  Cu9  1  0.67270000  0.26657000  0.47732000  1.0
  Cu  Cu10  1  0.01313000  0.17598000  0.55785000  1.0
  Cu  Cu11  1  0.98687000  0.82402000  0.44215000  1.0
  Cu  Cu12  1  0.00602000  0.05655000  0.32211000  1.0
  Cu  Cu13  1  0.99398000  0.94345000  0.67789000  1.0
  H  H14  1  0.34812000  0.16754000  0.76061000  1.0
  H  H15  1  0.65188000  0.83246000  0.23939000  1.0
  H  H16  1  0.34973000  0.30813000  0.45843000  1.0
  H  H17  1  0.65027000  0.69187000  0.54157000  1.0
  H  H18  1  0.35064000  0.21084000  0.19017000  1.0
  H  H19  1  0.64936000  0.78916000  0.80983000  1.0
  H  H20  1  0.32718000  0.91332000  0.05706000  1.0
  H  H21  1  0.67282000  0.08668000  0.94294000  1.0
  H  H22  1  0.34702000  0.64213000  0.15067000  1.0
  H  H23  1  0.65298000  0.35787000  0.84933000  1.0
  H  H24  1  0.32324000  0.50897000  0.45538000  1.0
  H  H25  1  0.67676000  0.49103000  0.54461000  1.0
  H  H26  1  0.33512000  0.60120000  0.71878000  1.0
  H  H27  1  0.66488000  0.39880000  0.28122000  1.0
  H  H28  1  0.34636000  0.90045000  0.85739000  1.0
  H  H29  1  0.65363000  0.09956000  0.14261000  1.0
  H  H30  1  0.99123000  0.01687000  0.90078000  1.0
  H  H31  1  0.00877000  0.98313000  0.09922000  1.0
  H  H32  1  0.00888000  0.31154000  0.75214000  1.0
  H  H33  1  0.99112000  0.68846000  0.24786000  1.0
  H  H34  1  0.00742000  0.40027000  0.48205000  1.0
  H  H35  1  0.99258000  0.59973000  0.51795000  1.0
  H  H36  1  0.00111000  0.25009000  0.18720000  1.0
  H  H37  1  0.99889000  0.74991000  0.81280000  1.0
  C  C38  1  0.35275000  0.18389000  0.67925000  1.0
  C  C39  1  0.64725000  0.81611000  0.32075000  1.0
  C  C40  1  0.34556000  0.28057000  0.62922000  1.0
  C  C41  1  0.65444000  0.71943000  0.37079000  1.0
  C  C42  1  0.35307000  0.25664000  0.52363000  1.0
  C  C43  1  0.64693000  0.74336000  0.47637000  1.0
  C  C44  1  0.34727000  0.13035000  0.17448000  1.0
  C  C45  1  0.65273000  0.86965000  0.82552000  1.0
  C  C46  1  0.33535000  0.08211000  0.08233000  1.0
  C  C47  1  0.66465000  0.91789000  0.91767000  1.0
  C  C48  1  0.33329000  0.97772000  0.10599000  1.0
  C  C49  1  0.66666667  0.02228000  0.89401000  1.0
  C  C50  1  0.34055000  0.62711000  0.23237000  1.0
  C  C51  1  0.65945000  0.37289000  0.76763000  1.0
  C  C52  1  0.33251000  0.53468000  0.28422000  1.0
  C  C53  1  0.66748000  0.46532000  0.71578000  1.0
  C  C54  1  0.32755000  0.55852000  0.38944000  1.0
  C  C55  1  0.67245000  0.44148000  0.61056000  1.0
  C  C56  1  0.33874000  0.68141000  0.73553000  1.0
  C  C57  1  0.66126000  0.31860000  0.26447000  1.0
  C  C58  1  0.33952000  0.73186000  0.82984000  1.0
  C  C59  1  0.66048000  0.26815000  0.17016000  1.0
  C  C60  1  0.34461000  0.83548000  0.80702000  1.0
  C  C61  1  0.65539000  0.16452000  0.19298000  1.0
  C  C62  1  0.99584000  0.07991000  0.84808000  1.0
  C  C63  1  0.00416000  0.92009000  0.15192000  1.0
  C  C64  1  0.99829000  0.18487000  0.86728000  1.0
  C  C65  1  0.00171000  0.81513000  0.13272000  1.0
  C  C66  1  0.00554000  0.23145000  0.77100000  1.0
  C  C67  1  0.99446000  0.76855000  0.22900000  1.0
  C  C68  1  0.00649000  0.34712000  0.41907000  1.0
  C  C69  1  0.99352000  0.65288000  0.58093000  1.0
  C  C70  1  0.00344000  0.36591000  0.31389000  1.0
  C  C71  1  0.99656000  0.63409000  0.68611000  1.0
  C  C72  1  0.00382000  0.26923000  0.26715000  1.0
  C  C73  1  0.99618000  0.73077000  0.73285000  1.0
  Br  Br74  1  0.21081000  0.94728000  0.47352000  1.0
  Br  Br75  1  0.78919000  0.05272000  0.52648000  1.0
  N  N76  1  0.36170000  0.10776000  0.60776000  1.0
  N  N77  1  0.63830000  0.89224000  0.39224000  1.0
  N  N78  1  0.36179000  0.15262000  0.51180000  1.0
  N  N79  1  0.63821000  0.84737000  0.48820000  1.0
  N  N80  1  0.32995000  0.38146000  0.67596000  1.0
  N  N81  1  0.67005000  0.61854000  0.32404000  1.0
  N  N82  1  0.35208000  0.05905000  0.24810000  1.0
  N  N83  1  0.64792000  0.94095000  0.75190000  1.0
  N  N84  1  0.34342000  0.96480000  0.20585000  1.0
  N  N85  1  0.65658000  0.03520000  0.79415000  1.0
  N  N86  1  0.32913000  0.12861000  0.98586000  1.0
  N  N87  1  0.67087000  0.87139000  0.01414000  1.0
  N  N88  1  0.33906000  0.70153000  0.30256000  1.0
  N  N89  1  0.66093000  0.29847000  0.69744000  1.0
  N  N90  1  0.33131000  0.65898000  0.39971000  1.0
  N  N91  1  0.66869000  0.34102000  0.60029000  1.0
  N  N92  1  0.32866000  0.43841000  0.24020000  1.0
  N  N93  1  0.67134000  0.56159000  0.75980000  1.0
  N  N94  1  0.34329000  0.75093000  0.66136000  1.0
  N  N95  1  0.65671000  0.24907000  0.33864000  1.0
  N  N96  1  0.34710000  0.84600000  0.70556000  1.0
  N  N97  1  0.65290000  0.15401000  0.29444000  1.0
  N  N98  1  0.33792000  0.68676000  0.92714000  1.0
  N  N99  1  0.66208000  0.31324000  0.07287000  1.0
  N  N100  1  0.00087000  0.06526000  0.74665000  1.0
  N  N101  1  0.99912000  0.93474000  0.25335000  1.0
  N  N102  1  0.00728000  0.15864000  0.69909000  1.0
  N  N103  1  0.99272000  0.84136000  0.30091000  1.0
  N  N104  1  0.99595000  0.23349000  0.96282000  1.0
  N  N105  1  0.00405000  0.76651000  0.03718000  1.0
  N  N106  1  0.00892000  0.24538000  0.43382000  1.0
  N  N107  1  0.99108000  0.75462000  0.56618000  1.0
  N  N108  1  0.00686000  0.19746000  0.34008000  1.0
  N  N109  1  0.99314000  0.80254000  0.65992000  1.0
  N  N110  1  0.00127000  0.46148000  0.26484000  1.0
  N  N111  1  0.99873000  0.53852000  0.73516000  1.0
  O  O112  1  0.32224000  0.38871000  0.77192000  1.0
  O  O113  1  0.67776000  0.61129000  0.22808000  1.0
  O  O114  1  0.32485000  0.46031000  0.61999000  1.0
  O  O115  1  0.67515000  0.53969000  0.38001000  1.0
  O  O116  1  0.33636000  0.22202000  0.97816000  1.0
  O  O117  1  0.66364000  0.77798000  0.02184000  1.0
  O  O118  1  0.31781000  0.07466000  0.91084000  1.0
  O  O119  1  0.68219000  0.92534000  0.08916000  1.0
  O  O120  1  0.33491000  0.42996000  0.14435000  1.0
  O  O121  1  0.66509000  0.57004000  0.85565000  1.0
  O  O122  1  0.31969000  0.36382000  0.29814000  1.0
  O  O123  1  0.68031000  0.63618000  0.70186000  1.0
  O  O124  1  0.33526000  0.59194000  0.93301000  1.0
  O  O125  1  0.66474000  0.40806000  0.06699000  1.0
  O  O126  1  0.33934000  0.74292000  0.00402000  1.0
  O  O127  1  0.66066000  0.25708000  0.99598000  1.0
  O  O128  1  0.99195000  0.17962000  0.04179000  1.0
  O  O129  1  0.00805000  0.82038000  0.95821000  1.0
  O  O130  1  0.99826000  0.32886000  0.96558000  1.0
  O  O131  1  0.00174000  0.67114000  0.03442000  1.0
  O  O132  1  0.99683000  0.54211000  0.31903000  1.0
  O  O133  1  0.00317000  0.45788000  0.68097000  1.0
  O  O134  1  0.00395000  0.46263000  0.16892000  1.0
  O  O135  1  0.99605000  0.53737000  0.83108000  1.0
