# generated using pymatgen
data_NiH17C23N4O5
_symmetry_space_group_name_H-M   'P 1'
_cell_length_a   8.05487000
_cell_length_b   9.80393000
_cell_length_c   11.88640000
_cell_angle_alpha   80.62350000
_cell_angle_beta   89.64450000
_cell_angle_gamma   83.84970000
_symmetry_Int_Tables_number   1
_chemical_formula_structural   NiH17C23N4O5
_chemical_formula_sum   'Ni2 H34 C46 N8 O10'
_cell_volume   920.72920824
_cell_formula_units_Z   2
loop_
 _symmetry_equiv_pos_site_id
 _symmetry_equiv_pos_as_xyz
  1  'x, y, z'
loop_
 _atom_site_type_symbol
 _atom_site_label
 _atom_site_symmetry_multiplicity
 _atom_site_fract_x
 _atom_site_fract_y
 _atom_site_fract_z
 _atom_site_occupancy
  Ni  Ni0  1  0.31097000  0.96765000  0.46834000  1.0
  Ni  Ni1  1  0.68903000  0.03235000  0.53166000  1.0
  H  H2  1  0.11058000  0.22160000  0.59243000  1.0
  H  H3  1  0.88943000  0.77840000  0.40757000  1.0
  H  H4  1  0.33137000  0.82044000  0.73121000  1.0
  H  H5  1  0.66863000  0.17956000  0.26879000  1.0
  H  H6  1  0.16555000  0.93689000  0.90236000  1.0
  H  H7  1  0.83445000  0.06311000  0.09764000  1.0
  H  H8  1  0.13073000  0.11959000  0.98904000  1.0
  H  H9  1  0.86927000  0.88041000  0.01096000  1.0
  H  H10  1  0.97427000  0.28670000  0.09083000  1.0
  H  H11  1  0.02573000  0.71330000  0.90917000  1.0
  H  H12  1  0.73869000  0.49321000  0.77375000  1.0
  H  H13  1  0.26131000  0.50678000  0.22625000  1.0
  H  H14  1  0.88955000  0.32176000  0.67400000  1.0
  H  H15  1  0.11045000  0.67823000  0.32601000  1.0
  H  H16  1  0.83530000  0.41577000  0.17497000  1.0
  H  H17  1  0.16470000  0.58422000  0.82503000  1.0
  H  H18  1  0.68429000  0.58548000  0.27064000  1.0
  H  H19  1  0.31571000  0.41452000  0.72937000  1.0
  H  H20  1  0.46950000  0.79957000  0.94829000  1.0
  H  H21  1  0.53050000  0.20042000  0.05172000  1.0
  H  H22  1  0.62675000  0.63115000  0.85131000  1.0
  H  H23  1  0.37324000  0.36884000  0.14869000  1.0
  H  H24  1  0.52606000  0.72683000  0.35034000  1.0
  H  H25  1  0.47395000  0.27318000  0.64966000  1.0
  H  H26  1  0.23882000  0.09457000  0.20086000  1.0
  H  H27  1  0.76117000  0.90542000  0.79913000  1.0
  H  H28  1  0.36796000  0.95666000  0.02897000  1.0
  H  H29  1  0.63204000  0.04334000  0.97102000  1.0
  H  H30  1  0.21488000  0.45065000  0.45864000  1.0
  H  H31  1  0.78513000  0.54935000  0.54135000  1.0
  H  H32  1  0.00876000  0.13051000  0.43068000  1.0
  H  H33  1  0.99124000  0.86949000  0.56932000  1.0
  H  H34  1  0.16333000  0.18171000  0.35639000  1.0
  H  H35  1  0.83667000  0.81828000  0.64360000  1.0
  C  C36  1  0.15077000  0.12816000  0.65198000  1.0
  C  C37  1  0.84923000  0.87184000  0.34803000  1.0
  C  C38  1  0.26295000  0.92230000  0.72746000  1.0
  C  C39  1  0.73705000  0.07770000  0.27254000  1.0
  C  C40  1  0.18435000  0.97938000  0.81397000  1.0
  C  C41  1  0.81565000  0.02062000  0.18603000  1.0
  C  C42  1  0.01962000  0.20771000  0.82437000  1.0
  C  C43  1  0.98038000  0.79228000  0.17564000  1.0
  C  C44  1  0.04074000  0.19889000  0.94213000  1.0
  C  C45  1  0.95925000  0.80111000  0.05787000  1.0
  C  C46  1  0.95145000  0.29506000  0.99963000  1.0
  C  C47  1  0.04856000  0.70493000  0.00037000  1.0
  C  C48  1  0.83863000  0.40322000  0.94230000  1.0
  C  C49  1  0.16136000  0.59678000  0.05770000  1.0
  C  C50  1  0.82103000  0.41032000  0.82357000  1.0
  C  C51  1  0.17897000  0.58968000  0.17644000  1.0
  C  C52  1  0.90882000  0.31423000  0.76537000  1.0
  C  C53  1  0.09118000  0.68577000  0.23464000  1.0
  C  C54  1  0.74389000  0.50595000  0.00338000  1.0
  C  C55  1  0.25611000  0.49404000  0.99662000  1.0
  C  C56  1  0.75451000  0.49763000  0.12256000  1.0
  C  C57  1  0.24549000  0.50236000  0.87744000  1.0
  C  C58  1  0.66666667  0.59594000  0.17878000  1.0
  C  C59  1  0.33327000  0.40406000  0.82122000  1.0
  C  C60  1  0.56321000  0.70639000  0.11711000  1.0
  C  C61  1  0.43679000  0.29361000  0.88289000  1.0
  C  C62  1  0.54965000  0.71579000  0.99893000  1.0
  C  C63  1  0.45035000  0.28421000  0.00107000  1.0
  C  C64  1  0.63902000  0.61776000  0.94357000  1.0
  C  C65  1  0.36098000  0.38223000  0.05643000  1.0
  C  C66  1  0.46484000  0.80856000  0.28757000  1.0
  C  C67  1  0.53516000  0.19144000  0.71243000  1.0
  C  C68  1  0.31662000  0.99670000  0.20647000  1.0
  C  C69  1  0.68337000  0.00330000  0.79353000  1.0
  C  C70  1  0.37966000  0.92942000  0.12057000  1.0
  C  C71  1  0.62033000  0.07058000  0.87943000  1.0
  C  C72  1  0.19785000  0.67278000  0.55207000  1.0
  C  C73  1  0.80215000  0.32723000  0.44792000  1.0
  C  C74  1  0.34100000  0.47321000  0.47670000  1.0
  C  C75  1  0.65900000  0.52679000  0.52330000  1.0
  C  C76  1  0.36008000  0.59176000  0.52500000  1.0
  C  C77  1  0.63993000  0.40824000  0.47500000  1.0
  C  C78  1  0.52343000  0.61894000  0.54856000  1.0
  C  C79  1  0.47658000  0.38106000  0.45144000  1.0
  C  C80  1  0.57673000  0.74085000  0.59623000  1.0
  C  C81  1  0.42327000  0.25915000  0.40376000  1.0
  N  N82  1  0.24140000  0.01587000  0.62707000  1.0
  N  N83  1  0.75861000  0.98413000  0.37293000  1.0
  N  N84  1  0.11285000  0.11072000  0.76548000  1.0
  N  N85  1  0.88715000  0.88928000  0.23452000  1.0
  N  N86  1  0.37055000  0.92018000  0.31034000  1.0
  N  N87  1  0.62945000  0.07982000  0.68966000  1.0
  N  N88  1  0.47466000  0.80933000  0.17272000  1.0
  N  N89  1  0.52534000  0.19067000  0.82729000  1.0
  O  O90  1  0.17094000  0.80479000  0.51290000  1.0
  O  O91  1  0.82906000  0.19522000  0.48709000  1.0
  O  O92  1  0.09178000  0.60505000  0.60611000  1.0
  O  O93  1  0.90823000  0.39496000  0.39388000  1.0
  O  O94  1  0.53024000  0.86557000  0.54444000  1.0
  O  O95  1  0.46976000  0.13443000  0.45556000  1.0
  O  O96  1  0.68040000  0.71454000  0.67739000  1.0
  O  O97  1  0.31959000  0.28546000  0.32261000  1.0
  O  O98  1  0.10999000  0.09720000  0.38912000  1.0
  O  O99  1  0.89001000  0.90280000  0.61088000  1.0
