# generated using pymatgen
data_Zn4H40C69N22O13
_symmetry_space_group_name_H-M   'P 1'
_cell_length_a   16.66040000
_cell_length_b   17.02110000
_cell_length_c   18.69651701
_cell_angle_alpha   114.12748540
_cell_angle_beta   103.50557419
_cell_angle_gamma   102.78700000
_symmetry_Int_Tables_number   1
_chemical_formula_structural   Zn4H40C69N22O13
_chemical_formula_sum   'Zn4 H40 C69 N22 O13'
_cell_volume   4394.92460184
_cell_formula_units_Z   1
loop_
 _symmetry_equiv_pos_site_id
 _symmetry_equiv_pos_as_xyz
  1  'x, y, z'
loop_
 _atom_site_type_symbol
 _atom_site_label
 _atom_site_symmetry_multiplicity
 _atom_site_fract_x
 _atom_site_fract_y
 _atom_site_fract_z
 _atom_site_occupancy
  Zn  Zn0  1  0.39109000  0.91595000  0.00151000  1.0
  Zn  Zn1  1  0.61338000  0.04439000  0.99744000  1.0
  Zn  Zn2  1  0.46665000  0.14921000  0.09913000  1.0
  Zn  Zn3  1  0.50727000  0.83726000  0.87052000  1.0
  H  H4  1  0.22670000  0.87220000  0.84333000  1.0
  H  H5  1  0.52357000  0.14340000  0.89534000  1.0
  H  H6  1  0.48713000  0.38527000  0.21835000  1.0
  H  H7  1  0.36381000  0.66204000  0.73036000  1.0
  H  H8  1  0.57953000  0.36024000  0.01426000  1.0
  H  H9  1  0.21085000  0.75621000  0.88338000  1.0
  H  H10  1  0.37797000  0.85303000  0.71799000  1.0
  H  H11  1  0.31871000  0.17099000  0.97774000  1.0
  H  H12  1  0.48715000  0.86349000  0.12855000  1.0
  H  H13  1  0.79175000  0.21667000  0.12568000  1.0
  H  H14  1  0.45252000  0.18066000  0.28016000  1.0
  H  H15  1  0.31860000  0.88446000  0.14143000  1.0
  H  H16  1  0.69562000  0.90388000  0.03141000  1.0
  H  H17  1  0.62080000  0.27872000  0.26641000  1.0
  H  H18  1  0.13533000  0.56612000  0.48572000  1.0
  H  H19  1  0.25620000  0.64552000  0.62216000  1.0
  H  H20  1  0.94842000  0.53848000  0.60716000  1.0
  H  H21  1  0.86076000  0.53785000  0.49413000  1.0
  H  H22  1  0.73570000  0.42530000  0.36213000  1.0
  H  H23  1  0.91339000  0.30853000  0.25853000  1.0
  H  H24  1  0.03811000  0.42165000  0.38963000  1.0
  H  H25  1  0.49701000  0.15945000  0.62952000  1.0
  H  H26  1  0.52117000  0.15048000  0.76056000  1.0
  H  H27  1  0.28841000  0.90442000  0.63351000  1.0
  H  H28  1  0.26555000  0.91223000  0.50206000  1.0
  H  H29  1  0.36152000  0.88870000  0.27563000  1.0
  H  H30  1  0.39213000  0.17642000  0.38935000  1.0
  H  H31  1  0.38995000  0.17434000  0.51974000  1.0
  H  H32  1  0.66766000  0.50853000  0.09449000  1.0
  H  H33  1  0.49967000  0.54788000  0.23984000  1.0
  H  H34  1  0.52271000  0.70359000  0.25655000  1.0
  H  H35  1  0.56024000  0.80827000  0.20189000  1.0
  H  H36  1  0.87412000  0.06271000  0.85935000  1.0
  H  H37  1  0.78547000  0.76567000  0.74006000  1.0
  H  H38  1  0.02144000  0.15187000  0.88178000  1.0
  H  H39  1  0.17646000  0.16190000  0.90688000  1.0
  H  H40  1  0.09158000  0.86486000  0.78071000  1.0
  H  H41  1  0.91436000  0.03323000  0.02046000  1.0
  H  H42  1  0.84600000  0.07228000  0.07839000  1.0
  H  H43  1  0.93145000  0.15406000  0.07398000  1.0
  C  C44  1  0.26234000  0.94569000  0.88348000  1.0
  C  C45  1  0.49585000  0.06860000  0.86038000  1.0
  C  C46  1  0.50482000  0.36368000  0.16274000  1.0
  C  C47  1  0.33879000  0.69508000  0.77903000  1.0
  C  C48  1  0.55322000  0.34960000  0.05895000  1.0
  C  C49  1  0.26092000  0.74219000  0.85724000  1.0
  C  C50  1  0.41935000  0.92038000  0.77133000  1.0
  C  C51  1  0.30834000  0.09813000  0.95196000  1.0
  C  C52  1  0.23510000  0.01960000  0.88787000  1.0
  C  C53  1  0.43543000  0.00806000  0.77749000  1.0
  C  C54  1  0.54990000  0.41697000  0.13345000  1.0
  C  C55  1  0.25119000  0.68619000  0.77347000  1.0
  C  C56  1  0.53246000  0.88162000  0.09971000  1.0
  C  C57  1  0.73851000  0.21964000  0.14970000  1.0
  C  C58  1  0.42071000  0.10797000  0.23402000  1.0
  C  C59  1  0.66695000  0.85381000  0.82181000  1.0
  C  C60  1  0.75644000  0.99519000  0.91533000  1.0
  C  C61  1  0.35368000  0.95687000  0.16386000  1.0
  C  C62  1  0.63796000  0.89973000  0.04891000  1.0
  C  C63  1  0.65063000  0.25066000  0.22059000  1.0
  C  C64  1  0.61086000  0.86299000  0.09778000  1.0
  C  C65  1  0.73920000  0.28145000  0.22774000  1.0
  C  C66  1  0.38217000  0.03305000  0.24452000  1.0
  C  C67  1  0.75035000  0.91845000  0.84153000  1.0
  C  C68  1  0.12017000  0.57572000  0.54172000  1.0
  C  C69  1  0.18865000  0.62122000  0.61927000  1.0
  C  C70  1  0.17431000  0.63910000  0.69501000  1.0
  C  C71  1  0.08498000  0.60935000  0.68608000  1.0
  C  C72  1  0.01554000  0.56162000  0.60882000  1.0
  C  C73  1  0.03178000  0.54322000  0.53452000  1.0
  C  C74  1  0.87238000  0.48701000  0.44270000  1.0
  C  C75  1  0.80185000  0.42334000  0.36825000  1.0
  C  C76  1  0.81425000  0.35591000  0.30119000  1.0
  C  C77  1  0.90129000  0.35951000  0.30938000  1.0
  C  C78  1  0.97195000  0.42366000  0.38341000  1.0
  C  C79  1  0.95854000  0.48645000  0.45260000  1.0
  C  C80  1  0.45015000  0.10417000  0.63048000  1.0
  C  C81  1  0.46363000  0.09928000  0.70458000  1.0
  C  C82  1  0.40874000  0.02489000  0.70635000  1.0
  C  C83  1  0.33485000  0.96037000  0.63299000  1.0
  C  C84  1  0.32190000  0.96471000  0.55872000  1.0
  C  C85  1  0.38173000  0.03438000  0.55530000  1.0
  C  C86  1  0.36896000  0.95349000  0.40291000  1.0
  C  C87  1  0.36708000  0.95244000  0.32781000  1.0
  C  C88  1  0.37733000  0.03302000  0.32144000  1.0
  C  C89  1  0.38591000  0.11286000  0.39249000  1.0
  C  C90  1  0.38541000  0.11201000  0.46645000  1.0
  C  C91  1  0.37801000  0.03260000  0.47500000  1.0
  C  C92  1  0.57818000  0.51491000  0.16094000  1.0
  C  C93  1  0.64048000  0.80217000  0.12638000  1.0
  C  C94  1  0.70066000  0.67778000  0.10014000  1.0
  C  C95  1  0.69700000  0.75650000  0.09631000  1.0
  C  C96  1  0.60065000  0.77266000  0.17332000  1.0
  C  C97  1  0.60326000  0.69369000  0.17962000  1.0
  C  C98  1  0.64866000  0.63887000  0.13646000  1.0
  C  C99  1  0.63642000  0.55145000  0.13000000  1.0
  C  C100  1  0.54162000  0.57387000  0.21159000  1.0
  C  C101  1  0.55415333  0.66049000  0.22082000  1.0
  C  C102  1  0.82190000  0.91527000  0.80918000  1.0
  C  C103  1  0.14514000  0.01338000  0.85077000  1.0
  C  C104  1  0.03747000  0.08934000  0.85988000  1.0
  C  C105  1  0.12356000  0.09469000  0.87380000  1.0
  C  C106  1  0.07653000  0.92767000  0.80208000  1.0
  C  C107  1  0.98770000  0.91996000  0.78793000  1.0
  C  C108  1  0.96812000  0.00269000  0.82310000  1.0
  C  C109  1  0.88543000  0.99830000  0.83035000  1.0
  C  C110  1  0.83594000  0.83255000  0.76458000  1.0
  C  C111  1  0.91424000  0.83545000  0.75106000  1.0
  C  C112  1  0.88213000  0.08417000  0.03931000  1.0
  N  N113  1  0.34355000  0.97793000  0.94138000  1.0
  N  N114  1  0.51498000  0.01947000  0.89886000  1.0
  N  N115  1  0.48426000  0.27347000  0.10921000  1.0
  N  N116  1  0.39572000  0.75434000  0.85873000  1.0
  N  N117  1  0.51397000  0.26462000  0.04434000  1.0
  N  N118  1  0.34687000  0.78437000  0.90730000  1.0
  N  N119  1  0.46774000  0.92831000  0.84382000  1.0
  N  N120  1  0.37197000  0.07194000  0.98360000  1.0
  N  N121  1  0.51449000  0.92418000  0.05489000  1.0
  N  N122  1  0.65588000  0.15821000  0.10094000  1.0
  N  N123  1  0.41586000  0.07855000  0.15397000  1.0
  N  N124  1  0.63074000  0.88965000  0.87899000  1.0
  N  N125  1  0.68440000  0.97643000  0.93536000  1.0
  N  N126  1  0.37374000  0.98467000  0.11035000  1.0
  N  N127  1  0.57865000  0.93455000  0.02181000  1.0
  N  N128  1  0.60112000  0.17673000  0.14472000  1.0
  N  N129  1  0.61093000  0.76516000  0.75261000  1.0
  N  N130  1  0.05800000  0.62752000  0.75928000  1.0
  N  N131  1  0.36968000  0.86748000  0.40447000  1.0
  N  N132  1  0.75948000  0.63433000  0.06496000  1.0
  N  N133  1  0.74826000  0.79063000  0.05364000  1.0
  N  N134  1  0.91950000  0.74693000  0.69697000  1.0
  O  O135  1  0.63658000  0.72555000  0.69565000  1.0
  O  O136  1  0.53460000  0.73183000  0.75251000  1.0
  O  O137  1  0.82237000  0.07837000  0.96536000  1.0
  O  O138  1  0.01947000  0.56072000  0.76494000  1.0
  O  O139  1  0.07342000  0.70955000  0.80922000  1.0
  O  O140  1  0.42748000  0.87376000  0.46392000  1.0
  O  O141  1  0.31414000  0.79406000  0.34381000  1.0
  O  O142  1  0.72913000  0.54990000  0.01723000  1.0
  O  O143  1  0.83612000  0.68572000  0.08610000  1.0
  O  O144  1  0.80729000  0.86756000  0.09775000  1.0
  O  O145  1  0.72567000  0.74245000  0.97663000  1.0
  O  O146  1  0.86779000  0.67490000  0.68685000  1.0
  O  O147  1  0.97415000  0.74857000  0.66168000  1.0
