# generated using pymatgen
data_Cu3H12C19(O2F)6
_symmetry_space_group_name_H-M   'P 1'
_cell_length_a   7.18567000
_cell_length_b   12.03690000
_cell_length_c   29.32780000
_cell_angle_alpha   89.99500000
_cell_angle_beta   89.97600000
_cell_angle_gamma   83.33930000
_symmetry_Int_Tables_number   1
_chemical_formula_structural   Cu3H12C19(O2F)6
_chemical_formula_sum   'Cu12 H48 C76 O48 F24'
_cell_volume   2519.53349056
_cell_formula_units_Z   4
loop_
 _symmetry_equiv_pos_site_id
 _symmetry_equiv_pos_as_xyz
  1  'x, y, z'
loop_
 _atom_site_type_symbol
 _atom_site_label
 _atom_site_symmetry_multiplicity
 _atom_site_fract_x
 _atom_site_fract_y
 _atom_site_fract_z
 _atom_site_occupancy
  Cu  Cu0  1  0.94642000  0.77262000  0.95854000  1.0
  Cu  Cu1  1  0.55455000  0.72709000  0.45861000  1.0
  Cu  Cu2  1  0.05358000  0.22738000  0.04146000  1.0
  Cu  Cu3  1  0.44545000  0.27291000  0.54139000  1.0
  Cu  Cu4  1  0.50000000  0.50000000  0.50000000  1.0
  Cu  Cu5  1  0.00000000  0.00000000  0.00000000  1.0
  Cu  Cu6  1  0.23483000  0.81750000  0.52324000  1.0
  Cu  Cu7  1  0.26503000  0.68190000  0.02340000  1.0
  Cu  Cu8  1  0.76517000  0.18250000  0.47677000  1.0
  Cu  Cu9  1  0.73496000  0.31810000  0.97660000  1.0
  Cu  Cu10  1  0.50000000  0.00000000  0.50000000  1.0
  Cu  Cu11  1  0.00000000  0.50000000  0.00000000  1.0
  H  H12  1  0.16695000  0.49068000  0.85716000  1.0
  H  H13  1  0.33272000  0.00929000  0.35719000  1.0
  H  H14  1  0.83305000  0.50933000  0.14284000  1.0
  H  H15  1  0.66729000  0.99070000  0.64282000  1.0
  H  H16  1  0.65310000  0.53505000  0.77528000  1.0
  H  H17  1  0.84696000  0.96496000  0.27526000  1.0
  H  H18  1  0.34690000  0.46494000  0.22472000  1.0
  H  H19  1  0.15305000  0.03504000  0.72474000  1.0
  H  H20  1  0.81061000  0.59620000  0.84437000  1.0
  H  H21  1  0.68909000  0.90379000  0.34436000  1.0
  H  H22  1  0.18939000  0.40380000  0.15563000  1.0
  H  H23  1  0.31091000  0.09622000  0.65564000  1.0
  H  H24  1  0.39247000  0.38357000  0.67753000  1.0
  H  H25  1  0.10758000  0.11641000  0.17758000  1.0
  H  H26  1  0.60753000  0.61643000  0.32247000  1.0
  H  H27  1  0.89243000  0.88359000  0.82242000  1.0
  H  H28  1  0.36711000  0.79467000  0.68709000  1.0
  H  H29  1  0.13296000  0.70532000  0.18711000  1.0
  H  H30  1  0.63289000  0.20533000  0.31291000  1.0
  H  H31  1  0.86704000  0.29468000  0.81289000  1.0
  H  H32  1  0.33783000  0.68779000  0.75717000  1.0
  H  H33  1  0.16227000  0.81212000  0.25719000  1.0
  H  H34  1  0.66217000  0.31220000  0.24283000  1.0
  H  H35  1  0.83774000  0.18788000  0.74281000  1.0
  H  H36  1  0.22089000  0.86638000  0.95850000  1.0
  H  H37  1  0.27920000  0.63407000  0.45877000  1.0
  H  H38  1  0.77911000  0.13363000  0.04150000  1.0
  H  H39  1  0.72079000  0.36593000  0.54123000  1.0
  H  H40  1  0.55579000  0.80765000  0.54074000  1.0
  H  H41  1  0.94440000  0.69202000  0.04100000  1.0
  H  H42  1  0.44421000  0.19235000  0.45926000  1.0
  H  H43  1  0.05560000  0.30798000  0.95900000  1.0
  H  H44  1  0.87968000  0.86465000  0.50992000  1.0
  H  H45  1  0.61999000  0.63538000  0.00989000  1.0
  H  H46  1  0.12032000  0.13535000  0.49008000  1.0
  H  H47  1  0.38001000  0.36462000  0.99011000  1.0
  H  H48  1  0.90057000  0.82166000  0.56156000  1.0
  H  H49  1  0.59890000  0.67847000  0.06153000  1.0
  H  H50  1  0.09942000  0.17834000  0.43844000  1.0
  H  H51  1  0.40110000  0.32152000  0.93847000  1.0
  H  H52  1  0.61951000  0.83567000  0.01522000  1.0
  H  H53  1  0.88023000  0.66441000  0.51523000  1.0
  H  H54  1  0.38048000  0.16433000  0.98478000  1.0
  H  H55  1  0.11977000  0.33559000  0.48477000  1.0
  H  H56  1  0.58449000  0.93101000  0.97906000  1.0
  H  H57  1  0.91574000  0.56902000  0.47909000  1.0
  H  H58  1  0.41551000  0.06898000  0.02094000  1.0
  H  H59  1  0.08425000  0.43098000  0.52092000  1.0
  C  C60  1  0.68733000  0.61079000  0.92993000  1.0
  C  C61  1  0.81252000  0.88919000  0.42995000  1.0
  C  C62  1  0.31267000  0.38921000  0.07007000  1.0
  C  C63  1  0.18748000  0.11082000  0.57005000  1.0
  C  C64  1  0.58038000  0.57706000  0.88908000  1.0
  C  C65  1  0.91925000  0.92291000  0.38906000  1.0
  C  C66  1  0.41962000  0.42294000  0.11092000  1.0
  C  C67  1  0.08075000  0.07709000  0.61094000  1.0
  C  C68  1  0.39610000  0.54875000  0.89179000  1.0
  C  C69  1  0.10352000  0.95115000  0.39178000  1.0
  C  C70  1  0.60390000  0.45126000  0.10821000  1.0
  C  C71  1  0.89648000  0.04885000  0.60822000  1.0
  C  C72  1  0.28540000  0.56596000  0.93505000  1.0
  C  C73  1  0.21462000  0.93367000  0.43495000  1.0
  C  C74  1  0.71460000  0.43404000  0.06495000  1.0
  C  C75  1  0.78538000  0.06633000  0.56505000  1.0
  C  C76  1  0.30809000  0.51306000  0.85287000  1.0
  C  C77  1  0.19162000  0.98690000  0.35286000  1.0
  C  C78  1  0.69191000  0.48694000  0.14713000  1.0
  C  C79  1  0.80838000  0.01310000  0.64714000  1.0
  C  C80  1  0.39797000  0.50824000  0.81040000  1.0
  C  C81  1  0.10188000  0.99174000  0.31041000  1.0
  C  C82  1  0.60203000  0.49176000  0.18960000  1.0
  C  C83  1  0.89812000  0.00826000  0.68959000  1.0
  C  C84  1  0.58058000  0.53762000  0.80793000  1.0
  C  C85  1  0.91929000  0.96236000  0.30792000  1.0
  C  C86  1  0.41942000  0.46238000  0.19207000  1.0
  C  C87  1  0.08071000  0.03764000  0.69208000  1.0
  C  C88  1  0.66983000  0.57186000  0.84676000  1.0
  C  C89  1  0.82987000  0.92812000  0.34674000  1.0
  C  C90  1  0.33017000  0.42814000  0.15324000  1.0
  C  C91  1  0.17013000  0.07188000  0.65326000  1.0
  C  C92  1  0.30738000  0.46720000  0.76688000  1.0
  C  C93  1  0.19265000  0.03278000  0.26690000  1.0
  C  C94  1  0.69262000  0.53280000  0.23312000  1.0
  C  C95  1  0.80736000  0.96722000  0.73310000  1.0
  C  C96  1  0.36439000  0.33849000  0.76462000  1.0
  C  C97  1  0.13563000  0.16149000  0.26462000  1.0
  C  C98  1  0.63562000  0.66151000  0.23538000  1.0
  C  C99  1  0.86437000  0.83851000  0.73538000  1.0
  C  C100  1  0.09030000  0.49102000  0.76877000  1.0
  C  C101  1  0.40973000  0.00898000  0.26877000  1.0
  C  C102  1  0.90970000  0.50898000  0.23123000  1.0
  C  C103  1  0.59028000  0.99102000  0.73123000  1.0
  C  C104  1  0.36360000  0.52694000  0.72351000  1.0
  C  C105  1  0.13648000  0.97301000  0.22354000  1.0
  C  C106  1  0.63640000  0.47306000  0.27649000  1.0
  C  C107  1  0.86352000  0.02699000  0.77646000  1.0
  C  C108  1  0.39270000  0.47333000  0.68147000  1.0
  C  C109  1  0.10724000  0.02666000  0.18152000  1.0
  C  C110  1  0.60730000  0.52667000  0.31853000  1.0
  C  C111  1  0.89276000  0.97334000  0.81848000  1.0
  C  C112  1  0.41754000  0.53421000  0.64172000  1.0
  C  C113  1  0.08210000  0.96585000  0.14178000  1.0
  C  C114  1  0.58246000  0.46579000  0.35828000  1.0
  C  C115  1  0.91790000  0.03415000  0.85822000  1.0
  C  C116  1  0.43997000  0.47316000  0.59743000  1.0
  C  C117  1  0.06018000  0.02680000  0.09747000  1.0
  C  C118  1  0.56003000  0.52684000  0.40257000  1.0
  C  C119  1  0.93982000  0.97320000  0.90253000  1.0
  C  C120  1  0.40995000  0.65159000  0.64322000  1.0
  C  C121  1  0.08973000  0.84847000  0.14327000  1.0
  C  C122  1  0.59005000  0.34841000  0.35678000  1.0
  C  C123  1  0.91027000  0.15153000  0.85673000  1.0
  C  C124  1  0.37998000  0.70429000  0.68534000  1.0
  C  C125  1  0.11992000  0.79570000  0.18537000  1.0
  C  C126  1  0.62002000  0.29571000  0.31466000  1.0
  C  C127  1  0.88007000  0.20430000  0.81463000  1.0
  C  C128  1  0.36069000  0.64343000  0.72497000  1.0
  C  C129  1  0.13934000  0.85653000  0.22501000  1.0
  C  C130  1  0.63931000  0.35657000  0.27503000  1.0
  C  C131  1  0.86066000  0.14347000  0.77499000  1.0
  C  C132  1  0.42594000  0.72444000  0.60168000  1.0
  C  C133  1  0.07398000  0.77566000  0.10171000  1.0
  C  C134  1  0.57406000  0.27556000  0.39832000  1.0
  C  C135  1  0.92603000  0.22434000  0.89829000  1.0
  O  O136  1  0.76294000  0.70069000  0.92415000  1.0
  O  O137  1  0.73686000  0.79927000  0.42412000  1.0
  O  O138  1  0.23706000  0.29931000  0.07585000  1.0
  O  O139  1  0.26314000  0.20073000  0.57588000  1.0
  O  O140  1  0.69929000  0.54938000  0.96525000  1.0
  O  O141  1  0.80098000  0.95037000  0.46531000  1.0
  O  O142  1  0.30071000  0.45062000  0.03475000  1.0
  O  O143  1  0.19901000  0.04963000  0.53469000  1.0
  O  O144  1  0.33111000  0.64461000  0.96028000  1.0
  O  O145  1  0.16925000  0.85460000  0.46009000  1.0
  O  O146  1  0.66889000  0.35539000  0.03972000  1.0
  O  O147  1  0.83074000  0.14540000  0.53991000  1.0
  O  O148  1  0.15588000  0.50433000  0.94239000  1.0
  O  O149  1  0.34408000  0.99518000  0.44224000  1.0
  O  O150  1  0.84412000  0.49567000  0.05761000  1.0
  O  O151  1  0.65592000  0.00482000  0.55776000  1.0
  O  O152  1  0.43966000  0.53585000  0.56240000  1.0
  O  O153  1  0.06213000  0.96417000  0.06245000  1.0
  O  O154  1  0.56034000  0.46415000  0.43760000  1.0
  O  O155  1  0.93787000  0.03583000  0.93755000  1.0
  O  O156  1  0.45413000  0.36659000  0.59779000  1.0
  O  O157  1  0.04505000  0.13349000  0.09783000  1.0
  O  O158  1  0.54587000  0.63341000  0.40222000  1.0
  O  O159  1  0.95495000  0.86651000  0.90217000  1.0
  O  O160  1  0.26538000  0.76401000  0.58495000  1.0
  O  O161  1  0.23461000  0.73578000  0.08509000  1.0
  O  O162  1  0.73462000  0.23599000  0.41505000  1.0
  O  O163  1  0.76539000  0.26422000  0.91491000  1.0
  O  O164  1  0.58366000  0.74694000  0.58846000  1.0
  O  O165  1  0.91635000  0.75332000  0.08837000  1.0
  O  O166  1  0.41634000  0.25306000  0.41154000  1.0
  O  O167  1  0.08365000  0.24668000  0.91163000  1.0
  O  O168  1  0.14111000  0.85492000  0.98464000  1.0
  O  O169  1  0.35918000  0.64490000  0.48493000  1.0
  O  O170  1  0.85889000  0.14508000  0.01536000  1.0
  O  O171  1  0.64082000  0.35511000  0.51507000  1.0
  O  O172  1  0.94984000  0.80787000  0.53076000  1.0
  O  O173  1  0.54957000  0.69207000  0.03073000  1.0
  O  O174  1  0.05016000  0.19213000  0.46924000  1.0
  O  O175  1  0.45043000  0.30793000  0.96927000  1.0
  O  O176  1  0.49982000  0.83697000  0.51016000  1.0
  O  O177  1  0.00010000  0.66281000  0.01031000  1.0
  O  O178  1  0.50018000  0.16303000  0.48984000  1.0
  O  O179  1  0.99990000  0.33719000  0.98969000  1.0
  O  O180  1  0.67183000  0.90163000  0.00274000  1.0
  O  O181  1  0.82810000  0.59842000  0.50271000  1.0
  O  O182  1  0.32816000  0.09837000  0.99726000  1.0
  O  O183  1  0.17189000  0.40158000  0.49729000  1.0
  F  F184  1  0.54779000  0.31817000  0.75219000  1.0
  F  F185  1  0.95225000  0.18180000  0.25221000  1.0
  F  F186  1  0.45221000  0.68182000  0.24781000  1.0
  F  F187  1  0.04776000  0.81819000  0.74779000  1.0
  F  F188  1  0.34593000  0.28762000  0.80535000  1.0
  F  F189  1  0.15402000  0.21236000  0.30535000  1.0
  F  F190  1  0.65407000  0.71238000  0.19465000  1.0
  F  F191  1  0.84598000  0.78764000  0.69465000  1.0
  F  F192  1  0.26153000  0.28608000  0.73390000  1.0
  F  F193  1  0.23854000  0.21390000  0.23389000  1.0
  F  F194  1  0.73847000  0.71392000  0.26610000  1.0
  F  F195  1  0.76146000  0.78610000  0.76611000  1.0
  F  F196  1  0.01318000  0.42700000  0.80049000  1.0
  F  F197  1  0.48676000  0.07300000  0.30049000  1.0
  F  F198  1  0.98682000  0.57300000  0.19951000  1.0
  F  F199  1  0.51324000  0.92700000  0.69952000  1.0
  F  F200  1  0.00737000  0.47181000  0.72840000  1.0
  F  F201  1  0.49274000  0.02819000  0.22839000  1.0
  F  F202  1  0.99263000  0.52819000  0.27160000  1.0
  F  F203  1  0.50727000  0.97181000  0.77161000  1.0
  F  F204  1  0.03606000  0.59957000  0.78007000  1.0
  F  F205  1  0.46397000  0.90042000  0.28008000  1.0
  F  F206  1  0.96394000  0.40043000  0.21993000  1.0
  F  F207  1  0.53604000  0.09957000  0.71992000  1.0
