# generated using pymatgen
data_CdP2H36C22S4(NO2)2
_symmetry_space_group_name_H-M   'P 1'
_cell_length_a   11.67030000
_cell_length_b   11.74930000
_cell_length_c   14.59026128
_cell_angle_alpha   98.57068219
_cell_angle_beta   107.44134680
_cell_angle_gamma   115.84200000
_symmetry_Int_Tables_number   1
_chemical_formula_structural   CdP2H36C22S4(NO2)2
_chemical_formula_sum   'Cd2 P4 H72 C44 S8 N4 O8'
_cell_volume   1624.06438620
_cell_formula_units_Z   2
loop_
 _symmetry_equiv_pos_site_id
 _symmetry_equiv_pos_as_xyz
  1  'x, y, z'
loop_
 _atom_site_type_symbol
 _atom_site_label
 _atom_site_symmetry_multiplicity
 _atom_site_fract_x
 _atom_site_fract_y
 _atom_site_fract_z
 _atom_site_occupancy
  Cd  Cd0  1  0.50000000  0.50000000  0.50000000  1.0
  Cd  Cd1  1  0.50000000  1.00000000  1.00000000  1.0
  P  P2  1  0.52363000  0.70498000  0.37574000  1.0
  P  P3  1  0.82937000  0.14877000  0.12434000  1.0
  P  P4  1  0.47637000  0.29502000  0.62426000  1.0
  P  P5  1  0.17063000  0.85123000  0.87566000  1.0
  H  H6  1  0.80686000  0.82715000  0.45375000  1.0
  H  H7  1  0.87333000  0.35288000  0.04636000  1.0
  H  H8  1  0.19314000  0.17285000  0.54625000  1.0
  H  H9  1  0.12668000  0.64712000  0.95364000  1.0
  H  H10  1  0.73392000  0.62854000  0.31333000  1.0
  H  H11  1  0.81394000  0.41984000  0.18734000  1.0
  H  H12  1  0.26608000  0.37146000  0.68667000  1.0
  H  H13  1  0.18606000  0.58016000  0.81266000  1.0
  H  H14  1  0.90737000  0.75607000  0.34236000  1.0
  H  H15  1  0.91275000  0.56275000  0.15741000  1.0
  H  H16  1  0.09263000  0.24393000  0.65764000  1.0
  H  H17  1  0.08725000  0.43725000  0.84259000  1.0
  H  H18  1  0.76603000  0.72790000  0.23253000  1.0
  H  H19  1  0.99465000  0.53199000  0.26744000  1.0
  H  H20  1  0.23397000  0.27210000  0.76747000  1.0
  H  H21  1  0.00535000  0.46801000  0.73256000  1.0
  H  H22  1  0.85136000  0.04176000  0.42718000  1.0
  H  H23  1  0.11641000  0.42486000  0.07251000  1.0
  H  H24  1  0.14864000  0.95824000  0.57282000  1.0
  H  H25  1  0.88359000  0.57515000  0.92749000  1.0
  H  H26  1  0.82974000  0.98065000  0.30034000  1.0
  H  H27  1  0.18071000  0.52881000  0.19928000  1.0
  H  H28  1  0.17026000  0.01935000  0.69966000  1.0
  H  H29  1  0.81929000  0.47120000  0.80072000  1.0
  H  H30  1  0.97524000  0.00505000  0.40426000  1.0
  H  H31  1  0.10058000  0.56960000  0.09526000  1.0
  H  H32  1  0.02476000  0.99495000  0.59574000  1.0
  H  H33  1  0.89943000  0.43040000  0.90474000  1.0
  H  H34  1  0.49771000  0.91056000  0.45221000  1.0
  H  H35  1  0.95930000  0.04595000  0.04753000  1.0
  H  H36  1  0.50230000  0.08945000  0.54780000  1.0
  H  H37  1  0.04070000  0.95405000  0.95247000  1.0
  H  H38  1  0.54878000  0.97268000  0.30672000  1.0
  H  H39  1  0.16667000  0.24115000  0.19264000  1.0
  H  H40  1  0.45122000  0.02732000  0.69328000  1.0
  H  H41  1  0.83333000  0.75885000  0.80736000  1.0
  H  H42  1  0.45761000  0.04727000  0.34281000  1.0
  H  H43  1  0.20634000  0.11517000  0.15685000  1.0
  H  H44  1  0.54239000  0.95272000  0.65719000  1.0
  H  H45  1  0.79366000  0.88483000  0.84315000  1.0
  H  H46  1  0.36687000  0.90342000  0.23258000  1.0
  H  H47  1  0.17131000  0.13425000  0.26714000  1.0
  H  H48  1  0.63313000  0.09658000  0.76742000  1.0
  H  H49  1  0.82869000  0.86575000  0.73286000  1.0
  H  H50  1  0.25495000  0.76843000  0.43120000  1.0
  H  H51  1  0.83735000  0.82630000  0.06948000  1.0
  H  H52  1  0.74505000  0.23157000  0.56880000  1.0
  H  H53  1  0.16265000  0.17370000  0.93052000  1.0
  H  H54  1  0.18925000  0.77694000  0.30651000  1.0
  H  H55  1  0.97043000  0.88471000  0.19405000  1.0
  H  H56  1  0.81074000  0.22306000  0.69349000  1.0
  H  H57  1  0.02958000  0.11530000  0.80596000  1.0
  H  H58  1  0.27915000  0.92378000  0.41429000  1.0
  H  H59  1  0.01036000  0.86673000  0.08602000  1.0
  H  H60  1  0.72084000  0.07621000  0.58571000  1.0
  H  H61  1  0.98964000  0.13327000  0.91398000  1.0
  H  H62  1  0.58456000  0.34268000  0.37029000  1.0
  H  H63  1  0.47194000  0.21594000  0.13019000  1.0
  H  H64  1  0.41544000  0.65732000  0.62971000  1.0
  H  H65  1  0.52806000  0.78406000  0.86981000  1.0
  H  H66  1  0.78758000  0.33065000  0.36157000  1.0
  H  H67  1  0.46932000  0.42654000  0.13910000  1.0
  H  H68  1  0.21242000  0.66936000  0.63843000  1.0
  H  H69  1  0.53069000  0.57347000  0.86091000  1.0
  H  H70  1  0.04713000  0.67415000  0.63864000  1.0
  H  H71  1  0.53617000  0.40867000  0.86078000  1.0
  H  H72  1  0.95287000  0.32585000  0.36136000  1.0
  H  H73  1  0.46384000  0.59134000  0.13923000  1.0
  H  H74  1  0.83182000  0.66878000  0.63429000  1.0
  H  H75  1  0.53478000  0.19917000  0.86503000  1.0
  H  H76  1  0.16818000  0.33121000  0.36571000  1.0
  H  H77  1  0.46522000  0.80083000  0.13497000  1.0
  C  C78  1  0.78033000  0.83083000  0.37554000  1.0
  C  C79  1  0.95517000  0.40404000  0.12444000  1.0
  C  C80  1  0.21967000  0.16917000  0.62446000  1.0
  C  C81  1  0.04483000  0.59596000  0.87556000  1.0
  C  C82  1  0.79738000  0.72936000  0.31182000  1.0
  C  C83  1  0.91666000  0.48408000  0.18834000  1.0
  C  C84  1  0.20262000  0.27064000  0.68818000  1.0
  C  C85  1  0.08334000  0.51592000  0.81166000  1.0
  C  C86  1  0.86386000  0.97294000  0.37671000  1.0
  C  C87  1  0.09672000  0.48654000  0.12294000  1.0
  C  C88  1  0.13614000  0.02706000  0.62329000  1.0
  C  C89  1  0.90328000  0.51346000  0.87706000  1.0
  C  C90  1  0.41314000  0.86385000  0.37536000  1.0
  C  C91  1  0.98916000  0.03858000  0.12457000  1.0
  C  C92  1  0.58686000  0.13615000  0.62464000  1.0
  C  C93  1  0.01084000  0.96141000  0.87543000  1.0
  C  C94  1  0.44925000  0.95189000  0.31024000  1.0
  C  C95  1  0.14262000  0.13895000  0.18937000  1.0
  C  C96  1  0.55074000  0.04811000  0.68976000  1.0
  C  C97  1  0.85739000  0.86105000  0.81064000  1.0
  C  C98  1  0.27558000  0.83076000  0.38240000  1.0
  C  C99  1  0.94873000  0.89508000  0.11803000  1.0
  C  C100  1  0.72442000  0.16924000  0.61760000  1.0
  C  C101  1  0.05127000  0.10492000  0.88197000  1.0
  C  C102  1  0.68978000  0.41417000  0.42773000  1.0
  C  C103  1  0.48605000  0.26311000  0.07234000  1.0
  C  C104  1  0.31022000  0.58583000  0.57227000  1.0
  C  C105  1  0.51395000  0.73689000  0.92766000  1.0
  C  C106  1  0.80431000  0.40818000  0.42397000  1.0
  C  C107  1  0.48420000  0.38088000  0.07627000  1.0
  C  C108  1  0.19570000  0.59183000  0.57603000  1.0
  C  C109  1  0.51580000  0.61912000  0.92373000  1.0
  C  C110  1  0.93769000  0.50180000  0.50019000  1.0
  C  C111  1  0.50168000  0.43784000  0.99977000  1.0
  C  C112  1  0.06231000  0.49820000  0.49981000  1.0
  C  C113  1  0.49832000  0.56216000  0.00023000  1.0
  C  C114  1  0.94778000  0.59818000  0.57674000  1.0
  C  C115  1  0.52170000  0.37153000  0.92294000  1.0
  C  C116  1  0.05221000  0.40181000  0.42325000  1.0
  C  C117  1  0.47829000  0.62846000  0.07706000  1.0
  C  C118  1  0.82746000  0.59655000  0.57502000  1.0
  C  C119  1  0.52154000  0.25352000  0.92461000  1.0
  C  C120  1  0.17254000  0.40345000  0.42498000  1.0
  C  C121  1  0.47846000  0.74648000  0.07539000  1.0
  S  S122  1  0.43790000  0.50926000  0.30678000  1.0
  S  S123  1  0.70077000  0.13162000  0.19319000  1.0
  S  S124  1  0.56210000  0.49074000  0.69322000  1.0
  S  S125  1  0.29923000  0.86838000  0.80681000  1.0
  S  S126  1  0.61269000  0.76806000  0.52826000  1.0
  S  S127  1  0.74081000  0.08576000  0.97176000  1.0
  S  S128  1  0.38731000  0.23194000  0.47174000  1.0
  S  S129  1  0.25919000  0.91424000  0.02824000  1.0
  N  N130  1  0.70100000  0.50627000  0.50182000  1.0
  N  N131  1  0.50391000  0.20009000  0.99789000  1.0
  N  N132  1  0.29900000  0.49374000  0.49818000  1.0
  N  N133  1  0.49609000  0.79991000  0.00211000  1.0
  O  O134  1  0.63330000  0.79564000  0.33441000  1.0
  O  O135  1  0.96141000  0.29877000  0.16552000  1.0
  O  O136  1  0.36670000  0.20436000  0.66559000  1.0
  O  O137  1  0.03859000  0.70123000  0.83448000  1.0
  O  O138  1  0.40064000  0.73560000  0.33132000  1.0
  O  O139  1  0.90444000  0.07060000  0.16879000  1.0
  O  O140  1  0.59937000  0.26441000  0.66869000  1.0
  O  O141  1  0.09556000  0.92940000  0.83121000  1.0
