# generated using pymatgen
data_MgH10C10N2O3
_symmetry_space_group_name_H-M   'P 1'
_cell_length_a   6.75286000
_cell_length_b   34.98230000
_cell_length_c   34.98610000
_cell_angle_alpha   119.60400000
_cell_angle_beta   93.70000000
_cell_angle_gamma   93.65350000
_symmetry_Int_Tables_number   1
_chemical_formula_structural   MgH10C10N2O3
_chemical_formula_sum   'Mg6 H60 C60 N12 O18'
_cell_volume   7127.26394061
_cell_formula_units_Z   6
loop_
 _symmetry_equiv_pos_site_id
 _symmetry_equiv_pos_as_xyz
  1  'x, y, z'
loop_
 _atom_site_type_symbol
 _atom_site_label
 _atom_site_symmetry_multiplicity
 _atom_site_fract_x
 _atom_site_fract_y
 _atom_site_fract_z
 _atom_site_occupancy
  Mg  Mg0  1  0.48407000  0.69397000  0.32803000  1.0
  Mg  Mg1  1  0.79023000  0.63415000  0.30596000  1.0
  Mg  Mg2  1  0.15603000  0.67188000  0.36576000  1.0
  Mg  Mg3  1  0.32098000  0.30655000  0.67259000  1.0
  Mg  Mg4  1  0.01426000  0.36599000  0.69345000  1.0
  Mg  Mg5  1  0.64818000  0.32745000  0.63407000  1.0
  H  H6  1  0.73200000  0.62043000  0.19802000  1.0
  H  H7  1  0.11219000  0.57767000  0.37961000  1.0
  H  H8  1  0.53374000  0.80192000  0.42233000  1.0
  H  H9  1  0.71250000  0.58958000  0.12178000  1.0
  H  H10  1  0.12302000  0.53234000  0.41055000  1.0
  H  H11  1  0.59022000  0.87805000  0.46773000  1.0
  H  H12  1  0.58099000  0.57806000  0.05749000  1.0
  H  H13  1  0.00239000  0.47953000  0.42190000  1.0
  H  H14  1  0.52313000  0.94231000  0.52059000  1.0
  H  H15  1  0.35238000  0.59221000  0.08148000  1.0
  H  H16  1  0.75971000  0.48960000  0.40799000  1.0
  H  H17  1  0.27025000  0.91851000  0.51063000  1.0
  H  H18  1  0.12255000  0.54940000  0.02770000  1.0
  H  H19  1  0.57369000  0.47850000  0.45075000  1.0
  H  H20  1  0.09587000  0.97247000  0.52176000  1.0
  H  H21  1  0.10825000  0.49105000  0.00199000  1.0
  H  H22  1  0.61747000  0.51111000  0.50910000  1.0
  H  H23  1  0.10729000  0.99820000  0.48916000  1.0
  H  H24  1  0.38737000  0.55046000  0.98165000  1.0
  H  H25  1  0.83697000  0.43126000  0.44959000  1.0
  H  H26  1  0.40712000  0.01834000  0.56883000  1.0
  H  H27  1  0.18229000  0.51264000  0.94601000  1.0
  H  H28  1  0.66975000  0.43353000  0.48746000  1.0
  H  H29  1  0.23798000  0.05410000  0.56673000  1.0
  H  H30  1  0.68625000  0.51795000  0.99810000  1.0
  H  H31  1  0.16854000  0.48007000  0.48201000  1.0
  H  H32  1  0.68937000  0.00177000  0.51992000  1.0
  H  H33  1  0.67443000  0.45960000  0.97237000  1.0
  H  H34  1  0.21517000  0.51266000  0.54035000  1.0
  H  H35  1  0.70355000  0.02743000  0.48727000  1.0
  H  H36  1  0.61275000  0.49575000  0.05387000  1.0
  H  H37  1  0.11774000  0.55808000  0.50429000  1.0
  H  H38  1  0.55986000  0.94597000  0.44197000  1.0
  H  H39  1  0.40800000  0.45803000  0.01797000  1.0
  H  H40  1  0.95087000  0.56002000  0.54209000  1.0
  H  H41  1  0.39170000  0.98199000  0.44006000  1.0
  H  H42  1  0.21257000  0.43108000  0.94315000  1.0
  H  H43  1  0.78230000  0.51215000  0.56906000  1.0
  H  H44  1  0.27128000  0.05672000  0.48780000  1.0
  H  H45  1  0.44211000  0.41622000  0.91991000  1.0
  H  H46  1  0.02660000  0.50359000  0.58376000  1.0
  H  H47  1  0.52400000  0.07995000  0.49629000  1.0
  H  H48  1  0.08515000  0.41800000  0.87805000  1.0
  H  H49  1  0.66779000  0.46012000  0.58208000  1.0
  H  H50  1  0.20828000  0.12182000  0.53976000  1.0
  H  H51  1  0.07009000  0.38395000  0.80184000  1.0
  H  H52  1  0.68619000  0.41793000  0.61600000  1.0
  H  H53  1  0.26872000  0.19804000  0.58192000  1.0
  H  H54  1  0.79156000  0.43283000  0.81932000  1.0
  H  H55  1  0.35852000  0.38611000  0.56698000  1.0
  H  H56  1  0.97272000  0.18077000  0.61380000  1.0
  H  H57  1  0.61325000  0.45723000  0.88662000  1.0
  H  H58  1  0.15636000  0.42916000  0.54266000  1.0
  H  H59  1  0.72769000  0.11343000  0.57082000  1.0
  H  H60  1  0.18678000  0.54901000  0.11312000  1.0
  H  H61  1  0.63809000  0.56456000  0.45115000  1.0
  H  H62  1  0.07293000  0.88680000  0.43582000  1.0
  H  H63  1  0.01160000  0.57057000  0.18046000  1.0
  H  H64  1  0.44137000  0.61028000  0.42945000  1.0
  H  H65  1  0.83050000  0.81943000  0.39003000  1.0
  C  C66  1  0.47690000  0.62221000  0.23181000  1.0
  C  C67  1  0.85507000  0.60968000  0.37770000  1.0
  C  C68  1  0.24489000  0.76810000  0.39027000  1.0
  C  C69  1  0.57318000  0.60925000  0.19356000  1.0
  C  C70  1  0.96442000  0.58443000  0.39074000  1.0
  C  C71  1  0.37933000  0.80634000  0.41558000  1.0
  C  C72  1  0.47019000  0.58453000  0.15104000  1.0
  C  C73  1  0.88587000  0.56671000  0.41549000  1.0
  C  C74  1  0.31864000  0.84886000  0.43341000  1.0
  C  C75  1  0.46709000  0.56902000  0.07399000  1.0
  C  C76  1  0.89787000  0.50518000  0.43109000  1.0
  C  C77  1  0.39283000  0.92593000  0.49500000  1.0
  C  C78  1  0.21130000  0.52116000  0.01259000  1.0
  C  C79  1  0.69056000  0.49162000  0.47899000  1.0
  C  C80  1  0.19974000  0.98753000  0.50862000  1.0
  C  C81  1  0.30028000  0.51873000  0.97220000  1.0
  C  C82  1  0.78177000  0.45358000  0.48134000  1.0
  C  C83  1  0.32949000  0.02784000  0.54659000  1.0
  C  C84  1  0.58454000  0.48764000  0.98744000  1.0
  C  C85  1  0.09719000  0.49974000  0.51234000  1.0
  C  C86  1  0.59842000  0.01244000  0.50026000  1.0
  C  C87  1  0.49520000  0.48981000  0.02766000  1.0
  C  C88  1  0.00602000  0.53788000  0.51027000  1.0
  C  C89  1  0.46869000  0.97226000  0.46219000  1.0
  C  C90  1  0.32809000  0.43943000  0.92651000  1.0
  C  C91  1  0.88925000  0.48706000  0.56060000  1.0
  C  C92  1  0.40321000  0.07339000  0.51286000  1.0
  C  C93  1  0.33030000  0.42114000  0.84880000  1.0
  C  C94  1  0.90936000  0.42755000  0.57878000  1.0
  C  C95  1  0.48235000  0.15116000  0.57232000  1.0
  C  C96  1  0.22913000  0.39493000  0.80629000  1.0
  C  C97  1  0.83417000  0.41128000  0.60500000  1.0
  C  C98  1  0.42332000  0.19365000  0.58858000  1.0
  C  C99  1  0.32735000  0.38022000  0.76812000  1.0
  C  C100  1  0.94694000  0.38779000  0.61973000  1.0
  C  C101  1  0.55939000  0.23187000  0.61216000  1.0
  C  C102  1  0.53690000  0.39407000  0.77318000  1.0
  C  C103  1  0.14254000  0.37886000  0.60580000  1.0
  C  C104  1  0.76395000  0.22687000  0.62107000  1.0
  C  C105  1  0.63366000  0.42173000  0.81629000  1.0
  C  C106  1  0.21171000  0.39424000  0.57808000  1.0
  C  C107  1  0.81787000  0.18377000  0.60566000  1.0
  C  C108  1  0.53643000  0.43509000  0.85374000  1.0
  C  C109  1  0.10139000  0.41839000  0.56476000  1.0
  C  C110  1  0.68352000  0.14630000  0.58151000  1.0
  C  C111  1  0.65543000  0.38074000  0.73584000  1.0
  C  C112  1  0.27447000  0.35492000  0.61919000  1.0
  C  C113  1  0.91973000  0.26422000  0.64502000  1.0
  C  C114  1  0.26464000  0.57014000  0.14610000  1.0
  C  C115  1  0.69473000  0.57627000  0.42991000  1.0
  C  C116  1  0.11799000  0.85382000  0.42393000  1.0
  C  C117  1  0.16931000  0.58182000  0.18353000  1.0
  C  C118  1  0.58774000  0.60198000  0.41816000  1.0
  C  C119  1  0.98528000  0.81639000  0.39820000  1.0
  C  C120  1  0.26753000  0.60816000  0.22670000  1.0
  C  C121  1  0.65974000  0.61867000  0.39175000  1.0
  C  C122  1  0.04056000  0.77323000  0.38134000  1.0
  C  C123  1  0.14969000  0.62035000  0.26399000  1.0
  C  C124  1  0.52962000  0.64375000  0.37954000  1.0
  C  C125  1  0.88551000  0.73595000  0.35626000  1.0
  N  N126  1  0.57045000  0.57473000  0.11438000  1.0
  N  N127  1  0.99569000  0.53984000  0.42537000  1.0
  N  N128  1  0.45557000  0.88549000  0.46032000  1.0
  N  N129  1  0.36230000  0.52470000  0.04653000  1.0
  N  N130  1  0.83797000  0.52202000  0.47546000  1.0
  N  N131  1  0.31637000  0.95349000  0.47816000  1.0
  N  N132  1  0.43316000  0.48380000  0.95340000  1.0
  N  N133  1  0.94963000  0.46959000  0.51620000  1.0
  N  N134  1  0.48126000  0.04656000  0.53043000  1.0
  N  N135  1  0.22747000  0.43274000  0.88547000  1.0
  N  N136  1  0.79515000  0.45271000  0.56725000  1.0
  N  N137  1  0.34325000  0.11445000  0.54715000  1.0
  O  O138  1  0.96880000  0.60379000  0.25812000  1.0
  O  O139  1  0.36520000  0.65442000  0.39610000  1.0
  O  O140  1  0.71035000  0.74185000  0.34564000  1.0
  O  O141  1  0.23135000  0.64945000  0.30343000  1.0
  O  O142  1  0.58208000  0.65405000  0.35042000  1.0
  O  O143  1  0.92779000  0.69650000  0.34590000  1.0
  O  O144  1  0.58403000  0.64775000  0.27132000  1.0
  O  O145  1  0.93653000  0.62359000  0.35211000  1.0
  O  O146  1  0.31256000  0.72858000  0.37626000  1.0
  O  O147  1  0.83630000  0.39718000  0.74138000  1.0
  O  O148  1  0.43892000  0.34397000  0.60274000  1.0
  O  O149  1  0.09515000  0.25870000  0.65595000  1.0
  O  O150  1  0.57417000  0.35086000  0.69666000  1.0
  O  O151  1  0.22334000  0.34576000  0.64918000  1.0
  O  O152  1  0.87750000  0.30338000  0.65424000  1.0
  O  O153  1  0.22125000  0.35337000  0.72876000  1.0
  O  O154  1  0.86770000  0.37538000  0.64665000  1.0
  O  O155  1  0.49246000  0.27123000  0.62468000  1.0
