# generated using pymatgen
data_GdH20C26O11F9
_symmetry_space_group_name_H-M   'P 1'
_cell_length_a   9.51278000
_cell_length_b   10.52810000
_cell_length_c   15.19210000
_cell_angle_alpha   89.02070000
_cell_angle_beta   87.42750000
_cell_angle_gamma   77.55790000
_symmetry_Int_Tables_number   1
_chemical_formula_structural   GdH20C26O11F9
_chemical_formula_sum   'Gd2 H40 C52 O22 F18'
_cell_volume   1484.23744741
_cell_formula_units_Z   2
loop_
 _symmetry_equiv_pos_site_id
 _symmetry_equiv_pos_as_xyz
  1  'x, y, z'
loop_
 _atom_site_type_symbol
 _atom_site_label
 _atom_site_symmetry_multiplicity
 _atom_site_fract_x
 _atom_site_fract_y
 _atom_site_fract_z
 _atom_site_occupancy
  Gd  Gd0  1  0.25833000  0.46233000  0.97475000  1.0
  Gd  Gd1  1  0.74167000  0.53768000  0.02525000  1.0
  H  H2  1  0.10077000  0.94931000  0.02439000  1.0
  H  H3  1  0.89922000  0.05069000  0.97561000  1.0
  H  H4  1  0.03110000  0.14670000  0.12020000  1.0
  H  H5  1  0.96889000  0.85330000  0.87981000  1.0
  H  H6  1  0.15203000  0.90362000  0.34855000  1.0
  H  H7  1  0.84797000  0.09637000  0.65146000  1.0
  H  H8  1  0.22519000  0.71170000  0.25251000  1.0
  H  H9  1  0.77480000  0.28829000  0.74749000  1.0
  H  H10  1  0.29051000  0.38008000  0.20558000  1.0
  H  H11  1  0.70950000  0.61991000  0.79442000  1.0
  H  H12  1  0.39464000  0.40508000  0.35182000  1.0
  H  H13  1  0.60536000  0.59491000  0.64818000  1.0
  H  H14  1  0.98419000  0.63007000  0.44533000  1.0
  H  H15  1  0.01581000  0.36993000  0.55467000  1.0
  H  H16  1  0.88005000  0.60117000  0.30014000  1.0
  H  H17  1  0.11995000  0.39883000  0.69986000  1.0
  H  H18  1  0.26028000  0.74569000  0.77880000  1.0
  H  H19  1  0.73971000  0.25432000  0.22121000  1.0
  H  H20  1  0.23661000  0.92394000  0.66812000  1.0
  H  H21  1  0.76340000  0.07606000  0.33188000  1.0
  H  H22  1  0.59715000  0.04721000  0.77597000  1.0
  H  H23  1  0.40286000  0.95279000  0.22402000  1.0
  H  H24  1  0.62107000  0.86472000  0.88683000  1.0
  H  H25  1  0.37893000  0.13528000  0.11317000  1.0
  H  H26  1  0.44218000  0.48083000  0.75697000  1.0
  H  H27  1  0.55782000  0.51916000  0.24303000  1.0
  H  H28  1  0.51331000  0.31266000  0.73058000  1.0
  H  H29  1  0.48668000  0.68734000  0.26942000  1.0
  H  H30  1  0.32354000  0.37282000  0.74645000  1.0
  H  H31  1  0.67646000  0.62718000  0.25355000  1.0
  H  H32  1  0.17996000  0.07394000  0.90862000  1.0
  H  H33  1  0.82004000  0.92607000  0.09138000  1.0
  H  H34  1  0.20883000  0.19786000  0.83210000  1.0
  H  H35  1  0.79117000  0.80213000  0.16790000  1.0
  H  H36  1  0.34675000  0.12674000  0.90500000  1.0
  H  H37  1  0.65324000  0.87325000  0.09501000  1.0
  H  H38  1  0.53050000  0.35568000  0.88019000  1.0
  H  H39  1  0.46950000  0.64432000  0.11981000  1.0
  H  H40  1  0.07112000  0.26950000  0.97194000  1.0
  H  H41  1  0.92887000  0.73050000  0.02806000  1.0
  C  C42  1  0.01858000  0.47818000  0.15583000  1.0
  C  C43  1  0.98143000  0.52181000  0.84416000  1.0
  C  C44  1  0.07955000  0.49022000  0.24381000  1.0
  C  C45  1  0.92045000  0.50978000  0.75619000  1.0
  C  C46  1  0.22440000  0.43473000  0.25834000  1.0
  C  C47  1  0.77560000  0.56527000  0.74166000  1.0
  C  C48  1  0.28284000  0.44892000  0.33916000  1.0
  C  C49  1  0.71716000  0.55109000  0.66084000  1.0
  C  C50  1  0.19431000  0.52108000  0.40433000  1.0
  C  C51  1  0.80569000  0.47893000  0.59566000  1.0
  C  C52  1  0.04979000  0.57602000  0.39220000  1.0
  C  C53  1  0.95021000  0.42399000  0.60780000  1.0
  C  C54  1  0.99276000  0.55961000  0.31147000  1.0
  C  C55  1  0.00724000  0.44039000  0.68852000  1.0
  C  C56  1  0.31429000  0.63436000  0.49840000  1.0
  C  C57  1  0.68572000  0.36564000  0.50160000  1.0
  C  C58  1  0.19902000  0.70034000  0.07639000  1.0
  C  C59  1  0.80098000  0.29966000  0.92361000  1.0
  C  C60  1  0.16547000  0.81834000  0.13258000  1.0
  C  C61  1  0.83452000  0.18165000  0.86742000  1.0
  C  C62  1  0.11078000  0.94082000  0.09548000  1.0
  C  C63  1  0.88921000  0.05918000  0.90452000  1.0
  C  C64  1  0.07196000  0.05051000  0.14821000  1.0
  C  C65  1  0.92803000  0.94949000  0.85180000  1.0
  C  C66  1  0.08559000  0.03565000  0.23911000  1.0
  C  C67  1  0.91440000  0.96435000  0.76090000  1.0
  C  C68  1  0.14104000  0.91508000  0.27783000  1.0
  C  C69  1  0.85896000  0.08492000  0.72218000  1.0
  C  C70  1  0.18265000  0.80687000  0.22355000  1.0
  C  C71  1  0.81735000  0.19313000  0.77645000  1.0
  C  C72  1  0.07605000  0.15987000  0.37068000  1.0
  C  C73  1  0.92395000  0.84013000  0.62932000  1.0
  C  C74  1  0.45571000  0.68478000  0.90400000  1.0
  C  C75  1  0.54429000  0.31523000  0.09600000  1.0
  C  C76  1  0.44179000  0.79451000  0.83932000  1.0
  C  C77  1  0.55821000  0.20549000  0.16068000  1.0
  C  C78  1  0.33388000  0.81200000  0.77780000  1.0
  C  C79  1  0.66612000  0.18801000  0.22220000  1.0
  C  C80  1  0.32047000  0.91211000  0.71568000  1.0
  C  C81  1  0.67954000  0.08789000  0.28432000  1.0
  C  C82  1  0.41713000  0.99474000  0.71623000  1.0
  C  C83  1  0.58288000  0.00525000  0.28377000  1.0
  C  C84  1  0.52479000  0.97995000  0.77738000  1.0
  C  C85  1  0.47521000  0.02005000  0.22262000  1.0
  C  C86  1  0.53719000  0.87925000  0.83876000  1.0
  C  C87  1  0.46281000  0.12076000  0.16124000  1.0
  C  C88  1  0.32618000  0.11706000  0.58873000  1.0
  C  C89  1  0.67382000  0.88294000  0.41127000  1.0
  C  C90  1  0.42928000  0.38051000  0.76835000  1.0
  C  C91  1  0.57071000  0.61949000  0.23165000  1.0
  C  C92  1  0.23027000  0.15800000  0.89884000  1.0
  C  C93  1  0.76972000  0.84200000  0.10116000  1.0
  O  O94  1  0.10481000  0.43458000  0.09157000  1.0
  O  O95  1  0.89520000  0.56540000  0.90843000  1.0
  O  O96  1  0.88285000  0.51388000  0.14933000  1.0
  O  O97  1  0.11716000  0.48612000  0.85066000  1.0
  O  O98  1  0.24952000  0.53345000  0.48812000  1.0
  O  O99  1  0.75048000  0.46655000  0.51188000  1.0
  O  O100  1  0.11417000  0.68818000  0.01547000  1.0
  O  O101  1  0.88583000  0.31182000  0.98453000  1.0
  O  O102  1  0.30994000  0.61078000  0.09071000  1.0
  O  O103  1  0.69005000  0.38923000  0.90929000  1.0
  O  O104  1  0.03610000  0.15078000  0.28665000  1.0
  O  O105  1  0.96390000  0.84922000  0.71335000  1.0
  O  O106  1  0.36661000  0.61137000  0.90124000  1.0
  O  O107  1  0.63340000  0.38863000  0.09876000  1.0
  O  O108  1  0.55684000  0.67067000  0.95794000  1.0
  O  O109  1  0.44316000  0.32933000  0.04207000  1.0
  O  O110  1  0.41476000  0.09935000  0.65753000  1.0
  O  O111  1  0.58524000  0.90065000  0.34247000  1.0
  O  O112  1  0.43392000  0.34749000  0.86056000  1.0
  O  O113  1  0.56608000  0.65251000  0.13945000  1.0
  O  O114  1  0.17829000  0.25436000  0.96500000  1.0
  O  O115  1  0.82171000  0.74564000  0.03500000  1.0
  F  F116  1  0.34926000  0.63573000  0.58361000  1.0
  F  F117  1  0.65075000  0.36426000  0.41639000  1.0
  F  F118  1  0.22806000  0.75258000  0.47914000  1.0
  F  F119  1  0.77195000  0.24742000  0.52086000  1.0
  F  F120  1  0.43700000  0.62554000  0.44653000  1.0
  F  F121  1  0.56301000  0.37446000  0.55346000  1.0
  F  F122  1  0.22156000  0.13389000  0.37746000  1.0
  F  F123  1  0.77844000  0.86612000  0.62255000  1.0
  F  F124  1  0.02186000  0.28287000  0.39721000  1.0
  F  F125  1  0.97814000  0.71713000  0.60279000  1.0
  F  F126  1  0.02314000  0.07866000  0.42812000  1.0
  F  F127  1  0.97686000  0.92134000  0.57188000  1.0
  F  F128  1  0.18307000  0.14609000  0.61509000  1.0
  F  F129  1  0.81694000  0.85391000  0.38491000  1.0
  F  F130  1  0.34638000  0.01150000  0.53547000  1.0
  F  F131  1  0.65363000  0.98851000  0.46453000  1.0
  F  F132  1  0.35317000  0.21882000  0.54105000  1.0
  F  F133  1  0.64683000  0.78118000  0.45895000  1.0
