# generated using pymatgen
data_AgH11C10N3O2
_symmetry_space_group_name_H-M   'P 1'
_cell_length_a   11.17810000
_cell_length_b   11.18050000
_cell_length_c   11.68880000
_cell_angle_alpha   112.24300000
_cell_angle_beta   96.99830000
_cell_angle_gamma   118.44000000
_symmetry_Int_Tables_number   1
_chemical_formula_structural   AgH11C10N3O2
_chemical_formula_sum   'Ag4 H44 C40 N12 O8'
_cell_volume   1103.99780436
_cell_formula_units_Z   4
loop_
 _symmetry_equiv_pos_site_id
 _symmetry_equiv_pos_as_xyz
  1  'x, y, z'
loop_
 _atom_site_type_symbol
 _atom_site_label
 _atom_site_symmetry_multiplicity
 _atom_site_fract_x
 _atom_site_fract_y
 _atom_site_fract_z
 _atom_site_occupancy
  Ag  Ag0  1  0.97325000  0.76155000  0.61573000  1.0
  Ag  Ag1  1  0.14579000  0.85735000  0.88448000  1.0
  Ag  Ag2  1  0.02675000  0.23846000  0.38427000  1.0
  Ag  Ag3  1  0.85421000  0.14265000  0.11553000  1.0
  H  H4  1  0.47272000  0.70714000  0.60353000  1.0
  H  H5  1  0.10339000  0.36888000  0.89641000  1.0
  H  H6  1  0.52728000  0.29286000  0.39647000  1.0
  H  H7  1  0.89661000  0.63112000  0.10358000  1.0
  H  H8  1  0.73604000  0.65960000  0.44417000  1.0
  H  H9  1  0.21551000  0.79143000  0.05590000  1.0
  H  H10  1  0.26396000  0.34040000  0.55583000  1.0
  H  H11  1  0.78448000  0.20857000  0.94410000  1.0
  H  H12  1  0.56202000  0.53138000  0.44246000  1.0
  H  H13  1  0.08900000  0.61929000  0.05776000  1.0
  H  H14  1  0.43798000  0.46862000  0.55754000  1.0
  H  H15  1  0.91099000  0.38071000  0.94224000  1.0
  H  H16  1  0.58917000  0.68006000  0.40696000  1.0
  H  H17  1  0.27317000  0.68165000  0.09289000  1.0
  H  H18  1  0.41083000  0.31994000  0.59304000  1.0
  H  H19  1  0.72683000  0.31835000  0.90711000  1.0
  H  H20  1  0.59334000  0.97918000  0.97342000  1.0
  H  H21  1  0.00538000  0.11983000  0.52637000  1.0
  H  H22  1  0.40666000  0.02083000  0.02658000  1.0
  H  H23  1  0.99462000  0.88017000  0.47363000  1.0
  H  H24  1  0.46947000  0.91849000  0.81891000  1.0
  H  H25  1  0.09920000  0.15046000  0.68092000  1.0
  H  H26  1  0.53053000  0.08151000  0.18109000  1.0
  H  H27  1  0.90080000  0.84955000  0.31908000  1.0
  H  H28  1  0.45597000  0.77667000  0.85935000  1.0
  H  H29  1  0.91693000  0.09649000  0.64061000  1.0
  H  H30  1  0.54404000  0.22334000  0.14066000  1.0
  H  H31  1  0.08307000  0.90350000  0.35939000  1.0
  H  H32  1  0.43632000  0.03011000  0.57310000  1.0
  H  H33  1  0.45681000  0.36347000  0.92754000  1.0
  H  H34  1  0.56368000  0.96989000  0.42689000  1.0
  H  H35  1  0.54320000  0.63653000  0.07246000  1.0
  H  H36  1  0.65830000  0.24984000  0.57429000  1.0
  H  H37  1  0.67504000  0.58436000  0.92612000  1.0
  H  H38  1  0.34170000  0.75016000  0.42571000  1.0
  H  H39  1  0.32496000  0.41564000  0.07388000  1.0
  H  H40  1  0.05647000  0.15206000  0.98648000  1.0
  H  H41  1  0.16532000  0.56980000  0.51336000  1.0
  H  H42  1  0.94353000  0.84795000  0.01352000  1.0
  H  H43  1  0.83467000  0.43020000  0.48664000  1.0
  H  H44  1  0.09556000  0.05752000  0.85343000  1.0
  H  H45  1  0.20422000  0.74200000  0.64652000  1.0
  H  H46  1  0.90444000  0.94248000  0.14657000  1.0
  H  H47  1  0.79578000  0.25800000  0.35348000  1.0
  C  C48  1  0.58822000  0.77725000  0.66577000  1.0
  C  C49  1  0.11125000  0.42214000  0.83414000  1.0
  C  C50  1  0.41178000  0.22275000  0.33423000  1.0
  C  C51  1  0.88874000  0.57786000  0.16586000  1.0
  C  C52  1  0.63826000  0.87939000  0.80202000  1.0
  C  C53  1  0.07696000  0.33597000  0.69783000  1.0
  C  C54  1  0.36175000  0.12061000  0.19799000  1.0
  C  C55  1  0.92303000  0.66402000  0.30217000  1.0
  C  C56  1  0.64256000  0.65304000  0.46884000  1.0
  C  C57  1  0.18425000  0.67331000  0.03121000  1.0
  C  C58  1  0.35744000  0.34696000  0.53116000  1.0
  C  C59  1  0.81574000  0.32669000  0.96879000  1.0
  C  C60  1  0.68961000  0.76449000  0.61255000  1.0
  C  C61  1  0.15180000  0.57672000  0.88740000  1.0
  C  C62  1  0.31039000  0.23551000  0.38745000  1.0
  C  C63  1  0.84819000  0.42328000  0.11260000  1.0
  C  C64  1  0.53406000  0.88967000  0.86749000  1.0
  C  C65  1  0.02175000  0.16638000  0.63233000  1.0
  C  C66  1  0.46595000  0.11033000  0.13251000  1.0
  C  C67  1  0.97825000  0.83362000  0.36767000  1.0
  C  C68  1  0.49067000  0.15193000  0.65051000  1.0
  C  C69  1  0.50127000  0.34060000  0.85005000  1.0
  C  C70  1  0.50933000  0.84806000  0.34948000  1.0
  C  C71  1  0.49874000  0.65940000  0.14995000  1.0
  C  C72  1  0.87626000  0.96202000  0.81846000  1.0
  C  C73  1  0.14323000  0.55754000  0.68144000  1.0
  C  C74  1  0.12375000  0.03798000  0.18155000  1.0
  C  C75  1  0.85677000  0.44247000  0.31857000  1.0
  C  C76  1  0.30297000  0.05291000  0.75048000  1.0
  C  C77  1  0.69703000  0.94709000  0.24951000  1.0
  C  C78  1  0.43420000  0.18438000  0.75035000  1.0
  C  C79  1  0.56580000  0.81562000  0.24964000  1.0
  C  C80  1  0.67949000  0.42986000  0.75021000  1.0
  C  C81  1  0.32051000  0.57014000  0.24978000  1.0
  C  C82  1  0.81111000  0.56128000  0.75015000  1.0
  C  C83  1  0.18889000  0.43872000  0.24985000  1.0
  C  C84  1  0.61285000  0.27363000  0.65088000  1.0
  C  C85  1  0.62243000  0.46245000  0.84953000  1.0
  C  C86  1  0.38715000  0.72637000  0.34911000  1.0
  C  C87  1  0.37758000  0.53754000  0.15047000  1.0
  N  N88  1  0.83294000  0.85331000  0.68919000  1.0
  N  N89  1  0.16391000  0.64345000  0.81076000  1.0
  N  N90  1  0.16706000  0.14669000  0.31081000  1.0
  N  N91  1  0.83608000  0.35655000  0.18924000  1.0
  N  N92  1  0.01964000  0.06600000  0.89012000  1.0
  N  N93  1  0.17556000  0.62927000  0.60973000  1.0
  N  N94  1  0.98036000  0.93401000  0.10988000  1.0
  N  N95  1  0.82444000  0.37072000  0.39028000  1.0
  N  N96  1  0.78162000  0.97236000  0.87836000  1.0
  N  N97  1  0.09351000  0.40302000  0.62147000  1.0
  N  N98  1  0.21838000  0.02764000  0.12164000  1.0
  N  N99  1  0.90649000  0.59698000  0.37853000  1.0
  O  O100  1  0.83488000  0.53295000  0.64247000  1.0
  O  O101  1  0.89055000  0.69265000  0.85778000  1.0
  O  O102  1  0.16512000  0.46705000  0.35753000  1.0
  O  O103  1  0.10945000  0.30735000  0.14222000  1.0
  O  O104  1  0.22842000  0.91890000  0.64448000  1.0
  O  O105  1  0.27495000  0.08416000  0.85655000  1.0
  O  O106  1  0.77159000  0.08109000  0.35551000  1.0
  O  O107  1  0.72505000  0.91584000  0.14345000  1.0
