# generated using pymatgen
data_Ag2H3C8BrN2(O2F3)2
_symmetry_space_group_name_H-M   'P 1'
_cell_length_a   7.75317000
_cell_length_b   8.37330000
_cell_length_c   11.60430000
_cell_angle_alpha   70.65390000
_cell_angle_beta   76.17970000
_cell_angle_gamma   79.60040000
_symmetry_Int_Tables_number   1
_chemical_formula_structural   Ag2H3C8BrN2(O2F3)2
_chemical_formula_sum   'Ag4 H6 C16 Br2 N4 O8 F12'
_cell_volume   685.99236094
_cell_formula_units_Z   2
loop_
 _symmetry_equiv_pos_site_id
 _symmetry_equiv_pos_as_xyz
  1  'x, y, z'
loop_
 _atom_site_type_symbol
 _atom_site_label
 _atom_site_symmetry_multiplicity
 _atom_site_fract_x
 _atom_site_fract_y
 _atom_site_fract_z
 _atom_site_occupancy
  Ag  Ag0  1  0.58242000  0.83557000  0.55534000  1.0
  Ag  Ag1  1  0.41759000  0.16443000  0.44466000  1.0
  Ag  Ag2  1  0.83277000  0.05425000  0.57970000  1.0
  Ag  Ag3  1  0.16723000  0.94575000  0.42030000  1.0
  H  H4  1  0.69869000  0.45058000  0.51302000  1.0
  H  H5  1  0.30131000  0.54942000  0.48698000  1.0
  H  H6  1  0.57181000  0.07540000  0.85003000  1.0
  H  H7  1  0.42819000  0.92460000  0.14997000  1.0
  H  H8  1  0.40970000  0.61008000  0.81477000  1.0
  H  H9  1  0.59030000  0.38992000  0.18523000  1.0
  C  C10  1  0.63346000  0.41837000  0.61088000  1.0
  C  C11  1  0.36654000  0.58163000  0.38912000  1.0
  C  C12  1  0.56454000  0.21031000  0.79731000  1.0
  C  C13  1  0.43546000  0.78969000  0.20270000  1.0
  C  C14  1  0.48075000  0.33580000  0.85293000  1.0
  C  C15  1  0.51925000  0.66419000  0.14707000  1.0
  C  C16  1  0.47461000  0.50520000  0.77832000  1.0
  C  C17  1  0.52539000  0.49480000  0.22168000  1.0
  C  C18  1  0.74453000  0.00359000  0.28956000  1.0
  C  C19  1  0.25547000  0.99641000  0.71043000  1.0
  C  C20  1  0.87823000  0.02306000  0.16371000  1.0
  C  C21  1  0.12177000  0.97694000  0.83629000  1.0
  C  C22  1  0.99825000  0.68839000  0.67910000  1.0
  C  C23  1  0.00175000  0.31161000  0.32090000  1.0
  C  C24  1  0.01104000  0.50222000  0.76792000  1.0
  C  C25  1  0.98896000  0.49778000  0.23208000  1.0
  Br  Br26  1  0.38228000  0.28044000  0.02444000  1.0
  Br  Br27  1  0.61771000  0.71956000  0.97556000  1.0
  N  N28  1  0.55229000  0.54569000  0.65717000  1.0
  N  N29  1  0.44772000  0.45431000  0.34283000  1.0
  N  N30  1  0.64099000  0.25250000  0.67588000  1.0
  N  N31  1  0.35901000  0.74750000  0.32412000  1.0
  O  O32  1  0.79453000  0.89561000  0.38427000  1.0
  O  O33  1  0.20547000  0.10439000  0.61573000  1.0
  O  O34  1  0.59913000  0.09759000  0.27987000  1.0
  O  O35  1  0.40088000  0.90241000  0.72013000  1.0
  O  O36  1  0.85267000  0.77956000  0.70022000  1.0
  O  O37  1  0.14733000  0.22044000  0.29978000  1.0
  O  O38  1  0.13754000  0.72535000  0.59878000  1.0
  O  O39  1  0.86246000  0.27464000  0.40122000  1.0
  F  F40  1  0.82091000  0.94848000  0.09331000  1.0
  F  F41  1  0.17909000  0.05152000  0.90669000  1.0
  F  F42  1  0.04575000  0.94912000  0.17811000  1.0
  F  F43  1  0.95425000  0.05088000  0.82189000  1.0
  F  F44  1  0.88940000  0.18977000  0.09792000  1.0
  F  F45  1  0.11060000  0.81023000  0.90208000  1.0
  F  F46  1  0.06490000  0.49625000  0.87261000  1.0
  F  F47  1  0.93509000  0.50375000  0.12740000  1.0
  F  F48  1  0.13131000  0.39723000  0.71194000  1.0
  F  F49  1  0.86868000  0.60277000  0.28806000  1.0
  F  F50  1  0.85246000  0.43568000  0.80428000  1.0
  F  F51  1  0.14753000  0.56432000  0.19572000  1.0
