# generated using pymatgen
data_Ag2H5C4SN3O7
_symmetry_space_group_name_H-M   'P 1'
_cell_length_a   9.34434000
_cell_length_b   10.11820000
_cell_length_c   10.64810000
_cell_angle_alpha   90.00020000
_cell_angle_beta   90.00010000
_cell_angle_gamma   82.71380000
_symmetry_Int_Tables_number   1
_chemical_formula_structural   Ag2H5C4SN3O7
_chemical_formula_sum   'Ag8 H20 C16 S4 N12 O28'
_cell_volume   998.62597195
_cell_formula_units_Z   4
loop_
 _symmetry_equiv_pos_site_id
 _symmetry_equiv_pos_as_xyz
  1  'x, y, z'
loop_
 _atom_site_type_symbol
 _atom_site_label
 _atom_site_symmetry_multiplicity
 _atom_site_fract_x
 _atom_site_fract_y
 _atom_site_fract_z
 _atom_site_occupancy
  Ag  Ag0  1  0.35649000  0.56255000  0.90374000  1.0
  Ag  Ag1  1  0.14351000  0.93745000  0.40374000  1.0
  Ag  Ag2  1  0.64351000  0.43745000  0.09626000  1.0
  Ag  Ag3  1  0.85649000  0.06255000  0.59627000  1.0
  Ag  Ag4  1  0.23973000  0.42423000  0.21942000  1.0
  Ag  Ag5  1  0.26027000  0.07576000  0.71942000  1.0
  Ag  Ag6  1  0.76027000  0.57576000  0.78058000  1.0
  Ag  Ag7  1  0.73973000  0.92423000  0.28058000  1.0
  H  H8  1  0.35566000  0.84191000  0.00788000  1.0
  H  H9  1  0.14434000  0.65809000  0.50788000  1.0
  H  H10  1  0.64434000  0.15809000  0.99212000  1.0
  H  H11  1  0.85565000  0.34191000  0.49212000  1.0
  H  H12  1  0.36286000  0.04427000  0.16544000  1.0
  H  H13  1  0.13714000  0.45572000  0.66544000  1.0
  H  H14  1  0.63714000  0.95572000  0.83456000  1.0
  H  H15  1  0.86286000  0.54427000  0.33457000  1.0
  H  H16  1  0.37873000  0.55301000  0.38957000  1.0
  H  H17  1  0.12127000  0.94699000  0.88957000  1.0
  H  H18  1  0.62127000  0.44699000  0.61043000  1.0
  H  H19  1  0.87873000  0.05301000  0.11043000  1.0
  H  H20  1  0.47538000  0.66246000  0.48027000  1.0
  H  H21  1  0.02462000  0.83754000  0.98027000  1.0
  H  H22  1  0.52462000  0.33754000  0.51973000  1.0
  H  H23  1  0.97538000  0.16246000  0.01973000  1.0
  H  H24  1  0.56549000  0.56273000  0.35844000  1.0
  H  H25  1  0.93451000  0.93727000  0.85844000  1.0
  H  H26  1  0.43451000  0.43727000  0.64156000  1.0
  H  H27  1  0.06549000  0.06273000  0.14156000  1.0
  C  C28  1  0.39945000  0.70737000  0.17212000  1.0
  C  C29  1  0.10055000  0.79263000  0.67212000  1.0
  C  C30  1  0.60055000  0.29263000  0.82788000  1.0
  C  C31  1  0.89944000  0.20737000  0.32788000  1.0
  C  C32  1  0.37386000  0.83366000  0.10861000  1.0
  C  C33  1  0.12614000  0.66634000  0.60861000  1.0
  C  C34  1  0.62614000  0.16634000  0.89139000  1.0
  C  C35  1  0.87386000  0.33366000  0.39139000  1.0
  C  C36  1  0.37951000  0.93856000  0.18749000  1.0
  C  C37  1  0.12049000  0.56144000  0.68749000  1.0
  C  C38  1  0.62049000  0.06143000  0.81251000  1.0
  C  C39  1  0.87951000  0.43856000  0.31251000  1.0
  C  C40  1  0.46289000  0.61954000  0.38710000  1.0
  C  C41  1  0.03711000  0.88047000  0.88710000  1.0
  C  C42  1  0.53711000  0.38046000  0.61290000  1.0
  C  C43  1  0.96290000  0.11954000  0.11290000  1.0
  S  S44  1  0.41569000  0.88812000  0.33988000  1.0
  S  S45  1  0.08432000  0.61189000  0.83988000  1.0
  S  S46  1  0.58432000  0.11188000  0.66012000  1.0
  S  S47  1  0.91568000  0.38811000  0.16012000  1.0
  N  N48  1  0.42314000  0.72642000  0.29771000  1.0
  N  N49  1  0.07686000  0.77359000  0.79771000  1.0
  N  N50  1  0.57686000  0.27358000  0.70229000  1.0
  N  N51  1  0.92314000  0.22641000  0.20229000  1.0
  N  N52  1  0.43618000  0.79377000  0.72137000  1.0
  N  N53  1  0.06382000  0.70623000  0.22137000  1.0
  N  N54  1  0.56382000  0.20624000  0.27863000  1.0
  N  N55  1  0.93618000  0.29377000  0.77863000  1.0
  N  N56  1  0.28250000  0.26206000  0.93709000  1.0
  N  N57  1  0.21750000  0.23794000  0.43709000  1.0
  N  N58  1  0.71749000  0.73794000  0.06290000  1.0
  N  N59  1  0.78250000  0.76206000  0.56291000  1.0
  O  O60  1  0.40135000  0.59089000  0.12580000  1.0
  O  O61  1  0.09865000  0.90912000  0.62580000  1.0
  O  O62  1  0.59865000  0.40911000  0.87420000  1.0
  O  O63  1  0.90135000  0.09088000  0.37419000  1.0
  O  O64  1  0.47018000  0.66874000  0.73966000  1.0
  O  O65  1  0.02982000  0.83126000  0.23966000  1.0
  O  O66  1  0.52983000  0.33127000  0.26034000  1.0
  O  O67  1  0.97018000  0.16874000  0.76034000  1.0
  O  O68  1  0.46778000  0.84554000  0.61954000  1.0
  O  O69  1  0.03222000  0.65446000  0.11954000  1.0
  O  O70  1  0.53222000  0.15446000  0.38046000  1.0
  O  O71  1  0.96778000  0.34554000  0.88046000  1.0
  O  O72  1  0.37021000  0.86480000  0.80761000  1.0
  O  O73  1  0.12979000  0.63520000  0.30761000  1.0
  O  O74  1  0.62979000  0.13520000  0.19239000  1.0
  O  O75  1  0.87021000  0.36480000  0.69239000  1.0
  O  O76  1  0.30367000  0.35997000  0.00839000  1.0
  O  O77  1  0.19633000  0.14003000  0.50840000  1.0
  O  O78  1  0.69631000  0.64004000  0.99160000  1.0
  O  O79  1  0.80367000  0.85997000  0.49161000  1.0
  O  O80  1  0.26310000  0.15200000  0.98222000  1.0
  O  O81  1  0.23690000  0.34800000  0.48222000  1.0
  O  O82  1  0.73690000  0.84800000  0.01777000  1.0
  O  O83  1  0.76310000  0.65199000  0.51778000  1.0
  O  O84  1  0.28383000  0.28157000  0.81856000  1.0
  O  O85  1  0.21617000  0.21843000  0.31856000  1.0
  O  O86  1  0.71617000  0.71843000  0.18144000  1.0
  O  O87  1  0.78383000  0.78157000  0.68144000  1.0
