# generated using pymatgen
data_SmH6C10N2O7
_symmetry_space_group_name_H-M   'P 1'
_cell_length_a   7.52214000
_cell_length_b   9.05506000
_cell_length_c   9.65626523
_cell_angle_alpha   62.53387524
_cell_angle_beta   79.49363858
_cell_angle_gamma   81.26230000
_symmetry_Int_Tables_number   1
_chemical_formula_structural   SmH6C10N2O7
_chemical_formula_sum   'Sm2 H12 C20 N4 O14'
_cell_volume   572.06548357
_cell_formula_units_Z   2
loop_
 _symmetry_equiv_pos_site_id
 _symmetry_equiv_pos_as_xyz
  1  'x, y, z'
loop_
 _atom_site_type_symbol
 _atom_site_label
 _atom_site_symmetry_multiplicity
 _atom_site_fract_x
 _atom_site_fract_y
 _atom_site_fract_z
 _atom_site_occupancy
  Sm  Sm0  1  0.12607000  0.97129000  0.68137000  1.0
  Sm  Sm1  1  0.87393000  0.02871000  0.31863000  1.0
  H  H2  1  0.46202000  0.00797000  0.21246000  1.0
  H  H3  1  0.53798000  0.99204000  0.78753000  1.0
  H  H4  1  0.92259000  0.43340000  0.94403000  1.0
  H  H5  1  0.07740000  0.56661000  0.05597000  1.0
  H  H6  1  0.27445000  0.21050000  0.00036000  1.0
  H  H7  1  0.72555000  0.78949000  0.99964000  1.0
  H  H8  1  0.75597000  0.17444000  0.57000000  1.0
  H  H9  1  0.24403000  0.82557000  0.43000000  1.0
  H  H10  1  0.83500000  0.27559000  0.64167000  1.0
  H  H11  1  0.16499000  0.72441000  0.35833000  1.0
  H  H12  1  0.33480000  0.53515000  0.72692000  1.0
  H  H13  1  0.66521000  0.46484000  0.27307000  1.0
  C  C14  1  0.50908000  0.12355000  0.11631000  1.0
  C  C15  1  0.49092000  0.87645000  0.88368000  1.0
  C  C16  1  0.67081000  0.33223000  0.96551000  1.0
  C  C17  1  0.32919000  0.66776000  0.03449000  1.0
  C  C18  1  0.50663000  0.36227000  0.90124000  1.0
  C  C19  1  0.49338000  0.63773000  0.09876000  1.0
  C  C20  1  0.59323000  0.62885000  0.69836000  1.0
  C  C21  1  0.40677000  0.37115000  0.30164000  1.0
  C  C22  1  0.53619000  0.77938000  0.55406000  1.0
  C  C23  1  0.46381000  0.22062000  0.44594000  1.0
  C  C24  1  0.76201000  0.59904000  0.75979000  1.0
  C  C25  1  0.23798000  0.40096000  0.24021000  1.0
  C  C26  1  0.90153000  0.72288000  0.70553000  1.0
  C  C27  1  0.09846000  0.27713000  0.29447000  1.0
  C  C28  1  0.79847000  0.45087000  0.89402000  1.0
  C  C29  1  0.20153000  0.54913000  0.10598000  1.0
  C  C30  1  0.46534000  0.50937000  0.77028000  1.0
  C  C31  1  0.53466000  0.49062000  0.22972000  1.0
  C  C32  1  0.05165000  0.07919000  0.96527000  1.0
  C  C33  1  0.94835000  0.92081000  0.03473000  1.0
  N  N34  1  0.66767000  0.18084000  0.10172000  1.0
  N  N35  1  0.33233000  0.81916000  0.89828000  1.0
  N  N36  1  0.40913000  0.22645000  0.99919000  1.0
  N  N37  1  0.59087000  0.77354000  0.00081000  1.0
  O  O38  1  0.04784000  0.67872000  0.76661000  1.0
  O  O39  1  0.95215000  0.32129000  0.23339000  1.0
  O  O40  1  0.87113000  0.87790000  0.60568000  1.0
  O  O41  1  0.12886000  0.12211000  0.39432000  1.0
  O  O42  1  0.64873000  0.83752000  0.43100000  1.0
  O  O43  1  0.35126000  0.16249000  0.56900000  1.0
  O  O44  1  0.36829000  0.83296000  0.55880000  1.0
  O  O45  1  0.63171000  0.16703000  0.44121000  1.0
  O  O46  1  0.06894000  0.13452000  0.06149000  1.0
  O  O47  1  0.93107000  0.86548000  0.93851000  1.0
  O  O48  1  0.11243000  0.14173000  0.82149000  1.0
  O  O49  1  0.88757000  0.85827000  0.17851000  1.0
  O  O50  1  0.84364000  0.16889000  0.63885000  1.0
  O  O51  1  0.15636000  0.83112000  0.36115000  1.0
