# generated using pymatgen
data_ZnH4C5SNO3
_symmetry_space_group_name_H-M   'P 1'
_cell_length_a   4.77744000
_cell_length_b   8.44968000
_cell_length_c   19.36690000
_cell_angle_alpha   101.80100000
_cell_angle_beta   90.10470000
_cell_angle_gamma   106.30900000
_symmetry_Int_Tables_number   1
_chemical_formula_structural   ZnH4C5SNO3
_chemical_formula_sum   'Zn4 H16 C20 S4 N4 O12'
_cell_volume   733.01931519
_cell_formula_units_Z   4
loop_
 _symmetry_equiv_pos_site_id
 _symmetry_equiv_pos_as_xyz
  1  'x, y, z'
loop_
 _atom_site_type_symbol
 _atom_site_label
 _atom_site_symmetry_multiplicity
 _atom_site_fract_x
 _atom_site_fract_y
 _atom_site_fract_z
 _atom_site_occupancy
  Zn  Zn0  1  0.93943000  0.42964000  0.81694000  1.0
  Zn  Zn1  1  0.50986000  0.56931000  0.68306000  1.0
  Zn  Zn2  1  0.06057000  0.57036000  0.18306000  1.0
  Zn  Zn3  1  0.49014000  0.43069000  0.31694000  1.0
  H  H4  1  0.12436000  0.39374000  0.95760000  1.0
  H  H5  1  0.73440000  0.60674000  0.54298000  1.0
  H  H6  1  0.87566000  0.60624000  0.04240000  1.0
  H  H7  1  0.26560000  0.39327000  0.45702000  1.0
  H  H8  1  0.93640000  0.21834000  0.04443000  1.0
  H  H9  1  0.72188000  0.78246000  0.45610000  1.0
  H  H10  1  0.06363000  0.78164000  0.95556000  1.0
  H  H11  1  0.27809000  0.21754000  0.54390000  1.0
  H  H12  1  0.21807000  0.93166000  0.88999000  1.0
  H  H13  1  0.28589000  0.06799000  0.60968000  1.0
  H  H14  1  0.78192000  0.06834000  0.11001000  1.0
  H  H15  1  0.71411000  0.93202000  0.39032000  1.0
  H  H16  1  0.42850000  0.12960000  0.81283000  1.0
  H  H17  1  0.29839000  0.86990000  0.68690000  1.0
  H  H18  1  0.57150000  0.87041000  0.18718000  1.0
  H  H19  1  0.70163000  0.13012000  0.31310000  1.0
  C  C20  1  0.92096000  0.29150000  0.94585000  1.0
  C  C21  1  0.63154000  0.70858000  0.55443000  1.0
  C  C22  1  0.07905000  0.70850000  0.05415000  1.0
  C  C23  1  0.36844000  0.29141000  0.44557000  1.0
  C  C24  1  0.81568000  0.18993000  0.99351000  1.0
  C  C25  1  0.62792000  0.81039000  0.50677000  1.0
  C  C26  1  0.18432000  0.81006000  0.00649000  1.0
  C  C27  1  0.37207000  0.18961000  0.49323000  1.0
  C  C28  1  0.55765000  0.05627000  0.97546000  1.0
  C  C29  1  0.50137000  0.94350000  0.52453000  1.0
  C  C30  1  0.44235000  0.94373000  0.02454000  1.0
  C  C31  1  0.49862000  0.05650000  0.47548000  1.0
  C  C32  1  0.41629000  0.03384000  0.90887000  1.0
  C  C33  1  0.38162000  0.96557000  0.59091000  1.0
  C  C34  1  0.58371000  0.96616000  0.09114000  1.0
  C  C35  1  0.61837000  0.03443000  0.40909000  1.0
  C  C36  1  0.53308000  0.14261000  0.86458000  1.0
  C  C37  1  0.38978000  0.85673000  0.63523000  1.0
  C  C38  1  0.46692000  0.85739000  0.13542000  1.0
  C  C39  1  0.61022000  0.14328000  0.36477000  1.0
  S  S40  1  0.55804000  0.67007000  0.84674000  1.0
  S  S41  1  0.88918000  0.32869000  0.65318000  1.0
  S  S42  1  0.44196000  0.32993000  0.15326000  1.0
  S  S43  1  0.11082000  0.67131000  0.34682000  1.0
  N  N44  1  0.78191000  0.26959000  0.88257000  1.0
  N  N45  1  0.51262000  0.72989000  0.61744000  1.0
  N  N46  1  0.21809000  0.73041000  0.11743000  1.0
  N  N47  1  0.48738000  0.27011000  0.38256000  1.0
  O  O48  1  0.36826000  0.48356000  0.83778000  1.0
  O  O49  1  0.88425000  0.51509000  0.66213000  1.0
  O  O50  1  0.63173000  0.51645000  0.16222000  1.0
  O  O51  1  0.11574000  0.48491000  0.33787000  1.0
  O  O52  1  0.87100000  0.65210000  0.85178000  1.0
  O  O53  1  0.22004000  0.34697000  0.64825000  1.0
  O  O54  1  0.12900000  0.34790000  0.14822000  1.0
  O  O55  1  0.77996000  0.65303000  0.35175000  1.0
  O  O56  1  0.52070000  0.71820000  0.77553000  1.0
  O  O57  1  0.80465000  0.28042000  0.72437000  1.0
  O  O58  1  0.47929000  0.28180000  0.22447000  1.0
  O  O59  1  0.19535000  0.71958000  0.27563000  1.0
