# generated using pymatgen
data_CdH22C22N4O7
_symmetry_space_group_name_H-M   'P 1'
_cell_length_a   17.32050000
_cell_length_b   17.32060000
_cell_length_c   17.32060000
_cell_angle_alpha   65.49980000
_cell_angle_beta   65.49970000
_cell_angle_gamma   65.49970000
_symmetry_Int_Tables_number   1
_chemical_formula_structural   CdH22C22N4O7
_chemical_formula_sum   'Cd6 H132 C132 N24 O42'
_cell_volume   4113.58450680
_cell_formula_units_Z   6
loop_
 _symmetry_equiv_pos_site_id
 _symmetry_equiv_pos_as_xyz
  1  'x, y, z'
loop_
 _atom_site_type_symbol
 _atom_site_label
 _atom_site_symmetry_multiplicity
 _atom_site_fract_x
 _atom_site_fract_y
 _atom_site_fract_z
 _atom_site_occupancy
  Cd  Cd0  1  0.25000000  0.66089000  0.83911000  1.0
  Cd  Cd1  1  0.83912000  0.25000000  0.66089000  1.0
  Cd  Cd2  1  0.66089000  0.83912000  0.25000000  1.0
  Cd  Cd3  1  0.75000000  0.33911000  0.16088000  1.0
  Cd  Cd4  1  0.16088000  0.75000000  0.33912000  1.0
  Cd  Cd5  1  0.33911000  0.16088000  0.75000000  1.0
  H  H6  1  0.18968000  0.41491000  0.64633000  1.0
  H  H7  1  0.64633000  0.18968000  0.41491000  1.0
  H  H8  1  0.41491000  0.64633000  0.18968000  1.0
  H  H9  1  0.85367000  0.08509000  0.31032000  1.0
  H  H10  1  0.08509000  0.31032000  0.85367000  1.0
  H  H11  1  0.31032000  0.85367000  0.08509000  1.0
  H  H12  1  0.81032000  0.58509000  0.35367000  1.0
  H  H13  1  0.35367000  0.81032000  0.58509000  1.0
  H  H14  1  0.58509000  0.35367000  0.81032000  1.0
  H  H15  1  0.14633000  0.91491000  0.68968000  1.0
  H  H16  1  0.91491000  0.68968000  0.14633000  1.0
  H  H17  1  0.68968000  0.14633000  0.91491000  1.0
  H  H18  1  0.10128000  0.70843000  0.74464000  1.0
  H  H19  1  0.74464000  0.10128000  0.70843000  1.0
  H  H20  1  0.70843000  0.74463000  0.10128000  1.0
  H  H21  1  0.75537000  0.79157000  0.39872000  1.0
  H  H22  1  0.79157000  0.39872000  0.75537000  1.0
  H  H23  1  0.39872000  0.75537000  0.79157000  1.0
  H  H24  1  0.89872000  0.29157000  0.25536000  1.0
  H  H25  1  0.25536000  0.89872000  0.29157000  1.0
  H  H26  1  0.29157000  0.25536000  0.89872000  1.0
  H  H27  1  0.24463000  0.20843000  0.60128000  1.0
  H  H28  1  0.20843000  0.60128000  0.24463000  1.0
  H  H29  1  0.60128000  0.24463000  0.20843000  1.0
  H  H30  1  0.05313000  0.64176000  0.67559000  1.0
  H  H31  1  0.67559000  0.05314000  0.64176000  1.0
  H  H32  1  0.64176000  0.67559000  0.05314000  1.0
  H  H33  1  0.82441000  0.85824000  0.44687000  1.0
  H  H34  1  0.85824000  0.44687000  0.82441000  1.0
  H  H35  1  0.44687000  0.82441000  0.85824000  1.0
  H  H36  1  0.94686000  0.35824000  0.32441000  1.0
  H  H37  1  0.32441000  0.94686000  0.35824000  1.0
  H  H38  1  0.35824000  0.32441000  0.94686000  1.0
  H  H39  1  0.17559000  0.14176000  0.55314000  1.0
  H  H40  1  0.14176000  0.55313000  0.17559000  1.0
  H  H41  1  0.55314000  0.17559000  0.14176000  1.0
  H  H42  1  0.28343000  0.41437000  0.70620000  1.0
  H  H43  1  0.70620000  0.28343000  0.41437000  1.0
  H  H44  1  0.41436000  0.70620000  0.28343000  1.0
  H  H45  1  0.79380000  0.08563000  0.21657000  1.0
  H  H46  1  0.08563000  0.21657000  0.79380000  1.0
  H  H47  1  0.21657000  0.79380000  0.08563000  1.0
  H  H48  1  0.71657000  0.58563000  0.29380000  1.0
  H  H49  1  0.29380000  0.71657000  0.58563000  1.0
  H  H50  1  0.58563000  0.29380000  0.71657000  1.0
  H  H51  1  0.20620000  0.91437000  0.78343000  1.0
  H  H52  1  0.91437000  0.78343000  0.20620000  1.0
  H  H53  1  0.78343000  0.20620000  0.91437000  1.0
  H  H54  1  0.32145000  0.49085000  0.77459000  1.0
  H  H55  1  0.77459000  0.32145000  0.49085000  1.0
  H  H56  1  0.49085000  0.77459000  0.32145000  1.0
  H  H57  1  0.72541000  0.00915000  0.17855000  1.0
  H  H58  1  0.00915000  0.17855000  0.72541000  1.0
  H  H59  1  0.17855000  0.72541000  0.00916000  1.0
  H  H60  1  0.67855000  0.50915000  0.22541000  1.0
  H  H61  1  0.22541000  0.67855000  0.50915000  1.0
  H  H62  1  0.50915000  0.22541000  0.67855000  1.0
  H  H63  1  0.27459000  0.99085000  0.82145000  1.0
  H  H64  1  0.99084000  0.82145000  0.27459000  1.0
  H  H65  1  0.82145000  0.27459000  0.99085000  1.0
  H  H66  1  0.08756000  0.37584000  0.62609000  1.0
  H  H67  1  0.62609000  0.08756000  0.37584000  1.0
  H  H68  1  0.37584000  0.62609000  0.08756000  1.0
  H  H69  1  0.87391000  0.12416000  0.41244000  1.0
  H  H70  1  0.12416000  0.41244000  0.87391000  1.0
  H  H71  1  0.41244000  0.87391000  0.12416000  1.0
  H  H72  1  0.91244000  0.62416000  0.37391000  1.0
  H  H73  1  0.37391000  0.91244000  0.62416000  1.0
  H  H74  1  0.62416000  0.37391000  0.91244000  1.0
  H  H75  1  0.12609000  0.87584000  0.58756000  1.0
  H  H76  1  0.87584000  0.58756000  0.12609000  1.0
  H  H77  1  0.58756000  0.12609000  0.87584000  1.0
  H  H78  1  0.14122000  0.43106000  0.51833000  1.0
  H  H79  1  0.51833000  0.14122000  0.43106000  1.0
  H  H80  1  0.43106000  0.51833000  0.14122000  1.0
  H  H81  1  0.98167000  0.06894000  0.35878000  1.0
  H  H82  1  0.06894000  0.35878000  0.98167000  1.0
  H  H83  1  0.35878000  0.98167000  0.06894000  1.0
  H  H84  1  0.85878000  0.56894000  0.48167000  1.0
  H  H85  1  0.48167000  0.85878000  0.56894000  1.0
  H  H86  1  0.56894000  0.48167000  0.85878000  1.0
  H  H87  1  0.01833000  0.93106000  0.64122000  1.0
  H  H88  1  0.93106000  0.64122000  0.01833000  1.0
  H  H89  1  0.64122000  0.01833000  0.93106000  1.0
  H  H90  1  0.99345000  0.40487000  0.54354000  1.0
  H  H91  1  0.54354000  0.99345000  0.40487000  1.0
  H  H92  1  0.40487000  0.54354000  0.99345000  1.0
  H  H93  1  0.95647000  0.09513000  0.50655000  1.0
  H  H94  1  0.09513000  0.50655000  0.95647000  1.0
  H  H95  1  0.50655000  0.95647000  0.09513000  1.0
  H  H96  1  0.00655000  0.59513000  0.45646000  1.0
  H  H97  1  0.45646000  0.00655000  0.59513000  1.0
  H  H98  1  0.59513000  0.45646000  0.00655000  1.0
  H  H99  1  0.04353000  0.90487000  0.49345000  1.0
  H  H100  1  0.90487000  0.49345000  0.04353000  1.0
  H  H101  1  0.49345000  0.04353000  0.90487000  1.0
  H  H102  1  0.93877000  0.48990000  0.59566000  1.0
  H  H103  1  0.59566000  0.93877000  0.48990000  1.0
  H  H104  1  0.48989000  0.59566000  0.93877000  1.0
  H  H105  1  0.90434000  0.01011000  0.56122000  1.0
  H  H106  1  0.01011000  0.56122000  0.90434000  1.0
  H  H107  1  0.56122000  0.90434000  0.01011000  1.0
  H  H108  1  0.06123000  0.51010000  0.40434000  1.0
  H  H109  1  0.40434000  0.06123000  0.51010000  1.0
  H  H110  1  0.51010000  0.40434000  0.06123000  1.0
  H  H111  1  0.09566000  0.98989000  0.43878000  1.0
  H  H112  1  0.98989000  0.43878000  0.09566000  1.0
  H  H113  1  0.43878000  0.09566000  0.98989000  1.0
  H  H114  1  0.01281000  0.96039000  0.76235000  1.0
  H  H115  1  0.76235000  0.01281000  0.96039000  1.0
  H  H116  1  0.96039000  0.76235000  0.01281000  1.0
  H  H117  1  0.73765000  0.53961000  0.48719000  1.0
  H  H118  1  0.53961000  0.48719000  0.73765000  1.0
  H  H119  1  0.48719000  0.73765000  0.53961000  1.0
  H  H120  1  0.98719000  0.03961000  0.23765000  1.0
  H  H121  1  0.23765000  0.98720000  0.03961000  1.0
  H  H122  1  0.03961000  0.23765000  0.98719000  1.0
  H  H123  1  0.26235000  0.46039000  0.51281000  1.0
  H  H124  1  0.46039000  0.51281000  0.26235000  1.0
  H  H125  1  0.51281000  0.26235000  0.46039000  1.0
  H  H126  1  0.19734000  0.52287000  0.01739000  1.0
  H  H127  1  0.01739000  0.19734000  0.52287000  1.0
  H  H128  1  0.52287000  0.01739000  0.19734000  1.0
  H  H129  1  0.48262000  0.97714000  0.30266000  1.0
  H  H130  1  0.97714000  0.30266000  0.48262000  1.0
  H  H131  1  0.30266000  0.48262000  0.97714000  1.0
  H  H132  1  0.80266000  0.47713000  0.98261000  1.0
  H  H133  1  0.98261000  0.80266000  0.47713000  1.0
  H  H134  1  0.47713000  0.98261000  0.80266000  1.0
  H  H135  1  0.51738000  0.02286000  0.69735000  1.0
  H  H136  1  0.02286000  0.69734000  0.51738000  1.0
  H  H137  1  0.69734000  0.51738000  0.02286000  1.0
  C  C138  1  0.13980000  0.64309000  0.73516000  1.0
  C  C139  1  0.73516000  0.13980000  0.64309000  1.0
  C  C140  1  0.64309000  0.73516000  0.13980000  1.0
  C  C141  1  0.76485000  0.85691000  0.36020000  1.0
  C  C142  1  0.85691000  0.36020000  0.76485000  1.0
  C  C143  1  0.36020000  0.76485000  0.85691000  1.0
  C  C144  1  0.86020000  0.35691000  0.26484000  1.0
  C  C145  1  0.26484000  0.86020000  0.35691000  1.0
  C  C146  1  0.35691000  0.26484000  0.86020000  1.0
  C  C147  1  0.23516000  0.14309000  0.63980000  1.0
  C  C148  1  0.14309000  0.63980000  0.23515000  1.0
  C  C149  1  0.63980000  0.23515000  0.14309000  1.0
  C  C150  1  0.11300000  0.60651000  0.69624000  1.0
  C  C151  1  0.69624000  0.11300000  0.60651000  1.0
  C  C152  1  0.60651000  0.69624000  0.11300000  1.0
  C  C153  1  0.80376000  0.89349000  0.38700000  1.0
  C  C154  1  0.89349000  0.38700000  0.80376000  1.0
  C  C155  1  0.38700000  0.80376000  0.89349000  1.0
  C  C156  1  0.88700000  0.39349000  0.30376000  1.0
  C  C157  1  0.30376000  0.88700000  0.39349000  1.0
  C  C158  1  0.39349000  0.30376000  0.88700000  1.0
  C  C159  1  0.19624000  0.10651000  0.61300000  1.0
  C  C160  1  0.10651000  0.61300000  0.19624000  1.0
  C  C161  1  0.61300000  0.19624000  0.10651000  1.0
  C  C162  1  0.16485000  0.52220000  0.68488000  1.0
  C  C163  1  0.68488000  0.16485000  0.52220000  1.0
  C  C164  1  0.52220000  0.68488000  0.16485000  1.0
  C  C165  1  0.81513000  0.97780000  0.33515000  1.0
  C  C166  1  0.97780000  0.33515000  0.81512000  1.0
  C  C167  1  0.33515000  0.81513000  0.97780000  1.0
  C  C168  1  0.83515000  0.47780000  0.31512000  1.0
  C  C169  1  0.31512000  0.83515000  0.47780000  1.0
  C  C170  1  0.47780000  0.31512000  0.83515000  1.0
  C  C171  1  0.18487000  0.02220000  0.66485000  1.0
  C  C172  1  0.02220000  0.66485000  0.18487000  1.0
  C  C173  1  0.66485000  0.18487000  0.02220000  1.0
  C  C174  1  0.24162000  0.47985000  0.71355000  1.0
  C  C175  1  0.71355000  0.24162000  0.47985000  1.0
  C  C176  1  0.47985000  0.71355000  0.24162000  1.0
  C  C177  1  0.78645000  0.02015000  0.25838000  1.0
  C  C178  1  0.02015000  0.25838000  0.78645000  1.0
  C  C179  1  0.25838000  0.78645000  0.02015000  1.0
  C  C180  1  0.75838000  0.52015000  0.28645000  1.0
  C  C181  1  0.28645000  0.75838000  0.52015000  1.0
  C  C182  1  0.52015000  0.28645000  0.75837000  1.0
  C  C183  1  0.21355000  0.97985000  0.74162000  1.0
  C  C184  1  0.97985000  0.74162000  0.21355000  1.0
  C  C185  1  0.74162000  0.21355000  0.97985000  1.0
  C  C186  1  0.26259000  0.52192000  0.75170000  1.0
  C  C187  1  0.75171000  0.26259000  0.52192000  1.0
  C  C188  1  0.52192000  0.75171000  0.26259000  1.0
  C  C189  1  0.74830000  0.97808000  0.23741000  1.0
  C  C190  1  0.97808000  0.23741000  0.74830000  1.0
  C  C191  1  0.23741000  0.74830000  0.97808000  1.0
  C  C192  1  0.73741000  0.47808000  0.24830000  1.0
  C  C193  1  0.24829000  0.73741000  0.47808000  1.0
  C  C194  1  0.47808000  0.24830000  0.73741000  1.0
  C  C195  1  0.25170000  0.02192000  0.76259000  1.0
  C  C196  1  0.02192000  0.76259000  0.25170000  1.0
  C  C197  1  0.76259000  0.25170000  0.02192000  1.0
  C  C198  1  0.07964000  0.50807000  0.60843000  1.0
  C  C199  1  0.60843000  0.07964000  0.50807000  1.0
  C  C200  1  0.50807000  0.60843000  0.07964000  1.0
  C  C201  1  0.89157000  0.99193000  0.42036000  1.0
  C  C202  1  0.99193000  0.42036000  0.89157000  1.0
  C  C203  1  0.42036000  0.89157000  0.99193000  1.0
  C  C204  1  0.92036000  0.49193000  0.39157000  1.0
  C  C205  1  0.39157000  0.92036000  0.49193000  1.0
  C  C206  1  0.49192000  0.39157000  0.92036000  1.0
  C  C207  1  0.10843000  0.00807000  0.57964000  1.0
  C  C208  1  0.00807000  0.57964000  0.10843000  1.0
  C  C209  1  0.57964000  0.10843000  0.00807000  1.0
  C  C210  1  0.08008000  0.44012000  0.57419000  1.0
  C  C211  1  0.57419000  0.08008000  0.44012000  1.0
  C  C212  1  0.44012000  0.57419000  0.08008000  1.0
  C  C213  1  0.92581000  0.05988000  0.41992000  1.0
  C  C214  1  0.05988000  0.41992000  0.92581000  1.0
  C  C215  1  0.41992000  0.92581000  0.05988000  1.0
  C  C216  1  0.91992000  0.55988000  0.42581000  1.0
  C  C217  1  0.42581000  0.91992000  0.55988000  1.0
  C  C218  1  0.55988000  0.42581000  0.91992000  1.0
  C  C219  1  0.07419000  0.94012000  0.58008000  1.0
  C  C220  1  0.94012000  0.58008000  0.07419000  1.0
  C  C221  1  0.58008000  0.07419000  0.94012000  1.0
  C  C222  1  0.99866000  0.46514000  0.54528000  1.0
  C  C223  1  0.54528000  0.99866000  0.46514000  1.0
  C  C224  1  0.46514000  0.54528000  0.99866000  1.0
  C  C225  1  0.95472000  0.03486000  0.50134000  1.0
  C  C226  1  0.03486000  0.50134000  0.95472000  1.0
  C  C227  1  0.50134000  0.95472000  0.03486000  1.0
  C  C228  1  0.00134000  0.53486000  0.45472000  1.0
  C  C229  1  0.45472000  0.00134000  0.53486000  1.0
  C  C230  1  0.53486000  0.45472000  0.00134000  1.0
  C  C231  1  0.04528000  0.96514000  0.49866000  1.0
  C  C232  1  0.96514000  0.49866000  0.04528000  1.0
  C  C233  1  0.49866000  0.04528000  0.96514000  1.0
  C  C234  1  0.08518000  0.79089000  0.85801000  1.0
  C  C235  1  0.85801000  0.08518000  0.79089000  1.0
  C  C236  1  0.79089000  0.85801000  0.08518000  1.0
  C  C237  1  0.64199000  0.70911000  0.41482000  1.0
  C  C238  1  0.70911000  0.41482000  0.64199000  1.0
  C  C239  1  0.41482000  0.64199000  0.70911000  1.0
  C  C240  1  0.91482000  0.20911000  0.14200000  1.0
  C  C241  1  0.14199000  0.91482000  0.20911000  1.0
  C  C242  1  0.20911000  0.14199000  0.91482000  1.0
  C  C243  1  0.35801000  0.29089000  0.58518000  1.0
  C  C244  1  0.29089000  0.58518000  0.35801000  1.0
  C  C245  1  0.58518000  0.35801000  0.29089000  1.0
  C  C246  1  0.99578000  0.85389000  0.88473000  1.0
  C  C247  1  0.88473000  0.99578000  0.85389000  1.0
  C  C248  1  0.85389000  0.88473000  0.99578000  1.0
  C  C249  1  0.61527000  0.64611000  0.50422000  1.0
  C  C250  1  0.64611000  0.50422000  0.61527000  1.0
  C  C251  1  0.50422000  0.61527000  0.64611000  1.0
  C  C252  1  0.00422000  0.14612000  0.11527000  1.0
  C  C253  1  0.11527000  0.00422000  0.14611000  1.0
  C  C254  1  0.14611000  0.11528000  0.00422000  1.0
  C  C255  1  0.38473000  0.35389000  0.49578000  1.0
  C  C256  1  0.35389000  0.49578000  0.38473000  1.0
  C  C257  1  0.49578000  0.38473000  0.35389000  1.0
  C  C258  1  0.96892000  0.93798000  0.82768000  1.0
  C  C259  1  0.82768000  0.96892000  0.93798000  1.0
  C  C260  1  0.93798000  0.82768000  0.96892000  1.0
  C  C261  1  0.67232000  0.56201000  0.53108000  1.0
  C  C262  1  0.56202000  0.53108000  0.67232000  1.0
  C  C263  1  0.53108000  0.67232000  0.56202000  1.0
  C  C264  1  0.03108000  0.06202000  0.17232000  1.0
  C  C265  1  0.17232000  0.03108000  0.06202000  1.0
  C  C266  1  0.06202000  0.17232000  0.03108000  1.0
  C  C267  1  0.32768000  0.43798000  0.46892000  1.0
  C  C268  1  0.43798000  0.46892000  0.32768000  1.0
  C  C269  1  0.46892000  0.32768000  0.43798000  1.0
  N  N270  1  0.21279000  0.60258000  0.76291000  1.0
  N  N271  1  0.76291000  0.21279000  0.60258000  1.0
  N  N272  1  0.60258000  0.76291000  0.21279000  1.0
  N  N273  1  0.73709000  0.89742000  0.28722000  1.0
  N  N274  1  0.89742000  0.28721000  0.73709000  1.0
  N  N275  1  0.28721000  0.73709000  0.89742000  1.0
  N  N276  1  0.78721000  0.39742000  0.23709000  1.0
  N  N277  1  0.23709000  0.78721000  0.39742000  1.0
  N  N278  1  0.39742000  0.23709000  0.78721000  1.0
  N  N279  1  0.26291000  0.10258000  0.71278000  1.0
  N  N280  1  0.10258000  0.71279000  0.26291000  1.0
  N  N281  1  0.71279000  0.26291000  0.10258000  1.0
  N  N282  1  0.14512000  0.47715000  0.64874000  1.0
  N  N283  1  0.64874000  0.14512000  0.47715000  1.0
  N  N284  1  0.47715000  0.64873000  0.14512000  1.0
  N  N285  1  0.85127000  0.02286000  0.35488000  1.0
  N  N286  1  0.02286000  0.35488000  0.85126000  1.0
  N  N287  1  0.35488000  0.85126000  0.02286000  1.0
  N  N288  1  0.85488000  0.52285000  0.35126000  1.0
  N  N289  1  0.35126000  0.85488000  0.52285000  1.0
  N  N290  1  0.52285000  0.35126000  0.85488000  1.0
  N  N291  1  0.14873000  0.97715000  0.64512000  1.0
  N  N292  1  0.97714000  0.64512000  0.14874000  1.0
  N  N293  1  0.64512000  0.14873000  0.97715000  1.0
  O  O294  1  0.02566000  0.58314000  0.60174000  1.0
  O  O295  1  0.60174000  0.02566000  0.58314000  1.0
  O  O296  1  0.58314000  0.60174000  0.02566000  1.0
  O  O297  1  0.89826000  0.91686000  0.47434000  1.0
  O  O298  1  0.91686000  0.47434000  0.89826000  1.0
  O  O299  1  0.47434000  0.89826000  0.91686000  1.0
  O  O300  1  0.97433000  0.41686000  0.39826000  1.0
  O  O301  1  0.39826000  0.97434000  0.41686000  1.0
  O  O302  1  0.41686000  0.39826000  0.97434000  1.0
  O  O303  1  0.10174000  0.08314000  0.52566000  1.0
  O  O304  1  0.08313000  0.52566000  0.10174000  1.0
  O  O305  1  0.52566000  0.10174000  0.08314000  1.0
  O  O306  1  0.13903000  0.81350000  0.78135000  1.0
  O  O307  1  0.78135000  0.13903000  0.81350000  1.0
  O  O308  1  0.81350000  0.78135000  0.13902000  1.0
  O  O309  1  0.71865000  0.68650000  0.36098000  1.0
  O  O310  1  0.68650000  0.36097000  0.71865000  1.0
  O  O311  1  0.36097000  0.71865000  0.68650000  1.0
  O  O312  1  0.86097000  0.18650000  0.21865000  1.0
  O  O313  1  0.21865000  0.86097000  0.18650000  1.0
  O  O314  1  0.18650000  0.21865000  0.86097000  1.0
  O  O315  1  0.28135000  0.31350000  0.63902000  1.0
  O  O316  1  0.31350000  0.63902000  0.28135000  1.0
  O  O317  1  0.63903000  0.28135000  0.31350000  1.0
  O  O318  1  0.10384000  0.71528000  0.91491000  1.0
  O  O319  1  0.91492000  0.10384000  0.71528000  1.0
  O  O320  1  0.71528000  0.91491000  0.10384000  1.0
  O  O321  1  0.58508000  0.78472000  0.39616000  1.0
  O  O322  1  0.78472000  0.39616000  0.58509000  1.0
  O  O323  1  0.39616000  0.58508000  0.78472000  1.0
  O  O324  1  0.89616000  0.28472000  0.08509000  1.0
  O  O325  1  0.08509000  0.89616000  0.28472000  1.0
  O  O326  1  0.28472000  0.08509000  0.89616000  1.0
  O  O327  1  0.41491000  0.21528000  0.60384000  1.0
  O  O328  1  0.21528000  0.60384000  0.41491000  1.0
  O  O329  1  0.60384000  0.41491000  0.21528000  1.0
  O  O330  1  0.25000000  0.53273000  0.96728000  1.0
  O  O331  1  0.96729000  0.25000000  0.53273000  1.0
  O  O332  1  0.53274000  0.96729000  0.25000000  1.0
  O  O333  1  0.75000000  0.46727000  0.03271000  1.0
  O  O334  1  0.03271000  0.75000000  0.46727000  1.0
  O  O335  1  0.46727000  0.03272000  0.75000000  1.0
