# generated using pymatgen
data_AgH9C10SN5ClO3
_symmetry_space_group_name_H-M   'P 1'
_cell_length_a   8.65632000
_cell_length_b   12.24970000
_cell_length_c   13.69550000
_cell_angle_alpha   90.00020000
_cell_angle_beta   90.00020000
_cell_angle_gamma   77.29900000
_symmetry_Int_Tables_number   1
_chemical_formula_structural   AgH9C10SN5ClO3
_chemical_formula_sum   'Ag4 H36 C40 S4 N20 Cl4 O12'
_cell_volume   1416.69901507
_cell_formula_units_Z   4
loop_
 _symmetry_equiv_pos_site_id
 _symmetry_equiv_pos_as_xyz
  1  'x, y, z'
loop_
 _atom_site_type_symbol
 _atom_site_label
 _atom_site_symmetry_multiplicity
 _atom_site_fract_x
 _atom_site_fract_y
 _atom_site_fract_z
 _atom_site_occupancy
  Ag  Ag0  1  0.22222000  0.92931000  0.21390000  1.0
  Ag  Ag1  1  0.27777000  0.07069000  0.71390000  1.0
  Ag  Ag2  1  0.77777000  0.07069000  0.78610000  1.0
  Ag  Ag3  1  0.72222000  0.92931000  0.28610000  1.0
  H  H4  1  0.19826000  0.80494000  0.78057000  1.0
  H  H5  1  0.30174000  0.19506000  0.28057000  1.0
  H  H6  1  0.80174000  0.19506000  0.21943000  1.0
  H  H7  1  0.69826000  0.80494000  0.71943000  1.0
  H  H8  1  0.19911000  0.70427000  0.62213000  1.0
  H  H9  1  0.30089000  0.29573000  0.12213000  1.0
  H  H10  1  0.80089000  0.29573000  0.37787000  1.0
  H  H11  1  0.69911000  0.70427000  0.87787000  1.0
  H  H12  1  0.44505000  0.39798000  0.76003000  1.0
  H  H13  1  0.05494000  0.60202000  0.26003000  1.0
  H  H14  1  0.55495000  0.60202000  0.23997000  1.0
  H  H15  1  0.94505000  0.39798000  0.73997000  1.0
  H  H16  1  0.43390000  0.49631000  0.91872000  1.0
  H  H17  1  0.06610000  0.50369000  0.41872000  1.0
  H  H18  1  0.56610000  0.50369000  0.08127000  1.0
  H  H19  1  0.93389000  0.49631000  0.58127000  1.0
  H  H20  1  0.95780000  0.95618000  0.08824000  1.0
  H  H21  1  0.54220000  0.04382000  0.58824000  1.0
  H  H22  1  0.04220000  0.04382000  0.91176000  1.0
  H  H23  1  0.45780000  0.95618000  0.41176000  1.0
  H  H24  1  0.78528000  0.92413000  0.03573000  1.0
  H  H25  1  0.71472000  0.07587000  0.53573000  1.0
  H  H26  1  0.21472000  0.07587000  0.96427000  1.0
  H  H27  1  0.28527000  0.92413000  0.46427000  1.0
  H  H28  1  0.01347000  0.77250000  0.18025000  1.0
  H  H29  1  0.48653000  0.22751000  0.68025000  1.0
  H  H30  1  0.98653000  0.22751000  0.81975000  1.0
  H  H31  1  0.51347000  0.77250000  0.31975000  1.0
  H  H32  1  0.66310000  0.78518000  0.12345000  1.0
  H  H33  1  0.83690000  0.21482000  0.62345000  1.0
  H  H34  1  0.33690000  0.21482000  0.87655000  1.0
  H  H35  1  0.16310000  0.78518000  0.37655000  1.0
  H  H36  1  0.78285000  0.69593000  0.21832000  1.0
  H  H37  1  0.71715000  0.30407000  0.71832000  1.0
  H  H38  1  0.21715000  0.30407000  0.78168000  1.0
  H  H39  1  0.28285000  0.69593000  0.28168000  1.0
  C  C40  1  0.31340000  0.65571000  0.85856000  1.0
  C  C41  1  0.18661000  0.34429000  0.35857000  1.0
  C  C42  1  0.68661000  0.34428000  0.14144000  1.0
  C  C43  1  0.81339000  0.65572000  0.64144000  1.0
  C  C44  1  0.24676000  0.71513000  0.77618000  1.0
  C  C45  1  0.25324000  0.28487000  0.27618000  1.0
  C  C46  1  0.75324000  0.28487000  0.22382000  1.0
  C  C47  1  0.74676000  0.71513000  0.72382000  1.0
  C  C48  1  0.24939000  0.65928000  0.68734000  1.0
  C  C49  1  0.25061000  0.34072000  0.18734000  1.0
  C  C50  1  0.75061000  0.34071000  0.31266000  1.0
  C  C51  1  0.74939000  0.65928000  0.81266000  1.0
  C  C52  1  0.32135000  0.54559000  0.68238000  1.0
  C  C53  1  0.17865000  0.45441000  0.18238000  1.0
  C  C54  1  0.67865000  0.45441000  0.31762000  1.0
  C  C55  1  0.82135000  0.54559000  0.81762000  1.0
  C  C56  1  0.38891000  0.48646000  0.76476000  1.0
  C  C57  1  0.11109000  0.51354000  0.26476000  1.0
  C  C58  1  0.61109000  0.51354000  0.23524000  1.0
  C  C59  1  0.88891000  0.48646000  0.73524000  1.0
  C  C60  1  0.38391000  0.54173000  0.85373000  1.0
  C  C61  1  0.11609000  0.45827000  0.35373000  1.0
  C  C62  1  0.61609000  0.45826000  0.14627000  1.0
  C  C63  1  0.88391000  0.54173000  0.64627000  1.0
  C  C64  1  0.19953000  0.78657000  0.99636000  1.0
  C  C65  1  0.30047000  0.21342000  0.49636000  1.0
  C  C66  1  0.80047000  0.21343000  0.00364000  1.0
  C  C67  1  0.69953000  0.78658000  0.50364000  1.0
  C  C68  1  0.90421000  0.88767000  0.06350000  1.0
  C  C69  1  0.59580000  0.11234000  0.56350000  1.0
  C  C70  1  0.09579000  0.11234000  0.93650000  1.0
  C  C71  1  0.40420000  0.88766000  0.43650000  1.0
  C  C72  1  0.90217000  0.80278000  0.14129000  1.0
  C  C73  1  0.59783000  0.19722000  0.64129000  1.0
  C  C74  1  0.09783000  0.19722000  0.85871000  1.0
  C  C75  1  0.40217000  0.80278000  0.35871000  1.0
  C  C76  1  0.77458000  0.76140000  0.16333000  1.0
  C  C77  1  0.72542000  0.23860000  0.66333000  1.0
  C  C78  1  0.22543000  0.23860000  0.83667000  1.0
  C  C79  1  0.27458000  0.76140000  0.33667000  1.0
  S  S80  1  0.00857000  0.82774000  0.95275000  1.0
  S  S81  1  0.49144000  0.17225000  0.45275000  1.0
  S  S82  1  0.99144000  0.17225000  0.04725000  1.0
  S  S83  1  0.50856000  0.82775000  0.54725000  1.0
  N  N84  1  0.31518000  0.71143000  0.94937000  1.0
  N  N85  1  0.18483000  0.28857000  0.44938000  1.0
  N  N86  1  0.68483000  0.28857000  0.05062000  1.0
  N  N87  1  0.81517000  0.71143000  0.55063000  1.0
  N  N88  1  0.44844000  0.69180000  0.00549000  1.0
  N  N89  1  0.05156000  0.30820000  0.50549000  1.0
  N  N90  1  0.55156000  0.30820000  0.99451000  1.0
  N  N91  1  0.94844000  0.69180000  0.49451000  1.0
  N  N92  1  0.41467000  0.75186000  0.08310000  1.0
  N  N93  1  0.08533000  0.24814000  0.58309000  1.0
  N  N94  1  0.58533000  0.24814000  0.91690000  1.0
  N  N95  1  0.91467000  0.75186000  0.41690000  1.0
  N  N96  1  0.26268000  0.81265000  0.08034000  1.0
  N  N97  1  0.23732000  0.18735000  0.58034000  1.0
  N  N98  1  0.73732000  0.18735000  0.91966000  1.0
  N  N99  1  0.76268000  0.81265000  0.41966000  1.0
  N  N100  1  0.48075000  0.05732000  0.14657000  1.0
  N  N101  1  0.01926000  0.94268000  0.64657000  1.0
  N  N102  1  0.51925000  0.94268000  0.85343000  1.0
  N  N103  1  0.98075000  0.05732000  0.35343000  1.0
  Cl  Cl104  1  0.33017000  0.47716000  0.57148000  1.0
  Cl  Cl105  1  0.16983000  0.52283000  0.07148000  1.0
  Cl  Cl106  1  0.66983000  0.52284000  0.42852000  1.0
  Cl  Cl107  1  0.83017000  0.47717000  0.92852000  1.0
  O  O108  1  0.61401000  0.07746000  0.12962000  1.0
  O  O109  1  0.88599000  0.92254000  0.62963000  1.0
  O  O110  1  0.38599000  0.92254000  0.87038000  1.0
  O  O111  1  0.11401000  0.07746000  0.37037000  1.0
  O  O112  1  0.36203000  0.09206000  0.09389000  1.0
  O  O113  1  0.13797000  0.90793000  0.59389000  1.0
  O  O114  1  0.63797000  0.90793000  0.90612000  1.0
  O  O115  1  0.86203000  0.09206000  0.40611000  1.0
  O  O116  1  0.46510000  0.99724000  0.22353000  1.0
  O  O117  1  0.03490000  0.00276000  0.72353000  1.0
  O  O118  1  0.53490000  0.00276000  0.77647000  1.0
  O  O119  1  0.96510000  0.99724000  0.27647000  1.0
