# generated using pymatgen
data_ZnH13C19I2NO4
_symmetry_space_group_name_H-M   'P 1'
_cell_length_a   10.85180000
_cell_length_b   14.71290000
_cell_length_c   16.17180000
_cell_angle_alpha   89.40470000
_cell_angle_beta   89.60800000
_cell_angle_gamma   88.31250000
_symmetry_Int_Tables_number   1
_chemical_formula_structural   ZnH13C19I2NO4
_chemical_formula_sum   'Zn2 H26 C38 I4 N2 O8'
_cell_volume   2580.69873459
_cell_formula_units_Z   2
loop_
 _symmetry_equiv_pos_site_id
 _symmetry_equiv_pos_as_xyz
  1  'x, y, z'
loop_
 _atom_site_type_symbol
 _atom_site_label
 _atom_site_symmetry_multiplicity
 _atom_site_fract_x
 _atom_site_fract_y
 _atom_site_fract_z
 _atom_site_occupancy
  Zn  Zn0  1  0.49734000  0.40290000  0.50309000  1.0
  Zn  Zn1  1  0.50025000  0.59591000  0.49628000  1.0
  H  H2  1  0.90856000  0.58750000  0.38486000  1.0
  H  H3  1  0.44486000  0.94075000  0.29508000  1.0
  H  H4  1  0.48456000  0.83835000  0.34654000  1.0
  H  H5  1  0.77279000  0.05865000  0.65207000  1.0
  H  H6  1  0.74044000  0.16060000  0.59520000  1.0
  H  H7  1  0.73418000  0.16126000  0.70467000  1.0
  H  H8  1  0.52147000  0.16216000  0.65011000  1.0
  H  H9  1  0.55231000  0.06053000  0.70496000  1.0
  H  H10  1  0.74271000  0.81458000  0.56928000  1.0
  H  H11  1  0.76758000  0.81400000  0.67695000  1.0
  H  H12  1  0.79786000  0.91323000  0.61723000  1.0
  H  H13  1  0.08928000  0.41215000  0.61536000  1.0
  H  H14  1  0.59719000  0.92896000  0.69847000  1.0
  H  H15  1  0.54278000  0.83185000  0.64950000  1.0
  H  H16  1  0.58793000  0.17684000  0.33471000  1.0
  H  H17  1  0.57495000  0.07612000  0.27599000  1.0
  H  H18  1  0.48913000  0.17679000  0.24793000  1.0
  H  H19  1  0.34954000  0.06837000  0.31958000  1.0
  H  H20  1  0.36493000  0.16726000  0.37813000  1.0
  H  H21  1  0.48299000  0.35021000  0.07311000  1.0
  H  H22  1  0.51862000  0.64762000  0.92628000  1.0
  H  H23  1  0.49136000  0.35622000  0.91892000  1.0
  H  H24  1  0.51036000  0.64159000  0.08047000  1.0
  H  H25  1  0.27261000  0.83294000  0.41063000  1.0
  H  H26  1  0.23071000  0.93751000  0.36085000  1.0
  H  H27  1  0.26503000  0.83867000  0.30135000  1.0
  C  C28  1  0.49021000  0.49476000  0.33893000  1.0
  C  C29  1  0.49579000  0.49558000  0.08683000  1.0
  C  C30  1  0.26055000  0.51506000  0.50589000  1.0
  C  C31  1  0.73730000  0.48462000  0.49385000  1.0
  C  C32  1  0.48889000  0.49259000  0.24963000  1.0
  C  C33  1  0.51014000  0.50530000  0.74973000  1.0
  C  C34  1  0.45899000  0.04914000  0.42858000  1.0
  C  C35  1  0.55085000  0.94939000  0.57068000  1.0
  C  C36  1  0.54112000  0.04467000  0.57372000  1.0
  C  C37  1  0.46766000  0.95393000  0.42584000  1.0
  C  C38  1  0.49610000  0.09114000  0.50233000  1.0
  C  C39  1  0.50792000  0.50324000  0.66043000  1.0
  C  C40  1  0.51216000  0.90744000  0.49715000  1.0
  C  C41  1  0.05173000  0.47213000  0.42856000  1.0
  C  C42  1  0.94611000  0.52751000  0.57159000  1.0
  C  C43  1  0.97720000  0.41001000  0.49008000  1.0
  C  C44  1  0.02068000  0.58960000  0.51011000  1.0
  C  C45  1  0.95025000  0.54881000  0.43595000  1.0
  C  C46  1  0.04763000  0.45083000  0.56424000  1.0
  C  C47  1  0.87480000  0.48712000  0.49606000  1.0
  C  C48  1  0.12306000  0.51249000  0.50414000  1.0
  C  C49  1  0.48863000  0.18754000  0.50468000  1.0
  C  C50  1  0.50880000  0.50496000  0.82507000  1.0
  C  C51  1  0.51545000  0.81102000  0.49520000  1.0
  C  C52  1  0.42759000  0.90114000  0.35168000  1.0
  C  C53  1  0.29096000  0.87635000  0.35653000  1.0
  C  C54  1  0.57669000  0.09831000  0.64849000  1.0
  C  C55  1  0.71412000  0.12072000  0.65002000  1.0
  C  C56  1  0.60161000  0.89092000  0.64051000  1.0
  C  C57  1  0.73505000  0.85653000  0.62490000  1.0
  C  C58  1  0.41553000  0.10633000  0.35589000  1.0
  C  C59  1  0.52335000  0.13554000  0.30035000  1.0
  C  C60  1  0.49147000  0.49288000  0.17427000  1.0
  C  C61  1  0.49549000  0.41831000  0.95482000  1.0
  C  C62  1  0.50615000  0.57951000  0.04455000  1.0
  C  C63  1  0.49068000  0.41500000  0.04050000  1.0
  C  C64  1  0.51091000  0.58282000  0.95889000  1.0
  C  C65  1  0.50548000  0.50225000  0.91254000  1.0
  I  I66  1  0.13562000  0.43149000  0.31635000  1.0
  I  I67  1  0.86206000  0.56805000  0.68386000  1.0
  I  I68  1  0.95051000  0.26944000  0.47504000  1.0
  I  I69  1  0.04770000  0.73010000  0.52513000  1.0
  N  N70  1  0.51584000  0.73219000  0.49341000  1.0
  N  N71  1  0.48372000  0.26643000  0.50618000  1.0
  O  O72  1  0.49206000  0.41822000  0.37659000  1.0
  O  O73  1  0.50351000  0.57978000  0.62285000  1.0
  O  O74  1  0.50986000  0.42453000  0.62824000  1.0
  O  O75  1  0.49024000  0.57343000  0.37104000  1.0
  O  O76  1  0.31288000  0.43678000  0.51092000  1.0
  O  O77  1  0.68514000  0.56303000  0.49021000  1.0
  O  O78  1  0.68699000  0.40817000  0.49763000  1.0
  O  O79  1  0.31072000  0.59146000  0.50025000  1.0
