# generated using pymatgen
data_SrH5C7NO5
_symmetry_space_group_name_H-M   'P 1'
_cell_length_a   6.58500000
_cell_length_b   6.70343000
_cell_length_c   10.04930000
_cell_angle_alpha   96.15740000
_cell_angle_beta   93.34410000
_cell_angle_gamma   116.99500000
_symmetry_Int_Tables_number   1
_chemical_formula_structural   SrH5C7NO5
_chemical_formula_sum   'Sr2 H10 C14 N2 O10'
_cell_volume   390.10718678
_cell_formula_units_Z   2
loop_
 _symmetry_equiv_pos_site_id
 _symmetry_equiv_pos_as_xyz
  1  'x, y, z'
loop_
 _atom_site_type_symbol
 _atom_site_label
 _atom_site_symmetry_multiplicity
 _atom_site_fract_x
 _atom_site_fract_y
 _atom_site_fract_z
 _atom_site_occupancy
  Sr  Sr0  1  0.29417000  0.11236000  0.38645000  1.0
  Sr  Sr1  1  0.70584000  0.88764000  0.61355000  1.0
  H  H2  1  0.32270000  0.38413000  0.06479000  1.0
  H  H3  1  0.67729000  0.61587000  0.93521000  1.0
  H  H4  1  0.23497000  0.45311000  0.83114000  1.0
  H  H5  1  0.76503000  0.54690000  0.16886000  1.0
  H  H6  1  0.18928000  0.03536000  0.02014000  1.0
  H  H7  1  0.81072000  0.96465000  0.97986000  1.0
  H  H8  1  0.05033000  0.72683000  0.53855000  1.0
  H  H9  1  0.94967000  0.27316000  0.46145000  1.0
  H  H10  1  0.88302000  0.60333000  0.40305000  1.0
  H  H11  1  0.11698000  0.39667000  0.59695000  1.0
  C  C12  1  0.32687000  0.68639000  0.16057000  1.0
  C  C13  1  0.67312000  0.31359000  0.83943000  1.0
  C  C14  1  0.29972000  0.53047000  0.04881000  1.0
  C  C15  1  0.70028000  0.46954000  0.95119000  1.0
  C  C16  1  0.24810000  0.56749000  0.92054000  1.0
  C  C17  1  0.75191000  0.43252000  0.07946000  1.0
  C  C18  1  0.21189000  0.75462000  0.90809000  1.0
  C  C19  1  0.78810000  0.24539000  0.09191000  1.0
  C  C20  1  0.22716000  0.89421000  0.02656000  1.0
  C  C21  1  0.77284000  0.10580000  0.97344000  1.0
  C  C22  1  0.40575000  0.66052000  0.29928000  1.0
  C  C23  1  0.59425000  0.33948000  0.70072000  1.0
  C  C24  1  0.14833000  0.79991000  0.77219000  1.0
  C  C25  1  0.85167000  0.20009000  0.22781000  1.0
  N  N26  1  0.28780000  0.86557000  0.14979000  1.0
  N  N27  1  0.71221000  0.13444000  0.85022000  1.0
  O  O28  1  0.44430000  0.81795000  0.39552000  1.0
  O  O29  1  0.55570000  0.18204000  0.60449000  1.0
  O  O30  1  0.43319000  0.48805000  0.31050000  1.0
  O  O31  1  0.56681000  0.51194000  0.68949000  1.0
  O  O32  1  0.05982000  0.93184000  0.76856000  1.0
  O  O33  1  0.94019000  0.06817000  0.23144000  1.0
  O  O34  1  0.18590000  0.69702000  0.66865000  1.0
  O  O35  1  0.81410000  0.30298000  0.33135000  1.0
  O  O36  1  0.95721000  0.75025000  0.46306000  1.0
  O  O37  1  0.04279000  0.24975000  0.53694000  1.0
