# generated using pymatgen
data_CuMoH5C2NO4
_symmetry_space_group_name_H-M   'P 1'
_cell_length_a   5.60659000
_cell_length_b   6.79869349
_cell_length_c   9.20981213
_cell_angle_alpha   69.16681560
_cell_angle_beta   85.36928478
_cell_angle_gamma   65.69095168
_symmetry_Int_Tables_number   1
_chemical_formula_structural   CuMoH5C2NO4
_chemical_formula_sum   'Cu2 Mo2 H10 C4 N2 O8'
_cell_volume   298.12259977
_cell_formula_units_Z   2
loop_
 _symmetry_equiv_pos_site_id
 _symmetry_equiv_pos_as_xyz
  1  'x, y, z'
loop_
 _atom_site_type_symbol
 _atom_site_label
 _atom_site_symmetry_multiplicity
 _atom_site_fract_x
 _atom_site_fract_y
 _atom_site_fract_z
 _atom_site_occupancy
  Cu  Cu0  1  0.56168000  0.76379000  0.12267000  1.0
  Cu  Cu1  1  0.43832000  0.23619000  0.87734000  1.0
  Mo  Mo2  1  0.02325000  0.77966000  0.88068000  1.0
  Mo  Mo3  1  0.97678000  0.22032000  0.11934000  1.0
  H  H4  1  0.27624000  0.78443000  0.33831000  1.0
  H  H5  1  0.72376000  0.21558000  0.66169000  1.0
  H  H6  1  0.61549000  0.30205000  0.36966000  1.0
  H  H7  1  0.38449000  0.69796000  0.63034000  1.0
  H  H8  1  0.27790000  0.46122000  0.29974000  1.0
  H  H9  1  0.72209000  0.53878000  0.70027000  1.0
  H  H10  1  0.66282000  0.80414000  0.41759000  1.0
  H  H11  1  0.33717000  0.19583000  0.58242000  1.0
  H  H12  1  0.84077000  0.50942000  0.43844000  1.0
  H  H13  1  0.15921000  0.49059000  0.56157000  1.0
  C  C14  1  0.42866000  0.43607000  0.38169000  1.0
  C  C15  1  0.57137000  0.56397000  0.61828000  1.0
  C  C16  1  0.64880000  0.63746000  0.45055000  1.0
  C  C17  1  0.35113000  0.36258000  0.54942000  1.0
  N  N18  1  0.45936000  0.65465000  0.33978000  1.0
  N  N19  1  0.54065000  0.34536000  0.66022000  1.0
  O  O20  1  0.05892000  0.98348000  0.71060000  1.0
  O  O21  1  0.94109000  0.01653000  0.28939000  1.0
  O  O22  1  0.23096000  0.73636000  0.03098000  1.0
  O  O23  1  0.76907000  0.26362000  0.96903000  1.0
  O  O24  1  0.33098000  0.09708000  0.08636000  1.0
  O  O25  1  0.66901000  0.90291000  0.91365000  1.0
  O  O26  1  0.88344000  0.48548000  0.15549000  1.0
  O  O27  1  0.11658000  0.51450000  0.84451000  1.0
