# generated using pymatgen
data_Zn4H30C30ClO13
_symmetry_space_group_name_H-M   'P 1'
_cell_length_a   18.41950000
_cell_length_b   18.52740000
_cell_length_c   18.57360000
_cell_angle_alpha   90.85950000
_cell_angle_beta   119.49700000
_cell_angle_gamma   119.35400000
_symmetry_Int_Tables_number   1
_chemical_formula_structural   Zn4H30C30ClO13
_chemical_formula_sum   'Zn8 H60 C60 Cl2 O26'
_cell_volume   4525.71585040
_cell_formula_units_Z   2
loop_
 _symmetry_equiv_pos_site_id
 _symmetry_equiv_pos_as_xyz
  1  'x, y, z'
loop_
 _atom_site_type_symbol
 _atom_site_label
 _atom_site_symmetry_multiplicity
 _atom_site_fract_x
 _atom_site_fract_y
 _atom_site_fract_z
 _atom_site_occupancy
  Zn  Zn0  1  0.08516000  0.95472000  0.54484000  1.0
  Zn  Zn1  1  0.08856000  0.12854000  0.54051000  1.0
  Zn  Zn2  1  0.91519000  0.95301000  0.54508000  1.0
  Zn  Zn3  1  0.91161000  0.95643000  0.37176000  1.0
  Zn  Zn4  1  0.90667000  0.53979000  0.95673000  1.0
  Zn  Zn5  1  0.08470000  0.54229000  0.95901000  1.0
  Zn  Zn6  1  0.91913000  0.37394000  0.96036000  1.0
  Zn  Zn7  1  0.08538000  0.54475000  0.13289000  1.0
  H  H8  1  0.07063000  0.79946000  0.72382000  1.0
  H  H9  1  0.07497000  0.34338000  0.80896000  1.0
  H  H10  1  0.88937000  0.09370000  0.70145000  1.0
  H  H11  1  0.03736000  0.26279000  0.68988000  1.0
  H  H12  1  0.57439000  0.31910000  0.83398000  1.0
  H  H13  1  0.41983000  0.25404000  0.67141000  1.0
  H  H14  1  0.27617000  0.05627000  0.33728000  1.0
  H  H15  1  0.89976000  0.71325000  0.80725000  1.0
  H  H16  1  0.03307000  0.68519000  0.77265000  1.0
  H  H17  1  0.89365000  0.79738000  0.70511000  1.0
  H  H18  1  0.69610000  0.59121000  0.31326000  1.0
  H  H19  1  0.41111000  0.67508000  0.31114000  1.0
  H  H20  1  0.75449000  0.70604000  0.35192000  1.0
  H  H21  1  0.63232000  0.63807000  0.25128000  1.0
  H  H22  1  0.76867000  0.72316000  0.22473000  1.0
  H  H23  1  0.70620000  0.60864000  0.18178000  1.0
  H  H24  1  0.84709000  0.61294000  0.30645000  1.0
  H  H25  1  0.90081000  0.71921000  0.36713000  1.0
  H  H26  1  0.60813000  0.04919000  0.27968000  1.0
  H  H27  1  0.47649000  0.96206000  0.21150000  1.0
  H  H28  1  0.52925000  0.02876000  0.31629000  1.0
  H  H29  1  0.50574000  0.88599000  0.32622000  1.0
  H  H30  1  0.41457000  0.70449000  0.14980000  1.0
  H  H31  1  0.63665000  0.97087000  0.38917000  1.0
  H  H32  1  0.64075000  0.93003000  0.25974000  1.0
  H  H33  1  0.51145000  0.84284000  0.20313000  1.0
  H  H34  1  0.66876000  0.10564000  0.11160000  1.0
  H  H35  1  0.65438000  0.00319000  0.10319000  1.0
  H  H36  1  0.61217000  0.03379000  0.15786000  1.0
  H  H37  1  0.77860000  0.05519000  0.26781000  1.0
  H  H38  1  0.79297000  0.15722000  0.27685000  1.0
  H  H39  1  0.85632000  0.18382000  0.18051000  1.0
  H  H40  1  0.84656000  0.08377000  0.17569000  1.0
  H  H41  1  0.59457000  0.73043000  0.37459000  1.0
  H  H42  1  0.64610000  0.16939000  0.60487000  1.0
  H  H43  1  0.57963000  0.06321000  0.61063000  1.0
  H  H44  1  0.52100000  0.08593000  0.51341000  1.0
  H  H45  1  0.45000000  0.08704000  0.59804000  1.0
  H  H46  1  0.51734000  0.19274000  0.59408000  1.0
  H  H47  1  0.67277000  0.23407000  0.74588000  1.0
  H  H48  1  0.59897000  0.13069000  0.74964000  1.0
  H  H49  1  0.27857000  0.93049000  0.75736000  1.0
  H  H50  1  0.40477000  0.96192000  0.83486000  1.0
  H  H51  1  0.34147000  0.98251000  0.87098000  1.0
  H  H52  1  0.09283000  0.39944000  0.31296000  1.0
  H  H53  1  0.46586000  0.12250000  0.86719000  1.0
  H  H54  1  0.33973000  0.08911000  0.78946000  1.0
  H  H55  1  0.33773000  0.01856000  0.67102000  1.0
  H  H56  1  0.46661000  0.05755000  0.74975000  1.0
  H  H57  1  0.70000000  0.41022000  0.02231000  1.0
  H  H58  1  0.64474000  0.41994000  0.07456000  1.0
  H  H59  1  0.60526000  0.43121000  0.96925000  1.0
  H  H60  1  0.72346000  0.58030000  0.08497000  1.0
  H  H61  1  0.77801000  0.56987000  0.03337000  1.0
  H  H62  1  0.87835000  0.53284000  0.15667000  1.0
  H  H63  1  0.96842000  0.23678000  0.15190000  1.0
  H  H64  1  0.82303000  0.54029000  0.20834000  1.0
  H  H65  1  0.11326000  0.29662000  0.39464000  1.0
  H  H66  1  0.87746000  0.19143000  0.78161000  1.0
  H  H67  1  0.14411000  0.98110000  0.36591000  1.0
  C  C68  1  0.98514000  0.13419000  0.36073000  1.0
  C  C69  1  0.98937000  0.68025000  0.79832000  1.0
  C  C70  1  0.94763000  0.77940000  0.72729000  1.0
  C  C71  1  0.00821000  0.86558000  0.64503000  1.0
  C  C72  1  0.01254000  0.81208000  0.70309000  1.0
  C  C73  1  0.44610000  0.70267000  0.27610000  1.0
  C  C74  1  0.38432000  0.68409000  0.18907000  1.0
  C  C75  1  0.55631000  0.75411000  0.32572000  1.0
  C  C76  1  0.61589000  0.83008000  0.31862000  1.0
  C  C77  1  0.04943000  0.32935000  0.27730000  1.0
  C  C78  1  0.00693000  0.30450000  0.19015000  1.0
  C  C79  1  0.15586000  0.84512000  0.21468000  1.0
  C  C80  1  0.04553000  0.27026000  0.32770000  1.0
  C  C81  1  0.96639000  0.18591000  0.30107000  1.0
  C  C82  1  0.93805000  0.22148000  0.77136000  1.0
  C  C83  1  0.27433000  0.13687000  0.62952000  1.0
  C  C84  1  0.00986000  0.30884000  0.81292000  1.0
  C  C85  1  0.93697000  0.16461000  0.71588000  1.0
  C  C86  1  0.99031000  0.19325000  0.68035000  1.0
  C  C87  1  0.55530000  0.21766000  0.75692000  1.0
  C  C88  1  0.61184000  0.29704000  0.81854000  1.0
  C  C89  1  0.44480000  0.15924000  0.71739000  1.0
  C  C90  1  0.07837000  0.79845000  0.23015000  1.0
  C  C91  1  0.38525000  0.18802000  0.67524000  1.0
  C  C92  1  0.27280000  0.63426000  0.13880000  1.0
  C  C93  1  0.72391000  0.35838000  0.87035000  1.0
  C  C94  1  0.98708000  0.62575000  0.85547000  1.0
  C  C95  1  0.72735000  0.86945000  0.37040000  1.0
  C  C96  1  0.00762000  0.36461000  0.13908000  1.0
  C  C97  1  0.00542000  0.36389000  0.86661000  1.0
  C  C98  1  0.00097000  0.64408000  0.13730000  1.0
  C  C99  1  0.99262000  0.13393000  0.62900000  1.0
  C  C100  1  0.00095000  0.86238000  0.36399000  1.0
  C  C101  1  0.07561000  0.85010000  0.28622000  1.0
  C  C102  1  0.14716000  0.94283000  0.32366000  1.0
  C  C103  1  0.22082000  0.98517000  0.30834000  1.0
  C  C104  1  0.22523000  0.93606000  0.25369000  1.0
  C  C105  1  0.86020000  0.67645000  0.29996000  1.0
  C  C106  1  0.75697000  0.66428000  0.24329000  1.0
  C  C107  1  0.70704000  0.64891000  0.29242000  1.0
  C  C108  1  0.58227000  0.88351000  0.26887000  1.0
  C  C109  1  0.56769000  0.93421000  0.32130000  1.0
  C  C110  1  0.54418000  0.99707000  0.27988000  1.0
  C  C111  1  0.86132000  0.13888000  0.21752000  1.0
  C  C112  1  0.00154000  0.80689000  0.30460000  1.0
  C  C113  1  0.77712000  0.10269000  0.23324000  1.0
  C  C114  1  0.67231000  0.05896000  0.14683000  1.0
  C  C115  1  0.59450000  0.18195000  0.72221000  1.0
  C  C116  1  0.52688000  0.14309000  0.62119000  1.0
  C  C117  1  0.57081000  0.11385000  0.58557000  1.0
  C  C118  1  0.40939000  0.07143000  0.73156000  1.0
  C  C119  1  0.39332000  0.07115000  0.80563000  1.0
  C  C120  1  0.35239000  0.98155000  0.81796000  1.0
  C  C121  1  0.84768000  0.56744000  0.16619000  1.0
  C  C122  1  0.75384000  0.54498000  0.07634000  1.0
  C  C123  1  0.93018000  0.71646000  0.27019000  1.0
  C  C124  1  0.67138000  0.44620000  0.03332000  1.0
  C  C125  1  0.92949000  0.66514000  0.21141000  1.0
  C  C126  1  0.00344000  0.70560000  0.19413000  1.0
  C  C127  1  0.94384000  0.72288000  0.78051000  1.0
  Cl  Cl128  1  0.31954000  0.99312000  0.23682000  1.0
  Cl  Cl129  1  0.16607000  0.79200000  0.14669000  1.0
  O  O130  1  0.99989000  0.99887000  0.50027000  1.0
  O  O131  1  0.95601000  0.32701000  0.05593000  1.0
  O  O132  1  0.07434000  0.44664000  0.89730000  1.0
  O  O133  1  0.93481000  0.05160000  0.32208000  1.0
  O  O134  1  0.05608000  0.61661000  0.17796000  1.0
  O  O135  1  0.93418000  0.32557000  0.87790000  1.0
  O  O136  1  0.93924000  0.62101000  0.05458000  1.0
  O  O137  1  0.92751000  0.60714000  0.87932000  1.0
  O  O138  1  0.05624000  0.44640000  0.17917000  1.0
  O  O139  1  0.22793000  0.62207000  0.05627000  1.0
  O  O140  1  0.77391000  0.32415000  0.89026000  1.0
  O  O141  1  0.22635000  0.05597000  0.62356000  1.0
  O  O142  1  0.06378000  0.88118000  0.61691000  1.0
  O  O143  1  0.23279000  0.17785000  0.59744000  1.0
  O  O144  1  0.77140000  0.86560000  0.44754000  1.0
  O  O145  1  0.06224000  0.17248000  0.61569000  1.0
  O  O146  1  0.93431000  0.87901000  0.32573000  1.0
  O  O147  1  0.92713000  0.05099000  0.60344000  1.0
  O  O148  1  0.06648000  0.88778000  0.44639000  1.0
  O  O149  1  0.77003000  0.90408000  0.33132000  1.0
  O  O150  1  0.04948000  0.17491000  0.44330000  1.0
  O  O151  1  0.95025000  0.89139000  0.62692000  1.0
  O  O152  1  0.99941000  0.50260000  0.00348000  1.0
  O  O153  1  0.23027000  0.60845000  0.17942000  1.0
  O  O154  1  0.76204000  0.44085000  0.89347000  1.0
  O  O155  1  0.04755000  0.60218000  0.87603000  1.0
