# generated using pymatgen
data_CdH8C11SN3Cl
_symmetry_space_group_name_H-M   'P 1'
_cell_length_a   7.76907000
_cell_length_b   9.30619000
_cell_length_c   9.50063000
_cell_angle_alpha   102.95200000
_cell_angle_beta   107.71900000
_cell_angle_gamma   105.29100000
_symmetry_Int_Tables_number   1
_chemical_formula_structural   CdH8C11SN3Cl
_chemical_formula_sum   'Cd2 H16 C22 S2 N6 Cl2'
_cell_volume   595.50947187
_cell_formula_units_Z   2
loop_
 _symmetry_equiv_pos_site_id
 _symmetry_equiv_pos_as_xyz
  1  'x, y, z'
loop_
 _atom_site_type_symbol
 _atom_site_label
 _atom_site_symmetry_multiplicity
 _atom_site_fract_x
 _atom_site_fract_y
 _atom_site_fract_z
 _atom_site_occupancy
  Cd  Cd0  1  0.98212000  0.70837000  0.07998000  1.0
  Cd  Cd1  1  0.01788000  0.29164000  0.92001000  1.0
  H  H2  1  0.31203000  0.06393000  0.28114000  1.0
  H  H3  1  0.68798000  0.93608000  0.71887000  1.0
  H  H4  1  0.49581000  0.24815000  0.56005000  1.0
  H  H5  1  0.50419000  0.75184000  0.43996000  1.0
  H  H6  1  0.42521000  0.15981000  0.77272000  1.0
  H  H7  1  0.57478000  0.84018000  0.22729000  1.0
  H  H8  1  0.17135000  0.89958000  0.70213000  1.0
  H  H9  1  0.82865000  0.10041000  0.29787000  1.0
  H  H10  1  0.61313000  0.43138000  0.06989000  1.0
  H  H11  1  0.38687000  0.56862000  0.93010000  1.0
  H  H12  1  0.48814000  0.31745000  0.24847000  1.0
  H  H13  1  0.51186000  0.68255000  0.75152000  1.0
  H  H14  1  0.68059000  0.45179000  0.54404000  1.0
  H  H15  1  0.31940000  0.54821000  0.45595000  1.0
  H  H16  1  0.96644000  0.69092000  0.63774000  1.0
  H  H17  1  0.03355000  0.30908000  0.36225000  1.0
  C  C18  1  0.10342000  0.84470000  0.45301000  1.0
  C  C19  1  0.89658000  0.15529000  0.54700000  1.0
  C  C20  1  0.28344000  0.03305000  0.37809000  1.0
  C  C21  1  0.71657000  0.96695000  0.62193000  1.0
  C  C22  1  0.38555000  0.13431000  0.53195000  1.0
  C  C23  1  0.61445000  0.86568000  0.46806000  1.0
  C  C24  1  0.34600000  0.08525000  0.65053000  1.0
  C  C25  1  0.65400000  0.91474000  0.34947000  1.0
  C  C26  1  0.20387000  0.93910000  0.61072000  1.0
  C  C27  1  0.79613000  0.06089000  0.38928000  1.0
  C  C28  1  0.94077000  0.69322000  0.40365000  1.0
  C  C29  1  0.05923000  0.30677000  0.59634000  1.0
  C  C30  1  0.68580000  0.48641000  0.19679000  1.0
  C  C31  1  0.31420000  0.51360000  0.80320000  1.0
  C  C32  1  0.61879000  0.42228000  0.29772000  1.0
  C  C33  1  0.38121000  0.57772000  0.70226000  1.0
  C  C34  1  0.72268000  0.49665000  0.45824000  1.0
  C  C35  1  0.27731000  0.50334000  0.54175000  1.0
  C  C36  1  0.88523000  0.63315000  0.51209000  1.0
  C  C37  1  0.11476000  0.36685000  0.48790000  1.0
  C  C38  1  0.21873000  0.01837000  0.98708000  1.0
  C  C39  1  0.78128000  0.98165000  0.01292000  1.0
  S  S40  1  0.24705000  0.84890000  0.97582000  1.0
  S  S41  1  0.75296000  0.15112000  0.02419000  1.0
  N  N42  1  0.14674000  0.89215000  0.33962000  1.0
  N  N43  1  0.85327000  0.10786000  0.66039000  1.0
  N  N44  1  0.84191000  0.61757000  0.24817000  1.0
  N  N45  1  0.15809000  0.38243000  0.75183000  1.0
  N  N46  1  0.20420000  0.14322000  0.99554000  1.0
  N  N47  1  0.79581000  0.85678000  0.00447000  1.0
  Cl  Cl48  1  0.22587000  0.54443000  0.15885000  1.0
  Cl  Cl49  1  0.77414000  0.45558000  0.84115000  1.0
