# generated using pymatgen
data_CdH13C17N3O5
_symmetry_space_group_name_H-M   'P 1'
_cell_length_a   11.34680000
_cell_length_b   12.06600000
_cell_length_c   14.65875127
_cell_angle_alpha   76.30446958
_cell_angle_beta   67.24732147
_cell_angle_gamma   89.98050000
_symmetry_Int_Tables_number   1
_chemical_formula_structural   CdH13C17N3O5
_chemical_formula_sum   'Cd4 H52 C68 N12 O20'
_cell_volume   1788.79560156
_cell_formula_units_Z   4
loop_
 _symmetry_equiv_pos_site_id
 _symmetry_equiv_pos_as_xyz
  1  'x, y, z'
loop_
 _atom_site_type_symbol
 _atom_site_label
 _atom_site_symmetry_multiplicity
 _atom_site_fract_x
 _atom_site_fract_y
 _atom_site_fract_z
 _atom_site_occupancy
  Cd  Cd0  1  0.11176000  0.47716000  0.60783000  1.0
  Cd  Cd1  1  0.71954000  0.02270000  0.39230000  1.0
  Cd  Cd2  1  0.88824000  0.52284000  0.39217000  1.0
  Cd  Cd3  1  0.28047000  0.97730000  0.60770000  1.0
  H  H4  1  0.03401000  0.26050000  0.76704000  1.0
  H  H5  1  0.80104000  0.23942000  0.23300000  1.0
  H  H6  1  0.96599000  0.73950000  0.23296000  1.0
  H  H7  1  0.19896000  0.76058000  0.76700000  1.0
  H  H8  1  0.05723000  0.35943000  0.81535000  1.0
  H  H9  1  0.87256000  0.14051000  0.18468000  1.0
  H  H10  1  0.94277000  0.64057000  0.18465000  1.0
  H  H11  1  0.12745000  0.85949000  0.81531000  1.0
  H  H12  1  0.17416000  0.77116000  0.55165000  1.0
  H  H13  1  0.72532000  0.72885000  0.44863000  1.0
  H  H14  1  0.82584000  0.22884000  0.44835000  1.0
  H  H15  1  0.27468000  0.27115000  0.55136000  1.0
  H  H16  1  0.19961000  0.12155000  0.42927000  1.0
  H  H17  1  0.62902000  0.37835000  0.57033000  1.0
  H  H18  1  0.80039000  0.87845000  0.57073000  1.0
  H  H19  1  0.37099000  0.62165000  0.42967000  1.0
  H  H20  1  0.08849000  0.09368000  0.31707000  1.0
  H  H21  1  0.40578000  0.40598000  0.68272000  1.0
  H  H22  1  0.91152000  0.90632000  0.68292000  1.0
  H  H23  1  0.59423000  0.59402000  0.31728000  1.0
  H  H24  1  0.82806000  0.52665000  0.61598000  1.0
  H  H25  1  0.44456000  0.97363000  0.38401000  1.0
  H  H26  1  0.17194000  0.47335000  0.38402000  1.0
  H  H27  1  0.55544000  0.02637000  0.61599000  1.0
  H  H28  1  0.65651000  0.65003000  0.68398000  1.0
  H  H29  1  0.34074000  0.85025000  0.31619000  1.0
  H  H30  1  0.34349000  0.34997000  0.31602000  1.0
  H  H31  1  0.65926000  0.14975000  0.68381000  1.0
  H  H32  1  0.84388000  0.70832000  0.87746000  1.0
  H  H33  1  0.72125000  0.79159000  0.12262000  1.0
  H  H34  1  0.15611000  0.29168000  0.12255000  1.0
  H  H35  1  0.27875000  0.20841000  0.87738000  1.0
  H  H36  1  0.01532000  0.59456000  0.79224000  1.0
  H  H37  1  0.80776000  0.90538000  0.20761000  1.0
  H  H38  1  0.98468000  0.40544000  0.20776000  1.0
  H  H39  1  0.19224000  0.09462000  0.79239000  1.0
  H  H40  1  0.48180000  0.69195000  0.80197000  1.0
  H  H41  1  0.28366000  0.80805000  0.19831000  1.0
  H  H42  1  0.51819000  0.30805000  0.19803000  1.0
  H  H43  1  0.71634000  0.19195000  0.80169000  1.0
  H  H44  1  0.32742000  0.81933000  0.87775000  1.0
  H  H45  1  0.20507000  0.68068000  0.12259000  1.0
  H  H46  1  0.67258000  0.18066000  0.12225000  1.0
  H  H47  1  0.79494000  0.31932000  0.87741000  1.0
  H  H48  1  0.59180000  0.98804000  0.94323000  1.0
  H  H49  1  0.53500000  0.51200000  0.05691000  1.0
  H  H50  1  0.40821000  0.01196000  0.05676000  1.0
  H  H51  1  0.46500000  0.48800000  0.94309000  1.0
  H  H52  1  0.76029000  0.86903000  0.86841000  1.0
  H  H53  1  0.62861000  0.63086000  0.13188000  1.0
  H  H54  1  0.23971000  0.13097000  0.13159000  1.0
  H  H55  1  0.37139000  0.36914000  0.86812000  1.0
  C  C56  1  0.05679000  0.69413000  0.44534000  1.0
  C  C57  1  0.50201000  0.80573000  0.55501000  1.0
  C  C58  1  0.94321000  0.30587000  0.55466000  1.0
  C  C59  1  0.49799000  0.19427000  0.44499000  1.0
  C  C60  1  0.09279000  0.81671000  0.43795000  1.0
  C  C61  1  0.53053000  0.68308000  0.56249000  1.0
  C  C62  1  0.90721000  0.18329000  0.56205000  1.0
  C  C63  1  0.46947000  0.31692000  0.43751000  1.0
  C  C64  1  0.15297000  0.84070000  0.49910000  1.0
  C  C65  1  0.65178000  0.65922000  0.50117000  1.0
  C  C66  1  0.84703000  0.15930000  0.50090000  1.0
  C  C67  1  0.34822000  0.34078000  0.49883000  1.0
  C  C68  1  0.16689000  0.03611000  0.43038000  1.0
  C  C69  1  0.59733000  0.46376000  0.56942000  1.0
  C  C70  1  0.83311000  0.96389000  0.56962000  1.0
  C  C71  1  0.40267000  0.53624000  0.43058000  1.0
  C  C72  1  0.10664000  0.01982000  0.36740000  1.0
  C  C73  1  0.47411000  0.47991000  0.63252000  1.0
  C  C74  1  0.89336000  0.98018000  0.63260000  1.0
  C  C75  1  0.52589000  0.52009000  0.36748000  1.0
  C  C76  1  0.06727000  0.90845000  0.37092000  1.0
  C  C77  1  0.43811000  0.59124000  0.62937000  1.0
  C  C78  1  0.93272000  0.09155000  0.62909000  1.0
  C  C79  1  0.56189000  0.40876000  0.37063000  1.0
  C  C80  1  0.00175000  0.88735000  0.30321000  1.0
  C  C81  1  0.30487000  0.61225000  0.69718000  1.0
  C  C82  1  0.99825000  0.11265000  0.69679000  1.0
  C  C83  1  0.69513000  0.38774000  0.30282000  1.0
  C  C84  1  0.82874000  0.57055000  0.67267000  1.0
  C  C85  1  0.50181000  0.92964000  0.32735000  1.0
  C  C86  1  0.17126000  0.42945000  0.32733000  1.0
  C  C87  1  0.49819000  0.07036000  0.67265000  1.0
  C  C88  1  0.73248000  0.63824000  0.71226000  1.0
  C  C89  1  0.44497000  0.86194000  0.28787000  1.0
  C  C90  1  0.26752000  0.36176000  0.28774000  1.0
  C  C91  1  0.55503000  0.13806000  0.71213000  1.0
  C  C92  1  0.73539000  0.69231000  0.78632000  1.0
  C  C93  1  0.52175000  0.80771000  0.21388000  1.0
  C  C94  1  0.26461000  0.30769000  0.21368000  1.0
  C  C95  1  0.47825000  0.19229000  0.78612000  1.0
  C  C96  1  0.83715000  0.67229000  0.81801000  1.0
  C  C97  1  0.65519000  0.82767000  0.18207000  1.0
  C  C98  1  0.16285000  0.32771000  0.18199000  1.0
  C  C99  1  0.34481000  0.17233000  0.81793000  1.0
  C  C100  1  0.93157000  0.60601000  0.77322000  1.0
  C  C101  1  0.70499000  0.89397000  0.22674000  1.0
  C  C102  1  0.06843000  0.39400000  0.22678000  1.0
  C  C103  1  0.29501000  0.10603000  0.77326000  1.0
  C  C104  1  0.63733000  0.76746000  0.82883000  1.0
  C  C105  1  0.46605000  0.73248000  0.17151000  1.0
  C  C106  1  0.36267000  0.23254000  0.17117000  1.0
  C  C107  1  0.53394000  0.26752000  0.82850000  1.0
  C  C108  1  0.51328000  0.75654000  0.83086000  1.0
  C  C109  1  0.34404000  0.74344000  0.16944000  1.0
  C  C110  1  0.48672000  0.24346000  0.16914000  1.0
  C  C111  1  0.65596000  0.25656000  0.83056000  1.0
  C  C112  1  0.42478000  0.82878000  0.87456000  1.0
  C  C113  1  0.29924000  0.67119000  0.12577000  1.0
  C  C114  1  0.57521000  0.17122000  0.12544000  1.0
  C  C115  1  0.70076000  0.32881000  0.87423000  1.0
  C  C116  1  0.57014000  0.92157000  0.91103000  1.0
  C  C117  1  0.48111000  0.57839000  0.08925000  1.0
  C  C118  1  0.42985000  0.07843000  0.08897000  1.0
  C  C119  1  0.51889000  0.42161000  0.91075000  1.0
  C  C120  1  0.66503000  0.85343000  0.86963000  1.0
  C  C121  1  0.53454000  0.64646000  0.13071000  1.0
  C  C122  1  0.33497000  0.14657000  0.13037000  1.0
  C  C123  1  0.46546000  0.35354000  0.86929000  1.0
  N  N124  1  0.18834000  0.94805000  0.49625000  1.0
  N  N125  1  0.68448000  0.55193000  0.50370000  1.0
  N  N126  1  0.81166000  0.05195000  0.50375000  1.0
  N  N127  1  0.31552000  0.44807000  0.49630000  1.0
  N  N128  1  0.92889000  0.55621000  0.70078000  1.0
  N  N129  1  0.63004000  0.94386000  0.29915000  1.0
  N  N130  1  0.07111000  0.44379000  0.29922000  1.0
  N  N131  1  0.36996000  0.05614000  0.70085000  1.0
  N  N132  1  0.45032000  0.90985000  0.91496000  1.0
  N  N133  1  0.36521000  0.59015000  0.08532000  1.0
  N  N134  1  0.54967000  0.09015000  0.08504000  1.0
  N  N135  1  0.63479000  0.40985000  0.91468000  1.0
  O  O136  1  0.13123000  0.62106000  0.46212000  1.0
  O  O137  1  0.59327000  0.87875000  0.53815000  1.0
  O  O138  1  0.86877000  0.37894000  0.53788000  1.0
  O  O139  1  0.40673000  0.12125000  0.46185000  1.0
  O  O140  1  0.95411000  0.67521000  0.43373000  1.0
  O  O141  1  0.38779000  0.82478000  0.56645000  1.0
  O  O142  1  0.04588000  0.32479000  0.56627000  1.0
  O  O143  1  0.61221000  0.17522000  0.43355000  1.0
  O  O144  1  0.06373000  0.84031000  0.23272000  1.0
  O  O145  1  0.29655000  0.65969000  0.76739000  1.0
  O  O146  1  0.93627000  0.15969000  0.76728000  1.0
  O  O147  1  0.70345000  0.34031000  0.23261000  1.0
  O  O148  1  0.89025000  0.91928000  0.32134000  1.0
  O  O149  1  0.21141000  0.57994000  0.67934000  1.0
  O  O150  1  0.10974000  0.08071000  0.67867000  1.0
  O  O151  1  0.78859000  0.42006000  0.32066000  1.0
  O  O152  1  0.09547000  0.32802000  0.75639000  1.0
  O  O153  1  0.85192000  0.17191000  0.24365000  1.0
  O  O154  1  0.90453000  0.67199000  0.24361000  1.0
  O  O155  1  0.14808000  0.82809000  0.75635000  1.0
