# generated using pymatgen
data_CuH8C12N5
_symmetry_space_group_name_H-M   'P 1'
_cell_length_a   9.27347000
_cell_length_b   11.14730000
_cell_length_c   11.64820000
_cell_angle_alpha   72.95800000
_cell_angle_beta   89.99980000
_cell_angle_gamma   89.99980000
_symmetry_Int_Tables_number   1
_chemical_formula_structural   CuH8C12N5
_chemical_formula_sum   'Cu4 H32 C48 N20'
_cell_volume   1151.24998276
_cell_formula_units_Z   4
loop_
 _symmetry_equiv_pos_site_id
 _symmetry_equiv_pos_as_xyz
  1  'x, y, z'
loop_
 _atom_site_type_symbol
 _atom_site_label
 _atom_site_symmetry_multiplicity
 _atom_site_fract_x
 _atom_site_fract_y
 _atom_site_fract_z
 _atom_site_occupancy
  Cu  Cu0  1  0.86516000  0.25424000  0.82625000  1.0
  Cu  Cu1  1  0.36515000  0.24576000  0.17375000  1.0
  Cu  Cu2  1  0.13485000  0.74576000  0.17375000  1.0
  Cu  Cu3  1  0.63485000  0.75424000  0.82625000  1.0
  H  H4  1  0.43331000  0.57015000  0.51645000  1.0
  H  H5  1  0.93331000  0.92987000  0.48354000  1.0
  H  H6  1  0.56668000  0.42986000  0.48355000  1.0
  H  H7  1  0.06669000  0.07014000  0.51645000  1.0
  H  H8  1  0.28541000  0.75127000  0.40258000  1.0
  H  H9  1  0.78538000  0.74875000  0.59741000  1.0
  H  H10  1  0.71459000  0.24872000  0.59743000  1.0
  H  H11  1  0.21460000  0.25126000  0.40258000  1.0
  H  H12  1  0.27428000  0.94397000  0.47536000  1.0
  H  H13  1  0.77428000  0.55604000  0.52465000  1.0
  H  H14  1  0.72570000  0.05602000  0.52465000  1.0
  H  H15  1  0.22572000  0.44396000  0.47535000  1.0
  H  H16  1  0.41378000  0.94290000  0.65939000  1.0
  H  H17  1  0.91379000  0.55710000  0.34062000  1.0
  H  H18  1  0.58621000  0.05709000  0.34061000  1.0
  H  H19  1  0.08622000  0.44290000  0.65938000  1.0
  H  H20  1  0.75524000  0.55878000  0.05435000  1.0
  H  H21  1  0.25524000  0.94122000  0.94565000  1.0
  H  H22  1  0.24475000  0.44122000  0.94565000  1.0
  H  H23  1  0.74476000  0.05878000  0.05435000  1.0
  H  H24  1  0.87319000  0.44154000  0.24999000  1.0
  H  H25  1  0.37319000  0.05847000  0.75000000  1.0
  H  H26  1  0.12680000  0.55846000  0.75001000  1.0
  H  H27  1  0.62682000  0.94153000  0.24999000  1.0
  H  H28  1  0.00271000  0.23891000  0.26276000  1.0
  H  H29  1  0.50271000  0.26110000  0.73723000  1.0
  H  H30  1  0.99729000  0.76109000  0.73724000  1.0
  H  H31  1  0.49730000  0.73890000  0.26277000  1.0
  H  H32  1  0.00957000  0.16409000  0.08173000  1.0
  H  H33  1  0.50956000  0.33591000  0.91827000  1.0
  H  H34  1  0.99043000  0.83590000  0.91828000  1.0
  H  H35  1  0.49044000  0.66409000  0.08173000  1.0
  C  C36  1  0.59687000  0.56374000  0.71796000  1.0
  C  C37  1  0.09687000  0.93625000  0.28204000  1.0
  C  C38  1  0.40313000  0.43625000  0.28204000  1.0
  C  C39  1  0.90313000  0.06375000  0.71795000  1.0
  C  C40  1  0.74085000  0.47158000  0.85703000  1.0
  C  C41  1  0.24086000  0.02842000  0.14296000  1.0
  C  C42  1  0.25915000  0.52843000  0.14296000  1.0
  C  C43  1  0.75915000  0.97158000  0.85703000  1.0
  C  C44  1  0.50153000  0.66102000  0.64814000  1.0
  C  C45  1  0.00153000  0.83898000  0.35186000  1.0
  C  C46  1  0.49847000  0.33898000  0.35186000  1.0
  C  C47  1  0.99847000  0.16101000  0.64814000  1.0
  C  C48  1  0.42607000  0.65364000  0.54640000  1.0
  C  C49  1  0.92607000  0.84637000  0.45358000  1.0
  C  C50  1  0.57393000  0.34636000  0.45360000  1.0
  C  C51  1  0.07393000  0.15364000  0.54640000  1.0
  C  C52  1  0.34311000  0.75539000  0.48295000  1.0
  C  C53  1  0.84311000  0.74462000  0.51705000  1.0
  C  C54  1  0.65688000  0.24461000  0.51706000  1.0
  C  C55  1  0.15689000  0.25539000  0.48294000  1.0
  C  C56  1  0.33715000  0.86192000  0.52321000  1.0
  C  C57  1  0.83715000  0.63808000  0.47679000  1.0
  C  C58  1  0.66284000  0.13807000  0.47680000  1.0
  C  C59  1  0.16284000  0.36193000  0.52320000  1.0
  C  C60  1  0.41423000  0.86152000  0.62570000  1.0
  C  C61  1  0.91423000  0.63848000  0.37430000  1.0
  C  C62  1  0.58577000  0.13848000  0.37430000  1.0
  C  C63  1  0.08577000  0.36152000  0.62570000  1.0
  C  C64  1  0.81875000  0.42064000  0.96838000  1.0
  C  C65  1  0.31875000  0.07936000  0.03162000  1.0
  C  C66  1  0.18126000  0.57937000  0.03162000  1.0
  C  C67  1  0.68126000  0.92064000  0.96838000  1.0
  C  C68  1  0.81296000  0.47111000  0.06489000  1.0
  C  C69  1  0.31296000  0.02889000  0.93511000  1.0
  C  C70  1  0.18704000  0.52889000  0.93512000  1.0
  C  C71  1  0.68705000  0.97110000  0.06489000  1.0
  C  C72  1  0.87860000  0.40597000  0.17246000  1.0
  C  C73  1  0.37861000  0.09403000  0.82754000  1.0
  C  C74  1  0.12139000  0.59403000  0.82754000  1.0
  C  C75  1  0.62140000  0.90597000  0.17246000  1.0
  C  C76  1  0.95008000  0.29356000  0.18054000  1.0
  C  C77  1  0.45009000  0.20645000  0.81946000  1.0
  C  C78  1  0.04991000  0.70644000  0.81946000  1.0
  C  C79  1  0.54992000  0.79355000  0.18054000  1.0
  C  C80  1  0.95379000  0.25055000  0.07978000  1.0
  C  C81  1  0.45380000  0.24945000  0.92022000  1.0
  C  C82  1  0.04620000  0.74945000  0.92023000  1.0
  C  C83  1  0.54621000  0.75055000  0.07978000  1.0
  N  N84  1  0.63674000  0.45828000  0.69215000  1.0
  N  N85  1  0.13673000  0.04172000  0.30784000  1.0
  N  N86  1  0.36326000  0.54172000  0.30785000  1.0
  N  N87  1  0.86326000  0.95828000  0.69215000  1.0
  N  N88  1  0.72869000  0.39962000  0.78137000  1.0
  N  N89  1  0.22868000  0.10038000  0.21862000  1.0
  N  N90  1  0.27131000  0.60038000  0.21863000  1.0
  N  N91  1  0.77132000  0.89962000  0.78138000  1.0
  N  N92  1  0.66094000  0.57737000  0.81920000  1.0
  N  N93  1  0.16094000  0.92263000  0.18080000  1.0
  N  N94  1  0.33906000  0.42263000  0.18080000  1.0
  N  N95  1  0.83907000  0.07737000  0.81919000  1.0
  N  N96  1  0.49502000  0.76407000  0.68835000  1.0
  N  N97  1  0.99502000  0.73593000  0.31166000  1.0
  N  N98  1  0.50498000  0.23593000  0.31165000  1.0
  N  N99  1  0.00498000  0.26407000  0.68834000  1.0
  N  N100  1  0.88974000  0.31111000  0.97514000  1.0
  N  N101  1  0.38974000  0.18888000  0.02486000  1.0
  N  N102  1  0.11027000  0.68889000  0.02486000  1.0
  N  N103  1  0.61026000  0.81111000  0.97514000  1.0
