# generated using pymatgen
data_Mg3H36C50(N3O5)2
_symmetry_space_group_name_H-M   'P 1'
_cell_length_a   10.97680000
_cell_length_b   14.93750000
_cell_length_c   15.07980000
_cell_angle_alpha   70.41570000
_cell_angle_beta   87.10830000
_cell_angle_gamma   89.23480000
_symmetry_Int_Tables_number   1
_chemical_formula_structural   Mg3H36C50(N3O5)2
_chemical_formula_sum   'Mg6 H72 C100 N12 O20'
_cell_volume   2326.55084521
_cell_formula_units_Z   2
loop_
 _symmetry_equiv_pos_site_id
 _symmetry_equiv_pos_as_xyz
  1  'x, y, z'
loop_
 _atom_site_type_symbol
 _atom_site_label
 _atom_site_symmetry_multiplicity
 _atom_site_fract_x
 _atom_site_fract_y
 _atom_site_fract_z
 _atom_site_occupancy
  Mg  Mg0  1  0.48338000  0.08694000  0.53558000  1.0
  Mg  Mg1  1  0.51662000  0.91306000  0.46442000  1.0
  Mg  Mg2  1  0.25304000  0.07064000  0.42687000  1.0
  Mg  Mg3  1  0.74696000  0.92936000  0.57313000  1.0
  Mg  Mg4  1  0.98215000  0.04193000  0.58275000  1.0
  Mg  Mg5  1  0.01785000  0.95807000  0.41725000  1.0
  H  H6  1  0.46740000  0.08343000  0.35545000  1.0
  H  H7  1  0.53260000  0.91657000  0.64455000  1.0
  H  H8  1  0.04263000  0.14253000  0.40526000  1.0
  H  H9  1  0.95737000  0.85747000  0.59474000  1.0
  H  H10  1  0.17929000  0.04998000  0.81582000  1.0
  H  H11  1  0.82071000  0.95002000  0.18418000  1.0
  H  H12  1  0.54648000  0.09278000  0.88726000  1.0
  H  H13  1  0.45352000  0.90722000  0.11275000  1.0
  H  H14  1  0.61546000  0.10147000  0.72451000  1.0
  H  H15  1  0.38454000  0.89853000  0.27549000  1.0
  H  H16  1  0.16600000  0.96865000  0.97216000  1.0
  H  H17  1  0.83400000  0.03135000  0.02784000  1.0
  H  H18  1  0.09440000  0.96202000  0.13430000  1.0
  H  H19  1  0.90560000  0.03798000  0.86571000  1.0
  H  H20  1  0.37217000  0.16036000  0.13442000  1.0
  H  H21  1  0.62783000  0.83964000  0.86558000  1.0
  H  H22  1  0.44239000  0.17216000  0.97128000  1.0
  H  H23  1  0.55761000  0.82784000  0.02872000  1.0
  H  H24  1  0.31197000  0.67702000  0.46548000  1.0
  H  H25  1  0.68803000  0.32298000  0.53452000  1.0
  H  H26  1  0.95301000  0.60555000  0.40074000  1.0
  H  H27  1  0.04700000  0.39445000  0.59926000  1.0
  H  H28  1  0.88679000  0.76669000  0.39474000  1.0
  H  H29  1  0.11321000  0.23331000  0.60526000  1.0
  H  H30  1  0.32134000  0.52402000  0.53805000  1.0
  H  H31  1  0.67867000  0.47597000  0.46195000  1.0
  H  H32  1  0.40035000  0.36686000  0.53935000  1.0
  H  H33  1  0.59965000  0.63314000  0.46065000  1.0
  H  H34  1  0.13820000  0.35825000  0.34051000  1.0
  H  H35  1  0.86181000  0.64175000  0.65949000  1.0
  H  H36  1  0.05924000  0.51536000  0.33609000  1.0
  H  H37  1  0.94076000  0.48464000  0.66391000  1.0
  H  H38  1  0.55299000  0.16195000  0.22159000  1.0
  H  H39  1  0.44701000  0.83805000  0.77841000  1.0
  H  H40  1  0.67175000  0.18315000  0.07163000  1.0
  H  H41  1  0.32825000  0.81686000  0.92837000  1.0
  H  H42  1  0.88860000  0.23815000  0.05187000  1.0
  H  H43  1  0.11140000  0.76185000  0.94813000  1.0
  H  H44  1  0.87006000  0.24403000  0.33536000  1.0
  H  H45  1  0.12993000  0.75598000  0.66464000  1.0
  H  H46  1  0.65192000  0.19138000  0.35535000  1.0
  H  H47  1  0.34808000  0.80862000  0.64465000  1.0
  H  H48  1  0.17874000  0.38806000  0.94996000  1.0
  H  H49  1  0.82126000  0.61195000  0.05004000  1.0
  H  H50  1  0.39941000  0.43485000  0.92273000  1.0
  H  H51  1  0.60059000  0.56515000  0.07727000  1.0
  H  H52  1  0.53095000  0.40151000  0.06099000  1.0
  H  H53  1  0.46906000  0.59849000  0.93901000  1.0
  H  H54  1  0.44096000  0.32500000  0.22327000  1.0
  H  H55  1  0.55904000  0.67500000  0.77673000  1.0
  H  H56  1  0.22317000  0.27774000  0.24916000  1.0
  H  H57  1  0.77683000  0.72226000  0.75083000  1.0
  H  H58  1  0.41375000  0.53070000  0.31301000  1.0
  H  H59  1  0.58624000  0.46930000  0.68699000  1.0
  H  H60  1  0.54549000  0.39195000  0.31852000  1.0
  H  H61  1  0.45451000  0.60805000  0.68148000  1.0
  H  H62  1  0.76800000  0.41762000  0.27076000  1.0
  H  H63  1  0.23199000  0.58238000  0.72924000  1.0
  H  H64  1  0.72709000  0.71701000  0.22098000  1.0
  H  H65  1  0.27291000  0.28298000  0.77902000  1.0
  H  H66  1  0.50443000  0.69267000  0.26624000  1.0
  H  H67  1  0.49557000  0.30733000  0.73376000  1.0
  H  H68  1  0.06734000  0.52939000  0.13435000  1.0
  H  H69  1  0.93265000  0.47061000  0.86566000  1.0
  H  H70  1  0.28990000  0.54584000  0.08996000  1.0
  H  H71  1  0.71010000  0.45416000  0.91004000  1.0
  H  H72  1  0.40484000  0.68515000  0.09792000  1.0
  H  H73  1  0.59515000  0.31485000  0.90208000  1.0
  H  H74  1  0.29584000  0.81043000  0.14715000  1.0
  H  H75  1  0.70416000  0.18957000  0.85285000  1.0
  H  H76  1  0.07254000  0.79351000  0.19016000  1.0
  H  H77  1  0.92746000  0.20649000  0.80984000  1.0
  C  C78  1  0.32474000  0.06250000  0.71296000  1.0
  C  C79  1  0.67526000  0.93750000  0.28704000  1.0
  C  C80  1  0.27712000  0.06070000  0.80068000  1.0
  C  C81  1  0.72288000  0.93930000  0.19932000  1.0
  C  C82  1  0.35581000  0.07297000  0.86627000  1.0
  C  C83  1  0.64420000  0.92703000  0.13373000  1.0
  C  C84  1  0.48012000  0.08699000  0.83810000  1.0
  C  C85  1  0.51988000  0.91301000  0.16191000  1.0
  C  C86  1  0.51954000  0.08998000  0.74798000  1.0
  C  C87  1  0.48047000  0.91002000  0.25203000  1.0
  C  C88  1  0.24438000  0.04741000  0.64105000  1.0
  C  C89  1  0.75562000  0.95259000  0.35895000  1.0
  C  C90  1  0.31076000  0.06983000  0.96086000  1.0
  C  C91  1  0.68924000  0.93017000  0.03914000  1.0
  C  C92  1  0.21068000  0.01191000  0.00677000  1.0
  C  C93  1  0.78932000  0.98809000  0.99323000  1.0
  C  C94  1  0.17108000  0.00708000  0.09738000  1.0
  C  C95  1  0.82892000  0.99292000  0.90262000  1.0
  C  C96  1  0.23079000  0.05911000  0.14428000  1.0
  C  C97  1  0.76921000  0.94089000  0.85572000  1.0
  C  C98  1  0.32855000  0.11855000  0.09802000  1.0
  C  C99  1  0.67145000  0.88145000  0.90198000  1.0
  C  C100  1  0.36784000  0.12409000  0.00732000  1.0
  C  C101  1  0.63216000  0.87591000  0.99268000  1.0
  C  C102  1  0.19343000  0.04826000  0.24468000  1.0
  C  C103  1  0.80657000  0.95174000  0.75532000  1.0
  C  C104  1  0.16986000  0.77922000  0.44841000  1.0
  C  C105  1  0.83014000  0.22079000  0.55159000  1.0
  C  C106  1  0.21599000  0.69133000  0.45143000  1.0
  C  C107  1  0.78401000  0.30867000  0.54858000  1.0
  C  C108  1  0.13913000  0.62532000  0.43402000  1.0
  C  C109  1  0.86087000  0.37468000  0.56598000  1.0
  C  C110  1  0.01828000  0.65349000  0.41358000  1.0
  C  C111  1  0.98172000  0.34651000  0.58642000  1.0
  C  C112  1  0.98002000  0.74347000  0.41127000  1.0
  C  C113  1  0.01998000  0.25653000  0.58873000  1.0
  C  C114  1  0.25026000  0.85289000  0.46368000  1.0
  C  C115  1  0.74974000  0.14711000  0.53631000  1.0
  C  C116  1  0.18517000  0.53168000  0.43624000  1.0
  C  C117  1  0.81483000  0.46832000  0.56376000  1.0
  C  C118  1  0.28203000  0.48900000  0.49326000  1.0
  C  C119  1  0.71797000  0.51100000  0.50674000  1.0
  C  C120  1  0.32626000  0.40091000  0.49480000  1.0
  C  C121  1  0.67374000  0.59909000  0.50519000  1.0
  C  C122  1  0.27474000  0.35362000  0.43964000  1.0
  C  C123  1  0.72527000  0.64638000  0.56036000  1.0
  C  C124  1  0.17831000  0.39572000  0.38278000  1.0
  C  C125  1  0.82170000  0.60428000  0.61722000  1.0
  C  C126  1  0.13378000  0.48368000  0.38122000  1.0
  C  C127  1  0.86622000  0.51632000  0.61878000  1.0
  C  C128  1  0.31871000  0.25655000  0.44501000  1.0
  C  C129  1  0.68129000  0.74345000  0.55499000  1.0
  C  C130  1  0.64805000  0.18498000  0.21421000  1.0
  C  C131  1  0.35195000  0.81502000  0.78579000  1.0
  C  C132  1  0.71480000  0.19734000  0.12922000  1.0
  C  C133  1  0.28520000  0.80266000  0.87078000  1.0
  C  C134  1  0.83557000  0.22770000  0.11763000  1.0
  C  C135  1  0.16443000  0.77230000  0.88237000  1.0
  C  C136  1  0.89103000  0.24535000  0.19239000  1.0
  C  C137  1  0.10897000  0.75465000  0.80761000  1.0
  C  C138  1  0.82456000  0.23105000  0.27808000  1.0
  C  C139  1  0.17544000  0.76895000  0.72192000  1.0
  C  C140  1  0.70293000  0.20185000  0.28874000  1.0
  C  C141  1  0.29707000  0.79815000  0.71126000  1.0
  C  C142  1  0.18752000  0.33184000  0.10039000  1.0
  C  C143  1  0.81248000  0.66816000  0.89961000  1.0
  C  C144  1  0.23801000  0.37543000  0.00866000  1.0
  C  C145  1  0.76199000  0.62458000  0.99134000  1.0
  C  C146  1  0.36100000  0.40103000  0.99424000  1.0
  C  C147  1  0.63900000  0.59897000  0.00576000  1.0
  C  C148  1  0.43430000  0.38274000  0.07161000  1.0
  C  C149  1  0.56570000  0.61726000  0.92839000  1.0
  C  C150  1  0.38352000  0.33970000  0.16314000  1.0
  C  C151  1  0.61648000  0.66030000  0.83686000  1.0
  C  C152  1  0.26096000  0.31397000  0.17822000  1.0
  C  C153  1  0.73904000  0.68603000  0.82178000  1.0
  C  C154  1  0.51091000  0.54100000  0.29384000  1.0
  C  C155  1  0.48909000  0.45900000  0.70616000  1.0
  C  C156  1  0.58455000  0.46323000  0.29611000  1.0
  C  C157  1  0.41545000  0.53677000  0.70389000  1.0
  C  C158  1  0.70859000  0.47683000  0.27055000  1.0
  C  C159  1  0.29141000  0.52317000  0.72945000  1.0
  C  C160  1  0.75973000  0.56835000  0.24349000  1.0
  C  C161  1  0.24027000  0.43165000  0.75651000  1.0
  C  C162  1  0.68584000  0.64662000  0.24192000  1.0
  C  C163  1  0.31415000  0.35339000  0.75807000  1.0
  C  C164  1  0.56218000  0.63236000  0.26706000  1.0
  C  C165  1  0.43782000  0.36764000  0.73294000  1.0
  C  C166  1  0.05819000  0.65982000  0.16674000  1.0
  C  C167  1  0.94181000  0.34018000  0.83326000  1.0
  C  C168  1  0.11884000  0.58993000  0.13762000  1.0
  C  C169  1  0.88116000  0.41007000  0.86238000  1.0
  C  C170  1  0.24288000  0.59975000  0.11278000  1.0
  C  C171  1  0.75711000  0.40025000  0.88722000  1.0
  C  C172  1  0.30734000  0.67848000  0.11701000  1.0
  C  C173  1  0.69265000  0.32152000  0.88299000  1.0
  C  C174  1  0.24673000  0.74853000  0.14458000  1.0
  C  C175  1  0.75327000  0.25147000  0.85542000  1.0
  C  C176  1  0.12209000  0.74001000  0.16832000  1.0
  C  C177  1  0.87791000  0.25999000  0.83168000  1.0
  N  N178  1  0.44386000  0.07785000  0.68591000  1.0
  N  N179  1  0.55614000  0.92215000  0.31409000  1.0
  N  N180  1  0.05350000  0.80587000  0.42872000  1.0
  N  N181  1  0.94650000  0.19413000  0.57128000  1.0
  N  N182  1  0.01360000  0.27572000  0.18850000  1.0
  N  N183  1  0.98640000  0.72428000  0.81150000  1.0
  N  N184  1  0.06333000  0.30551000  0.10614000  1.0
  N  N185  1  0.93667000  0.69449000  0.89386000  1.0
  N  N186  1  0.88606000  0.57361000  0.21837000  1.0
  N  N187  1  0.11393000  0.42639000  0.78163000  1.0
  N  N188  1  0.93303000  0.65594000  0.19492000  1.0
  N  N189  1  0.06697000  0.34406000  0.80508000  1.0
  O  O190  1  0.29958000  0.04207000  0.56659000  1.0
  O  O191  1  0.70042000  0.95793000  0.43341000  1.0
  O  O192  1  0.13122000  0.04220000  0.65829000  1.0
  O  O193  1  0.86878000  0.95780000  0.34171000  1.0
  O  O194  1  0.26093000  0.08861000  0.28646000  1.0
  O  O195  1  0.73907000  0.91139000  0.71354000  1.0
  O  O196  1  0.10006000  0.99786000  0.28110000  1.0
  O  O197  1  0.89994000  0.00214000  0.71890000  1.0
  O  O198  1  0.44342000  0.04931000  0.42070000  1.0
  O  O199  1  0.55658000  0.95069000  0.57930000  1.0
  O  O200  1  0.06223000  0.07914000  0.44637000  1.0
  O  O201  1  0.93776000  0.92086000  0.55364000  1.0
  O  O202  1  0.19775000  0.92936000  0.46371000  1.0
  O  O203  1  0.80225000  0.07064000  0.53629000  1.0
  O  O204  1  0.36202000  0.83522000  0.47407000  1.0
  O  O205  1  0.63798000  0.16478000  0.52592000  1.0
  O  O206  1  0.25845000  0.21289000  0.40201000  1.0
  O  O207  1  0.74155000  0.78711000  0.59799000  1.0
  O  O208  1  0.41065000  0.22390000  0.49329000  1.0
  O  O209  1  0.58935000  0.77610000  0.50671000  1.0
