# generated using pymatgen
data_Zn4H27C50N4O16F5
_symmetry_space_group_name_H-M   'P 1'
_cell_length_a   9.64899000
_cell_length_b   11.07650000
_cell_length_c   28.98830000
_cell_angle_alpha   90.14730000
_cell_angle_beta   89.77770000
_cell_angle_gamma   89.95570000
_symmetry_Int_Tables_number   1
_chemical_formula_structural   Zn4H27C50N4O16F5
_chemical_formula_sum   'Zn4 H27 C50 N4 O16 F5'
_cell_volume   3098.14912539
_cell_formula_units_Z   1
loop_
 _symmetry_equiv_pos_site_id
 _symmetry_equiv_pos_as_xyz
  1  'x, y, z'
loop_
 _atom_site_type_symbol
 _atom_site_label
 _atom_site_symmetry_multiplicity
 _atom_site_fract_x
 _atom_site_fract_y
 _atom_site_fract_z
 _atom_site_occupancy
  Zn  Zn0  1  0.64006000  0.49728000  0.50011000  1.0
  Zn  Zn1  1  0.35838000  0.50194000  0.49893000  1.0
  Zn  Zn2  1  0.36090000  0.50006000  0.11828000  1.0
  Zn  Zn3  1  0.64233000  0.50416000  0.11742000  1.0
  H  H4  1  0.12791000  0.63690000  0.54961000  1.0
  H  H5  1  0.13978000  0.36418000  0.45060000  1.0
  H  H6  1  0.86145000  0.63192000  0.54825000  1.0
  H  H7  1  0.72552000  0.89299000  0.49973000  1.0
  H  H8  1  0.27983000  0.88083000  0.49917000  1.0
  H  H9  1  0.71429000  0.11966000  0.49962000  1.0
  H  H10  1  0.27560000  0.50157000  0.97018000  1.0
  H  H11  1  0.27820000  0.49999000  0.88390000  1.0
  H  H12  1  0.71971000  0.50252000  0.97100000  1.0
  H  H13  1  0.27891000  0.50147000  0.64616000  1.0
  H  H14  1  0.72296000  0.50030000  0.64746000  1.0
  H  H15  1  0.71971000  0.49920000  0.73374000  1.0
  H  H16  1  0.28318000  0.50178000  0.26416000  1.0
  H  H17  1  0.72886000  0.50419000  0.26668000  1.0
  H  H18  1  0.28049000  0.50156000  0.35082000  1.0
  H  H19  1  0.87383000  0.63747000  0.06694000  1.0
  H  H20  1  0.85989000  0.36713000  0.16633000  1.0
  H  H21  1  0.14029000  0.63249000  0.06897000  1.0
  H  H22  1  0.27496000  0.89590000  0.11745000  1.0
  H  H23  1  0.72068000  0.88296000  0.11777000  1.0
  H  H24  1  0.28637000  0.12247000  0.11748000  1.0
  H  H25  1  0.82699000  0.42058000  0.88818000  1.0
  H  H26  1  0.75343000  0.50044000  0.84103000  1.0
  H  H27  1  0.82809000  0.58027000  0.88814000  1.0
  H  H28  1  0.17090000  0.42035000  0.72891000  1.0
  H  H29  1  0.24431000  0.50045000  0.77615000  1.0
  H  H30  1  0.16997000  0.58003000  0.72907000  1.0
  C  C31  1  0.50710000  0.73717000  0.50008000  1.0
  C  C32  1  0.50176000  0.50246000  0.59019000  1.0
  C  C33  1  0.49436000  0.26325000  0.49950000  1.0
  C  C34  1  0.49224000  0.50114000  0.40923000  1.0
  C  C35  1  0.49383000  0.73963000  0.11733000  1.0
  C  C36  1  0.49798000  0.50396000  0.02719000  1.0
  C  C37  1  0.50665000  0.26570000  0.11776000  1.0
  C  C38  1  0.50938000  0.50352000  0.20823000  1.0
  C  C39  1  0.93326000  0.42390000  0.47213000  1.0
  C  C40  1  0.06951000  0.57604000  0.52742000  1.0
  C  C41  1  0.07804000  0.42450000  0.47220000  1.0
  C  C42  1  0.92567000  0.57335000  0.52674000  1.0
  C  C43  1  0.49309000  0.12783000  0.49938000  1.0
  C  C44  1  0.50369000  0.87263000  0.49979000  1.0
  C  C45  1  0.37209000  0.05742000  0.49917000  1.0
  C  C46  1  0.62646000  0.94016000  0.49975000  1.0
  C  C47  1  0.37590000  0.93222000  0.49942000  1.0
  C  C48  1  0.62018000  0.06542000  0.49958000  1.0
  C  C49  1  0.49809000  0.50305000  0.97559000  1.0
  C  C50  1  0.37298000  0.50202000  0.95107000  1.0
  C  C51  1  0.37483000  0.50095000  0.90327000  1.0
  C  C52  1  0.50170000  0.50090000  0.87859000  1.0
  C  C53  1  0.62880000  0.50154000  0.90316000  1.0
  C  C54  1  0.62365000  0.50255000  0.95128000  1.0
  C  C55  1  0.50001000  0.50020000  0.82978000  1.0
  C  C56  1  0.49752000  0.49997000  0.78762000  1.0
  C  C57  1  0.49613000  0.50028000  0.73881000  1.0
  C  C58  1  0.36929000  0.50084000  0.71411000  1.0
  C  C59  1  0.37480000  0.50154000  0.66598000  1.0
  C  C60  1  0.50056000  0.50189000  0.64181000  1.0
  C  C61  1  0.62545000  0.50090000  0.66648000  1.0
  C  C62  1  0.62325000  0.50011000  0.71428000  1.0
  C  C63  1  0.50093000  0.50184000  0.35756000  1.0
  C  C64  1  0.50578000  0.50296000  0.25994000  1.0
  C  C65  1  0.62606000  0.50256000  0.33257000  1.0
  C  C66  1  0.37912000  0.50212000  0.28380000  1.0
  C  C67  1  0.62973000  0.50326000  0.28469000  1.0
  C  C68  1  0.37787000  0.50175000  0.33169000  1.0
  C  C69  1  0.06684000  0.42697000  0.14545000  1.0
  C  C70  1  0.93177000  0.57716000  0.08939000  1.0
  C  C71  1  0.92212000  0.42700000  0.14484000  1.0
  C  C72  1  0.07562000  0.57462000  0.09047000  1.0
  C  C73  1  0.50755000  0.13033000  0.11765000  1.0
  C  C74  1  0.49683000  0.87509000  0.11737000  1.0
  C  C75  1  0.62854000  0.05971000  0.11770000  1.0
  C  C76  1  0.37408000  0.94283000  0.11738000  1.0
  C  C77  1  0.62462000  0.93451000  0.11755000  1.0
  C  C78  1  0.38046000  0.06808000  0.11747000  1.0
  C  C79  1  0.76631000  0.50071000  0.87858000  1.0
  C  C80  1  0.23163000  0.50042000  0.73859000  1.0
  N  N81  1  0.85799000  0.49623000  0.49871000  1.0
  N  N82  1  0.14341000  0.50151000  0.50009000  1.0
  N  N83  1  0.14269000  0.49859000  0.11897000  1.0
  N  N84  1  0.85733000  0.50330000  0.11662000  1.0
  O  O85  1  0.62507000  0.68580000  0.50083000  1.0
  O  O86  1  0.38983000  0.68386000  0.49947000  1.0
  O  O87  1  0.38499000  0.50074000  0.56970000  1.0
  O  O88  1  0.62014000  0.50437000  0.57034000  1.0
  O  O89  1  0.37902000  0.31847000  0.49626000  1.0
  O  O90  1  0.61273000  0.31322000  0.50285000  1.0
  O  O91  1  0.60584000  0.49939000  0.43137000  1.0
  O  O92  1  0.37155000  0.50234000  0.42725000  1.0
  O  O93  1  0.37597000  0.68799000  0.11726000  1.0
  O  O94  1  0.61123000  0.68651000  0.11744000  1.0
  O  O95  1  0.61565000  0.50313000  0.04718000  1.0
  O  O96  1  0.38050000  0.50527000  0.04763000  1.0
  O  O97  1  0.62248000  0.32035000  0.11960000  1.0
  O  O98  1  0.38812000  0.31628000  0.11603000  1.0
  O  O99  1  0.39281000  0.50367000  0.18767000  1.0
  O  O100  1  0.62783000  0.50377000  0.18865000  1.0
  F  F101  1  0.86624000  0.34784000  0.44450000  1.0
  F  F102  1  0.24420000  0.10952000  0.49896000  1.0
  F  F103  1  0.75066000  0.50277000  0.35431000  1.0
  F  F104  1  0.13348000  0.35247000  0.17378000  1.0
  F  F105  1  0.75654000  0.11140000  0.11784000  1.0
