# generated using pymatgen
data_CuPH14C16(NO2)2
_symmetry_space_group_name_H-M   'P 1'
_cell_length_a   6.65885000
_cell_length_b   11.50490000
_cell_length_c   11.65190000
_cell_angle_alpha   65.90600000
_cell_angle_beta   86.90630000
_cell_angle_gamma   79.54700000
_symmetry_Int_Tables_number   1
_chemical_formula_structural   CuPH14C16(NO2)2
_chemical_formula_sum   'Cu2 P2 H28 C32 N4 O8'
_cell_volume   801.15069444
_cell_formula_units_Z   2
loop_
 _symmetry_equiv_pos_site_id
 _symmetry_equiv_pos_as_xyz
  1  'x, y, z'
loop_
 _atom_site_type_symbol
 _atom_site_label
 _atom_site_symmetry_multiplicity
 _atom_site_fract_x
 _atom_site_fract_y
 _atom_site_fract_z
 _atom_site_occupancy
  Cu  Cu0  1  0.30641000  0.82511000  0.00372000  1.0
  Cu  Cu1  1  0.69359000  0.17490000  0.99628000  1.0
  P  P2  1  0.52793000  0.04427000  0.82624000  1.0
  P  P3  1  0.47207000  0.95573000  0.17376000  1.0
  H  H4  1  0.90128000  0.90335000  0.09555000  1.0
  H  H5  1  0.09872000  0.09666000  0.90446000  1.0
  H  H6  1  0.87658000  0.88724000  0.97197000  1.0
  H  H7  1  0.12342000  0.11276000  0.02803000  1.0
  H  H8  1  0.39709000  0.66004000  0.28954000  1.0
  H  H9  1  0.60290000  0.33997000  0.71045000  1.0
  H  H10  1  0.40604000  0.42316000  0.43248000  1.0
  H  H11  1  0.59396000  0.57684000  0.56752000  1.0
  H  H12  1  0.34883000  0.27149000  0.33764000  1.0
  H  H13  1  0.65117000  0.72852000  0.66236000  1.0
  H  H14  1  0.27513000  0.24043000  0.13663000  1.0
  H  H15  1  0.72488000  0.75957000  0.86337000  1.0
  H  H16  1  0.19492000  0.33806000  0.91223000  1.0
  H  H17  1  0.80509000  0.66194000  0.08777000  1.0
  H  H18  1  0.13116000  0.54490000  0.70442000  1.0
  H  H19  1  0.86885000  0.45510000  0.29557000  1.0
  H  H20  1  0.11672000  0.78555000  0.59673000  1.0
  H  H21  1  0.88327000  0.21445000  0.40327000  1.0
  H  H22  1  0.18930000  0.90650000  0.72347000  1.0
  H  H23  1  0.81069000  0.09350000  0.27654000  1.0
  H  H24  1  0.35921000  0.21683000  0.64009000  1.0
  H  H25  1  0.64079000  0.78317000  0.35991000  1.0
  H  H26  1  0.63130000  0.19636000  0.63260000  1.0
  H  H27  1  0.36870000  0.80364000  0.36740000  1.0
  H  H28  1  0.17707000  0.12738000  0.53285000  1.0
  H  H29  1  0.82294000  0.87261000  0.46715000  1.0
  H  H30  1  0.17839000  0.00676000  0.39719000  1.0
  H  H31  1  0.82161000  0.99324000  0.60280000  1.0
  C  C32  1  0.36499000  0.59045000  0.25471000  1.0
  C  C33  1  0.63500000  0.40955000  0.74528000  1.0
  C  C34  1  0.37139000  0.45865000  0.33224000  1.0
  C  C35  1  0.62861000  0.54136000  0.66776000  1.0
  C  C36  1  0.33966000  0.37452000  0.27997000  1.0
  C  C37  1  0.66035000  0.62547000  0.72003000  1.0
  C  C38  1  0.29843000  0.42284000  0.14952000  1.0
  C  C39  1  0.70158000  0.57716000  0.85048000  1.0
  C  C40  1  0.26531000  0.34511000  0.08497000  1.0
  C  C41  1  0.73470000  0.65489000  0.91503000  1.0
  C  C42  1  0.22113000  0.39990000  0.95848000  1.0
  C  C43  1  0.77888000  0.60010000  0.04152000  1.0
  C  C44  1  0.20791000  0.53634000  0.88635000  1.0
  C  C45  1  0.79210000  0.46366000  0.11365000  1.0
  C  C46  1  0.16053000  0.60065000  0.75633000  1.0
  C  C47  1  0.83948000  0.39935000  0.24368000  1.0
  C  C48  1  0.15103000  0.73327000  0.69709000  1.0
  C  C49  1  0.84897000  0.26673000  0.30291000  1.0
  C  C50  1  0.19087000  0.80264000  0.76616000  1.0
  C  C51  1  0.80913000  0.19736000  0.23384000  1.0
  C  C52  1  0.24368000  0.61459000  0.94802000  1.0
  C  C53  1  0.75633000  0.38541000  0.05197000  1.0
  C  C54  1  0.28920000  0.55754000  0.08000000  1.0
  C  C55  1  0.71081000  0.44246000  0.92000000  1.0
  C  C56  1  0.50015000  0.14519000  0.65503000  1.0
  C  C57  1  0.49984000  0.85481000  0.34496000  1.0
  C  C58  1  0.49993000  0.07118000  0.57529000  1.0
  C  C59  1  0.50006000  0.92881000  0.42471000  1.0
  C  C60  1  0.31952000  0.07123000  0.51833000  1.0
  C  C61  1  0.68047000  0.92876000  0.48167000  1.0
  C  C62  1  0.31910000  0.00216000  0.44397000  1.0
  C  C63  1  0.68090000  0.99784000  0.55603000  1.0
  N  N64  1  0.32411000  0.63813000  0.13200000  1.0
  N  N65  1  0.67590000  0.36187000  0.86800000  1.0
  N  N66  1  0.23714000  0.74414000  0.88846000  1.0
  N  N67  1  0.76285000  0.25586000  0.11153000  1.0
  O  O68  1  0.53181000  0.14607000  0.88033000  1.0
  O  O69  1  0.46818000  0.85393000  0.11968000  1.0
  O  O70  1  0.96731000  0.85236000  0.04921000  1.0
  O  O71  1  0.03269000  0.14764000  0.95080000  1.0
  O  O72  1  0.32404000  0.98924000  0.85930000  1.0
  O  O73  1  0.67596000  0.01076000  0.14070000  1.0
  O  O74  1  0.71974000  0.94351000  0.84747000  1.0
  O  O75  1  0.28025000  0.05649000  0.15254000  1.0
