# generated using pymatgen
data_AlH15(C10O3)2
_symmetry_space_group_name_H-M   'P 1'
_cell_length_a   6.63435000
_cell_length_b   24.19970000
_cell_length_c   27.78040000
_cell_angle_alpha   95.59730000
_cell_angle_beta   89.99700000
_cell_angle_gamma   89.99490000
_symmetry_Int_Tables_number   1
_chemical_formula_structural   AlH15(C10O3)2
_chemical_formula_sum   'Al4 H60 C80 O24'
_cell_volume   4438.85730448
_cell_formula_units_Z   4
loop_
 _symmetry_equiv_pos_site_id
 _symmetry_equiv_pos_as_xyz
  1  'x, y, z'
loop_
 _atom_site_type_symbol
 _atom_site_label
 _atom_site_symmetry_multiplicity
 _atom_site_fract_x
 _atom_site_fract_y
 _atom_site_fract_z
 _atom_site_occupancy
  Al  Al0  1  0.22836000  0.24881000  0.24974000  1.0
  Al  Al1  1  0.77158000  0.75116000  0.75017000  1.0
  Al  Al2  1  0.72835000  0.25115000  0.25017000  1.0
  Al  Al3  1  0.27157000  0.74882000  0.74973000  1.0
  H  H4  1  0.71887000  0.67310000  0.87777000  1.0
  H  H5  1  0.28112000  0.32690000  0.12215000  1.0
  H  H6  1  0.21889000  0.82692000  0.62215000  1.0
  H  H7  1  0.78109000  0.17309000  0.37775000  1.0
  H  H8  1  0.72087000  0.60962000  0.94283000  1.0
  H  H9  1  0.27910000  0.39041000  0.05710000  1.0
  H  H10  1  0.22094000  0.89044000  0.55711000  1.0
  H  H11  1  0.77911000  0.10961000  0.44282000  1.0
  H  H12  1  0.31603000  0.61763000  0.83561000  1.0
  H  H13  1  0.68403000  0.38238000  0.16435000  1.0
  H  H14  1  0.81601000  0.88236000  0.66434000  1.0
  H  H15  1  0.18381000  0.11767000  0.33566000  1.0
  H  H16  1  0.32322000  0.54666000  0.98416000  1.0
  H  H17  1  0.67674000  0.45336000  0.01580000  1.0
  H  H18  1  0.82328000  0.95338000  0.51580000  1.0
  H  H19  1  0.17675000  0.04668000  0.48418000  1.0
  H  H20  1  0.30531000  0.48245000  0.04765000  1.0
  H  H21  1  0.69465000  0.51758000  0.95231000  1.0
  H  H22  1  0.80534000  0.01760000  0.45231000  1.0
  H  H23  1  0.19471000  0.98246000  0.54767000  1.0
  H  H24  1  0.68285000  0.45884000  0.42404000  1.0
  H  H25  1  0.31671000  0.54101000  0.57594000  1.0
  H  H26  1  0.18334000  0.04105000  0.07593000  1.0
  H  H27  1  0.81706000  0.95890000  0.92396000  1.0
  H  H28  1  0.67541000  0.38704000  0.35281000  1.0
  H  H29  1  0.32436000  0.61290000  0.64710000  1.0
  H  H30  1  0.17574000  0.11290000  0.14712000  1.0
  H  H31  1  0.82440000  0.88707000  0.85274000  1.0
  H  H32  1  0.29319000  0.34575000  0.37853000  1.0
  H  H33  1  0.70658000  0.65421000  0.62140000  1.0
  H  H34  1  0.79341000  0.15424000  0.12137000  1.0
  H  H35  1  0.20669000  0.84581000  0.87855000  1.0
  H  H36  1  0.30001000  0.41496000  0.45161000  1.0
  H  H37  1  0.69953000  0.58490000  0.54839000  1.0
  H  H38  1  0.80045000  0.08496000  0.04834000  1.0
  H  H39  1  0.19995000  0.91505000  0.95161000  1.0
  H  H40  1  0.28748000  0.49493000  0.83110000  1.0
  H  H41  1  0.16343000  0.47250000  0.88288000  1.0
  H  H42  1  0.49152000  0.44320000  0.91602000  1.0
  H  H43  1  0.45744000  0.41074000  0.85634000  1.0
  H  H44  1  0.62344000  0.46852000  0.86668000  1.0
  H  H45  1  0.83652000  0.52754000  0.11712000  1.0
  H  H46  1  0.71244000  0.50508000  0.16888000  1.0
  H  H47  1  0.37649000  0.53149000  0.13330000  1.0
  H  H48  1  0.54244000  0.58927000  0.14366000  1.0
  H  H49  1  0.50844000  0.55684000  0.08398000  1.0
  H  H50  1  0.78760000  0.00506000  0.66889000  1.0
  H  H51  1  0.66347000  0.02753000  0.61714000  1.0
  H  H52  1  0.99150000  0.05683000  0.58398000  1.0
  H  H53  1  0.95753000  0.08926000  0.64366000  1.0
  H  H54  1  0.12350000  0.03147000  0.63328000  1.0
  H  H55  1  0.33652000  0.97253000  0.38290000  1.0
  H  H56  1  0.21252000  0.99500000  0.33113000  1.0
  H  H57  1  0.87652000  0.96858000  0.36668000  1.0
  H  H58  1  0.04253000  0.91080000  0.35633000  1.0
  H  H59  1  0.00838000  0.94323000  0.41601000  1.0
  H  H60  1  0.47347000  0.31840000  0.23549000  1.0
  H  H61  1  0.52643000  0.68159000  0.76446000  1.0
  H  H62  1  0.97350000  0.18159000  0.26447000  1.0
  H  H63  1  0.02641000  0.81840000  0.73547000  1.0
  C  C64  1  0.48100000  0.17866000  0.18194000  1.0
  C  C65  1  0.51904000  0.82135000  0.81795000  1.0
  C  C66  1  0.98075000  0.32132000  0.31797000  1.0
  C  C67  1  0.01908000  0.67864000  0.68195000  1.0
  C  C68  1  0.47984000  0.18827000  0.31398000  1.0
  C  C69  1  0.52003000  0.81170000  0.68593000  1.0
  C  C70  1  0.98000000  0.31170000  0.18594000  1.0
  C  C71  1  0.02000000  0.68828000  0.81399000  1.0
  C  C72  1  0.84905000  0.64680000  0.88276000  1.0
  C  C73  1  0.15093000  0.35321000  0.11718000  1.0
  C  C74  1  0.34909000  0.85322000  0.61718000  1.0
  C  C75  1  0.65088000  0.14680000  0.38275000  1.0
  C  C76  1  0.85061000  0.61083000  0.91885000  1.0
  C  C77  1  0.14940000  0.38919000  0.08110000  1.0
  C  C78  1  0.35063000  0.88921000  0.58110000  1.0
  C  C79  1  0.64936000  0.11084000  0.41885000  1.0
  C  C80  1  0.01580000  0.57578000  0.92546000  1.0
  C  C81  1  0.98419000  0.42425000  0.07449000  1.0
  C  C82  1  0.51584000  0.92426000  0.57450000  1.0
  C  C83  1  0.48414000  0.07581000  0.42549000  1.0
  C  C84  1  0.18221000  0.57854000  0.89388000  1.0
  C  C85  1  0.81782000  0.42150000  0.10609000  1.0
  C  C86  1  0.68222000  0.92150000  0.60608000  1.0
  C  C87  1  0.31772000  0.07856000  0.39391000  1.0
  C  C88  1  0.18475000  0.61608000  0.85901000  1.0
  C  C89  1  0.81527000  0.38394000  0.14095000  1.0
  C  C90  1  0.68477000  0.88393000  0.64094000  1.0
  C  C91  1  0.31512000  0.11611000  0.35904000  1.0
  C  C92  1  0.01809000  0.65020000  0.85294000  1.0
  C  C93  1  0.98192000  0.34980000  0.14701000  1.0
  C  C94  1  0.51811000  0.84980000  0.64700000  1.0
  C  C95  1  0.48179000  0.15022000  0.35295000  1.0
  C  C96  1  0.18148000  0.52601000  0.99071000  1.0
  C  C97  1  0.81846000  0.47402000  0.00925000  1.0
  C  C98  1  0.68155000  0.97404000  0.50925000  1.0
  C  C99  1  0.31849000  0.02603000  0.49073000  1.0
  C  C100  1  0.17130000  0.48961000  0.02640000  1.0
  C  C101  1  0.82867000  0.51042000  0.97356000  1.0
  C  C102  1  0.67133000  0.01044000  0.47357000  1.0
  C  C103  1  0.32872000  0.98963000  0.52641000  1.0
  C  C104  1  0.98993000  0.46293000  0.03655000  1.0
  C  C105  1  0.01003000  0.53710000  0.96341000  1.0
  C  C106  1  0.48994000  0.03712000  0.46343000  1.0
  C  C107  1  0.51009000  0.96294000  0.53655000  1.0
  C  C108  1  0.81540000  0.43356000  0.41428000  1.0
  C  C109  1  0.18420000  0.56630000  0.58570000  1.0
  C  C110  1  0.31584000  0.06634000  0.08569000  1.0
  C  C111  1  0.68449000  0.93361000  0.91421000  1.0
  C  C112  1  0.81136000  0.39398000  0.37459000  1.0
  C  C113  1  0.18833000  0.60594000  0.62535000  1.0
  C  C114  1  0.31174000  0.10596000  0.12535000  1.0
  C  C115  1  0.68847000  0.89403000  0.87454000  1.0
  C  C116  1  0.98414000  0.36262000  0.36144000  1.0
  C  C117  1  0.01562000  0.63733000  0.63849000  1.0
  C  C118  1  0.48443000  0.13735000  0.13848000  1.0
  C  C119  1  0.51570000  0.86266000  0.86141000  1.0
  C  C120  1  0.16051000  0.37060000  0.38914000  1.0
  C  C121  1  0.83919000  0.62932000  0.61081000  1.0
  C  C122  1  0.66082000  0.12937000  0.11079000  1.0
  C  C123  1  0.33936000  0.87065000  0.88913000  1.0
  C  C124  1  0.16439000  0.40922000  0.42951000  1.0
  C  C125  1  0.83518000  0.59065000  0.57048000  1.0
  C  C126  1  0.66483000  0.09071000  0.07044000  1.0
  C  C127  1  0.33550000  0.90929000  0.92950000  1.0
  C  C128  1  0.99228000  0.44180000  0.44244000  1.0
  C  C129  1  0.00724000  0.55803000  0.55757000  1.0
  C  C130  1  0.49277000  0.05810000  0.05753000  1.0
  C  C131  1  0.50767000  0.94186000  0.94239000  1.0
  C  C132  1  0.99732000  0.48226000  0.48274000  1.0
  C  C133  1  0.00211000  0.51753000  0.51730000  1.0
  C  C134  1  0.49786000  0.01761000  0.01725000  1.0
  C  C135  1  0.50267000  0.98234000  0.98268000  1.0
  C  C136  1  0.30614000  0.48910000  0.86979000  1.0
  C  C137  1  0.48033000  0.45083000  0.87780000  1.0
  C  C138  1  0.69381000  0.51092000  0.13020000  1.0
  C  C139  1  0.51961000  0.54919000  0.12219000  1.0
  C  C140  1  0.80620000  0.01092000  0.63020000  1.0
  C  C141  1  0.98037000  0.04918000  0.62219000  1.0
  C  C142  1  0.19381000  0.98915000  0.36981000  1.0
  C  C143  1  0.01962000  0.95088000  0.37780000  1.0
  O  O144  1  0.64971000  0.20462000  0.29929000  1.0
  O  O145  1  0.35014000  0.79529000  0.70055000  1.0
  O  O146  1  0.14990000  0.29522000  0.20051000  1.0
  O  O147  1  0.85014000  0.70472000  0.79937000  1.0
  O  O148  1  0.30869000  0.19278000  0.19935000  1.0
  O  O149  1  0.69132000  0.80717000  0.80058000  1.0
  O  O150  1  0.80843000  0.30709000  0.30065000  1.0
  O  O151  1  0.19142000  0.69284000  0.69929000  1.0
  O  O152  1  0.30852000  0.20108000  0.29753000  1.0
  O  O153  1  0.69131000  0.79892000  0.70242000  1.0
  O  O154  1  0.80875000  0.29899000  0.20249000  1.0
  O  O155  1  0.19125000  0.70103000  0.79746000  1.0
  O  O156  1  0.15060000  0.30406000  0.30122000  1.0
  O  O157  1  0.84926000  0.69596000  0.69867000  1.0
  O  O158  1  0.65082000  0.19605000  0.19858000  1.0
  O  O159  1  0.34919000  0.80402000  0.80126000  1.0
  O  O160  1  0.47671000  0.28376000  0.25025000  1.0
  O  O161  1  0.52320000  0.71621000  0.74968000  1.0
  O  O162  1  0.97672000  0.21620000  0.24967000  1.0
  O  O163  1  0.02321000  0.78377000  0.75024000  1.0
  O  O164  1  0.34492000  0.54281000  0.89601000  1.0
  O  O165  1  0.65506000  0.45721000  0.10397000  1.0
  O  O166  1  0.84495000  0.95721000  0.60396000  1.0
  O  O167  1  0.15498000  0.04285000  0.39605000  1.0
