# generated using pymatgen
data_ZnH18C23N4O5
_symmetry_space_group_name_H-M   'P 1'
_cell_length_a   10.44470000
_cell_length_b   11.34680000
_cell_length_c   11.49200000
_cell_angle_alpha   116.08300000
_cell_angle_beta   100.45500000
_cell_angle_gamma   104.61600000
_symmetry_Int_Tables_number   1
_chemical_formula_structural   ZnH18C23N4O5
_chemical_formula_sum   'Zn2 H36 C46 N8 O10'
_cell_volume   1114.66268748
_cell_formula_units_Z   2
loop_
 _symmetry_equiv_pos_site_id
 _symmetry_equiv_pos_as_xyz
  1  'x, y, z'
loop_
 _atom_site_type_symbol
 _atom_site_label
 _atom_site_symmetry_multiplicity
 _atom_site_fract_x
 _atom_site_fract_y
 _atom_site_fract_z
 _atom_site_occupancy
  Zn  Zn0  1  0.74142000  0.89244000  0.67829000  1.0
  Zn  Zn1  1  0.25858000  0.10756000  0.32171000  1.0
  H  H2  1  0.48136000  0.61885000  0.40794000  1.0
  H  H3  1  0.51865000  0.38115000  0.59206000  1.0
  H  H4  1  0.64078000  0.90170000  0.92366000  1.0
  H  H5  1  0.35922000  0.09830000  0.07634000  1.0
  H  H6  1  0.47779000  0.84799000  0.04439000  1.0
  H  H7  1  0.52220000  0.15201000  0.95561000  1.0
  H  H8  1  0.24248000  0.65717000  0.91354000  1.0
  H  H9  1  0.75752000  0.34283000  0.08646000  1.0
  H  H10  1  0.15878000  0.51242000  0.65791000  1.0
  H  H11  1  0.84122000  0.48758000  0.34209000  1.0
  H  H12  1  0.92528000  0.74997000  0.50336000  1.0
  H  H13  1  0.07472000  0.25003000  0.49664000  1.0
  H  H14  1  0.60647000  0.01575000  0.50835000  1.0
  H  H15  1  0.39353000  0.98425000  0.49165000  1.0
  H  H16  1  0.59080000  0.11240000  0.35174000  1.0
  H  H17  1  0.40920000  0.88761000  0.64826000  1.0
  H  H18  1  0.72943000  0.08224000  0.19603000  1.0
  H  H19  1  0.27057000  0.91776000  0.80397000  1.0
  H  H20  1  0.88548000  0.94329000  0.18405000  1.0
  H  H21  1  0.11452000  0.05671000  0.81595000  1.0
  H  H22  1  0.10458000  0.85699000  0.94352000  1.0
  H  H23  1  0.89542000  0.14300000  0.05648000  1.0
  H  H24  1  0.96315000  0.83254000  0.00456000  1.0
  H  H25  1  0.03685000  0.16746000  0.99544000  1.0
  H  H26  1  0.74482000  0.66983000  0.90382000  1.0
  H  H27  1  0.25518000  0.33017000  0.09618000  1.0
  H  H28  1  0.54665000  0.47041000  0.86692000  1.0
  H  H29  1  0.45335000  0.52959000  0.13308000  1.0
  H  H30  1  0.56705000  0.23640000  0.80495000  1.0
  H  H31  1  0.43296000  0.76360000  0.19506000  1.0
  H  H32  1  0.99513000  0.41157000  0.83053000  1.0
  H  H33  1  0.00487000  0.58843000  0.16946000  1.0
  H  H34  1  0.26115000  0.47821000  0.42952000  1.0
  H  H35  1  0.73885000  0.52179000  0.57048000  1.0
  H  H36  1  0.97810000  0.80362000  0.31174000  1.0
  H  H37  1  0.02190000  0.19638000  0.68826000  1.0
  C  C38  1  0.46404000  0.64043000  0.50445000  1.0
  C  C39  1  0.53596000  0.35957000  0.49555000  1.0
  C  C40  1  0.49159000  0.73314000  0.72311000  1.0
  C  C41  1  0.50841000  0.26687000  0.27690000  1.0
  C  C42  1  0.53790000  0.81587000  0.86681000  1.0
  C  C43  1  0.46210000  0.18413000  0.13318000  1.0
  C  C44  1  0.44626000  0.78512000  0.93269000  1.0
  C  C45  1  0.55374000  0.21488000  0.06731000  1.0
  C  C46  1  0.31187000  0.67597000  0.85815000  1.0
  C  C47  1  0.68813000  0.32403000  0.14185000  1.0
  C  C48  1  0.26424000  0.59347000  0.71511000  1.0
  C  C49  1  0.73576000  0.40653000  0.28488000  1.0
  C  C50  1  0.35668000  0.62324000  0.64884000  1.0
  C  C51  1  0.64332000  0.37676000  0.35116000  1.0
  C  C52  1  0.87676000  0.80313000  0.46113000  1.0
  C  C53  1  0.12324000  0.19687000  0.53888000  1.0
  C  C54  1  0.75150000  0.92138000  0.43041000  1.0
  C  C55  1  0.24850000  0.07862000  0.56959000  1.0
  C  C56  1  0.66490000  0.99842000  0.43697000  1.0
  C  C57  1  0.33510000  0.00159000  0.56303000  1.0
  C  C58  1  0.65873000  0.05382000  0.35045000  1.0
  C  C59  1  0.34127000  0.94619000  0.64955000  1.0
  C  C60  1  0.73666000  0.03445000  0.25994000  1.0
  C  C61  1  0.26334000  0.96555000  0.74006000  1.0
  C  C62  1  0.82238000  0.95680000  0.25124000  1.0
  C  C63  1  0.17762000  0.04321000  0.74876000  1.0
  C  C64  1  0.82761000  0.90053000  0.33778000  1.0
  C  C65  1  0.17240000  0.09947000  0.66223000  1.0
  C  C66  1  0.90509000  0.78575000  0.79309000  1.0
  C  C67  1  0.09491000  0.21425000  0.20691000  1.0
  C  C68  1  0.99575000  0.78710000  0.91430000  1.0
  C  C69  1  0.00425000  0.21290000  0.08570000  1.0
  C  C70  1  0.88309000  0.55183000  0.86606000  1.0
  C  C71  1  0.11691000  0.44817000  0.13394000  1.0
  C  C72  1  0.75704000  0.56968000  0.87824000  1.0
  C  C73  1  0.24296000  0.43031000  0.12176000  1.0
  C  C74  1  0.64433000  0.45575000  0.85701000  1.0
  C  C75  1  0.35567000  0.54425000  0.14299000  1.0
  C  C76  1  0.65521000  0.32565000  0.82380000  1.0
  C  C77  1  0.34479000  0.67435000  0.17620000  1.0
  C  C78  1  0.78269000  0.30967000  0.81434000  1.0
  C  C79  1  0.21731000  0.69033000  0.18566000  1.0
  C  C80  1  0.89541000  0.42251000  0.83569000  1.0
  C  C81  1  0.10459000  0.57749000  0.16431000  1.0
  C  C82  1  0.80228000  0.17370000  0.78091000  1.0
  C  C83  1  0.19772000  0.82630000  0.21909000  1.0
  N  N84  1  0.55556000  0.74103000  0.62895000  1.0
  N  N85  1  0.44444000  0.25897000  0.37105000  1.0
  N  N86  1  0.34404000  0.56756000  0.51116000  1.0
  N  N87  1  0.65596000  0.43244000  0.48884000  1.0
  N  N88  1  0.78471000  0.85861000  0.50613000  1.0
  N  N89  1  0.21529000  0.14139000  0.49387000  1.0
  N  N90  1  0.90403000  0.82433000  0.35997000  1.0
  N  N91  1  0.09597000  0.17567000  0.64003000  1.0
  O  O92  1  0.87480000  0.89709000  0.82818000  1.0
  O  O93  1  0.12520000  0.10291000  0.17181000  1.0
  O  O94  1  0.86901000  0.68524000  0.67216000  1.0
  O  O95  1  0.13099000  0.31476000  0.32783000  1.0
  O  O96  1  0.00070000  0.65278000  0.88303000  1.0
  O  O97  1  0.99930000  0.34722000  0.11697000  1.0
  O  O98  1  0.69699000  0.06852000  0.75891000  1.0
  O  O99  1  0.30301000  0.93148000  0.24109000  1.0
  O  O100  1  0.91877000  0.16437000  0.77326000  1.0
  O  O101  1  0.08123000  0.83563000  0.22674000  1.0
