# generated using pymatgen
data_Mo3H16C24N4O9
_symmetry_space_group_name_H-M   'P 1'
_cell_length_a   8.88224000
_cell_length_b   8.88226000
_cell_length_c   10.32210000
_cell_angle_alpha   66.82190000
_cell_angle_beta   66.82180000
_cell_angle_gamma   65.77840000
_symmetry_Int_Tables_number   1
_chemical_formula_structural   Mo3H16C24N4O9
_chemical_formula_sum   'Mo3 H16 C24 N4 O9'
_cell_volume   656.03152336
_cell_formula_units_Z   1
loop_
 _symmetry_equiv_pos_site_id
 _symmetry_equiv_pos_as_xyz
  1  'x, y, z'
loop_
 _atom_site_type_symbol
 _atom_site_label
 _atom_site_symmetry_multiplicity
 _atom_site_fract_x
 _atom_site_fract_y
 _atom_site_fract_z
 _atom_site_occupancy
  Mo  Mo0  1  0.96237000  0.02166000  0.32314000  1.0
  Mo  Mo1  1  0.97834000  0.03763000  0.67686000  1.0
  Mo  Mo2  1  0.15392000  0.84608000  0.00000000  1.0
  H  H3  1  0.13466000  0.33832000  0.18025000  1.0
  H  H4  1  0.66167000  0.86534000  0.81975000  1.0
  H  H5  1  0.41909000  0.38569000  0.08228000  1.0
  H  H6  1  0.61431000  0.58090000  0.91772000  1.0
  H  H7  1  0.68766000  0.12794000  0.07684000  1.0
  H  H8  1  0.87205000  0.31234000  0.92316000  1.0
  H  H9  1  0.81395000  0.80564000  0.13561000  1.0
  H  H10  1  0.19436000  0.18605000  0.86439000  1.0
  H  H11  1  0.77124000  0.51823000  0.23425000  1.0
  H  H12  1  0.48177000  0.22876000  0.76575000  1.0
  H  H13  1  0.57129000  0.33942000  0.35496000  1.0
  H  H14  1  0.66059000  0.42871000  0.64504000  1.0
  H  H15  1  0.26316000  0.32918000  0.46413000  1.0
  H  H16  1  0.67082000  0.73684000  0.53587000  1.0
  H  H17  1  0.02513000  0.60402000  0.45421000  1.0
  H  H18  1  0.39598000  0.97487000  0.54579000  1.0
  C  C19  1  0.25095000  0.22901000  0.18008000  1.0
  C  C20  1  0.77099000  0.74905000  0.81992000  1.0
  C  C21  1  0.41366000  0.25430000  0.12350000  1.0
  C  C22  1  0.74569000  0.58634000  0.87650000  1.0
  C  C23  1  0.55928000  0.11350000  0.12146000  1.0
  C  C24  1  0.88650000  0.44071000  0.87854000  1.0
  C  C25  1  0.54199000  0.94663000  0.17788000  1.0
  C  C26  1  0.05337000  0.45801000  0.82212000  1.0
  C  C27  1  0.37290000  0.93287000  0.23511000  1.0
  C  C28  1  0.06713000  0.62710000  0.76489000  1.0
  C  C29  1  0.68500000  0.79355000  0.17973000  1.0
  C  C30  1  0.20645000  0.31500000  0.82027000  1.0
  C  C31  1  0.66216000  0.63488000  0.23471000  1.0
  C  C32  1  0.36512000  0.33784000  0.76529000  1.0
  C  C33  1  0.49309000  0.61681000  0.29494000  1.0
  C  C34  1  0.38320000  0.50691000  0.70506000  1.0
  C  C35  1  0.34818000  0.76603000  0.29632000  1.0
  C  C36  1  0.23397000  0.65182000  0.70368000  1.0
  C  C37  1  0.46167000  0.45585000  0.35576000  1.0
  C  C38  1  0.54415000  0.53833000  0.64424000  1.0
  C  C39  1  0.29441000  0.44974000  0.41424000  1.0
  C  C40  1  0.55026000  0.70559000  0.58576000  1.0
  C  C41  1  0.15856000  0.60399000  0.41091000  1.0
  C  C42  1  0.39601000  0.84144000  0.58909000  1.0
  N  N43  1  0.23134000  0.07294000  0.23430000  1.0
  N  N44  1  0.92705000  0.76865000  0.76570000  1.0
  N  N45  1  0.18443000  0.75764000  0.35375000  1.0
  N  N46  1  0.24236000  0.81557000  0.64626000  1.0
  O  O47  1  0.85952000  0.23664000  0.25835000  1.0
  O  O48  1  0.76335000  0.14048000  0.74165000  1.0
  O  O49  1  0.81297000  0.91331000  0.38996000  1.0
  O  O50  1  0.08669000  0.18703000  0.61003000  1.0
  O  O51  1  0.98092000  0.01908000  0.50000000  1.0
  O  O52  1  0.05753000  0.98131000  0.12482000  1.0
  O  O53  1  0.01869000  0.94247000  0.87518000  1.0
  O  O54  1  0.36356000  0.84722000  0.90818000  1.0
  O  O55  1  0.15278000  0.63645000  0.09181000  1.0
