# generated using pymatgen
data_ZnH7C9N3O7
_symmetry_space_group_name_H-M   'P 1'
_cell_length_a   10.11300000
_cell_length_b   15.76810000
_cell_length_c   15.76833697
_cell_angle_alpha   115.53587265
_cell_angle_beta   102.32004121
_cell_angle_gamma   102.36100000
_symmetry_Int_Tables_number   1
_chemical_formula_structural   ZnH7C9N3O7
_chemical_formula_sum   'Zn6 H42 C54 N18 O42'
_cell_volume   2078.71638451
_cell_formula_units_Z   6
loop_
 _symmetry_equiv_pos_site_id
 _symmetry_equiv_pos_as_xyz
  1  'x, y, z'
loop_
 _atom_site_type_symbol
 _atom_site_label
 _atom_site_symmetry_multiplicity
 _atom_site_fract_x
 _atom_site_fract_y
 _atom_site_fract_z
 _atom_site_occupancy
  Zn  Zn0  1  0.20203000  0.30265000  0.67958000  1.0
  Zn  Zn1  1  0.89906000  0.37670000  0.69710000  1.0
  Zn  Zn2  1  0.52246000  0.32047000  0.62317000  1.0
  Zn  Zn3  1  0.00921000  0.61949000  0.31567000  1.0
  Zn  Zn4  1  0.38975000  0.69624000  0.38054000  1.0
  Zn  Zn5  1  0.69355000  0.68430000  0.30361000  1.0
  H  H6  1  0.21535000  0.15202000  0.33356000  1.0
  H  H7  1  0.06341000  0.18174333  0.84841000  1.0
  H  H8  1  0.88144000  0.66649000  0.81825000  1.0
  H  H9  1  0.95136000  0.03495000  0.34274000  1.0
  H  H10  1  0.91662000  0.30821000  0.96529000  1.0
  H  H11  1  0.60846000  0.65734000  0.69200000  1.0
  H  H12  1  0.98952000  0.16629000  0.25336000  1.0
  H  H13  1  0.82356000  0.08736000  0.83449000  1.0
  H  H14  1  0.73558000  0.74665000  0.91254000  1.0
  H  H15  1  0.09495000  0.28163000  0.36433000  1.0
  H  H16  1  0.81339000  0.08282000  0.71901000  1.0
  H  H17  1  0.73013000  0.63568000  0.91699000  1.0
  H  H18  1  0.94259000  0.19907000  0.36365000  1.0
  H  H19  1  0.74354000  0.16466000  0.80150000  1.0
  H  H20  1  0.57849000  0.63629000  0.83510000  1.0
  H  H21  1  0.81815000  0.88813000  0.31383000  1.0
  H  H22  1  0.93007000  0.42603000  0.11181000  1.0
  H  H23  1  0.50411000  0.68589000  0.57391000  1.0
  H  H24  1  0.20573000  0.81079000  0.31674000  1.0
  H  H25  1  0.39495000  0.50591000  0.18942000  1.0
  H  H26  1  0.88917000  0.68361000  0.49397000  1.0
  H  H27  1  0.50749000  0.36715000  0.17974000  1.0
  H  H28  1  0.13997000  0.81244000  0.63272000  1.0
  H  H29  1  0.32788000  0.82016000  0.18734000  1.0
  H  H30  1  0.44248000  0.34283000  0.02812000  1.0
  H  H31  1  0.09930000  0.68514000  0.65711000  1.0
  H  H32  1  0.41425000  0.97179000  0.31474000  1.0
  H  H33  1  0.60080000  0.22549000  0.13408000  1.0
  H  H34  1  0.37457000  0.90856000  0.77461000  1.0
  H  H35  1  0.46712000  0.86637000  0.09158000  1.0
  H  H36  1  0.69434000  0.32531000  0.25848000  1.0
  H  H37  1  0.36855000  0.93328000  0.67481000  1.0
  H  H38  1  0.43630000  0.74183000  0.06670000  1.0
  H  H39  1  0.77641000  0.31016000  0.16576000  1.0
  H  H40  1  0.46599000  0.85593000  0.69020000  1.0
  H  H41  1  0.61093000  0.83457000  0.14441000  1.0
  H  H42  1  0.31250000  0.29933000  0.87766000  1.0
  H  H43  1  0.01297000  0.57799000  0.70037000  1.0
  H  H44  1  0.43477000  0.12249000  0.42175000  1.0
  H  H45  1  0.71805000  0.33033000  0.82276000  1.0
  H  H46  1  0.38777000  0.49232000  0.66980000  1.0
  H  H47  1  0.89512000  0.17723000  0.50750000  1.0
  C  C48  1  0.20826000  0.21405000  0.48175000  1.0
  C  C49  1  0.99412000  0.26771000  0.78608000  1.0
  C  C50  1  0.72626000  0.51830000  0.73202000  1.0
  C  C51  1  0.13123000  0.15278000  0.36740000  1.0
  C  C52  1  0.97851000  0.21482000  0.84760000  1.0
  C  C53  1  0.76353000  0.63267000  0.78514000  1.0
  C  C54  1  0.03275000  0.20284000  0.33537000  1.0
  C  C55  1  0.83003000  0.13271000  0.79777000  1.0
  C  C56  1  0.69691000  0.66462000  0.86714000  1.0
  C  C57  1  0.12052000  0.98267000  0.32420000  1.0
  C  C58  1  0.13799000  0.34175000  0.01759000  1.0
  C  C59  1  0.79619000  0.67584000  0.65822000  1.0
  C  C60  1  0.04245000  0.88822000  0.31578000  1.0
  C  C61  1  0.15430000  0.42773000  0.11199000  1.0
  C  C62  1  0.72661000  0.68424000  0.57218000  1.0
  C  C63  1  0.90156000  0.85460000  0.31475000  1.0
  C  C64  1  0.04700000  0.46040000  0.14546000  1.0
  C  C65  1  0.58667000  0.68504000  0.53950000  1.0
  C  C66  1  0.09860000  0.81364000  0.31414000  1.0
  C  C67  1  0.28500000  0.50058000  0.18658000  1.0
  C  C68  1  0.78450000  0.68599000  0.49929000  1.0
  C  C69  1  0.69595000  0.48218000  0.21445000  1.0
  C  C70  1  0.21395000  0.73242000  0.51792000  1.0
  C  C71  1  0.48172000  0.78559000  0.26765000  1.0
  C  C72  1  0.60209000  0.36988000  0.15565000  1.0
  C  C73  1  0.23197000  0.78577000  0.63015000  1.0
  C  C74  1  0.44656000  0.84440000  0.21416000  1.0
  C  C75  1  0.67419000  0.30359000  0.17952000  1.0
  C  C76  1  0.37016000  0.87605000  0.69658000  1.0
  C  C77  1  0.49495000  0.82076000  0.12407000  1.0
  C  C78  1  0.61894000  0.32677000  0.98631000  1.0
  C  C79  1  0.29207000  0.65962000  0.67330000  1.0
  C  C80  1  0.63250000  0.01373000  0.34040000  1.0
  C  C81  1  0.54409000  0.31560000  0.88936000  1.0
  C  C82  1  0.22849000  0.57366000  0.68434000  1.0
  C  C83  1  0.65459000  0.11063000  0.42624000  1.0
  C  C84  1  0.40012000  0.30546000  0.84854000  1.0
  C  C85  1  0.09452000  0.54284000  0.69432000  1.0
  C  C86  1  0.55147000  0.15151000  0.45696000  1.0
  C  C87  1  0.60707000  0.32031000  0.81953000  1.0
  C  C88  1  0.28677000  0.49915000  0.67970000  1.0
  C  C89  1  0.78736000  0.18040000  0.50071000  1.0
  C  C90  1  0.60052000  0.86729000  0.87388000  1.0
  C  C91  1  0.73364000  0.00680000  0.13245000  1.0
  C  C92  1  0.72552000  0.12595000  0.99299000  1.0
  C  C93  1  0.59015000  0.60171000  0.03850000  1.0
  C  C94  1  0.98808000  0.43729000  0.39893000  1.0
  C  C95  1  0.55304000  0.96116000  0.56323000  1.0
  C  C96  1  0.16954000  0.82501000  0.88637000  1.0
  C  C97  1  0.34454000  0.05957000  0.17406000  1.0
  C  C98  1  0.28468000  0.11314000  0.93958000  1.0
  C  C99  1  0.00722000  0.98134000  0.56313000  1.0
  C  C100  1  0.02606000  0.58241000  0.01900000  1.0
  C  C101  1  0.44437000  0.43676000  0.41810000  1.0
  N  N102  1  0.05189000  0.05015000  0.33706000  1.0
  N  N103  1  0.00188000  0.28720000  0.95014000  1.0
  N  N104  1  0.71467000  0.66309000  0.71290000  1.0
  N  N105  1  0.87685000  0.76698000  0.31299000  1.0
  N  N106  1  0.10988000  0.54625000  0.23303000  1.0
  N  N107  1  0.56373000  0.68674000  0.45362000  1.0
  N  N108  1  0.99767000  0.74119000  0.31233000  1.0
  N  N109  1  0.25650000  0.57127000  0.25892000  1.0
  N  N110  1  0.68534000  0.68762000  0.42859000  1.0
  N  N111  1  0.54299000  0.33863000  0.04939000  1.0
  N  N112  1  0.20406000  0.71068000  0.66136000  1.0
  N  N113  1  0.49350000  0.95064000  0.28916000  1.0
  N  N114  1  0.37971000  0.30419000  0.76128000  1.0
  N  N115  1  0.07531000  0.45683000  0.69557000  1.0
  N  N116  1  0.61831000  0.23873000  0.54290000  1.0
  N  N117  1  0.50723000  0.31365000  0.74306000  1.0
  N  N118  1  0.19346000  0.42926000  0.68627000  1.0
  N  N119  1  0.76399000  0.25689000  0.57051000  1.0
  O  O120  1  0.13665000  0.20046000  0.53503000  1.0
  O  O121  1  0.93585000  0.33439000  0.79939000  1.0
  O  O122  1  0.60135000  0.46504000  0.66529000  1.0
  O  O123  1  0.33562000  0.27555000  0.51488000  1.0
  O  O124  1  0.06020000  0.23940000  0.72472000  1.0
  O  O125  1  0.82054000  0.48513000  0.76020000  1.0
  O  O126  1  0.24640000  0.00156000  0.32190000  1.0
  O  O127  1  0.24499000  0.32056000  0.99875000  1.0
  O  O128  1  0.92429000  0.67803000  0.67935000  1.0
  O  O129  1  0.82465000  0.50968000  0.27140000  1.0
  O  O130  1  0.31548000  0.76184000  0.49060000  1.0
  O  O131  1  0.55353000  0.72868000  0.23817000  1.0
  O  O132  1  0.63329000  0.54022000  0.20185000  1.0
  O  O133  1  0.09324000  0.66190000  0.45977000  1.0
  O  O134  1  0.43168000  0.79813000  0.33830000  1.0
  O  O135  1  0.74572000  0.32651000  0.00861000  1.0
  O  O136  1  0.41918000  0.68249000  0.67371000  1.0
  O  O137  1  0.73698000  0.99147000  0.31778000  1.0
  O  O138  1  0.50918000  0.84568000  0.90390000  1.0
  O  O139  1  0.66370000  0.05825000  0.15400000  1.0
  O  O140  1  0.60413000  0.09596000  0.94154000  1.0
  O  O141  1  0.69429000  0.89124000  0.84681000  1.0
  O  O142  1  0.80365000  0.95595000  0.10858000  1.0
  O  O143  1  0.84639000  0.15300000  0.04383000  1.0
  O  O144  1  0.46796000  0.55125000  0.99341000  1.0
  O  O145  1  0.91627000  0.44261000  0.44936000  1.0
  O  O146  1  0.47640000  0.00656000  0.55790000  1.0
  O  O147  1  0.71267000  0.65219000  0.08205000  1.0
  O  O148  1  0.06021000  0.43043000  0.34848000  1.0
  O  O149  1  0.63154000  0.91729000  0.57011000  1.0
  O  O150  1  0.15941000  0.76017000  0.90555000  1.0
  O  O151  1  0.39971000  0.14362000  0.23861000  1.0
  O  O152  1  0.25490000  0.09414000  0.85564000  1.0
  O  O153  1  0.17977000  0.89027000  0.86778000  1.0
  O  O154  1  0.28903000  0.97568000  0.10905000  1.0
  O  O155  1  0.31396000  0.13156000  0.02337000  1.0
  O  O156  1  0.91276000  0.01100000  0.54771000  1.0
  O  O157  1  0.90198000  0.53696000  0.98874000  1.0
  O  O158  1  0.36547000  0.45260000  0.46326000  1.0
  O  O159  1  0.10132000  0.95120000  0.57861000  1.0
  O  O160  1  0.15025000  0.62840000  0.04974000  1.0
  O  O161  1  0.52282000  0.42087000  0.37238000  1.0
