# generated using pymatgen
data_Bi2H3C7NO6
_symmetry_space_group_name_H-M   'P 1'
_cell_length_a   4.25892000
_cell_length_b   9.67878000
_cell_length_c   12.06370000
_cell_angle_alpha   109.75700000
_cell_angle_beta   89.99880000
_cell_angle_gamma   89.99990000
_symmetry_Int_Tables_number   1
_chemical_formula_structural   Bi2H3C7NO6
_chemical_formula_sum   'Bi4 H6 C14 N2 O12'
_cell_volume   468.00708373
_cell_formula_units_Z   2
loop_
 _symmetry_equiv_pos_site_id
 _symmetry_equiv_pos_as_xyz
  1  'x, y, z'
loop_
 _atom_site_type_symbol
 _atom_site_label
 _atom_site_symmetry_multiplicity
 _atom_site_fract_x
 _atom_site_fract_y
 _atom_site_fract_z
 _atom_site_occupancy
  Bi  Bi0  1  0.79469000  0.65065000  0.86624000  1.0
  Bi  Bi1  1  0.29459000  0.34937000  0.13373000  1.0
  Bi  Bi2  1  0.32676000  0.96001000  0.87130000  1.0
  Bi  Bi3  1  0.82676000  0.03999000  0.12870000  1.0
  H  H4  1  0.03443000  0.12405000  0.71221000  1.0
  H  H5  1  0.53443000  0.87595000  0.28780000  1.0
  H  H6  1  0.02064000  0.07200000  0.49350000  1.0
  H  H7  1  0.52063000  0.92800000  0.50651000  1.0
  H  H8  1  0.58034000  0.46103000  0.54987000  1.0
  H  H9  1  0.08035000  0.53896000  0.45013000  1.0
  C  C10  1  0.33845000  0.31296000  0.74218000  1.0
  C  C11  1  0.83846000  0.68705000  0.25782000  1.0
  C  C12  1  0.15896000  0.19417000  0.67289000  1.0
  C  C13  1  0.65898000  0.80582000  0.32711000  1.0
  C  C14  1  0.14718000  0.16639000  0.55208000  1.0
  C  C15  1  0.64717000  0.83361000  0.44794000  1.0
  C  C16  1  0.30212000  0.26090000  0.50468000  1.0
  C  C17  1  0.80213000  0.73910000  0.49533000  1.0
  C  C18  1  0.46101000  0.38227000  0.58194000  1.0
  C  C19  1  0.96102000  0.61773000  0.41806000  1.0
  C  C20  1  0.38724000  0.34173000  0.87164000  1.0
  C  C21  1  0.88724000  0.65828000  0.12836000  1.0
  C  C22  1  0.30400000  0.22840000  0.37340000  1.0
  C  C23  1  0.80402000  0.77160000  0.62660000  1.0
  N  N24  1  0.48466000  0.40600000  0.69746000  1.0
  N  N25  1  0.98468000  0.59400000  0.30253000  1.0
  O  O26  1  0.56480000  0.44430000  0.92926000  1.0
  O  O27  1  0.06480000  0.55570000  0.07074000  1.0
  O  O28  1  0.24375000  0.25691000  0.91745000  1.0
  O  O29  1  0.74377000  0.74309000  0.08256000  1.0
  O  O30  1  0.35546000  0.33555000  0.33685000  1.0
  O  O31  1  0.85547000  0.66444000  0.66315000  1.0
  O  O32  1  0.25662000  0.09572000  0.30970000  1.0
  O  O33  1  0.75665000  0.90428000  0.69031000  1.0
  O  O34  1  0.32748000  0.73817000  0.86845000  1.0
  O  O35  1  0.82743000  0.26183000  0.13153000  1.0
  O  O36  1  0.82651000  0.92407000  0.93526000  1.0
  O  O37  1  0.32650000  0.07591000  0.06472000  1.0
