# generated using pymatgen
data_ZnH2(CO2)2
_symmetry_space_group_name_H-M   'P 1'
_cell_length_a   7.70109000
_cell_length_b   12.60880000
_cell_length_c   13.66970000
_cell_angle_alpha   90.00000000
_cell_angle_beta   90.00000000
_cell_angle_gamma   101.36800000
_symmetry_Int_Tables_number   1
_chemical_formula_structural   ZnH2(CO2)2
_chemical_formula_sum   'Zn12 H24 C24 O48'
_cell_volume   1301.30772500
_cell_formula_units_Z   12
loop_
 _symmetry_equiv_pos_site_id
 _symmetry_equiv_pos_as_xyz
  1  'x, y, z'
loop_
 _atom_site_type_symbol
 _atom_site_label
 _atom_site_symmetry_multiplicity
 _atom_site_fract_x
 _atom_site_fract_y
 _atom_site_fract_z
 _atom_site_occupancy
  Zn  Zn0  1  0.49958000  0.10325000  0.51167000  1.0
  Zn  Zn1  1  0.50042000  0.89675000  0.01167000  1.0
  Zn  Zn2  1  0.80196000  0.99846000  0.61691000  1.0
  Zn  Zn3  1  0.19804000  0.00154000  0.11691000  1.0
  Zn  Zn4  1  0.09375000  0.92460000  0.49566000  1.0
  Zn  Zn5  1  0.90625000  0.07540000  0.99566000  1.0
  Zn  Zn6  1  0.26948000  0.42577000  0.26229000  1.0
  Zn  Zn7  1  0.73052000  0.57423000  0.76229000  1.0
  Zn  Zn8  1  0.63110000  0.52332000  0.37670000  1.0
  Zn  Zn9  1  0.36890000  0.47668000  0.87670000  1.0
  Zn  Zn10  1  0.01603000  0.41505000  0.74543000  1.0
  Zn  Zn11  1  0.98397000  0.58495000  0.24543000  1.0
  H  H12  1  0.67548000  0.29229000  0.63683000  1.0
  H  H13  1  0.32452000  0.70771000  0.13683000  1.0
  H  H14  1  0.47774000  0.79548000  0.62566000  1.0
  H  H15  1  0.52226000  0.20452000  0.12566000  1.0
  H  H16  1  0.26285000  0.24858000  0.42089000  1.0
  H  H17  1  0.73715000  0.75142000  0.92089000  1.0
  H  H18  1  0.87921000  0.04508000  0.32013000  1.0
  H  H19  1  0.12079000  0.95492000  0.82013000  1.0
  H  H20  1  0.42608000  0.09153000  0.29771000  1.0
  H  H21  1  0.57392000  0.90847000  0.79771000  1.0
  H  H22  1  0.95589000  0.71106000  0.63093000  1.0
  H  H23  1  0.04411000  0.28894000  0.13093000  1.0
  H  H24  1  0.14150000  0.15691000  0.71142000  1.0
  H  H25  1  0.85850000  0.84309000  0.21142000  1.0
  H  H26  1  0.25721000  0.70522000  0.41326000  1.0
  H  H27  1  0.74279000  0.29478000  0.91326000  1.0
  H  H28  1  0.05486000  0.53900000  0.02053000  1.0
  H  H29  1  0.94514000  0.46100000  0.52053000  1.0
  H  H30  1  0.54094000  0.49615000  0.08258000  1.0
  H  H31  1  0.45906000  0.50385000  0.58258000  1.0
  H  H32  1  0.78743000  0.29797000  0.38282000  1.0
  H  H33  1  0.21257000  0.70203000  0.88282000  1.0
  H  H34  1  0.75911000  0.77103000  0.42953000  1.0
  H  H35  1  0.24089000  0.22897000  0.92953000  1.0
  C  C36  1  0.77242000  0.23845000  0.64155000  1.0
  C  C37  1  0.22758000  0.76155000  0.14155000  1.0
  C  C38  1  0.42135000  0.86012000  0.59028000  1.0
  C  C39  1  0.57865000  0.13988000  0.09028000  1.0
  C  C40  1  0.39741000  0.29913000  0.42527000  1.0
  C  C41  1  0.60259000  0.70087000  0.92527000  1.0
  C  C42  1  0.80593000  0.04349000  0.39004000  1.0
  C  C43  1  0.19407000  0.95651000  0.89004000  1.0
  C  C44  1  0.30177000  0.04114000  0.32468000  1.0
  C  C45  1  0.69823000  0.95886000  0.82468000  1.0
  C  C46  1  0.84961000  0.75752000  0.64085000  1.0
  C  C47  1  0.15039000  0.24248000  0.14085000  1.0
  C  C48  1  0.19595000  0.11537000  0.65111000  1.0
  C  C49  1  0.80405000  0.88463000  0.15111000  1.0
  C  C50  1  0.31518000  0.63670000  0.38752000  1.0
  C  C51  1  0.68482000  0.36330000  0.88752000  1.0
  C  C52  1  0.14967000  0.50046000  0.06154000  1.0
  C  C53  1  0.85033000  0.49954000  0.56154000  1.0
  C  C54  1  0.62008000  0.52010000  0.14905000  1.0
  C  C55  1  0.37993000  0.47990000  0.64905000  1.0
  C  C56  1  0.88893000  0.35850000  0.34527000  1.0
  C  C57  1  0.11107000  0.64150000  0.84527000  1.0
  C  C58  1  0.87067000  0.74548000  0.39164000  1.0
  C  C59  1  0.12933000  0.25452000  0.89164000  1.0
  O  O60  1  0.72643000  0.14625000  0.59958000  1.0
  O  O61  1  0.27357000  0.85375000  0.09958000  1.0
  O  O62  1  0.91688000  0.26756000  0.68506000  1.0
  O  O63  1  0.08312000  0.73244000  0.18506000  1.0
  O  O64  1  0.52745000  0.95163000  0.57941000  1.0
  O  O65  1  0.47255000  0.04837000  0.07941000  1.0
  O  O66  1  0.26167000  0.83805000  0.56442000  1.0
  O  O67  1  0.73834000  0.16195000  0.06442000  1.0
  O  O68  1  0.52176000  0.26368000  0.46444000  1.0
  O  O69  1  0.47824000  0.73632000  0.96444000  1.0
  O  O70  1  0.41464000  0.39395000  0.38792000  1.0
  O  O71  1  0.58536000  0.60605000  0.88792000  1.0
  O  O72  1  0.67268000  0.08739000  0.39215000  1.0
  O  O73  1  0.32732000  0.91261000  0.89215000  1.0
  O  O74  1  0.86529000  0.99645000  0.46191000  1.0
  O  O75  1  0.13471000  0.00355000  0.96190000  1.0
  O  O76  1  0.28874000  0.03110000  0.41854000  1.0
  O  O77  1  0.71126000  0.96890000  0.91854000  1.0
  O  O78  1  0.18327000  0.99720000  0.26669000  1.0
  O  O79  1  0.81673000  0.00280000  0.76669000  1.0
  O  O80  1  0.87388000  0.84862000  0.59720000  1.0
  O  O81  1  0.12612000  0.15138000  0.09720000  1.0
  O  O82  1  0.71580000  0.71916000  0.69229000  1.0
  O  O83  1  0.28420000  0.28084000  0.19229000  1.0
  O  O84  1  0.08588000  0.04042000  0.60804000  1.0
  O  O85  1  0.91412000  0.95958000  0.10804000  1.0
  O  O86  1  0.35673000  0.14515000  0.62988000  1.0
  O  O87  1  0.64327000  0.85485000  0.12988000  1.0
  O  O88  1  0.21921000  0.57091000  0.32803000  1.0
  O  O89  1  0.78079000  0.42909000  0.82803000  1.0
  O  O90  1  0.46622000  0.62952000  0.41841000  1.0
  O  O91  1  0.53378000  0.37048000  0.91841000  1.0
  O  O92  1  0.12359000  0.49133000  0.15414000  1.0
  O  O93  1  0.87641000  0.50867000  0.65414000  1.0
  O  O94  1  0.27258000  0.46702000  0.01880000  1.0
  O  O95  1  0.72742000  0.53298000  0.51880000  1.0
  O  O96  1  0.53337000  0.50805000  0.23032000  1.0
  O  O97  1  0.46663000  0.49195000  0.73032000  1.0
  O  O98  1  0.78308000  0.55602000  0.13972000  1.0
  O  O99  1  0.21692000  0.44398000  0.63972000  1.0
  O  O100  1  0.84478000  0.44923000  0.32510000  1.0
  O  O101  1  0.15522000  0.55077000  0.82510000  1.0
  O  O102  1  0.03533000  0.33376000  0.32596000  1.0
  O  O103  1  0.96466000  0.66624000  0.82596000  1.0
  O  O104  1  0.83124000  0.65901000  0.34046000  1.0
  O  O105  1  0.16876000  0.34099000  0.84046000  1.0
  O  O106  1  0.02555000  0.79973000  0.39983000  1.0
  O  O107  1  0.97445000  0.20027000  0.89983000  1.0
