# generated using pymatgen
data_ZnH6(C3N2)2
_symmetry_space_group_name_H-M   'P 1'
_cell_length_a   16.52480000
_cell_length_b   27.25560000
_cell_length_c   27.25570000
_cell_angle_alpha   59.99963589
_cell_angle_beta   89.99990000
_cell_angle_gamma   90.00010000
_symmetry_Int_Tables_number   1
_chemical_formula_structural   ZnH6(C3N2)2
_chemical_formula_sum   'Zn24 H144 C144 N96'
_cell_volume   10631.10328516
_cell_formula_units_Z   24
loop_
 _symmetry_equiv_pos_site_id
 _symmetry_equiv_pos_as_xyz
  1  'x, y, z'
loop_
 _atom_site_type_symbol
 _atom_site_label
 _atom_site_symmetry_multiplicity
 _atom_site_fract_x
 _atom_site_fract_y
 _atom_site_fract_z
 _atom_site_occupancy
  Zn  Zn0  1  0.68642000  0.66476000  0.87489000  1.0
  Zn  Zn1  1  0.68642000  0.46036000  0.66476000  1.0
  Zn  Zn2  1  0.68642000  0.87488000  0.46036000  1.0
  Zn  Zn3  1  0.68642000  0.33523000  0.12512000  1.0
  Zn  Zn4  1  0.68642000  0.53964000  0.33524000  1.0
  Zn  Zn5  1  0.68642000  0.12511000  0.53965000  1.0
  Zn  Zn6  1  0.81358000  0.12512000  0.33524000  1.0
  Zn  Zn7  1  0.81358000  0.33524000  0.53964000  1.0
  Zn  Zn8  1  0.81358000  0.53964000  0.12512000  1.0
  Zn  Zn9  1  0.81358000  0.87488000  0.66476000  1.0
  Zn  Zn10  1  0.81358000  0.66476000  0.46036000  1.0
  Zn  Zn11  1  0.81358000  0.46035000  0.87489000  1.0
  Zn  Zn12  1  0.31358000  0.33524000  0.12511000  1.0
  Zn  Zn13  1  0.31358000  0.53964000  0.33524000  1.0
  Zn  Zn14  1  0.31358000  0.12511000  0.53965000  1.0
  Zn  Zn15  1  0.31358000  0.66476000  0.87489000  1.0
  Zn  Zn16  1  0.31358000  0.46036000  0.66476000  1.0
  Zn  Zn17  1  0.31358000  0.87489000  0.46035000  1.0
  Zn  Zn18  1  0.18642000  0.87488000  0.66477000  1.0
  Zn  Zn19  1  0.18642000  0.66476000  0.46036000  1.0
  Zn  Zn20  1  0.18642000  0.46035000  0.87489000  1.0
  Zn  Zn21  1  0.18642000  0.12512000  0.33523000  1.0
  Zn  Zn22  1  0.18642000  0.33524000  0.53964000  1.0
  Zn  Zn23  1  0.18642000  0.53965000  0.12511000  1.0
  H  H24  1  0.72003000  0.78355000  0.87582000  1.0
  H  H25  1  0.72004000  0.34063000  0.78355000  1.0
  H  H26  1  0.72003000  0.87583000  0.34063000  1.0
  H  H27  1  0.72003000  0.21645000  0.12418000  1.0
  H  H28  1  0.72003000  0.65937000  0.21645000  1.0
  H  H29  1  0.72002000  0.12418000  0.65936000  1.0
  H  H30  1  0.77997000  0.12418000  0.21645000  1.0
  H  H31  1  0.77996000  0.21645000  0.65937000  1.0
  H  H32  1  0.77996000  0.65937000  0.12418000  1.0
  H  H33  1  0.77997000  0.87582000  0.78355000  1.0
  H  H34  1  0.77996000  0.78355000  0.34063000  1.0
  H  H35  1  0.77996000  0.34063000  0.87582000  1.0
  H  H36  1  0.27997000  0.21645000  0.12418000  1.0
  H  H37  1  0.27996000  0.65937000  0.21645000  1.0
  H  H38  1  0.27997000  0.12418000  0.65936000  1.0
  H  H39  1  0.27997000  0.78355000  0.87582000  1.0
  H  H40  1  0.27996000  0.34063000  0.78354000  1.0
  H  H41  1  0.27997000  0.87582000  0.34064000  1.0
  H  H42  1  0.22003000  0.87582000  0.78355000  1.0
  H  H43  1  0.22003000  0.78354000  0.34064000  1.0
  H  H44  1  0.22003000  0.34063000  0.87582000  1.0
  H  H45  1  0.22003000  0.12418000  0.21645000  1.0
  H  H46  1  0.22004000  0.21645000  0.65937000  1.0
  H  H47  1  0.22003000  0.65937000  0.12418000  1.0
  H  H48  1  0.75000000  0.74532000  0.74532000  1.0
  H  H49  1  0.75000000  0.50937000  0.74531000  1.0
  H  H50  1  0.75000000  0.74532000  0.50936000  1.0
  H  H51  1  0.75000000  0.25468000  0.25468000  1.0
  H  H52  1  0.75000000  0.49063000  0.25468000  1.0
  H  H53  1  0.75000000  0.25468000  0.49064000  1.0
  H  H54  1  0.25000000  0.25468000  0.25468000  1.0
  H  H55  1  0.25000000  0.49063000  0.25469000  1.0
  H  H56  1  0.25000000  0.25468000  0.49063000  1.0
  H  H57  1  0.25000000  0.74532000  0.74532000  1.0
  H  H58  1  0.25000000  0.50936000  0.74532000  1.0
  H  H59  1  0.25000000  0.74532000  0.50937000  1.0
  H  H60  1  0.71093000  0.66799000  0.75345000  1.0
  H  H61  1  0.71093000  0.57856000  0.66800000  1.0
  H  H62  1  0.71092000  0.75344000  0.57856000  1.0
  H  H63  1  0.71092000  0.33200000  0.24656000  1.0
  H  H64  1  0.71093000  0.42144000  0.33200000  1.0
  H  H65  1  0.71092000  0.24655000  0.42145000  1.0
  H  H66  1  0.78907000  0.24656000  0.33200000  1.0
  H  H67  1  0.78908000  0.33200000  0.42145000  1.0
  H  H68  1  0.78907000  0.42144000  0.24655000  1.0
  H  H69  1  0.78907000  0.75344000  0.66800000  1.0
  H  H70  1  0.78908000  0.66800000  0.57855000  1.0
  H  H71  1  0.78907000  0.57855000  0.75346000  1.0
  H  H72  1  0.28907000  0.33200000  0.24655000  1.0
  H  H73  1  0.28907000  0.42144000  0.33200000  1.0
  H  H74  1  0.28908000  0.24655000  0.42144000  1.0
  H  H75  1  0.28907000  0.66800000  0.75345000  1.0
  H  H76  1  0.28907000  0.57856000  0.66800000  1.0
  H  H77  1  0.28908000  0.75344000  0.57857000  1.0
  H  H78  1  0.21092000  0.75345000  0.66799000  1.0
  H  H79  1  0.21092000  0.66800000  0.57855000  1.0
  H  H80  1  0.21092000  0.57855000  0.75346000  1.0
  H  H81  1  0.21093000  0.24656000  0.33200000  1.0
  H  H82  1  0.21092000  0.33201000  0.42144000  1.0
  H  H83  1  0.21093000  0.42144000  0.24656000  1.0
  H  H84  1  0.75000000  0.53909000  0.92182000  1.0
  H  H85  1  0.74999000  0.53909000  0.53910000  1.0
  H  H86  1  0.75000000  0.92181000  0.53910000  1.0
  H  H87  1  0.75000000  0.46090000  0.07819000  1.0
  H  H88  1  0.75000000  0.46091000  0.46090000  1.0
  H  H89  1  0.75000000  0.07818000  0.46091000  1.0
  H  H90  1  0.25000000  0.46091000  0.07818000  1.0
  H  H91  1  0.25001000  0.46091000  0.46091000  1.0
  H  H92  1  0.25000000  0.07818000  0.46091000  1.0
  H  H93  1  0.25000000  0.53909000  0.92182000  1.0
  H  H94  1  0.25000000  0.53909000  0.53909000  1.0
  H  H95  1  0.25000000  0.92182000  0.53909000  1.0
  H  H96  1  0.72658000  0.72095000  0.94480000  1.0
  H  H97  1  0.72656000  0.33426000  0.72095000  1.0
  H  H98  1  0.72658000  0.94479000  0.33426000  1.0
  H  H99  1  0.72657000  0.27905000  0.05521000  1.0
  H  H100  1  0.72657000  0.66574000  0.27905000  1.0
  H  H101  1  0.72658000  0.05521000  0.66573000  1.0
  H  H102  1  0.77343000  0.05521000  0.27906000  1.0
  H  H103  1  0.77342000  0.27905000  0.66574000  1.0
  H  H104  1  0.77342000  0.66573000  0.05522000  1.0
  H  H105  1  0.77343000  0.94479000  0.72095000  1.0
  H  H106  1  0.77343000  0.72095000  0.33426000  1.0
  H  H107  1  0.77343000  0.33426000  0.94479000  1.0
  H  H108  1  0.27343000  0.27905000  0.05521000  1.0
  H  H109  1  0.27344000  0.66574000  0.27905000  1.0
  H  H110  1  0.27342000  0.05521000  0.66574000  1.0
  H  H111  1  0.27343000  0.72095000  0.94479000  1.0
  H  H112  1  0.27343000  0.33426000  0.72096000  1.0
  H  H113  1  0.27342000  0.94479000  0.33426000  1.0
  H  H114  1  0.22656000  0.94479000  0.72095000  1.0
  H  H115  1  0.22658000  0.72096000  0.33425000  1.0
  H  H116  1  0.22657000  0.33426000  0.94479000  1.0
  H  H117  1  0.22657000  0.05522000  0.27904000  1.0
  H  H118  1  0.22658000  0.27905000  0.66575000  1.0
  H  H119  1  0.22658000  0.66574000  0.05521000  1.0
  H  H120  1  0.75000000  0.54737000  1.00000000  1.0
  H  H121  1  0.75000000  0.45264000  0.54736000  1.0
  H  H122  1  0.75000000  0.00000000  0.45264000  1.0
  H  H123  1  0.75000000  0.45263000  0.00000000  1.0
  H  H124  1  0.75001000  0.54737000  0.45263000  1.0
  H  H125  1  0.75000000  0.00000000  0.54736000  1.0
  H  H126  1  0.25000000  0.45263000  0.00000000  1.0
  H  H127  1  0.24999000  0.54737000  0.45263000  1.0
  H  H128  1  0.25001000  0.00000000  0.54736000  1.0
  H  H129  1  0.25000000  0.54737000  1.00000000  1.0
  H  H130  1  0.25001000  0.45263000  0.54737000  1.0
  H  H131  1  0.25000000  0.00001000  0.45262000  1.0
  H  H132  1  0.58334000  0.73674000  0.90876000  1.0
  H  H133  1  0.58334000  0.35450000  0.73675000  1.0
  H  H134  1  0.58334000  0.90876000  0.35450000  1.0
  H  H135  1  0.58334000  0.26326000  0.09124000  1.0
  H  H136  1  0.58334000  0.64550000  0.26325000  1.0
  H  H137  1  0.58334000  0.09124000  0.64550000  1.0
  H  H138  1  0.91666000  0.09124000  0.26326000  1.0
  H  H139  1  0.91666000  0.26326000  0.64549000  1.0
  H  H140  1  0.91666000  0.64550000  0.09125000  1.0
  H  H141  1  0.91666000  0.90876000  0.73674000  1.0
  H  H142  1  0.91666000  0.73674000  0.35450000  1.0
  H  H143  1  0.91666000  0.35450000  0.90876000  1.0
  H  H144  1  0.41666000  0.26326000  0.09124000  1.0
  H  H145  1  0.41666000  0.64550000  0.26326000  1.0
  H  H146  1  0.41666000  0.09124000  0.64550000  1.0
  H  H147  1  0.41666000  0.73674000  0.90876000  1.0
  H  H148  1  0.41666000  0.35450000  0.73674000  1.0
  H  H149  1  0.41666000  0.90876000  0.35450000  1.0
  H  H150  1  0.08334000  0.90876000  0.73674000  1.0
  H  H151  1  0.08334000  0.73674000  0.35450000  1.0
  H  H152  1  0.08334000  0.35450000  0.90876000  1.0
  H  H153  1  0.08334000  0.09125000  0.26325000  1.0
  H  H154  1  0.08334000  0.26326000  0.64549000  1.0
  H  H155  1  0.08334000  0.64550000  0.09125000  1.0
  H  H156  1  0.50000000  0.62253000  0.85825000  1.0
  H  H157  1  0.50000000  0.51922000  0.62253000  1.0
  H  H158  1  0.50000000  0.85824000  0.51923000  1.0
  H  H159  1  0.50000000  0.37747000  0.14175000  1.0
  H  H160  1  0.50000000  0.48078000  0.37747000  1.0
  H  H161  1  0.50000000  0.14176000  0.48077000  1.0
  H  H162  1  0.00000000  0.14175000  0.37747000  1.0
  H  H163  1  0.00000000  0.37748000  0.48077000  1.0
  H  H164  1  0.00000000  0.48078000  0.14174000  1.0
  H  H165  1  0.00000000  0.85824000  0.62254000  1.0
  H  H166  1  0.00000000  0.62253000  0.51922000  1.0
  H  H167  1  0.00000000  0.51922000  0.85825000  1.0
  C  C168  1  0.73560000  0.78805000  0.83525000  1.0
  C  C169  1  0.73560000  0.37670000  0.78805000  1.0
  C  C170  1  0.73560000  0.83525000  0.37671000  1.0
  C  C171  1  0.73560000  0.21195000  0.16475000  1.0
  C  C172  1  0.73560000  0.62330000  0.21195000  1.0
  C  C173  1  0.73560000  0.16475000  0.62329000  1.0
  C  C174  1  0.76440000  0.16475000  0.21195000  1.0
  C  C175  1  0.76439000  0.21195000  0.62330000  1.0
  C  C176  1  0.76439000  0.62330000  0.16475000  1.0
  C  C177  1  0.76440000  0.83525000  0.78805000  1.0
  C  C178  1  0.76440000  0.78805000  0.37670000  1.0
  C  C179  1  0.76440000  0.37670000  0.83525000  1.0
  C  C180  1  0.26440000  0.21195000  0.16474000  1.0
  C  C181  1  0.26440000  0.62330000  0.21195000  1.0
  C  C182  1  0.26440000  0.16475000  0.62330000  1.0
  C  C183  1  0.26440000  0.78805000  0.83526000  1.0
  C  C184  1  0.26440000  0.37670000  0.78805000  1.0
  C  C185  1  0.26440000  0.83525000  0.37671000  1.0
  C  C186  1  0.23560000  0.83525000  0.78805000  1.0
  C  C187  1  0.23560000  0.78805000  0.37670000  1.0
  C  C188  1  0.23560000  0.37670000  0.83525000  1.0
  C  C189  1  0.23560000  0.16475000  0.21195000  1.0
  C  C190  1  0.23561000  0.21195000  0.62330000  1.0
  C  C191  1  0.23560000  0.62330000  0.16475000  1.0
  C  C192  1  0.75000000  0.76824000  0.76824000  1.0
  C  C193  1  0.75000000  0.46353000  0.76823000  1.0
  C  C194  1  0.75000000  0.76824000  0.46352000  1.0
  C  C195  1  0.75000000  0.23176000  0.23176000  1.0
  C  C196  1  0.75000000  0.53647000  0.23176000  1.0
  C  C197  1  0.75000000  0.23176000  0.53647000  1.0
  C  C198  1  0.25000000  0.23176000  0.23176000  1.0
  C  C199  1  0.25000000  0.53647000  0.23177000  1.0
  C  C200  1  0.25000000  0.23176000  0.53647000  1.0
  C  C201  1  0.25000000  0.76824000  0.76824000  1.0
  C  C202  1  0.25000000  0.46352000  0.76824000  1.0
  C  C203  1  0.25000000  0.76824000  0.46353000  1.0
  C  C204  1  0.73134000  0.62817000  0.78883000  1.0
  C  C205  1  0.73134000  0.58300000  0.62817000  1.0
  C  C206  1  0.73134000  0.78883000  0.58300000  1.0
  C  C207  1  0.73134000  0.37183000  0.21117000  1.0
  C  C208  1  0.73135000  0.41700000  0.37183000  1.0
  C  C209  1  0.73134000  0.21117000  0.41700000  1.0
  C  C210  1  0.76866000  0.21117000  0.37183000  1.0
  C  C211  1  0.76866000  0.37183000  0.41700000  1.0
  C  C212  1  0.76866000  0.41700000  0.21117000  1.0
  C  C213  1  0.76866000  0.78883000  0.62817000  1.0
  C  C214  1  0.76866000  0.62817000  0.58300000  1.0
  C  C215  1  0.76866000  0.58300000  0.78883000  1.0
  C  C216  1  0.26866000  0.37183000  0.21117000  1.0
  C  C217  1  0.26865000  0.41700000  0.37183000  1.0
  C  C218  1  0.26866000  0.21117000  0.41700000  1.0
  C  C219  1  0.26865000  0.62817000  0.78884000  1.0
  C  C220  1  0.26866000  0.58300000  0.62817000  1.0
  C  C221  1  0.26866000  0.78883000  0.58300000  1.0
  C  C222  1  0.23134000  0.78883000  0.62817000  1.0
  C  C223  1  0.23134000  0.62817000  0.58299000  1.0
  C  C224  1  0.23134000  0.58299000  0.78884000  1.0
  C  C225  1  0.23135000  0.21117000  0.37183000  1.0
  C  C226  1  0.23134000  0.37183000  0.41701000  1.0
  C  C227  1  0.23134000  0.41700000  0.21117000  1.0
  C  C228  1  0.75000000  0.56204000  0.87593000  1.0
  C  C229  1  0.75000000  0.56204000  0.56204000  1.0
  C  C230  1  0.75000000  0.87592000  0.56204000  1.0
  C  C231  1  0.75000000  0.43796000  0.12408000  1.0
  C  C232  1  0.75000000  0.43796000  0.43796000  1.0
  C  C233  1  0.75000000  0.12408000  0.43796000  1.0
  C  C234  1  0.25000000  0.43796000  0.12408000  1.0
  C  C235  1  0.25001000  0.43796000  0.43796000  1.0
  C  C236  1  0.25000000  0.12408000  0.43796000  1.0
  C  C237  1  0.25000000  0.56204000  0.87592000  1.0
  C  C238  1  0.25000000  0.56204000  0.56204000  1.0
  C  C239  1  0.25000000  0.87592000  0.56204000  1.0
  C  C240  1  0.73818000  0.67637000  0.97221000  1.0
  C  C241  1  0.73817000  0.35143000  0.67637000  1.0
  C  C242  1  0.73819000  0.97220000  0.35143000  1.0
  C  C243  1  0.73818000  0.32362000  0.02780000  1.0
  C  C244  1  0.73818000  0.64858000  0.32362000  1.0
  C  C245  1  0.73819000  0.02780000  0.64857000  1.0
  C  C246  1  0.76182000  0.02780000  0.32363000  1.0
  C  C247  1  0.76181000  0.32363000  0.64857000  1.0
  C  C248  1  0.76182000  0.64857000  0.02780000  1.0
  C  C249  1  0.76182000  0.97220000  0.67637000  1.0
  C  C250  1  0.76182000  0.67637000  0.35143000  1.0
  C  C251  1  0.76182000  0.35142000  0.97220000  1.0
  C  C252  1  0.26182000  0.32363000  0.02780000  1.0
  C  C253  1  0.26183000  0.64858000  0.32362000  1.0
  C  C254  1  0.26181000  0.02780000  0.64857000  1.0
  C  C255  1  0.26182000  0.67637000  0.97220000  1.0
  C  C256  1  0.26182000  0.35143000  0.67637000  1.0
  C  C257  1  0.26182000  0.97221000  0.35142000  1.0
  C  C258  1  0.23817000  0.97220000  0.67637000  1.0
  C  C259  1  0.23819000  0.67638000  0.35142000  1.0
  C  C260  1  0.23819000  0.35142000  0.97221000  1.0
  C  C261  1  0.23818000  0.02780000  0.32362000  1.0
  C  C262  1  0.23819000  0.32363000  0.64858000  1.0
  C  C263  1  0.23819000  0.64858000  0.02779000  1.0
  C  C264  1  0.75000000  0.58717000  1.00000000  1.0
  C  C265  1  0.75000000  0.41284000  0.58716000  1.0
  C  C266  1  0.75000000  0.00000000  0.41284000  1.0
  C  C267  1  0.75000000  0.41283000  1.00000000  1.0
  C  C268  1  0.75000000  0.58717000  0.41283000  1.0
  C  C269  1  0.75000000  0.00000000  0.58716000  1.0
  C  C270  1  0.25000000  0.41283000  1.00000000  1.0
  C  C271  1  0.25000000  0.58717000  0.41283000  1.0
  C  C272  1  0.25000000  0.99999000  0.58717000  1.0
  C  C273  1  0.25000000  0.58717000  1.00000000  1.0
  C  C274  1  0.25001000  0.41283000  0.58717000  1.0
  C  C275  1  0.25000000  0.00001000  0.41283000  1.0
  C  C276  1  0.54153000  0.71285000  0.89813000  1.0
  C  C277  1  0.54153000  0.38901000  0.71286000  1.0
  C  C278  1  0.54154000  0.89814000  0.38901000  1.0
  C  C279  1  0.54154000  0.28715000  0.10186000  1.0
  C  C280  1  0.54153000  0.61099000  0.28715000  1.0
  C  C281  1  0.54154000  0.10186000  0.61099000  1.0
  C  C282  1  0.95846000  0.10186000  0.28715000  1.0
  C  C283  1  0.95847000  0.28716000  0.61097000  1.0
  C  C284  1  0.95847000  0.61099000  0.10186000  1.0
  C  C285  1  0.95846000  0.89814000  0.71285000  1.0
  C  C286  1  0.95846000  0.71285000  0.38901000  1.0
  C  C287  1  0.95847000  0.38902000  0.89813000  1.0
  C  C288  1  0.45847000  0.28715000  0.10186000  1.0
  C  C289  1  0.45847000  0.61099000  0.28715000  1.0
  C  C290  1  0.45847000  0.10186000  0.61098000  1.0
  C  C291  1  0.45846000  0.71285000  0.89813000  1.0
  C  C292  1  0.45846000  0.38901000  0.71286000  1.0
  C  C293  1  0.45847000  0.89814000  0.38902000  1.0
  C  C294  1  0.04153000  0.89814000  0.71285000  1.0
  C  C295  1  0.04153000  0.71285000  0.38901000  1.0
  C  C296  1  0.04153000  0.38901000  0.89814000  1.0
  C  C297  1  0.04153000  0.10186000  0.28715000  1.0
  C  C298  1  0.04154000  0.28716000  0.61097000  1.0
  C  C299  1  0.04154000  0.61098000  0.10187000  1.0
  C  C300  1  0.50000000  0.65371000  0.87196000  1.0
  C  C301  1  0.50000000  0.47433000  0.65370000  1.0
  C  C302  1  0.50000000  0.87197000  0.47433000  1.0
  C  C303  1  0.50000000  0.34630000  0.12803000  1.0
  C  C304  1  0.50000000  0.52567000  0.34630000  1.0
  C  C305  1  0.50000000  0.12803000  0.52567000  1.0
  C  C306  1  0.00000000  0.12803000  0.34630000  1.0
  C  C307  1  0.00000000  0.34630000  0.52567000  1.0
  C  C308  1  0.00000000  0.52567000  0.12803000  1.0
  C  C309  1  0.00000000  0.87197000  0.65370000  1.0
  C  C310  1  0.00000000  0.65370000  0.47433000  1.0
  C  C311  1  0.00000000  0.47433000  0.87197000  1.0
  N  N312  1  0.72704000  0.74502000  0.82287000  1.0
  N  N313  1  0.72705000  0.43211000  0.74502000  1.0
  N  N314  1  0.72704000  0.82287000  0.43211000  1.0
  N  N315  1  0.72704000  0.25498000  0.17713000  1.0
  N  N316  1  0.72704000  0.56788000  0.25498000  1.0
  N  N317  1  0.72704000  0.17713000  0.56789000  1.0
  N  N318  1  0.77296000  0.17713000  0.25498000  1.0
  N  N319  1  0.77296000  0.25498000  0.56788000  1.0
  N  N320  1  0.77296000  0.56789000  0.17713000  1.0
  N  N321  1  0.77296000  0.82287000  0.74502000  1.0
  N  N322  1  0.77296000  0.74502000  0.43211000  1.0
  N  N323  1  0.77296000  0.43211000  0.82287000  1.0
  N  N324  1  0.27296000  0.25498000  0.17713000  1.0
  N  N325  1  0.27296000  0.56789000  0.25498000  1.0
  N  N326  1  0.27296000  0.17713000  0.56789000  1.0
  N  N327  1  0.27296000  0.74502000  0.82287000  1.0
  N  N328  1  0.27295000  0.43211000  0.74502000  1.0
  N  N329  1  0.27296000  0.82287000  0.43211000  1.0
  N  N330  1  0.22704000  0.82287000  0.74502000  1.0
  N  N331  1  0.22704000  0.74502000  0.43212000  1.0
  N  N332  1  0.22704000  0.43211000  0.82287000  1.0
  N  N333  1  0.22704000  0.17713000  0.25498000  1.0
  N  N334  1  0.22705000  0.25498000  0.56788000  1.0
  N  N335  1  0.22704000  0.56789000  0.17713000  1.0
  N  N336  1  0.72003000  0.61474000  0.84442000  1.0
  N  N337  1  0.72003000  0.54085000  0.61473000  1.0
  N  N338  1  0.72003000  0.84441000  0.54085000  1.0
  N  N339  1  0.72003000  0.38526000  0.15558000  1.0
  N  N340  1  0.72004000  0.45915000  0.38527000  1.0
  N  N341  1  0.72003000  0.15558000  0.45915000  1.0
  N  N342  1  0.77997000  0.15559000  0.38526000  1.0
  N  N343  1  0.77997000  0.38526000  0.45916000  1.0
  N  N344  1  0.77996000  0.45915000  0.15558000  1.0
  N  N345  1  0.77996000  0.84441000  0.61474000  1.0
  N  N346  1  0.77997000  0.61474000  0.54084000  1.0
  N  N347  1  0.77996000  0.54084000  0.84443000  1.0
  N  N348  1  0.27997000  0.38526000  0.15559000  1.0
  N  N349  1  0.27997000  0.45915000  0.38527000  1.0
  N  N350  1  0.27997000  0.15558000  0.45915000  1.0
  N  N351  1  0.27996000  0.61474000  0.84442000  1.0
  N  N352  1  0.27997000  0.54085000  0.61473000  1.0
  N  N353  1  0.27996000  0.84442000  0.54085000  1.0
  N  N354  1  0.22003000  0.84442000  0.61474000  1.0
  N  N355  1  0.22003000  0.61474000  0.54084000  1.0
  N  N356  1  0.22003000  0.54084000  0.84443000  1.0
  N  N357  1  0.22003000  0.15558000  0.38526000  1.0
  N  N358  1  0.22003000  0.38527000  0.45915000  1.0
  N  N359  1  0.22003000  0.45916000  0.15558000  1.0
  N  N360  1  0.73066000  0.63744000  0.95422000  1.0
  N  N361  1  0.73066000  0.40835000  0.63743000  1.0
  N  N362  1  0.73066000  0.95422000  0.40835000  1.0
  N  N363  1  0.73066000  0.36256000  0.04578000  1.0
  N  N364  1  0.73066000  0.59166000  0.36256000  1.0
  N  N365  1  0.73066000  0.04578000  0.59165000  1.0
  N  N366  1  0.76934000  0.04578000  0.36257000  1.0
  N  N367  1  0.76934000  0.36257000  0.59165000  1.0
  N  N368  1  0.76934000  0.59165000  0.04579000  1.0
  N  N369  1  0.76934000  0.95421000  0.63744000  1.0
  N  N370  1  0.76934000  0.63744000  0.40834000  1.0
  N  N371  1  0.76934000  0.40834000  0.95422000  1.0
  N  N372  1  0.26935000  0.36256000  0.04578000  1.0
  N  N373  1  0.26935000  0.59166000  0.36256000  1.0
  N  N374  1  0.26934000  0.04578000  0.59166000  1.0
  N  N375  1  0.26934000  0.63744000  0.95422000  1.0
  N  N376  1  0.26935000  0.40834000  0.63744000  1.0
  N  N377  1  0.26934000  0.95422000  0.40834000  1.0
  N  N378  1  0.23066000  0.95421000  0.63745000  1.0
  N  N379  1  0.23066000  0.63744000  0.40834000  1.0
  N  N380  1  0.23066000  0.40834000  0.95422000  1.0
  N  N381  1  0.23066000  0.04579000  0.36255000  1.0
  N  N382  1  0.23066000  0.36256000  0.59166000  1.0
  N  N383  1  0.23066000  0.59166000  0.04578000  1.0
  N  N384  1  0.56772000  0.67525000  0.88152000  1.0
  N  N385  1  0.56772000  0.44323000  0.67525000  1.0
  N  N386  1  0.56772000  0.88152000  0.44323000  1.0
  N  N387  1  0.56772000  0.32475000  0.11848000  1.0
  N  N388  1  0.56772000  0.55677000  0.32476000  1.0
  N  N389  1  0.56772000  0.11848000  0.55677000  1.0
  N  N390  1  0.93228000  0.11847000  0.32476000  1.0
  N  N391  1  0.93228000  0.32476000  0.55676000  1.0
  N  N392  1  0.93228000  0.55677000  0.11848000  1.0
  N  N393  1  0.93228000  0.88152000  0.67525000  1.0
  N  N394  1  0.93228000  0.67525000  0.44323000  1.0
  N  N395  1  0.93228000  0.44323000  0.88152000  1.0
  N  N396  1  0.43228000  0.32475000  0.11848000  1.0
  N  N397  1  0.43228000  0.55677000  0.32476000  1.0
  N  N398  1  0.43228000  0.11848000  0.55677000  1.0
  N  N399  1  0.43228000  0.67525000  0.88152000  1.0
  N  N400  1  0.43228000  0.44323000  0.67525000  1.0
  N  N401  1  0.43228000  0.88152000  0.44324000  1.0
  N  N402  1  0.06772000  0.88152000  0.67525000  1.0
  N  N403  1  0.06772000  0.67524000  0.44323000  1.0
  N  N404  1  0.06772000  0.44323000  0.88152000  1.0
  N  N405  1  0.06772000  0.11848000  0.32475000  1.0
  N  N406  1  0.06772000  0.32476000  0.55676000  1.0
  N  N407  1  0.06772000  0.55677000  0.11847000  1.0
