# generated using pymatgen
data_ZnH17C23(N3O2)2
_symmetry_space_group_name_H-M   'P 1'
_cell_length_a   10.83000000
_cell_length_b   14.78290000
_cell_length_c   15.05530000
_cell_angle_alpha   90.00000000
_cell_angle_beta   89.99990000
_cell_angle_gamma   92.04470000
_symmetry_Int_Tables_number   1
_chemical_formula_structural   ZnH17C23(N3O2)2
_chemical_formula_sum   'Zn4 H68 C92 N24 O16'
_cell_volume   2408.80089779
_cell_formula_units_Z   4
loop_
 _symmetry_equiv_pos_site_id
 _symmetry_equiv_pos_as_xyz
  1  'x, y, z'
loop_
 _atom_site_type_symbol
 _atom_site_label
 _atom_site_symmetry_multiplicity
 _atom_site_fract_x
 _atom_site_fract_y
 _atom_site_fract_z
 _atom_site_occupancy
  Zn  Zn0  1  0.56833000  0.88249000  0.34351000  1.0
  Zn  Zn1  1  0.93167000  0.11751000  0.84351000  1.0
  Zn  Zn2  1  0.43167000  0.11751000  0.65649000  1.0
  Zn  Zn3  1  0.06833000  0.88249000  0.15649000  1.0
  H  H4  1  0.74731000  0.73582000  0.42588000  1.0
  H  H5  1  0.75269000  0.26418000  0.92588000  1.0
  H  H6  1  0.25269000  0.26418000  0.57412000  1.0
  H  H7  1  0.24731000  0.73582000  0.07412000  1.0
  H  H8  1  0.51727000  0.70932000  0.20199000  1.0
  H  H9  1  0.98273000  0.29068000  0.70199000  1.0
  H  H10  1  0.48273000  0.29068000  0.79801000  1.0
  H  H11  1  0.01727000  0.70932000  0.29801000  1.0
  H  H12  1  0.55434000  0.53794000  0.17099000  1.0
  H  H13  1  0.94567000  0.46206000  0.67099000  1.0
  H  H14  1  0.44567000  0.46206000  0.82901000  1.0
  H  H15  1  0.05434000  0.53794000  0.32901000  1.0
  H  H16  1  0.62660000  0.47828000  0.25725000  1.0
  H  H17  1  0.87340000  0.52171000  0.75725000  1.0
  H  H18  1  0.37340000  0.52171000  0.74275000  1.0
  H  H19  1  0.12660000  0.47829000  0.24275000  1.0
  H  H20  1  0.78613000  0.66993000  0.13428000  1.0
  H  H21  1  0.71387000  0.33007000  0.63429000  1.0
  H  H22  1  0.21387000  0.33007000  0.86571000  1.0
  H  H23  1  0.28613000  0.66993000  0.36571000  1.0
  H  H24  1  0.95737000  0.65245000  0.03197000  1.0
  H  H25  1  0.54263000  0.34754000  0.53197000  1.0
  H  H26  1  0.04263000  0.34754000  0.96803000  1.0
  H  H27  1  0.45737000  0.65245000  0.46803000  1.0
  H  H28  1  0.91287000  0.36155000  0.05556000  1.0
  H  H29  1  0.58713000  0.63845000  0.55556000  1.0
  H  H30  1  0.08713000  0.63845000  0.94444000  1.0
  H  H31  1  0.41287000  0.36155000  0.44444000  1.0
  H  H32  1  0.74376000  0.38043000  0.15934000  1.0
  H  H33  1  0.75624000  0.61957000  0.65934000  1.0
  H  H34  1  0.25624000  0.61957000  0.84066000  1.0
  H  H35  1  0.24376000  0.38043000  0.34066000  1.0
  H  H36  1  0.17659000  0.49515000  0.59380000  1.0
  H  H37  1  0.32341000  0.50485000  0.09380000  1.0
  H  H38  1  0.82341000  0.50485000  0.40620000  1.0
  H  H39  1  0.67659000  0.49515000  0.90620000  1.0
  H  H40  1  0.25887000  0.64475000  0.63596000  1.0
  H  H41  1  0.24113000  0.35525000  0.13596000  1.0
  H  H42  1  0.74113000  0.35525000  0.36404000  1.0
  H  H43  1  0.75887000  0.64475000  0.86404000  1.0
  H  H44  1  0.96626000  0.77012000  0.49255000  1.0
  H  H45  1  0.53374000  0.22988000  0.99255000  1.0
  H  H46  1  0.03374000  0.22989000  0.50745000  1.0
  H  H47  1  0.46626000  0.77011000  0.00745000  1.0
  H  H48  1  0.88269000  0.62010000  0.44956000  1.0
  H  H49  1  0.61731000  0.37990000  0.94956000  1.0
  H  H50  1  0.11731000  0.37990000  0.55043000  1.0
  H  H51  1  0.38269000  0.62010000  0.05044000  1.0
  H  H52  1  0.11439000  0.86359000  0.58702000  1.0
  H  H53  1  0.38561000  0.13641000  0.08702000  1.0
  H  H54  1  0.88562000  0.13641000  0.41298000  1.0
  H  H55  1  0.61438000  0.86359000  0.91298000  1.0
  H  H56  1  0.24254000  0.81245000  0.63846000  1.0
  H  H57  1  0.25746000  0.18755000  0.13846000  1.0
  H  H58  1  0.75746000  0.18755000  0.36154000  1.0
  H  H59  1  0.74254000  0.81245000  0.86154000  1.0
  H  H60  1  0.44205000  0.86416000  0.55289000  1.0
  H  H61  1  0.05794000  0.13584000  0.05289000  1.0
  H  H62  1  0.55795000  0.13584000  0.44711000  1.0
  H  H63  1  0.94205000  0.86416000  0.94711000  1.0
  H  H64  1  0.29404000  0.85128000  0.29449000  1.0
  H  H65  1  0.20596000  0.14872000  0.79449000  1.0
  H  H66  1  0.70596000  0.14872000  0.70551000  1.0
  H  H67  1  0.79404000  0.85128000  0.20551000  1.0
  H  H68  1  0.66177000  0.01676000  0.11567000  1.0
  H  H69  1  0.83822000  0.98324000  0.61568000  1.0
  H  H70  1  0.33822000  0.98324000  0.88433000  1.0
  H  H71  1  0.16178000  0.01676000  0.38433000  1.0
  C  C72  1  0.70209000  0.70670000  0.36779000  1.0
  C  C73  1  0.79791000  0.29330000  0.86779000  1.0
  C  C74  1  0.29791000  0.29330000  0.63221000  1.0
  C  C75  1  0.20209000  0.70670000  0.13221000  1.0
  C  C76  1  0.58303000  0.69514000  0.25423000  1.0
  C  C77  1  0.91697000  0.30486000  0.75423000  1.0
  C  C78  1  0.41697000  0.30485000  0.74577000  1.0
  C  C79  1  0.08303000  0.69514000  0.24577000  1.0
  C  C80  1  0.63833000  0.53604000  0.21183000  1.0
  C  C81  1  0.86167000  0.46396000  0.71183000  1.0
  C  C82  1  0.36167000  0.46396000  0.78817000  1.0
  C  C83  1  0.13833000  0.53604000  0.28817000  1.0
  C  C84  1  0.75107000  0.52664000  0.15392000  1.0
  C  C85  1  0.74893000  0.47336000  0.65393000  1.0
  C  C86  1  0.24893000  0.47336000  0.84607000  1.0
  C  C87  1  0.25107000  0.52664000  0.34608000  1.0
  C  C88  1  0.81429000  0.60199000  0.11771000  1.0
  C  C89  1  0.68572000  0.39800000  0.61771000  1.0
  C  C90  1  0.18572000  0.39800000  0.88229000  1.0
  C  C91  1  0.31428000  0.60200000  0.38229000  1.0
  C  C92  1  0.91156000  0.59157000  0.05865000  1.0
  C  C93  1  0.58844000  0.40843000  0.55865000  1.0
  C  C94  1  0.08844000  0.40843000  0.94135000  1.0
  C  C95  1  0.41156000  0.59157000  0.44135000  1.0
  C  C96  1  0.94963000  0.50541000  0.03276000  1.0
  C  C97  1  0.55037000  0.49459000  0.53275000  1.0
  C  C98  1  0.05038000  0.49458000  0.96724000  1.0
  C  C99  1  0.44963000  0.50541000  0.46724000  1.0
  C  C100  1  0.88729000  0.43018000  0.07180000  1.0
  C  C101  1  0.61271000  0.56982000  0.57180000  1.0
  C  C102  1  0.11271000  0.56982000  0.92820000  1.0
  C  C103  1  0.38729000  0.43018000  0.42820000  1.0
  C  C104  1  0.79033000  0.44056000  0.13125000  1.0
  C  C105  1  0.70967000  0.55944000  0.63125000  1.0
  C  C106  1  0.20968000  0.55944000  0.86875000  1.0
  C  C107  1  0.29033000  0.44056000  0.36875000  1.0
  C  C108  1  0.02364000  0.54496000  0.51564000  1.0
  C  C109  1  0.47637000  0.45504000  0.01564000  1.0
  C  C110  1  0.97637000  0.45504000  0.48436000  1.0
  C  C111  1  0.52363000  0.54496000  0.98436000  1.0
  C  C112  1  0.12826000  0.55420000  0.57092000  1.0
  C  C113  1  0.37174000  0.44580000  0.07092000  1.0
  C  C114  1  0.87175000  0.44580000  0.42908000  1.0
  C  C115  1  0.62825000  0.55420000  0.92908000  1.0
  C  C116  1  0.17501000  0.63950000  0.59567000  1.0
  C  C117  1  0.32499000  0.36050000  0.09567000  1.0
  C  C118  1  0.82499000  0.36051000  0.40433000  1.0
  C  C119  1  0.67501000  0.63949000  0.90433000  1.0
  C  C120  1  0.11935000  0.71821000  0.56691000  1.0
  C  C121  1  0.38065000  0.28179000  0.06690000  1.0
  C  C122  1  0.88064000  0.28179000  0.43310000  1.0
  C  C123  1  0.61936000  0.71821000  0.93310000  1.0
  C  C124  1  0.01165000  0.70978000  0.51564000  1.0
  C  C125  1  0.48835000  0.29022000  0.01564000  1.0
  C  C126  1  0.98834000  0.29022000  0.48436000  1.0
  C  C127  1  0.51166000  0.70978000  0.98436000  1.0
  C  C128  1  0.96511000  0.62465000  0.49073000  1.0
  C  C129  1  0.53489000  0.37535000  0.99073000  1.0
  C  C130  1  0.03489000  0.37535000  0.50927000  1.0
  C  C131  1  0.46511000  0.62465000  0.00927000  1.0
  C  C132  1  0.18132000  0.80996000  0.58044000  1.0
  C  C133  1  0.31868000  0.19004000  0.08043000  1.0
  C  C134  1  0.81868000  0.19004000  0.41957000  1.0
  C  C135  1  0.68132000  0.80996000  0.91957000  1.0
  C  C136  1  0.37931000  0.85574000  0.49705000  1.0
  C  C137  1  0.12069000  0.14426000  0.99705000  1.0
  C  C138  1  0.62070000  0.14426000  0.50295000  1.0
  C  C139  1  0.87930000  0.85574000  0.00295000  1.0
  C  C140  1  0.30015000  0.84907000  0.36652000  1.0
  C  C141  1  0.19985000  0.15093000  0.86652000  1.0
  C  C142  1  0.69986000  0.15093000  0.63348000  1.0
  C  C143  1  0.80014000  0.84907000  0.13348000  1.0
  C  C144  1  0.47198000  0.91329000  0.17191000  1.0
  C  C145  1  0.02802000  0.08671000  0.67191000  1.0
  C  C146  1  0.52802000  0.08670000  0.82809000  1.0
  C  C147  1  0.97198000  0.91329000  0.32809000  1.0
  C  C148  1  0.47982000  0.96278000  0.08493000  1.0
  C  C149  1  0.02017000  0.03722000  0.58493000  1.0
  C  C150  1  0.52018000  0.03721000  0.91507000  1.0
  C  C151  1  0.97982000  0.96279000  0.41507000  1.0
  C  C152  1  0.38737000  0.95365000  0.01940000  1.0
  C  C153  1  0.11262000  0.04635000  0.51940000  1.0
  C  C154  1  0.61262000  0.04635000  0.98060000  1.0
  C  C155  1  0.88737000  0.95365000  0.48060000  1.0
  C  C156  1  0.59030000  0.01041000  0.06494000  1.0
  C  C157  1  0.90970000  0.98959000  0.56495000  1.0
  C  C158  1  0.40970000  0.98959000  0.93506000  1.0
  C  C159  1  0.09030000  0.01041000  0.43506000  1.0
  C  C160  1  0.26063000  0.91390000  0.03915000  1.0
  C  C161  1  0.23937000  0.08610000  0.53915000  1.0
  C  C162  1  0.73937000  0.08610000  0.96085000  1.0
  C  C163  1  0.76063000  0.91390000  0.46085000  1.0
  N  N164  1  0.61894000  0.75301000  0.31851000  1.0
  N  N165  1  0.88106000  0.24699000  0.81851000  1.0
  N  N166  1  0.38106000  0.24699000  0.68148000  1.0
  N  N167  1  0.11894000  0.75301000  0.18149000  1.0
  N  N168  1  0.71927000  0.62419000  0.33738000  1.0
  N  N169  1  0.78073000  0.37581000  0.83738000  1.0
  N  N170  1  0.28073000  0.37581000  0.66262000  1.0
  N  N171  1  0.21927000  0.62419000  0.16262000  1.0
  N  N172  1  0.64271000  0.61788000  0.26548000  1.0
  N  N173  1  0.85729000  0.38212000  0.76548000  1.0
  N  N174  1  0.35729000  0.38212000  0.73452000  1.0
  N  N175  1  0.14271000  0.61788000  0.23452000  1.0
  N  N176  1  0.40846000  0.86695000  0.41118000  1.0
  N  N177  1  0.09154000  0.13305000  0.91118000  1.0
  N  N178  1  0.59154000  0.13305000  0.58882000  1.0
  N  N179  1  0.90846000  0.86695000  0.08882000  1.0
  N  N180  1  0.20725000  0.82694000  0.42003000  1.0
  N  N181  1  0.29275000  0.17305000  0.92003000  1.0
  N  N182  1  0.79275000  0.17306000  0.57997000  1.0
  N  N183  1  0.70725000  0.82694000  0.07997000  1.0
  N  N184  1  0.25868000  0.83188000  0.50237000  1.0
  N  N185  1  0.24132000  0.16812000  0.00237000  1.0
  N  N186  1  0.74132000  0.16813000  0.49763000  1.0
  N  N187  1  0.75868000  0.83187000  0.99763000  1.0
  O  O188  1  0.53539000  0.95125000  0.23567000  1.0
  O  O189  1  0.96461000  0.04874000  0.73567000  1.0
  O  O190  1  0.46461000  0.04874000  0.76433000  1.0
  O  O191  1  0.03539000  0.95125000  0.26433000  1.0
  O  O192  1  0.41339000  0.83872000  0.17704000  1.0
  O  O193  1  0.08661000  0.16128000  0.67704000  1.0
  O  O194  1  0.58661000  0.16128000  0.82296000  1.0
  O  O195  1  0.91339000  0.83872000  0.32296000  1.0
  O  O196  1  0.20768000  0.95184000  0.10644000  1.0
  O  O197  1  0.29231000  0.04816000  0.60644000  1.0
  O  O198  1  0.79231000  0.04816000  0.89356000  1.0
  O  O199  1  0.70768000  0.95184000  0.39356000  1.0
  O  O200  1  0.21252000  0.85290000  0.99158000  1.0
  O  O201  1  0.28747000  0.14710000  0.49158000  1.0
  O  O202  1  0.78747000  0.14710000  0.00842000  1.0
  O  O203  1  0.71253000  0.85290000  0.50842000  1.0
