# generated using pymatgen
data_GdMn2H15(C10O7)2
_symmetry_space_group_name_H-M   'P 1'
_cell_length_a   6.76942000
_cell_length_b   12.55010000
_cell_length_c   30.05960000
_cell_angle_alpha   89.99990000
_cell_angle_beta   89.99890000
_cell_angle_gamma   89.99870000
_symmetry_Int_Tables_number   1
_chemical_formula_structural   GdMn2H15(C10O7)2
_chemical_formula_sum   'Gd4 Mn8 H60 C80 O56'
_cell_volume   2553.77036825
_cell_formula_units_Z   4
loop_
 _symmetry_equiv_pos_site_id
 _symmetry_equiv_pos_as_xyz
  1  'x, y, z'
loop_
 _atom_site_type_symbol
 _atom_site_label
 _atom_site_symmetry_multiplicity
 _atom_site_fract_x
 _atom_site_fract_y
 _atom_site_fract_z
 _atom_site_occupancy
  Gd  Gd0  1  0.52900000  0.56253000  0.53190000  1.0
  Gd  Gd1  1  0.02900000  0.43746000  0.46810000  1.0
  Gd  Gd2  1  0.52898000  0.93747000  0.03190000  1.0
  Gd  Gd3  1  0.02900000  0.06253000  0.96809000  1.0
  Mn  Mn4  1  0.30133000  0.18005000  0.62964000  1.0
  Mn  Mn5  1  0.80133000  0.81995000  0.37036000  1.0
  Mn  Mn6  1  0.30138000  0.31995000  0.12965000  1.0
  Mn  Mn7  1  0.80133000  0.68005000  0.87037000  1.0
  Mn  Mn8  1  0.63632000  0.78467000  0.69973000  1.0
  Mn  Mn9  1  0.13634000  0.21534000  0.30028000  1.0
  Mn  Mn10  1  0.63635000  0.71534000  0.19972000  1.0
  Mn  Mn11  1  0.13638000  0.28467000  0.80028000  1.0
  H  H12  1  0.66166000  0.76611000  0.49678000  1.0
  H  H13  1  0.16168000  0.23389000  0.50322000  1.0
  H  H14  1  0.66167000  0.73389000  0.99678000  1.0
  H  H15  1  0.16167000  0.26611000  0.00322000  1.0
  H  H16  1  0.85011000  0.69247000  0.48668000  1.0
  H  H17  1  0.35010000  0.30754000  0.51332000  1.0
  H  H18  1  0.85012000  0.80754000  0.98668000  1.0
  H  H19  1  0.35010000  0.19246000  0.01331000  1.0
  H  H20  1  0.22033000  0.70231000  0.48918000  1.0
  H  H21  1  0.72032000  0.29770000  0.51082000  1.0
  H  H22  1  0.22033000  0.79768000  0.98918000  1.0
  H  H23  1  0.72034000  0.20232000  0.01082000  1.0
  H  H24  1  0.32434000  0.76815000  0.53066000  1.0
  H  H25  1  0.82437000  0.23186000  0.46934000  1.0
  H  H26  1  0.32435000  0.73185000  0.03066000  1.0
  H  H27  1  0.82433000  0.26815000  0.96933000  1.0
  H  H28  1  0.51047000  0.34094000  0.67948000  1.0
  H  H29  1  0.01048000  0.65904000  0.32052000  1.0
  H  H30  1  0.51046000  0.15905000  0.17948000  1.0
  H  H31  1  0.01046000  0.84093000  0.82052000  1.0
  H  H32  1  0.54129000  0.13611000  0.70763000  1.0
  H  H33  1  0.04130000  0.86386000  0.29237000  1.0
  H  H34  1  0.54132000  0.36387000  0.20763000  1.0
  H  H35  1  0.04132000  0.63611000  0.79237000  1.0
  H  H36  1  0.60006000  0.01191000  0.63517000  1.0
  H  H37  1  0.10012000  0.98810000  0.36482000  1.0
  H  H38  1  0.60011000  0.48808000  0.13518000  1.0
  H  H39  1  0.10012000  0.51190000  0.86482000  1.0
  H  H40  1  0.60044000  0.13792000  0.56279000  1.0
  H  H41  1  0.10052000  0.86210000  0.43721000  1.0
  H  H42  1  0.60046000  0.36210000  0.06280000  1.0
  H  H43  1  0.10049000  0.63790000  0.93721000  1.0
  H  H44  1  0.32992000  0.93134000  0.66859000  1.0
  H  H45  1  0.82990000  0.06868000  0.33142000  1.0
  H  H46  1  0.32989000  0.56868000  0.16860000  1.0
  H  H47  1  0.82985000  0.43131000  0.83140000  1.0
  H  H48  1  0.31962000  0.86696000  0.75473000  1.0
  H  H49  1  0.81961000  0.13305000  0.24528000  1.0
  H  H50  1  0.31962000  0.63307000  0.25473000  1.0
  H  H51  1  0.81962000  0.36693000  0.74527000  1.0
  H  H52  1  0.38709000  0.65373000  0.75600000  1.0
  H  H53  1  0.88711000  0.34629000  0.24400000  1.0
  H  H54  1  0.38709000  0.84630000  0.25600000  1.0
  H  H55  1  0.88709000  0.15371000  0.74399000  1.0
  H  H56  1  0.45063000  0.58990000  0.67092000  1.0
  H  H57  1  0.95065000  0.41011000  0.32909000  1.0
  H  H58  1  0.45062000  0.91011000  0.17091000  1.0
  H  H59  1  0.95062000  0.08989000  0.82908000  1.0
  H  H60  1  0.86783000  0.58317000  0.61753000  1.0
  H  H61  1  0.36784000  0.41681000  0.38247000  1.0
  H  H62  1  0.86781000  0.91686000  0.11753000  1.0
  H  H63  1  0.36782000  0.08313000  0.88246000  1.0
  H  H64  1  0.01338000  0.68329000  0.59165000  1.0
  H  H65  1  0.51339000  0.31670000  0.40835000  1.0
  H  H66  1  0.01335000  0.81673000  0.09166000  1.0
  H  H67  1  0.51336000  0.18326000  0.90833000  1.0
  H  H68  1  0.13304000  0.58115000  0.62291000  1.0
  H  H69  1  0.63303000  0.41885000  0.37710000  1.0
  H  H70  1  0.13302000  0.91888000  0.12290000  1.0
  H  H71  1  0.63303000  0.08111000  0.87708000  1.0
  C  C72  1  0.54194000  0.36849000  0.58358000  1.0
  C  C73  1  0.04197000  0.63151000  0.41643000  1.0
  C  C74  1  0.54197000  0.13152000  0.08358000  1.0
  C  C75  1  0.04194000  0.86847000  0.91642000  1.0
  C  C76  1  0.55396000  0.27197000  0.61138000  1.0
  C  C77  1  0.05395000  0.72803000  0.38862000  1.0
  C  C78  1  0.55400000  0.22803000  0.11138000  1.0
  C  C79  1  0.05396000  0.77196000  0.88862000  1.0
  C  C80  1  0.53566000  0.27099000  0.65907000  1.0
  C  C81  1  0.03563000  0.72900000  0.34093000  1.0
  C  C82  1  0.53567000  0.22900000  0.15907000  1.0
  C  C83  1  0.03564000  0.77098000  0.84093000  1.0
  C  C84  1  0.55183000  0.16379000  0.67350000  1.0
  C  C85  1  0.05181000  0.83620000  0.32650000  1.0
  C  C86  1  0.55187000  0.33620000  0.17350000  1.0
  C  C87  1  0.05182000  0.66378000  0.82650000  1.0
  C  C88  1  0.58112000  0.09759000  0.63522000  1.0
  C  C89  1  0.08116000  0.90240000  0.36478000  1.0
  C  C90  1  0.58118000  0.40240000  0.13522000  1.0
  C  C91  1  0.08112000  0.59759000  0.86478000  1.0
  C  C92  1  0.58133000  0.16421000  0.59694000  1.0
  C  C93  1  0.08135000  0.83579000  0.40306000  1.0
  C  C94  1  0.58135000  0.33580000  0.09694000  1.0
  C  C95  1  0.08134000  0.66421000  0.90306000  1.0
  C  C96  1  0.41637000  0.75659000  0.60420000  1.0
  C  C97  1  0.91637000  0.24341000  0.39581000  1.0
  C  C98  1  0.41636000  0.74341000  0.10420000  1.0
  C  C99  1  0.91637000  0.25659000  0.89580000  1.0
  C  C100  1  0.39877000  0.76096000  0.65375000  1.0
  C  C101  1  0.89880000  0.23905000  0.34625000  1.0
  C  C102  1  0.39878000  0.73905000  0.15375000  1.0
  C  C103  1  0.89882000  0.26096000  0.84624000  1.0
  C  C104  1  0.35446000  0.85149000  0.68089000  1.0
  C  C105  1  0.85448000  0.14852000  0.31910000  1.0
  C  C106  1  0.35448000  0.64852000  0.18090000  1.0
  C  C107  1  0.85452000  0.35148000  0.81909000  1.0
  C  C108  1  0.34654000  0.81648000  0.72597000  1.0
  C  C109  1  0.84654000  0.18353000  0.27403000  1.0
  C  C110  1  0.34653000  0.68353000  0.22597000  1.0
  C  C111  1  0.84655000  0.31646000  0.77402000  1.0
  C  C112  1  0.38292000  0.70446000  0.72686000  1.0
  C  C113  1  0.88292000  0.29554000  0.27314000  1.0
  C  C114  1  0.38295000  0.79554000  0.22686000  1.0
  C  C115  1  0.88294000  0.20446000  0.77313000  1.0
  C  C116  1  0.41683000  0.67011000  0.68216000  1.0
  C  C117  1  0.91686000  0.32990000  0.31784000  1.0
  C  C118  1  0.41684000  0.82990000  0.18217000  1.0
  C  C119  1  0.91683000  0.17010000  0.81784000  1.0
  C  C120  1  0.13038000  0.28728000  0.63262000  1.0
  C  C121  1  0.63035000  0.71273000  0.36740000  1.0
  C  C122  1  0.13041000  0.21273000  0.13262000  1.0
  C  C123  1  0.63036000  0.78726000  0.86740000  1.0
  C  C124  1  0.18283000  0.12521000  0.58208000  1.0
  C  C125  1  0.68286000  0.87482000  0.41792000  1.0
  C  C126  1  0.18290000  0.37482000  0.08209000  1.0
  C  C127  1  0.68285000  0.62518000  0.91792000  1.0
  C  C128  1  0.14739000  0.10529000  0.66556000  1.0
  C  C129  1  0.64742000  0.89472000  0.33443000  1.0
  C  C130  1  0.14746000  0.39470000  0.16557000  1.0
  C  C131  1  0.64740000  0.60529000  0.83444000  1.0
  C  C132  1  0.74244000  0.87226000  0.73944000  1.0
  C  C133  1  0.24248000  0.12774000  0.26056000  1.0
  C  C134  1  0.74248000  0.62775000  0.23944000  1.0
  C  C135  1  0.24247000  0.37226000  0.76056000  1.0
  C  C136  1  0.79011000  0.83500000  0.65662000  1.0
  C  C137  1  0.29011000  0.16498000  0.34338000  1.0
  C  C138  1  0.79011000  0.66499000  0.15662000  1.0
  C  C139  1  0.29017000  0.33501000  0.84337000  1.0
  C  C140  1  0.80487000  0.68097000  0.71199000  1.0
  C  C141  1  0.30486000  0.31905000  0.28801000  1.0
  C  C142  1  0.80489000  0.81904000  0.21198000  1.0
  C  C143  1  0.30492000  0.18095000  0.78801000  1.0
  C  C144  1  0.02394000  0.53455000  0.55913000  1.0
  C  C145  1  0.52395000  0.46545000  0.44088000  1.0
  C  C146  1  0.02395000  0.96546000  0.05913000  1.0
  C  C147  1  0.52394000  0.03454000  0.94087000  1.0
  C  C148  1  0.00868000  0.59836000  0.60081000  1.0
  C  C149  1  0.50868000  0.40164000  0.39919000  1.0
  C  C150  1  0.00866000  0.90166000  0.10081000  1.0
  C  C151  1  0.50867000  0.09833000  0.89918000  1.0
  O  O152  1  0.53795000  0.45901000  0.60164000  1.0
  O  O153  1  0.03795000  0.54099000  0.39836000  1.0
  O  O154  1  0.53796000  0.04099000  0.10163000  1.0
  O  O155  1  0.03797000  0.95900000  0.89836000  1.0
  O  O156  1  0.53673000  0.35943000  0.54047000  1.0
  O  O157  1  0.03674000  0.64058000  0.45953000  1.0
  O  O158  1  0.53673000  0.14058000  0.04047000  1.0
  O  O159  1  0.03672000  0.85943000  0.95952000  1.0
  O  O160  1  0.50978000  0.67462000  0.58966000  1.0
  O  O161  1  0.00980000  0.32538000  0.41034000  1.0
  O  O162  1  0.50980000  0.82540000  0.08966000  1.0
  O  O163  1  0.00980000  0.17459000  0.91033000  1.0
  O  O164  1  0.33599000  0.82710000  0.58067000  1.0
  O  O165  1  0.83598000  0.17291000  0.41933000  1.0
  O  O166  1  0.33601000  0.67292000  0.08067000  1.0
  O  O167  1  0.83601000  0.32708000  0.91933000  1.0
  O  O168  1  0.01707000  0.35731000  0.63488000  1.0
  O  O169  1  0.51706000  0.64268000  0.36515000  1.0
  O  O170  1  0.01708000  0.14270000  0.13486000  1.0
  O  O171  1  0.51705000  0.85731000  0.86514000  1.0
  O  O172  1  0.10780000  0.09104000  0.55010000  1.0
  O  O173  1  0.60781000  0.90900000  0.44990000  1.0
  O  O174  1  0.10783000  0.40899000  0.05011000  1.0
  O  O175  1  0.60781000  0.59098000  0.94990000  1.0
  O  O176  1  0.04397000  0.05729000  0.68948000  1.0
  O  O177  1  0.54401000  0.94271000  0.31051000  1.0
  O  O178  1  0.04404000  0.44270000  0.18949000  1.0
  O  O179  1  0.54403000  0.55730000  0.81051000  1.0
  O  O180  1  0.81077000  0.93014000  0.76587000  1.0
  O  O181  1  0.31077000  0.06987000  0.23414000  1.0
  O  O182  1  0.81077000  0.56988000  0.26587000  1.0
  O  O183  1  0.31075000  0.43014000  0.73413000  1.0
  O  O184  1  0.88729000  0.86727000  0.62745000  1.0
  O  O185  1  0.38728000  0.13273000  0.37255000  1.0
  O  O186  1  0.88729000  0.63272000  0.12745000  1.0
  O  O187  1  0.38730000  0.36727000  0.87255000  1.0
  O  O188  1  0.91138000  0.60983000  0.72000000  1.0
  O  O189  1  0.41143000  0.39017000  0.28000000  1.0
  O  O190  1  0.91140000  0.89018000  0.22000000  1.0
  O  O191  1  0.41142000  0.10982000  0.77999000  1.0
  O  O192  1  0.86775000  0.50580000  0.53802000  1.0
  O  O193  1  0.36774000  0.49420000  0.46198000  1.0
  O  O194  1  0.86776000  0.99420000  0.03802000  1.0
  O  O195  1  0.36776000  0.00580000  0.96198000  1.0
  O  O196  1  0.19030000  0.50882000  0.54222000  1.0
  O  O197  1  0.69030000  0.49118000  0.45779000  1.0
  O  O198  1  0.19030000  0.99119000  0.04222000  1.0
  O  O199  1  0.69030000  0.00882000  0.95778000  1.0
  O  O200  1  0.74023000  0.70675000  0.50798000  1.0
  O  O201  1  0.24024000  0.29325000  0.49202000  1.0
  O  O202  1  0.74023000  0.79325000  0.00798000  1.0
  O  O203  1  0.24023000  0.20675000  0.99202000  1.0
  O  O204  1  0.34491000  0.71602000  0.50541000  1.0
  O  O205  1  0.84491000  0.28399000  0.49459000  1.0
  O  O206  1  0.34491000  0.78398000  0.00541000  1.0
  O  O207  1  0.84491000  0.21602000  0.99458000  1.0
