# generated using pymatgen
data_CuPH5C7O5
_symmetry_space_group_name_H-M   'P 1'
_cell_length_a   5.24609000
_cell_length_b   8.12354000
_cell_length_c   18.76040000
_cell_angle_alpha   89.99930000
_cell_angle_beta   90.02850000
_cell_angle_gamma   89.99930000
_symmetry_Int_Tables_number   1
_chemical_formula_structural   CuPH5C7O5
_chemical_formula_sum   'Cu4 P4 H20 C28 O20'
_cell_volume   799.50852764
_cell_formula_units_Z   4
loop_
 _symmetry_equiv_pos_site_id
 _symmetry_equiv_pos_as_xyz
  1  'x, y, z'
loop_
 _atom_site_type_symbol
 _atom_site_label
 _atom_site_symmetry_multiplicity
 _atom_site_fract_x
 _atom_site_fract_y
 _atom_site_fract_z
 _atom_site_occupancy
  Cu  Cu0  1  0.49600000  0.81348000  0.99928000  1.0
  Cu  Cu1  1  0.00400000  0.31348000  0.00072000  1.0
  Cu  Cu2  1  0.50400000  0.18652000  0.00073000  1.0
  Cu  Cu3  1  0.99600000  0.68652000  0.99927000  1.0
  P  P4  1  0.91656000  0.99848000  0.90714000  1.0
  P  P5  1  0.58344000  0.49848000  0.09286000  1.0
  P  P6  1  0.08343000  0.00152000  0.09286000  1.0
  P  P7  1  0.41659000  0.50152000  0.90714000  1.0
  H  H8  1  0.39001000  0.15059000  0.70127000  1.0
  H  H9  1  0.10998000  0.65058000  0.29872000  1.0
  H  H10  1  0.61000000  0.84939000  0.29871000  1.0
  H  H11  1  0.89001000  0.34942000  0.70129000  1.0
  H  H12  1  0.50580000  0.14518000  0.83014000  1.0
  H  H13  1  0.99419000  0.64517000  0.16986000  1.0
  H  H14  1  0.49418000  0.85483000  0.16985000  1.0
  H  H15  1  0.00586000  0.35483000  0.83015000  1.0
  H  H16  1  0.16669000  0.85065000  0.78045000  1.0
  H  H17  1  0.33333333  0.35065000  0.21955000  1.0
  H  H18  1  0.83329000  0.14935000  0.21956000  1.0
  H  H19  1  0.66666667  0.64937000  0.78045000  1.0
  H  H20  1  0.05051000  0.85921000  0.65150000  1.0
  H  H21  1  0.44948000  0.35920000  0.34850000  1.0
  H  H22  1  0.94952000  0.14077000  0.34850000  1.0
  H  H23  1  0.55049000  0.64081000  0.65150000  1.0
  H  H24  1  0.68768000  0.92189000  0.49843000  1.0
  H  H25  1  0.81231000  0.42191000  0.50157000  1.0
  H  H26  1  0.31233000  0.07807000  0.50156000  1.0
  H  H27  1  0.18765000  0.57810000  0.49844000  1.0
  C  C28  1  0.84435000  0.99843000  0.81329000  1.0
  C  C29  1  0.65565000  0.49843000  0.18671000  1.0
  C  C30  1  0.15564000  0.00157000  0.18671000  1.0
  C  C31  1  0.34438000  0.50158000  0.81329000  1.0
  C  C32  1  0.56032000  0.08639000  0.71923000  1.0
  C  C33  1  0.93968000  0.58637000  0.28077000  1.0
  C  C34  1  0.43968000  0.91360000  0.28076000  1.0
  C  C35  1  0.06033000  0.41363000  0.71923000  1.0
  C  C36  1  0.62525000  0.08334000  0.79097000  1.0
  C  C37  1  0.87475000  0.58334000  0.20903000  1.0
  C  C38  1  0.37474000  0.91665000  0.20902000  1.0
  C  C39  1  0.12528000  0.41667000  0.79098000  1.0
  C  C40  1  0.99786000  0.91749000  0.76306000  1.0
  C  C41  1  0.50213000  0.41750000  0.23694000  1.0
  C  C42  1  0.00214000  0.08250000  0.23695000  1.0
  C  C43  1  0.49788000  0.58251000  0.76305000  1.0
  C  C44  1  0.93205000  0.92088000  0.69101000  1.0
  C  C45  1  0.56794000  0.42087000  0.30899000  1.0
  C  C46  1  0.06796000  0.07911000  0.30899000  1.0
  C  C47  1  0.43204000  0.57915000  0.69101000  1.0
  C  C48  1  0.71174000  0.00450000  0.66897000  1.0
  C  C49  1  0.78825000  0.50449000  0.33102000  1.0
  C  C50  1  0.28826000  0.99548000  0.33102000  1.0
  C  C51  1  0.21174000  0.49552000  0.66898000  1.0
  C  C52  1  0.62461000  0.00470000  0.59353000  1.0
  C  C53  1  0.87537000  0.50471000  0.40647000  1.0
  C  C54  1  0.37540000  0.99526000  0.40647000  1.0
  C  C55  1  0.12459000  0.49532000  0.59353000  1.0
  O  O56  1  0.65036000  0.00017000  0.94616000  1.0
  O  O57  1  0.84964000  0.50017000  0.05384000  1.0
  O  O58  1  0.34963000  0.99983000  0.05384000  1.0
  O  O59  1  0.15038000  0.49983000  0.94616000  1.0
  O  O60  1  0.06961000  0.84237000  0.92445000  1.0
  O  O61  1  0.43038000  0.34237000  0.07555000  1.0
  O  O62  1  0.93037000  0.15763000  0.07555000  1.0
  O  O63  1  0.56964000  0.65763000  0.92446000  1.0
  O  O64  1  0.06545000  0.15702000  0.92425000  1.0
  O  O65  1  0.43454000  0.65701000  0.07574000  1.0
  O  O66  1  0.93454000  0.84299000  0.07574000  1.0
  O  O67  1  0.56548000  0.34299000  0.92426000  1.0
  O  O68  1  0.76659000  0.91873000  0.54918000  1.0
  O  O69  1  0.73341000  0.41873000  0.45082000  1.0
  O  O70  1  0.23343000  0.08124000  0.45081000  1.0
  O  O71  1  0.26656000  0.58128000  0.54918000  1.0
  O  O72  1  0.42632000  0.07990000  0.57617000  1.0
  O  O73  1  0.07364000  0.57993000  0.42383000  1.0
  O  O74  1  0.57367000  0.92004000  0.42383000  1.0
  O  O75  1  0.92629000  0.42011000  0.57618000  1.0
