# generated using pymatgen
data_Zn6H28C51(NO13)2
_symmetry_space_group_name_H-M   'P 1'
_cell_length_a   18.57055965
_cell_length_b   18.61460000
_cell_length_c   18.70150000
_cell_angle_alpha   70.60700000
_cell_angle_beta   70.65126236
_cell_angle_gamma   109.68243454
_symmetry_Int_Tables_number   1
_chemical_formula_structural   Zn6H28C51(NO13)2
_chemical_formula_sum   'Zn6 H28 C51 N2 O26'
_cell_volume   4975.92291797
_cell_formula_units_Z   1
loop_
 _symmetry_equiv_pos_site_id
 _symmetry_equiv_pos_as_xyz
  1  'x, y, z'
loop_
 _atom_site_type_symbol
 _atom_site_label
 _atom_site_symmetry_multiplicity
 _atom_site_fract_x
 _atom_site_fract_y
 _atom_site_fract_z
 _atom_site_occupancy
  Zn  Zn0  1  0.56481000  0.49879000  0.44510000  1.0
  Zn  Zn1  1  0.43487000  0.50102000  0.56296000  1.0
  Zn  Zn2  1  0.99716000  0.06355000  0.44079000  1.0
  Zn  Zn3  1  0.00203000  0.93872000  0.56008000  1.0
  Zn  Zn4  1  0.43981000  0.93165000  0.99936000  1.0
  Zn  Zn5  1  0.56146000  0.05557000  0.00506000  1.0
  H  H6  1  0.66754000  0.84174000  0.57957000  1.0
  H  H7  1  0.61842000  0.66111000  0.66065000  1.0
  H  H8  1  0.80010000  0.71183000  0.57372000  1.0
  H  H9  1  0.78370000  0.70030000  0.43087000  1.0
  H  H10  1  0.83097000  0.88102000  0.35083000  1.0
  H  H11  1  0.64901000  0.82837000  0.43924000  1.0
  H  H12  1  0.36739000  0.24294000  0.75006000  1.0
  H  H13  1  0.35214000  0.11193000  0.86442000  1.0
  H  H14  1  0.63512000  0.23364000  0.73912000  1.0
  H  H15  1  0.64952000  0.35656000  0.61636000  1.0
  H  H16  1  0.19692000  0.35970000  0.54462000  1.0
  H  H17  1  0.10503000  0.26069000  0.50761000  1.0
  H  H18  1  0.38729000  0.27812000  0.47296000  1.0
  H  H19  1  0.58849000  0.76808000  0.29597000  1.0
  H  H20  1  0.57043000  0.87648000  0.19241000  1.0
  H  H21  1  0.43132000  0.67711000  0.14435000  1.0
  H  H22  1  0.89355000  0.98199000  0.79684000  1.0
  H  H23  1  0.79100000  0.00866000  0.89736000  1.0
  H  H24  1  0.64979000  0.00659000  0.75540000  1.0
  H  H25  1  0.76121000  0.99506000  0.64674000  1.0
  H  H26  1  0.14606000  0.84527000  0.39929000  1.0
  H  H27  1  0.26881000  0.85827000  0.27754000  1.0
  H  H28  1  0.36445000  0.13553000  0.12741000  1.0
  H  H29  1  0.23229000  0.11821000  0.24236000  1.0
  H  H30  1  0.36715000  0.18359000  0.42649000  1.0
  H  H31  1  0.34385000  0.13470000  0.33711000  1.0
  H  H32  1  0.26712000  0.17203000  0.33956000  1.0
  H  H33  1  0.23106000  0.06410000  0.42049000  1.0
  C  C34  1  0.51768000  0.38345000  0.60685000  1.0
  C  C35  1  0.58998000  0.62945000  0.51676000  1.0
  C  C36  1  0.52435000  0.59949000  0.35103000  1.0
  C  C37  1  0.35891000  0.38427000  0.52574000  1.0
  C  C38  1  0.66666667  0.71004667  0.59179333  1.0
  C  C39  1  0.69224000  0.80911000  0.54703000  1.0
  C  C40  1  0.79318000  0.83650000  0.49848000  1.0
  C  C41  1  0.76630000  0.73718000  0.54345000  1.0
  C  C42  1  0.75869000  0.73223000  0.46406000  1.0
  C  C43  1  0.78358000  0.83122000  0.41959000  1.0
  C  C44  1  0.68388000  0.80350000  0.46831000  1.0
  C  C45  1  0.65883000  0.70321000  0.51251000  1.0
  C  C46  1  0.42552000  0.23896000  0.74676000  1.0
  C  C47  1  0.41708000  0.16655000  0.81093000  1.0
  C  C48  1  0.49282000  0.16536000  0.80859000  1.0
  C  C49  1  0.57672000  0.23474000  0.73950000  1.0
  C  C50  1  0.58484000  0.30373000  0.67198000  1.0
  C  C51  1  0.50930000  0.30715000  0.67654000  1.0
  C  C52  1  0.21707000  0.31895000  0.52247000  1.0
  C  C53  1  0.16692000  0.26446000  0.50126000  1.0
  C  C54  1  0.19163000  0.21018000  0.47425000  1.0
  C  C55  1  0.27254000  0.21407000  0.46365000  1.0
  C  C56  1  0.32355000  0.27147000  0.48313000  1.0
  C  C57  1  0.29668000  0.32223000  0.51264000  1.0
  C  C58  1  0.55499000  0.74895000  0.26180000  1.0
  C  C59  1  0.54449000  0.80912000  0.20480000  1.0
  C  C60  1  0.49789000  0.78352000  0.16372000  1.0
  C  C61  1  0.46605000  0.69820000  0.17678000  1.0
  C  C62  1  0.47794000  0.63881000  0.23374000  1.0
  C  C63  1  0.52011000  0.66179000  0.27892000  1.0
  C  C64  1  0.89754000  0.98171000  0.64756000  1.0
  C  C65  1  0.86773000  0.90653000  0.49214000  1.0
  C  C66  1  0.10893000  0.97530000  0.39887000  1.0
  C  C67  1  0.12487000  0.14252000  0.46986000  1.0
  C  C68  1  0.64722000  0.01758000  0.89380000  1.0
  C  C69  1  0.48610000  0.09352000  0.88146000  1.0
  C  C70  1  0.39787000  0.00458000  0.12435000  1.0
  C  C71  1  0.48399000  0.84954000  0.10719000  1.0
  C  C72  1  0.84118000  0.98932000  0.78712000  1.0
  C  C73  1  0.78380000  0.00373000  0.84336000  1.0
  C  C74  1  0.71491000  0.00980000  0.83175000  1.0
  C  C75  1  0.70478000  0.00363000  0.76254000  1.0
  C  C76  1  0.76535000  0.99539000  0.70337000  1.0
  C  C77  1  0.83315000  0.98702000  0.71597000  1.0
  C  C78  1  0.19296000  0.90798000  0.33873000  1.0
  C  C79  1  0.26218000  0.91567000  0.27162000  1.0
  C  C80  1  0.32475000  0.99794000  0.19613000  1.0
  C  C81  1  0.31554000  0.07173000  0.18623000  1.0
  C  C82  1  0.24250000  0.06235000  0.25056000  1.0
  C  C83  1  0.18213000  0.98110000  0.32796000  1.0
  C  C84  1  0.28552000  0.13258000  0.38063000  1.0
  N  N85  1  0.30650000  0.16807000  0.43373000  1.0
  N  N86  1  0.44090000  0.54829000  0.24846000  1.0
  O  O87  1  0.57807000  0.41523000  0.52780000  1.0
  O  O88  1  0.46507000  0.41108000  0.63001000  1.0
  O  O89  1  0.61744000  0.59886000  0.46889000  1.0
  O  O90  1  0.50784000  0.60051000  0.56792000  1.0
  O  O91  1  0.58070000  0.57393000  0.33213000  1.0
  O  O92  1  0.47476000  0.58376000  0.42614000  1.0
  O  O93  1  0.43889000  0.40262000  0.48908000  1.0
  O  O94  1  0.33051000  0.41701000  0.57228000  1.0
  O  O95  1  0.91703000  0.02929000  0.56974000  1.0
  O  O96  1  0.92827000  0.93062000  0.66950000  1.0
  O  O97  1  0.89651000  0.98763000  0.43825000  1.0
  O  O98  1  0.89878000  0.88119000  0.54049000  1.0
  O  O99  1  0.08197000  0.02861000  0.37594000  1.0
  O  O100  1  0.08032000  0.91860000  0.47843000  1.0
  O  O101  1  0.08933000  0.16726000  0.42490000  1.0
  O  O102  1  0.10389000  0.06285000  0.51459000  1.0
  O  O103  1  0.56892000  0.97560000  0.90907000  1.0
  O  O104  1  0.67030000  0.06504000  0.92771000  1.0
  O  O105  1  0.42860000  0.01329000  0.91128000  1.0
  O  O106  1  0.53879000  0.11798000  0.90891000  1.0
  O  O107  1  0.37484000  0.95077000  0.09788000  1.0
  O  O108  1  0.47758000  0.06343000  0.09460000  1.0
  O  O109  1  0.43381000  0.82473000  0.07628000  1.0
  O  O110  1  0.52329000  0.92729000  0.09359000  1.0
  O  O111  1  0.42619000  0.48982000  0.31681000  1.0
  O  O112  1  0.42655000  0.53657000  0.19195000  1.0
