# generated using pymatgen
data_CuH12C10(NO)4
_symmetry_space_group_name_H-M   'P 1'
_cell_length_a   4.71701000
_cell_length_b   9.47075000
_cell_length_c   13.51090000
_cell_angle_alpha   90.00010000
_cell_angle_beta   90.00040000
_cell_angle_gamma   95.86190000
_symmetry_Int_Tables_number   1
_chemical_formula_structural   CuH12C10(NO)4
_chemical_formula_sum   'Cu2 H24 C20 N8 O8'
_cell_volume   600.42469194
_cell_formula_units_Z   2
loop_
 _symmetry_equiv_pos_site_id
 _symmetry_equiv_pos_as_xyz
  1  'x, y, z'
loop_
 _atom_site_type_symbol
 _atom_site_label
 _atom_site_symmetry_multiplicity
 _atom_site_fract_x
 _atom_site_fract_y
 _atom_site_fract_z
 _atom_site_occupancy
  Cu  Cu0  1  0.00000000  0.50000000  0.50000000  1.0
  Cu  Cu1  1  0.00000000  0.00000000  0.00000000  1.0
  H  H2  1  0.89178000  0.33499000  0.29579000  1.0
  H  H3  1  0.10822000  0.16502000  0.79580000  1.0
  H  H4  1  0.10823000  0.66502000  0.70421000  1.0
  H  H5  1  0.89178000  0.83498000  0.20421000  1.0
  H  H6  1  0.49578000  0.41602000  0.16000000  1.0
  H  H7  1  0.50422000  0.08399000  0.66000000  1.0
  H  H8  1  0.50424000  0.58399000  0.84000000  1.0
  H  H9  1  0.49577000  0.91601000  0.33999000  1.0
  H  H10  1  0.27137000  0.63801000  0.25496000  1.0
  H  H11  1  0.72862000  0.86199000  0.75496000  1.0
  H  H12  1  0.72865000  0.36199000  0.74504000  1.0
  H  H13  1  0.27136000  0.13800000  0.24504000  1.0
  H  H14  1  0.96674000  0.95621000  0.60923000  1.0
  H  H15  1  0.03326000  0.54379000  0.10922000  1.0
  H  H16  1  0.03325000  0.04379000  0.39077000  1.0
  H  H17  1  0.96674000  0.45621000  0.89077000  1.0
  H  H18  1  0.69719000  0.92577000  0.51976000  1.0
  H  H19  1  0.30281000  0.57423000  0.01976000  1.0
  H  H20  1  0.30281000  0.07424000  0.48024000  1.0
  H  H21  1  0.69719000  0.42577000  0.98024000  1.0
  H  H22  1  0.50041000  0.66089000  0.42189000  1.0
  H  H23  1  0.49958000  0.83911000  0.92189000  1.0
  H  H24  1  0.49960000  0.33911000  0.57811000  1.0
  H  H25  1  0.50041000  0.16088000  0.07811000  1.0
  C  C26  1  0.74952000  0.41753000  0.30079000  1.0
  C  C27  1  0.25048000  0.08248000  0.80079000  1.0
  C  C28  1  0.25049000  0.58248000  0.69921000  1.0
  C  C29  1  0.74951000  0.91752000  0.19921000  1.0
  C  C30  1  0.55208000  0.46064000  0.23223000  1.0
  C  C31  1  0.44793000  0.03936000  0.73223000  1.0
  C  C32  1  0.44794000  0.53937000  0.76777000  1.0
  C  C33  1  0.55206000  0.96063000  0.26777000  1.0
  C  C34  1  0.43330000  0.57194000  0.27841000  1.0
  C  C35  1  0.56670000  0.92806000  0.77841000  1.0
  C  C36  1  0.56672000  0.42807000  0.72159000  1.0
  C  C37  1  0.43329000  0.07193000  0.22159000  1.0
  C  C38  1  0.03879000  0.79653000  0.50501000  1.0
  C  C39  1  0.96121000  0.70347000  0.00501000  1.0
  C  C40  1  0.96121000  0.20347000  0.49499000  1.0
  C  C41  1  0.03879000  0.29653000  0.99499000  1.0
  C  C42  1  0.92931000  0.93781000  0.52963000  1.0
  C  C43  1  0.07069000  0.56219000  0.02963000  1.0
  C  C44  1  0.07068000  0.06220000  0.47037000  1.0
  C  C45  1  0.92931000  0.43780000  0.97036000  1.0
  N  N46  1  0.75118000  0.49787000  0.38309000  1.0
  N  N47  1  0.24882000  0.00213000  0.88309000  1.0
  N  N48  1  0.24882000  0.50213000  0.61691000  1.0
  N  N49  1  0.75118000  0.99787000  0.11691000  1.0
  N  N50  1  0.55771000  0.59143000  0.36787000  1.0
  N  N51  1  0.44228000  0.90857000  0.86787000  1.0
  N  N52  1  0.44229000  0.40857000  0.63213000  1.0
  N  N53  1  0.55771000  0.09143000  0.13213000  1.0
  O  O54  1  0.88062000  0.68668000  0.53816000  1.0
  O  O55  1  0.11939000  0.81332000  0.03816000  1.0
  O  O56  1  0.11938000  0.31333000  0.46184000  1.0
  O  O57  1  0.88061000  0.18667000  0.96184000  1.0
  O  O58  1  0.26487000  0.79096000  0.45674000  1.0
  O  O59  1  0.73513000  0.70904000  0.95674000  1.0
  O  O60  1  0.73513000  0.20904000  0.54326000  1.0
  O  O61  1  0.26486000  0.29096000  0.04326000  1.0
