# generated using pymatgen
data_CdH22C28(NO)4
_symmetry_space_group_name_H-M   'P 1'
_cell_length_a   9.11925000
_cell_length_b   14.33630000
_cell_length_c   20.69330572
_cell_angle_alpha   69.74295301
_cell_angle_beta   81.53921166
_cell_angle_gamma   89.99300000
_symmetry_Int_Tables_number   1
_chemical_formula_structural   CdH22C28(NO)4
_chemical_formula_sum   'Cd4 H88 C112 N16 O16'
_cell_volume   2506.64640976
_cell_formula_units_Z   4
loop_
 _symmetry_equiv_pos_site_id
 _symmetry_equiv_pos_as_xyz
  1  'x, y, z'
loop_
 _atom_site_type_symbol
 _atom_site_label
 _atom_site_symmetry_multiplicity
 _atom_site_fract_x
 _atom_site_fract_y
 _atom_site_fract_z
 _atom_site_occupancy
  Cd  Cd0  1  0.61040000  0.63209000  0.20491000  1.0
  Cd  Cd1  1  0.88943000  0.83664000  0.79510000  1.0
  Cd  Cd2  1  0.38961000  0.36791000  0.79509000  1.0
  Cd  Cd3  1  0.11057000  0.16336000  0.20490000  1.0
  H  H4  1  0.53945000  0.37801000  0.43905000  1.0
  H  H5  1  0.50737000  0.68090000  0.43017000  1.0
  H  H6  1  0.13233000  0.62154000  0.12432000  1.0
  H  H7  1  0.52553000  0.69525000  0.97055000  1.0
  H  H8  1  0.90151000  0.55704000  0.29191000  1.0
  H  H9  1  0.81310000  0.50216000  0.11319000  1.0
  H  H10  1  0.04108000  0.38517000  0.16603000  1.0
  H  H11  1  0.14220000  0.34597000  0.28026000  1.0
  H  H12  1  0.21800000  0.46855000  0.26360000  1.0
  H  H13  1  0.85471000  0.33337000  0.37139000  1.0
  H  H14  1  0.79651000  0.29224000  0.49788000  1.0
  H  H15  1  0.21592000  0.43276000  0.49625000  1.0
  H  H16  1  0.27612000  0.47065000  0.36921000  1.0
  H  H17  1  0.73651000  0.33984000  0.59145000  1.0
  H  H18  1  0.68844000  0.28466000  0.71949000  1.0
  H  H19  1  0.15681000  0.24893000  0.72493000  1.0
  H  H20  1  0.20482000  0.30446000  0.59730000  1.0
  H  H21  1  0.79421000  0.26048000  0.82849000  1.0
  H  H22  1  0.98525000  0.23366000  0.83225000  1.0
  H  H23  1  0.94845000  0.07374000  0.75065000  1.0
  H  H24  1  0.70011000  0.89793000  0.94335000  1.0
  H  H25  1  0.71367000  0.09584000  0.93650000  1.0
  H  H26  1  0.96018000  0.81702000  0.56063000  1.0
  H  H27  1  0.99272000  0.11065000  0.57015000  1.0
  H  H28  1  0.36772000  0.74595000  0.87556000  1.0
  H  H29  1  0.97455000  0.66543000  0.02934000  1.0
  H  H30  1  0.59849000  0.84875000  0.70820000  1.0
  H  H31  1  0.68642000  0.61490000  0.88687000  1.0
  H  H32  1  0.45828000  0.55113000  0.83392000  1.0
  H  H33  1  0.35750000  0.62638000  0.71959000  1.0
  H  H34  1  0.28173000  0.73227000  0.73636000  1.0
  H  H35  1  0.64525000  0.70490000  0.62870000  1.0
  H  H36  1  0.70362000  0.79013000  0.50220000  1.0
  H  H37  1  0.28436000  0.92925000  0.50369000  1.0
  H  H38  1  0.22400000  0.84026000  0.63073000  1.0
  H  H39  1  0.76353000  0.93128000  0.40854000  1.0
  H  H40  1  0.81147000  0.00445000  0.28051000  1.0
  H  H41  1  0.34311000  0.97404000  0.27513000  1.0
  H  H42  1  0.29521000  0.90169000  0.40275000  1.0
  H  H43  1  0.70565000  0.08922000  0.17156000  1.0
  H  H44  1  0.51458000  0.06623000  0.16781000  1.0
  H  H45  1  0.55160000  0.82471000  0.24946000  1.0
  H  H46  1  0.79929000  0.84152000  0.05660000  1.0
  H  H47  1  0.78578000  0.03256000  0.06347000  1.0
  H  H48  1  0.46055000  0.62199000  0.56095000  1.0
  H  H49  1  0.49263000  0.31910000  0.56983000  1.0
  H  H50  1  0.86767000  0.37846000  0.87568000  1.0
  H  H51  1  0.47447000  0.30475000  0.02945000  1.0
  H  H52  1  0.09849000  0.44296000  0.70809000  1.0
  H  H53  1  0.18691000  0.49784000  0.88681000  1.0
  H  H54  1  0.95892000  0.61483000  0.83397000  1.0
  H  H55  1  0.85780000  0.65403000  0.71974000  1.0
  H  H56  1  0.78200000  0.53145000  0.73640000  1.0
  H  H57  1  0.14529000  0.66663000  0.62861000  1.0
  H  H58  1  0.20349000  0.70776000  0.50212000  1.0
  H  H59  1  0.78408000  0.56725000  0.50375000  1.0
  H  H60  1  0.72389000  0.52935000  0.63079000  1.0
  H  H61  1  0.26349000  0.66016000  0.40855000  1.0
  H  H62  1  0.31156000  0.71534000  0.28051000  1.0
  H  H63  1  0.84319000  0.75107000  0.27507000  1.0
  H  H64  1  0.79518000  0.69554000  0.40270000  1.0
  H  H65  1  0.20579000  0.73952000  0.17151000  1.0
  H  H66  1  0.01475000  0.76634000  0.16775000  1.0
  H  H67  1  0.05155000  0.92627000  0.24934000  1.0
  H  H68  1  0.29989000  0.10208000  0.05664000  1.0
  H  H69  1  0.28632000  0.90416000  0.06350000  1.0
  H  H70  1  0.03982000  0.18298000  0.43937000  1.0
  H  H71  1  0.00729000  0.88935000  0.42985000  1.0
  H  H72  1  0.63228000  0.25405000  0.12444000  1.0
  H  H73  1  0.02545000  0.33457000  0.97066000  1.0
  H  H74  1  0.40150000  0.15126000  0.29180000  1.0
  H  H75  1  0.31358000  0.38511000  0.11312000  1.0
  H  H76  1  0.54172000  0.44887000  0.16608000  1.0
  H  H77  1  0.64250000  0.37362000  0.28041000  1.0
  H  H78  1  0.71826000  0.26774000  0.26363000  1.0
  H  H79  1  0.35475000  0.29510000  0.37130000  1.0
  H  H80  1  0.29637000  0.20986000  0.49780000  1.0
  H  H81  1  0.71564000  0.07075000  0.49631000  1.0
  H  H82  1  0.77600000  0.15973000  0.36927000  1.0
  H  H83  1  0.23647000  0.06872000  0.59146000  1.0
  H  H84  1  0.18852000  0.99555000  0.71949000  1.0
  H  H85  1  0.65689000  0.02596000  0.72487000  1.0
  H  H86  1  0.70479000  0.09831000  0.59725000  1.0
  H  H87  1  0.29435000  0.91078000  0.82844000  1.0
  H  H88  1  0.48542000  0.93377000  0.83219000  1.0
  H  H89  1  0.44840000  0.17529000  0.75054000  1.0
  H  H90  1  0.20071000  0.15849000  0.94339000  1.0
  H  H91  1  0.21421000  0.96744000  0.93653000  1.0
  C  C92  1  0.54875000  0.56695000  0.34890000  1.0
  C  C93  1  0.52555000  0.53265000  0.42694000  1.0
  C  C94  1  0.52287000  0.43083000  0.46624000  1.0
  C  C95  1  0.50325000  0.60171000  0.46124000  1.0
  C  C96  1  0.43364000  0.63538000  0.10880000  1.0
  C  C97  1  0.33821000  0.65772000  0.05291000  1.0
  C  C98  1  0.18292000  0.64879000  0.06972000  1.0
  C  C99  1  0.40481000  0.69100000  0.98270000  1.0
  C  C100  1  0.90709000  0.52779000  0.24988000  1.0
  C  C101  1  0.86521000  0.49602000  0.15824000  1.0
  C  C102  1  0.97739000  0.43747000  0.18426000  1.0
  C  C103  1  0.11773000  0.41847000  0.28529000  1.0
  C  C104  1  0.07071000  0.40414000  0.36126000  1.0
  C  C105  1  0.93405000  0.35638000  0.39827000  1.0
  C  C106  1  0.90082000  0.33349000  0.47008000  1.0
  C  C107  1  0.00331000  0.35740000  0.50736000  1.0
  C  C108  1  0.13705000  0.40929000  0.46938000  1.0
  C  C109  1  0.17026000  0.43215000  0.39751000  1.0
  C  C110  1  0.97397000  0.32588000  0.58424000  1.0
  C  C111  1  0.82891000  0.31859000  0.62047000  1.0
  C  C112  1  0.80174000  0.28752000  0.69291000  1.0
  C  C113  1  0.91874000  0.26168000  0.73161000  1.0
  C  C114  1  0.06368000  0.26874000  0.69602000  1.0
  C  C115  1  0.09101000  0.30077000  0.62343000  1.0
  C  C116  1  0.88710000  0.22252000  0.81004000  1.0
  C  C117  1  0.88591000  0.05128000  0.80283000  1.0
  C  C118  1  0.75542000  0.96351000  0.90253000  1.0
  C  C119  1  0.76166000  0.06072000  0.90020000  1.0
  C  C120  1  0.95111000  0.91548000  0.65109000  1.0
  C  C121  1  0.97434000  0.95935000  0.57305000  1.0
  C  C122  1  0.97690000  0.89706000  0.53357000  1.0
  C  C123  1  0.99686000  0.06273000  0.53893000  1.0
  C  C124  1  0.06642000  0.74400000  0.89111000  1.0
  C  C125  1  0.16185000  0.71046000  0.94698000  1.0
  C  C126  1  0.31716000  0.71858000  0.93017000  1.0
  C  C127  1  0.09526000  0.67349000  0.01719000  1.0
  C  C128  1  0.59276000  0.77745000  0.75020000  1.0
  C  C129  1  0.63439000  0.65392000  0.84181000  1.0
  C  C130  1  0.52214000  0.62157000  0.81575000  1.0
  C  C131  1  0.38202000  0.70386000  0.71466000  1.0
  C  C132  1  0.42924000  0.76560000  0.63875000  1.0
  C  C133  1  0.56597000  0.75479000  0.60178000  1.0
  C  C134  1  0.59930000  0.80364000  0.52997000  1.0
  C  C135  1  0.49684000  0.86480000  0.49265000  1.0
  C  C136  1  0.36315000  0.87890000  0.53059000  1.0
  C  C137  1  0.32987000  0.82997000  0.60247000  1.0
  C  C138  1  0.52609000  0.91005000  0.41577000  1.0
  C  C139  1  0.67111000  0.93907000  0.37953000  1.0
  C  C140  1  0.69822000  0.98064000  0.30710000  1.0
  C  C141  1  0.58116000  0.99355000  0.26843000  1.0
  C  C142  1  0.43626000  0.96491000  0.30402000  1.0
  C  C143  1  0.40900000  0.92416000  0.37661000  1.0
  C  C144  1  0.61273000  0.03287000  0.19000000  1.0
  C  C145  1  0.61396000  0.85441000  0.19725000  1.0
  C  C146  1  0.74406000  0.86628000  0.09746000  1.0
  C  C147  1  0.73785000  0.96118000  0.09978000  1.0
  C  C148  1  0.45125000  0.43305000  0.65110000  1.0
  C  C149  1  0.47446000  0.46735000  0.57306000  1.0
  C  C150  1  0.47713000  0.56917000  0.53376000  1.0
  C  C151  1  0.49675000  0.39829000  0.53876000  1.0
  C  C152  1  0.56636000  0.36463000  0.89120000  1.0
  C  C153  1  0.66179000  0.34228000  0.94709000  1.0
  C  C154  1  0.81708000  0.35121000  0.93028000  1.0
  C  C155  1  0.59519000  0.30900000  0.01730000  1.0
  C  C156  1  0.09291000  0.47221000  0.75012000  1.0
  C  C157  1  0.13479000  0.50398000  0.84176000  1.0
  C  C158  1  0.02262000  0.56253000  0.81574000  1.0
  C  C159  1  0.88227000  0.58153000  0.71471000  1.0
  C  C160  1  0.92929000  0.59586000  0.63874000  1.0
  C  C161  1  0.06596000  0.64362000  0.60173000  1.0
  C  C162  1  0.09918000  0.66651000  0.52992000  1.0
  C  C163  1  0.99669000  0.64260000  0.49264000  1.0
  C  C164  1  0.86296000  0.59071000  0.53062000  1.0
  C  C165  1  0.82974000  0.56785000  0.60249000  1.0
  C  C166  1  0.02603000  0.67412000  0.41576000  1.0
  C  C167  1  0.17109000  0.68141000  0.37953000  1.0
  C  C168  1  0.19826000  0.71248000  0.30709000  1.0
  C  C169  1  0.08126000  0.73832000  0.26839000  1.0
  C  C170  1  0.93632000  0.73126000  0.30398000  1.0
  C  C171  1  0.90899000  0.69923000  0.37657000  1.0
  C  C172  1  0.11289000  0.77748000  0.18996000  1.0
  C  C173  1  0.11409000  0.94871000  0.19717000  1.0
  C  C174  1  0.24458000  0.03650000  0.09746000  1.0
  C  C175  1  0.23834000  0.93928000  0.09980000  1.0
  C  C176  1  0.04890000  0.08451000  0.34891000  1.0
  C  C177  1  0.02567000  0.04065000  0.42695000  1.0
  C  C178  1  0.02310000  0.10294000  0.46643000  1.0
  C  C179  1  0.00315000  0.93727000  0.46107000  1.0
  C  C180  1  0.93358000  0.25600000  0.10889000  1.0
  C  C181  1  0.83815000  0.28954000  0.05302000  1.0
  C  C182  1  0.68284000  0.28142000  0.06983000  1.0
  C  C183  1  0.90474000  0.32651000  0.98281000  1.0
  C  C184  1  0.40724000  0.22255000  0.24980000  1.0
  C  C185  1  0.36560000  0.34608000  0.15819000  1.0
  C  C186  1  0.47786000  0.37843000  0.18425000  1.0
  C  C187  1  0.61798000  0.29614000  0.28534000  1.0
  C  C188  1  0.57075000  0.23440000  0.36125000  1.0
  C  C189  1  0.43403000  0.24521000  0.39822000  1.0
  C  C190  1  0.40070000  0.19634000  0.47004000  1.0
  C  C191  1  0.50316000  0.13520000  0.50735000  1.0
  C  C192  1  0.63684000  0.12110000  0.46941000  1.0
  C  C193  1  0.67013000  0.17002000  0.39753000  1.0
  C  C194  1  0.47390000  0.08995000  0.58423000  1.0
  C  C195  1  0.32889000  0.06094000  0.62047000  1.0
  C  C196  1  0.30178000  0.01936000  0.69290000  1.0
  C  C197  1  0.41883000  0.00645000  0.73157000  1.0
  C  C198  1  0.56374000  0.03509000  0.69598000  1.0
  C  C199  1  0.59100000  0.07584000  0.62339000  1.0
  C  C200  1  0.38727000  0.96713000  0.81000000  1.0
  C  C201  1  0.38604000  0.14559000  0.80275000  1.0
  C  C202  1  0.25594000  0.13372000  0.90254000  1.0
  C  C203  1  0.26215000  0.03882000  0.90022000  1.0
  N  N204  1  0.82270000  0.55210000  0.19964000  1.0
  N  N205  1  0.00222000  0.45845000  0.24223000  1.0
  N  N206  1  0.83315000  0.95891000  0.84132000  1.0
  N  N207  1  0.84497000  0.11499000  0.83668000  1.0
  N  N208  1  0.67711000  0.75137000  0.80045000  1.0
  N  N209  1  0.49745000  0.70059000  0.75781000  1.0
  N  N210  1  0.66655000  0.80053000  0.15872000  1.0
  N  N211  1  0.65478000  0.95195000  0.16337000  1.0
  N  N212  1  0.17730000  0.44791000  0.80035000  1.0
  N  N213  1  0.99778000  0.54154000  0.75778000  1.0
  N  N214  1  0.16685000  0.04109000  0.15868000  1.0
  N  N215  1  0.15503000  0.88501000  0.16332000  1.0
  N  N216  1  0.32289000  0.24864000  0.19955000  1.0
  N  N217  1  0.50254000  0.29941000  0.24219000  1.0
  N  N218  1  0.33345000  0.19947000  0.84128000  1.0
  N  N219  1  0.34522000  0.04805000  0.83663000  1.0
  O  O220  1  0.57471000  0.66006000  0.31447000  1.0
  O  O221  1  0.54096000  0.50276000  0.31936000  1.0
  O  O222  1  0.57073000  0.62198000  0.09399000  1.0
  O  O223  1  0.37460000  0.63352000  0.16961000  1.0
  O  O224  1  0.92512000  0.97408000  0.68558000  1.0
  O  O225  1  0.95895000  0.82176000  0.68055000  1.0
  O  O226  1  0.92930000  0.71580000  0.90595000  1.0
  O  O227  1  0.12537000  0.80297000  0.83031000  1.0
  O  O228  1  0.42529000  0.33994000  0.68553000  1.0
  O  O229  1  0.45904000  0.49724000  0.68064000  1.0
  O  O230  1  0.42926000  0.37802000  0.90601000  1.0
  O  O231  1  0.62540000  0.36648000  0.83039000  1.0
  O  O232  1  0.07488000  0.02592000  0.31441000  1.0
  O  O233  1  0.04105000  0.17824000  0.31945000  1.0
  O  O234  1  0.07070000  0.28420000  0.09405000  1.0
  O  O235  1  0.87463000  0.19703000  0.16969000  1.0
