# generated using pymatgen
data_AgPH16C10N2O7
_symmetry_space_group_name_H-M   'P 1'
_cell_length_a   8.76631000
_cell_length_b   10.94420000
_cell_length_c   16.25700000
_cell_angle_alpha   90.00000000
_cell_angle_beta   90.00000000
_cell_angle_gamma   108.24400000
_symmetry_Int_Tables_number   1
_chemical_formula_structural   AgPH16C10N2O7
_chemical_formula_sum   'Ag4 P4 H64 C40 N8 O28'
_cell_volume   1481.29747885
_cell_formula_units_Z   4
loop_
 _symmetry_equiv_pos_site_id
 _symmetry_equiv_pos_as_xyz
  1  'x, y, z'
loop_
 _atom_site_type_symbol
 _atom_site_label
 _atom_site_symmetry_multiplicity
 _atom_site_fract_x
 _atom_site_fract_y
 _atom_site_fract_z
 _atom_site_occupancy
  Ag  Ag0  1  0.12454000  0.52849000  0.15416000  1.0
  Ag  Ag1  1  0.37546000  0.47151000  0.65416000  1.0
  Ag  Ag2  1  0.87546000  0.47151000  0.84584000  1.0
  Ag  Ag3  1  0.62454000  0.52849000  0.34584000  1.0
  P  P4  1  0.03752000  0.17723000  0.15459000  1.0
  P  P5  1  0.46248000  0.82277000  0.65459000  1.0
  P  P6  1  0.96248000  0.82277000  0.84541000  1.0
  P  P7  1  0.53752000  0.17723000  0.34541000  1.0
  H  H8  1  0.39610000  0.22544000  0.18532000  1.0
  H  H9  1  0.10390000  0.77456000  0.68532000  1.0
  H  H10  1  0.60390000  0.77456000  0.81468000  1.0
  H  H11  1  0.89610000  0.22544000  0.31468000  1.0
  H  H12  1  0.33354000  0.36280000  0.16974000  1.0
  H  H13  1  0.16646000  0.63720000  0.66974000  1.0
  H  H14  1  0.66646000  0.63720000  0.83026000  1.0
  H  H15  1  0.83354000  0.36280000  0.33026000  1.0
  H  H16  1  0.29970000  0.29415000  0.97012000  1.0
  H  H17  1  0.20030000  0.70585000  0.47012000  1.0
  H  H18  1  0.70030000  0.70585000  0.02988000  1.0
  H  H19  1  0.79970000  0.29415000  0.52988000  1.0
  H  H20  1  0.51036000  0.37856000  0.86465000  1.0
  H  H21  1  0.98964000  0.62144000  0.36465000  1.0
  H  H22  1  0.48964000  0.62144000  0.13535000  1.0
  H  H23  1  0.01036000  0.37856000  0.63535000  1.0
  H  H24  1  0.87432000  0.44473000  0.03904000  1.0
  H  H25  1  0.62568000  0.55526000  0.53904000  1.0
  H  H26  1  0.12568000  0.55526000  0.96096000  1.0
  H  H27  1  0.37432000  0.44474000  0.46096000  1.0
  H  H28  1  0.67941000  0.36347000  0.15171000  1.0
  H  H29  1  0.82059000  0.63653000  0.65171000  1.0
  H  H30  1  0.32059000  0.63653000  0.84829000  1.0
  H  H31  1  0.17941000  0.36347000  0.34829000  1.0
  H  H32  1  0.97894000  0.10905000  0.96993000  1.0
  H  H33  1  0.52106000  0.89095000  0.46993000  1.0
  H  H34  1  0.02106000  0.89095000  0.03007000  1.0
  H  H35  1  0.47894000  0.10905000  0.53007000  1.0
  H  H36  1  0.93287000  0.24306000  0.01204000  1.0
  H  H37  1  0.56713000  0.75694000  0.51204000  1.0
  H  H38  1  0.06713000  0.75694000  0.98796000  1.0
  H  H39  1  0.43287000  0.24306000  0.48796000  1.0
  H  H40  1  0.68734000  0.97644000  0.98029000  1.0
  H  H41  1  0.81266000  0.02356000  0.48029000  1.0
  H  H42  1  0.31266000  0.02356000  0.01971000  1.0
  H  H43  1  0.18734000  0.97644000  0.51971000  1.0
  H  H44  1  0.71185000  0.11794000  0.92088000  1.0
  H  H45  1  0.78815000  0.88206000  0.42088000  1.0
  H  H46  1  0.28815000  0.88206000  0.07912000  1.0
  H  H47  1  0.21185000  0.11794000  0.57912000  1.0
  H  H48  1  0.64202000  0.11134000  0.02375000  1.0
  H  H49  1  0.85798000  0.88865000  0.52375000  1.0
  H  H50  1  0.35798000  0.88865000  0.97625000  1.0
  H  H51  1  0.14202000  0.11134000  0.47625000  1.0
  H  H52  1  0.20054000  0.99520000  0.19679000  1.0
  H  H53  1  0.29946000  0.00480000  0.69679000  1.0
  H  H54  1  0.79946000  0.00480000  0.80321000  1.0
  H  H55  1  0.70054000  0.99520000  0.30321000  1.0
  H  H56  1  0.99540000  0.90747000  0.17420000  1.0
  H  H57  1  0.50459000  0.09253000  0.67420000  1.0
  H  H58  1  0.00459000  0.09253000  0.82580000  1.0
  H  H59  1  0.49541000  0.90747000  0.32580000  1.0
  H  H60  1  0.13515000  0.96525000  0.34886000  1.0
  H  H61  1  0.36486000  0.03475000  0.84886000  1.0
  H  H62  1  0.86486000  0.03475000  0.65114000  1.0
  H  H63  1  0.63514000  0.96525000  0.15114000  1.0
  H  H64  1  0.10671000  0.81842000  0.29590000  1.0
  H  H65  1  0.39329000  0.18158000  0.79590000  1.0
  H  H66  1  0.89329000  0.18158000  0.70410000  1.0
  H  H67  1  0.60671000  0.81842000  0.20410000  1.0
  H  H68  1  0.93641000  0.86605000  0.32216000  1.0
  H  H69  1  0.56359000  0.13395000  0.82216000  1.0
  H  H70  1  0.06359000  0.13395000  0.67784000  1.0
  H  H71  1  0.43641000  0.86605000  0.17784000  1.0
  C  C72  1  0.35212000  0.27884000  0.13875000  1.0
  C  C73  1  0.14787000  0.72116000  0.63875000  1.0
  C  C74  1  0.64788000  0.72116000  0.86125000  1.0
  C  C75  1  0.85213000  0.27884000  0.36125000  1.0
  C  C76  1  0.47165000  0.32252000  0.07053000  1.0
  C  C77  1  0.02835000  0.67748000  0.57053000  1.0
  C  C78  1  0.52835000  0.67748000  0.92947000  1.0
  C  C79  1  0.97165000  0.32252000  0.42947000  1.0
  C  C80  1  0.42552000  0.32607000  0.98847000  1.0
  C  C81  1  0.07448000  0.67393000  0.48847000  1.0
  C  C82  1  0.57448000  0.67393000  0.01153000  1.0
  C  C83  1  0.92552000  0.32607000  0.51153000  1.0
  C  C84  1  0.54326000  0.37300000  0.92892000  1.0
  C  C85  1  0.95674000  0.62700000  0.42892000  1.0
  C  C86  1  0.45674000  0.62700000  0.07108000  1.0
  C  C87  1  0.04326000  0.37300000  0.57108000  1.0
  C  C88  1  0.74581000  0.41045000  0.02587000  1.0
  C  C89  1  0.75419000  0.58955000  0.52587000  1.0
  C  C90  1  0.25419000  0.58955000  0.97413000  1.0
  C  C91  1  0.24581000  0.41045000  0.47413000  1.0
  C  C92  1  0.63590000  0.36509000  0.08901000  1.0
  C  C93  1  0.86409000  0.63491000  0.58901000  1.0
  C  C94  1  0.36410000  0.63491000  0.91099000  1.0
  C  C95  1  0.13591000  0.36509000  0.41099000  1.0
  C  C96  1  0.89555000  0.13759000  0.01016000  1.0
  C  C97  1  0.60446000  0.86241000  0.51016000  1.0
  C  C98  1  0.10445000  0.86241000  0.98984000  1.0
  C  C99  1  0.39554000  0.13759000  0.48984000  1.0
  C  C100  1  0.72351000  0.08182000  0.98274000  1.0
  C  C101  1  0.77649000  0.91818000  0.48274000  1.0
  C  C102  1  0.27649000  0.91818000  0.01726000  1.0
  C  C103  1  0.22351000  0.08182000  0.51726000  1.0
  C  C104  1  0.07670000  0.96769000  0.22009000  1.0
  C  C105  1  0.42330000  0.03231000  0.72009000  1.0
  C  C106  1  0.92329000  0.03231000  0.77991000  1.0
  C  C107  1  0.57670000  0.96769000  0.27991000  1.0
  C  C108  1  0.06202000  0.90112000  0.30203000  1.0
  C  C109  1  0.43799000  0.09888000  0.80203000  1.0
  C  C110  1  0.93798000  0.09888000  0.69797000  1.0
  C  C111  1  0.56202000  0.90112000  0.19797000  1.0
  N  N112  1  0.70163000  0.41460000  0.94665000  1.0
  N  N113  1  0.79837000  0.58540000  0.44665000  1.0
  N  N114  1  0.29837000  0.58540000  0.05335000  1.0
  N  N115  1  0.20163000  0.41460000  0.55335000  1.0
  N  N116  1  0.35045000  0.63006000  0.31155000  1.0
  N  N117  1  0.14955000  0.36994000  0.81155000  1.0
  N  N118  1  0.64955000  0.36994000  0.68845000  1.0
  N  N119  1  0.85045000  0.63006000  0.18845000  1.0
  O  O120  1  0.20130000  0.19715000  0.10551000  1.0
  O  O121  1  0.29870000  0.80285000  0.60551000  1.0
  O  O122  1  0.79870000  0.80285000  0.89449000  1.0
  O  O123  1  0.70130000  0.19715000  0.39449000  1.0
  O  O124  1  0.00904000  0.29748000  0.18208000  1.0
  O  O125  1  0.49096000  0.70252000  0.68208000  1.0
  O  O126  1  0.99096000  0.70252000  0.81792000  1.0
  O  O127  1  0.50904000  0.29748000  0.31792000  1.0
  O  O128  1  0.91126000  0.08879000  0.09294000  1.0
  O  O129  1  0.58874000  0.91121000  0.59294000  1.0
  O  O130  1  0.08874000  0.91121000  0.90706000  1.0
  O  O131  1  0.41126000  0.08879000  0.40706000  1.0
  O  O132  1  0.03362000  0.08663000  0.23078000  1.0
  O  O133  1  0.46638000  0.91337000  0.73078000  1.0
  O  O134  1  0.96638000  0.91337000  0.76922000  1.0
  O  O135  1  0.53362000  0.08663000  0.26922000  1.0
  O  O136  1  0.39317000  0.54063000  0.27621000  1.0
  O  O137  1  0.10683000  0.45937000  0.77621000  1.0
  O  O138  1  0.60683000  0.45937000  0.72379000  1.0
  O  O139  1  0.89317000  0.54063000  0.22379000  1.0
  O  O140  1  0.42065000  0.68224000  0.37609000  1.0
  O  O141  1  0.07935000  0.31776000  0.87609000  1.0
  O  O142  1  0.57935000  0.31776000  0.62391000  1.0
  O  O143  1  0.92065000  0.68224000  0.12391000  1.0
  O  O144  1  0.23723000  0.66343000  0.28056000  1.0
  O  O145  1  0.26276000  0.33657000  0.78055000  1.0
  O  O146  1  0.76277000  0.33657000  0.71944000  1.0
  O  O147  1  0.73723000  0.66343000  0.21944000  1.0
