# generated using pymatgen
data_Dy2Cu3H24(C4O5)6
_symmetry_space_group_name_H-M   'P 1'
_cell_length_a   12.88190000
_cell_length_b   12.88040000
_cell_length_c   16.33290000
_cell_angle_alpha   89.99620000
_cell_angle_beta   89.99310000
_cell_angle_gamma   60.00500000
_symmetry_Int_Tables_number   1
_chemical_formula_structural   Dy2Cu3H24(C4O5)6
_chemical_formula_sum   'Dy4 Cu6 H48 C48 O60'
_cell_volume   2347.06482218
_cell_formula_units_Z   2
loop_
 _symmetry_equiv_pos_site_id
 _symmetry_equiv_pos_as_xyz
  1  'x, y, z'
loop_
 _atom_site_type_symbol
 _atom_site_label
 _atom_site_symmetry_multiplicity
 _atom_site_fract_x
 _atom_site_fract_y
 _atom_site_fract_z
 _atom_site_occupancy
  Dy  Dy0  1  0.66666667  0.66666667  0.24999000  1.0
  Dy  Dy1  1  0.33333333  0.33333333  0.25004000  1.0
  Dy  Dy2  1  0.33333333  0.33338000  0.75003000  1.0
  Dy  Dy3  1  0.66666667  0.66666667  0.74999000  1.0
  Cu  Cu4  1  0.50011000  0.99995000  0.50002000  1.0
  Cu  Cu5  1  0.50000000  0.49968000  0.49999000  1.0
  Cu  Cu6  1  0.99979000  0.49999000  0.50000000  1.0
  Cu  Cu7  1  0.99998000  0.49998000  0.00002000  1.0
  Cu  Cu8  1  0.50037000  0.50001000  1.00000000  1.0
  Cu  Cu9  1  0.49996000  0.00021000  0.00004000  1.0
  H  H10  1  0.34759000  0.80605000  0.35616000  1.0
  H  H11  1  0.30568000  0.93581000  0.29344000  1.0
  H  H12  1  0.84644000  0.34760000  0.35612000  1.0
  H  H13  1  0.75851000  0.30578000  0.29338000  1.0
  H  H14  1  0.80589000  0.84634000  0.35614000  1.0
  H  H15  1  0.93579000  0.75848000  0.29346000  1.0
  H  H16  1  0.65237000  0.19405000  0.35616000  1.0
  H  H17  1  0.69438000  0.06427000  0.29342000  1.0
  H  H18  1  0.15351000  0.65244000  0.35616000  1.0
  H  H19  1  0.24148000  0.69413000  0.29335000  1.0
  H  H20  1  0.19391000  0.15364000  0.35620000  1.0
  H  H21  1  0.06412000  0.24156000  0.29344000  1.0
  H  H22  1  0.19419000  0.65217000  0.14385000  1.0
  H  H23  1  0.06422000  0.69428000  0.20647000  1.0
  H  H24  1  0.65242000  0.15362000  0.14380000  1.0
  H  H25  1  0.69427000  0.24145000  0.20658000  1.0
  H  H26  1  0.15351000  0.19417000  0.14388000  1.0
  H  H27  1  0.24138000  0.06436000  0.20662000  1.0
  H  H28  1  0.80592000  0.34767000  0.14380000  1.0
  H  H29  1  0.93578000  0.30568000  0.20653000  1.0
  H  H30  1  0.34754000  0.84642000  0.14385000  1.0
  H  H31  1  0.30569000  0.75858000  0.20661000  1.0
  H  H32  1  0.84644000  0.80603000  0.14383000  1.0
  H  H33  1  0.75846000  0.93570000  0.20666000  1.0
  H  H34  1  0.65243000  0.19397000  0.64381000  1.0
  H  H35  1  0.69431000  0.06426000  0.70660000  1.0
  H  H36  1  0.15356000  0.65243000  0.64391000  1.0
  H  H37  1  0.24150000  0.69421000  0.70667000  1.0
  H  H38  1  0.19414000  0.15366000  0.64383000  1.0
  H  H39  1  0.06425000  0.24147000  0.70652000  1.0
  H  H40  1  0.34762000  0.80599000  0.64381000  1.0
  H  H41  1  0.30566000  0.93573000  0.70656000  1.0
  H  H42  1  0.84650000  0.34759000  0.64384000  1.0
  H  H43  1  0.75852000  0.30581000  0.70662000  1.0
  H  H44  1  0.80594000  0.84636000  0.64381000  1.0
  H  H45  1  0.93578000  0.75854000  0.70652000  1.0
  H  H46  1  0.80594000  0.34770000  0.85615000  1.0
  H  H47  1  0.93581000  0.30570000  0.79345000  1.0
  H  H48  1  0.34761000  0.84643000  0.85617000  1.0
  H  H49  1  0.30567000  0.75861000  0.79344000  1.0
  H  H50  1  0.84644000  0.80595000  0.85612000  1.0
  H  H51  1  0.75855000  0.93569000  0.79336000  1.0
  H  H52  1  0.19395000  0.65238000  0.85618000  1.0
  H  H53  1  0.06414000  0.69431000  0.79346000  1.0
  H  H54  1  0.65245000  0.15359000  0.85617000  1.0
  H  H55  1  0.69433000  0.24143000  0.79341000  1.0
  H  H56  1  0.15358000  0.19402000  0.85614000  1.0
  H  H57  1  0.24152000  0.06430000  0.79336000  1.0
  C  C58  1  0.46560000  0.87857000  0.36551000  1.0
  C  C59  1  0.38160000  0.85151000  0.31609000  1.0
  C  C60  1  0.65587000  0.46560000  0.36552000  1.0
  C  C61  1  0.76695000  0.38165000  0.31608000  1.0
  C  C62  1  0.87855000  0.65582000  0.36552000  1.0
  C  C63  1  0.85148000  0.76687000  0.31608000  1.0
  C  C64  1  0.53449000  0.12140000  0.36551000  1.0
  C  C65  1  0.61843000  0.14853000  0.31607000  1.0
  C  C66  1  0.34406000  0.53429000  0.36554000  1.0
  C  C67  1  0.23300000  0.61830000  0.31610000  1.0
  C  C68  1  0.12131000  0.34416000  0.36557000  1.0
  C  C69  1  0.14843000  0.23311000  0.31612000  1.0
  C  C70  1  0.12140000  0.53438000  0.13448000  1.0
  C  C71  1  0.14853000  0.61833000  0.18389000  1.0
  C  C72  1  0.53441000  0.34417000  0.13450000  1.0
  C  C73  1  0.61838000  0.23307000  0.18389000  1.0
  C  C74  1  0.34405000  0.12158000  0.13448000  1.0
  C  C75  1  0.23298000  0.14867000  0.18393000  1.0
  C  C76  1  0.87863000  0.46550000  0.13446000  1.0
  C  C77  1  0.85148000  0.38157000  0.18388000  1.0
  C  C78  1  0.46560000  0.65590000  0.13448000  1.0
  C  C79  1  0.38160000  0.76695000  0.18392000  1.0
  C  C80  1  0.65589000  0.87850000  0.13445000  1.0
  C  C81  1  0.76697000  0.85138000  0.18390000  1.0
  C  C82  1  0.53445000  0.12144000  0.63451000  1.0
  C  C83  1  0.61842000  0.14853000  0.68392000  1.0
  C  C84  1  0.34411000  0.53435000  0.63448000  1.0
  C  C85  1  0.23306000  0.61835000  0.68395000  1.0
  C  C86  1  0.12143000  0.34420000  0.63448000  1.0
  C  C87  1  0.14856000  0.23311000  0.68390000  1.0
  C  C88  1  0.46557000  0.87859000  0.63448000  1.0
  C  C89  1  0.38159000  0.85147000  0.68390000  1.0
  C  C90  1  0.65593000  0.46561000  0.63444000  1.0
  C  C91  1  0.76700000  0.38166000  0.68389000  1.0
  C  C92  1  0.87858000  0.65584000  0.63444000  1.0
  C  C93  1  0.85149000  0.76690000  0.68388000  1.0
  C  C94  1  0.87860000  0.46558000  0.86551000  1.0
  C  C95  1  0.85151000  0.38161000  0.81609000  1.0
  C  C96  1  0.46561000  0.65591000  0.86552000  1.0
  C  C97  1  0.38160000  0.76696000  0.81609000  1.0
  C  C98  1  0.65588000  0.87850000  0.86553000  1.0
  C  C99  1  0.76696000  0.85139000  0.81607000  1.0
  C  C100  1  0.12134000  0.53444000  0.86554000  1.0
  C  C101  1  0.14844000  0.61842000  0.81612000  1.0
  C  C102  1  0.53449000  0.34414000  0.86551000  1.0
  C  C103  1  0.61843000  0.23306000  0.81609000  1.0
  C  C104  1  0.34410000  0.12158000  0.86555000  1.0
  C  C105  1  0.23307000  0.14862000  0.81608000  1.0
  O  O106  1  0.57616000  0.82004000  0.35016000  1.0
  O  O107  1  0.41305000  0.95956000  0.41951000  1.0
  O  O108  1  0.60376000  0.57615000  0.35017000  1.0
  O  O109  1  0.62750000  0.41286000  0.41946000  1.0
  O  O110  1  0.82008000  0.60374000  0.35017000  1.0
  O  O111  1  0.95953000  0.62746000  0.41952000  1.0
  O  O112  1  0.42393000  0.17990000  0.35020000  1.0
  O  O113  1  0.58710000  0.04040000  0.41950000  1.0
  O  O114  1  0.39617000  0.42374000  0.35017000  1.0
  O  O115  1  0.37247000  0.58689000  0.41954000  1.0
  O  O116  1  0.17986000  0.39618000  0.35027000  1.0
  O  O117  1  0.04022000  0.37255000  0.41950000  1.0
  O  O118  1  0.17985000  0.42383000  0.14984000  1.0
  O  O119  1  0.04040000  0.58704000  0.08049000  1.0
  O  O120  1  0.42386000  0.39622000  0.14983000  1.0
  O  O121  1  0.58708000  0.37256000  0.08054000  1.0
  O  O122  1  0.39615000  0.18003000  0.14985000  1.0
  O  O123  1  0.37244000  0.04054000  0.08051000  1.0
  O  O124  1  0.82014000  0.57605000  0.14979000  1.0
  O  O125  1  0.95970000  0.41282000  0.08050000  1.0
  O  O126  1  0.57616000  0.60387000  0.14980000  1.0
  O  O127  1  0.41307000  0.62747000  0.08047000  1.0
  O  O128  1  0.60381000  0.82002000  0.14979000  1.0
  O  O129  1  0.62748000  0.95963000  0.08053000  1.0
  O  O130  1  0.42389000  0.17997000  0.64983000  1.0
  O  O131  1  0.58707000  0.04043000  0.58053000  1.0
  O  O132  1  0.39618000  0.42379000  0.64985000  1.0
  O  O133  1  0.37252000  0.58695000  0.58048000  1.0
  O  O134  1  0.17989000  0.39629000  0.64981000  1.0
  O  O135  1  0.04040000  0.37252000  0.58052000  1.0
  O  O136  1  0.57613000  0.82006000  0.64980000  1.0
  O  O137  1  0.41298000  0.95961000  0.58050000  1.0
  O  O138  1  0.60382000  0.57616000  0.64980000  1.0
  O  O139  1  0.62755000  0.41289000  0.58051000  1.0
  O  O140  1  0.82008000  0.60378000  0.64979000  1.0
  O  O141  1  0.95960000  0.62744000  0.58045000  1.0
  O  O142  1  0.82013000  0.57613000  0.85015000  1.0
  O  O143  1  0.95959000  0.41292000  0.91951000  1.0
  O  O144  1  0.57617000  0.60389000  0.85018000  1.0
  O  O145  1  0.41309000  0.62745000  0.91954000  1.0
  O  O146  1  0.60378000  0.82003000  0.85017000  1.0
  O  O147  1  0.62750000  0.95955000  0.91950000  1.0
  O  O148  1  0.17986000  0.42388000  0.85021000  1.0
  O  O149  1  0.04028000  0.58709000  0.91951000  1.0
  O  O150  1  0.42392000  0.39619000  0.85023000  1.0
  O  O151  1  0.58716000  0.37254000  0.91945000  1.0
  O  O152  1  0.39617000  0.18007000  0.85019000  1.0
  O  O153  1  0.37250000  0.04056000  0.91954000  1.0
  O  O154  1  0.44867000  0.77572000  0.24999000  1.0
  O  O155  1  0.77570000  0.44873000  0.24997000  1.0
  O  O156  1  0.77578000  0.77544000  0.24995000  1.0
  O  O157  1  0.55133000  0.22427000  0.24997000  1.0
  O  O158  1  0.22416000  0.55121000  0.25005000  1.0
  O  O159  1  0.22427000  0.22445000  0.25006000  1.0
  O  O160  1  0.55135000  0.22435000  0.75000000  1.0
  O  O161  1  0.22427000  0.55127000  0.75004000  1.0
  O  O162  1  0.22429000  0.22451000  0.75001000  1.0
  O  O163  1  0.44867000  0.77568000  0.74998000  1.0
  O  O164  1  0.77576000  0.44875000  0.74998000  1.0
  O  O165  1  0.77572000  0.77554000  0.74999000  1.0
