# generated using pymatgen
data_BaCuH14C10O9
_symmetry_space_group_name_H-M   'P 1'
_cell_length_a   12.99370000
_cell_length_b   15.08650000
_cell_length_c   15.08760000
_cell_angle_alpha   112.10200000
_cell_angle_beta   106.68500000
_cell_angle_gamma   106.68700000
_symmetry_Int_Tables_number   1
_chemical_formula_structural   BaCuH14C10O9
_chemical_formula_sum   'Ba6 Cu6 H84 C60 O54'
_cell_volume   2350.34375203
_cell_formula_units_Z   6
loop_
 _symmetry_equiv_pos_site_id
 _symmetry_equiv_pos_as_xyz
  1  'x, y, z'
loop_
 _atom_site_type_symbol
 _atom_site_label
 _atom_site_symmetry_multiplicity
 _atom_site_fract_x
 _atom_site_fract_y
 _atom_site_fract_z
 _atom_site_occupancy
  Ba  Ba0  1  0.29672000  0.67005000  0.29830000  1.0
  Ba  Ba1  1  0.99840000  0.70164000  0.37165000  1.0
  Ba  Ba2  1  0.62671000  0.62833000  0.32999000  1.0
  Ba  Ba3  1  0.70328000  0.32995000  0.70170000  1.0
  Ba  Ba4  1  0.00160000  0.29835000  0.62835000  1.0
  Ba  Ba5  1  0.37329000  0.37167000  0.67000000  1.0
  Cu  Cu6  1  0.29191000  0.50080000  0.48790000  1.0
  Cu  Cu7  1  0.80374000  0.51205000  0.01290000  1.0
  Cu  Cu8  1  0.79111000  0.98709000  0.49922000  1.0
  Cu  Cu9  1  0.70810000  0.49920000  0.51210000  1.0
  Cu  Cu10  1  0.19625000  0.48795000  0.98711000  1.0
  Cu  Cu11  1  0.20889000  0.01290000  0.50078000  1.0
  H  H12  1  0.38350000  0.71195000  0.66486000  1.0
  H  H13  1  0.71850000  0.33503000  0.04699000  1.0
  H  H14  1  0.67171000  0.95300000  0.28814000  1.0
  H  H15  1  0.61650000  0.28806000  0.33514000  1.0
  H  H16  1  0.28151000  0.66497000  0.95301000  1.0
  H  H17  1  0.32829000  0.04700000  0.71187000  1.0
  H  H18  1  0.37956000  0.75600000  0.79081000  1.0
  H  H19  1  0.58856000  0.20906000  0.96507000  1.0
  H  H20  1  0.62368000  0.03496000  0.24415000  1.0
  H  H21  1  0.62045000  0.24401000  0.20919000  1.0
  H  H22  1  0.41144000  0.79094000  0.03493000  1.0
  H  H23  1  0.37633000  0.96504000  0.75585000  1.0
  H  H24  1  0.31133000  0.79434000  0.70070000  1.0
  H  H25  1  0.61045000  0.29912000  0.09352000  1.0
  H  H26  1  0.51713000  0.90645000  0.20572000  1.0
  H  H27  1  0.68868000  0.20567000  0.29931000  1.0
  H  H28  1  0.38955000  0.70088000  0.90648000  1.0
  H  H29  1  0.48287000  0.09354000  0.79429000  1.0
  H  H30  1  0.17806000  0.67655000  0.79959000  1.0
  H  H31  1  0.37831000  0.20020000  0.87679000  1.0
  H  H32  1  0.50168000  0.12316000  0.32353000  1.0
  H  H33  1  0.82195000  0.32346000  0.20042000  1.0
  H  H34  1  0.62169000  0.79980000  0.12321000  1.0
  H  H35  1  0.49832000  0.87684000  0.67647000  1.0
  H  H36  1  0.04357000  0.59607000  0.67823000  1.0
  H  H37  1  0.36510000  0.32150000  0.91767000  1.0
  H  H38  1  0.44760000  0.08223000  0.40393000  1.0
  H  H39  1  0.95644000  0.40394000  0.32177000  1.0
  H  H40  1  0.63491000  0.67850000  0.08233000  1.0
  H  H41  1  0.55240000  0.91777000  0.59606000  1.0
  H  H42  1  0.12680000  0.73181000  0.71970000  1.0
  H  H43  1  0.40685000  0.28003000  0.01194000  1.0
  H  H44  1  0.39511000  0.98797000  0.26822000  1.0
  H  H45  1  0.87320000  0.26819000  0.28031000  1.0
  H  H46  1  0.59316000  0.71998000  0.98807000  1.0
  H  H47  1  0.60489000  0.01203000  0.73178000  1.0
  H  H48  1  0.13744000  0.28507000  0.18437000  1.0
  H  H49  1  0.95311000  0.81568000  0.10070000  1.0
  H  H50  1  0.85236000  0.89915000  0.71488000  1.0
  H  H51  1  0.86256000  0.71494000  0.81563000  1.0
  H  H52  1  0.04688000  0.18431000  0.89930000  1.0
  H  H53  1  0.14764000  0.10085000  0.28512000  1.0
  H  H54  1  0.16168000  0.31301000  0.31592000  1.0
  H  H55  1  0.84564000  0.68414000  0.99707000  1.0
  H  H56  1  0.84866000  0.00279000  0.68693000  1.0
  H  H57  1  0.83832000  0.68699000  0.68408000  1.0
  H  H58  1  0.15436000  0.31586000  0.00293000  1.0
  H  H59  1  0.15134000  0.99721000  0.31307000  1.0
  H  H60  1  0.17571000  0.20176000  0.23123000  1.0
  H  H61  1  0.94455000  0.76876000  0.97057000  1.0
  H  H62  1  0.97392000  0.02934000  0.79816000  1.0
  H  H63  1  0.82429000  0.79824000  0.76877000  1.0
  H  H64  1  0.05545000  0.23124000  0.02942000  1.0
  H  H65  1  0.02608000  0.97066000  0.20184000  1.0
  H  H66  1  0.46383000  0.34723000  0.23806000  1.0
  H  H67  1  0.22569000  0.76186000  0.10921000  1.0
  H  H68  1  0.11667000  0.89081000  0.65269000  1.0
  H  H69  1  0.53617000  0.65276000  0.76194000  1.0
  H  H70  1  0.77431000  0.23814000  0.89079000  1.0
  H  H71  1  0.88333000  0.10919000  0.34732000  1.0
  H  H72  1  0.31758000  0.29292000  0.13531000  1.0
  H  H73  1  0.18220000  0.86460000  0.15761000  1.0
  H  H74  1  0.02478000  0.84235000  0.70705000  1.0
  H  H75  1  0.68242000  0.70708000  0.86469000  1.0
  H  H76  1  0.81780000  0.13540000  0.84239000  1.0
  H  H77  1  0.97521000  0.15765000  0.29296000  1.0
  H  H78  1  0.35445000  0.22097000  0.20058000  1.0
  H  H79  1  0.15380000  0.79937000  0.02043000  1.0
  H  H80  1  0.13352000  0.97956000  0.77895000  1.0
  H  H81  1  0.64555000  0.77903000  0.79942000  1.0
  H  H82  1  0.84620000  0.20063000  0.97957000  1.0
  H  H83  1  0.86647000  0.02044000  0.22106000  1.0
  H  H84  1  0.02563000  0.49651000  0.21794000  1.0
  H  H85  1  0.80749000  0.78196000  0.27853000  1.0
  H  H86  1  0.52895000  0.72137000  0.50340000  1.0
  H  H87  1  0.97437000  0.50349000  0.78206000  1.0
  H  H88  1  0.19251000  0.21804000  0.72147000  1.0
  H  H89  1  0.47105000  0.27863000  0.49660000  1.0
  H  H90  1  0.10375000  0.53718000  0.34541000  1.0
  H  H91  1  0.75817000  0.65447000  0.19178000  1.0
  H  H92  1  0.56648000  0.80814000  0.46269000  1.0
  H  H93  1  0.89625000  0.46282000  0.65459000  1.0
  H  H94  1  0.24184000  0.34553000  0.80821000  1.0
  H  H95  1  0.43352000  0.19186000  0.53731000  1.0
  C  C96  1  0.23050000  0.53864000  0.66254000  1.0
  C  C97  1  0.56779000  0.33736000  0.87610000  1.0
  C  C98  1  0.69189000  0.12385000  0.46136000  1.0
  C  C99  1  0.76951000  0.46136000  0.33746000  1.0
  C  C100  1  0.43221000  0.66264000  0.12390000  1.0
  C  C101  1  0.30810000  0.87615000  0.53864000  1.0
  C  C102  1  0.34188000  0.46325000  0.30729000  1.0
  C  C103  1  0.03438000  0.69257000  0.15594000  1.0
  C  C104  1  0.87860000  0.84399000  0.53667000  1.0
  C  C105  1  0.65812000  0.53675000  0.69271000  1.0
  C  C106  1  0.96561000  0.30742000  0.84405000  1.0
  C  C107  1  0.12140000  0.15600000  0.46333000  1.0
  C  C108  1  0.32855000  0.72902000  0.70605000  1.0
  C  C109  1  0.62235000  0.29381000  0.02288000  1.0
  C  C110  1  0.59966000  0.97709000  0.27105000  1.0
  C  C111  1  0.67146000  0.27099000  0.29396000  1.0
  C  C112  1  0.37766000  0.70619000  0.97712000  1.0
  C  C113  1  0.40034000  0.02291000  0.72895000  1.0
  C  C114  1  0.20659000  0.63105000  0.65725000  1.0
  C  C115  1  0.54918000  0.34264000  0.97376000  1.0
  C  C116  1  0.57561000  0.02617000  0.36898000  1.0
  C  C117  1  0.79342000  0.36895000  0.34276000  1.0
  C  C118  1  0.45083000  0.65737000  0.02624000  1.0
  C  C119  1  0.42438000  0.97382000  0.63102000  1.0
  C  C120  1  0.13974000  0.60204000  0.54013000  1.0
  C  C121  1  0.59941000  0.45970000  0.06192000  1.0
  C  C122  1  0.53774000  0.93806000  0.39798000  1.0
  C  C123  1  0.86026000  0.39797000  0.45988000  1.0
  C  C124  1  0.40059000  0.54030000  0.93808000  1.0
  C  C125  1  0.46225000  0.06193000  0.60202000  1.0
  C  C126  1  0.13441000  0.66069000  0.71780000  1.0
  C  C127  1  0.41643000  0.28198000  0.94276000  1.0
  C  C128  1  0.47386000  0.05717000  0.33934000  1.0
  C  C129  1  0.86560000  0.33932000  0.28221000  1.0
  C  C130  1  0.58358000  0.71802000  0.05724000  1.0
  C  C131  1  0.52614000  0.94283000  0.66066000  1.0
  C  C132  1  0.32709000  0.35358000  0.29376000  1.0
  C  C133  1  0.03322000  0.70615000  0.05988000  1.0
  C  C134  1  0.97348000  0.94008000  0.64633000  1.0
  C  C135  1  0.67291000  0.64642000  0.70624000  1.0
  C  C136  1  0.96678000  0.29384000  0.94012000  1.0
  C  C137  1  0.02651000  0.05991000  0.35367000  1.0
  C  C138  1  0.39518000  0.36218000  0.40175000  1.0
  C  C139  1  0.99335000  0.59822000  0.96057000  1.0
  C  C140  1  0.03293000  0.03945000  0.63777000  1.0
  C  C141  1  0.60481000  0.63782000  0.59825000  1.0
  C  C142  1  0.00664000  0.40177000  0.03943000  1.0
  C  C143  1  0.96706000  0.96054000  0.36223000  1.0
  C  C144  1  0.19205000  0.28456000  0.25453000  1.0
  C  C145  1  0.93746000  0.74546000  0.03005000  1.0
  C  C146  1  0.90747000  0.96983000  0.71538000  1.0
  C  C147  1  0.80795000  0.71544000  0.74547000  1.0
  C  C148  1  0.06254000  0.25454000  0.96995000  1.0
  C  C149  1  0.09253000  0.03017000  0.28462000  1.0
  C  C150  1  0.36829000  0.30038000  0.21185000  1.0
  C  C151  1  0.15634000  0.78804000  0.08854000  1.0
  C  C152  1  0.06796000  0.91142000  0.69952000  1.0
  C  C153  1  0.63171000  0.69962000  0.78815000  1.0
  C  C154  1  0.84366000  0.21196000  0.91146000  1.0
  C  C155  1  0.93204000  0.08858000  0.30048000  1.0
  O  O156  1  0.08367000  0.55945000  0.29111000  1.0
  O  O157  1  0.79247000  0.70882000  0.26833000  1.0
  O  O158  1  0.52400000  0.73161000  0.44044000  1.0
  O  O159  1  0.91633000  0.44055000  0.70889000  1.0
  O  O160  1  0.20753000  0.29119000  0.73167000  1.0
  O  O161  1  0.47600000  0.26839000  0.55956000  1.0
  O  O162  1  0.38009000  0.41427000  0.48388000  1.0
  O  O163  1  0.89617000  0.51604000  0.93053000  1.0
  O  O164  1  0.96578000  0.06953000  0.58567000  1.0
  O  O165  1  0.61990000  0.58574000  0.51612000  1.0
  O  O166  1  0.10383000  0.48395000  0.06947000  1.0
  O  O167  1  0.03422000  0.93047000  0.41432000  1.0
  O  O168  1  0.45821000  0.31326000  0.40487000  1.0
  O  O169  1  0.05323000  0.59516000  0.90851000  1.0
  O  O170  1  0.14486000  0.09155000  0.68677000  1.0
  O  O171  1  0.54179000  0.68674000  0.59513000  1.0
  O  O172  1  0.94676000  0.40483000  0.09148000  1.0
  O  O173  1  0.85513000  0.90844000  0.31324000  1.0
  O  O174  1  0.29788000  0.50889000  0.62004000  1.0
  O  O175  1  0.67766000  0.37986000  0.88883000  1.0
  O  O176  1  0.78905000  0.11115000  0.49121000  1.0
  O  O177  1  0.70212000  0.49111000  0.37995000  1.0
  O  O178  1  0.32234000  0.62014000  0.11116000  1.0
  O  O179  1  0.21094000  0.88885000  0.50879000  1.0
  O  O180  1  0.16742000  0.54769000  0.46878000  1.0
  O  O181  1  0.69839000  0.53115000  0.07893000  1.0
  O  O182  1  0.61978000  0.92100000  0.45227000  1.0
  O  O183  1  0.83259000  0.45232000  0.53123000  1.0
  O  O184  1  0.30161000  0.46885000  0.92108000  1.0
  O  O185  1  0.38022000  0.07899000  0.54772000  1.0
  O  O186  1  0.30663000  0.51760000  0.37070000  1.0
  O  O187  1  0.93570000  0.62915000  0.14687000  1.0
  O  O188  1  0.78908000  0.85314000  0.48228000  1.0
  O  O189  1  0.69336000  0.48240000  0.62930000  1.0
  O  O190  1  0.06429000  0.37084000  0.85313000  1.0
  O  O191  1  0.21091000  0.14685000  0.51772000  1.0
  O  O192  1  0.06336000  0.63441000  0.51660000  1.0
  O  O193  1  0.54655000  0.48311000  0.11787000  1.0
  O  O194  1  0.42897000  0.88221000  0.36568000  1.0
  O  O195  1  0.93665000  0.36559000  0.48341000  1.0
  O  O196  1  0.45344000  0.51690000  0.88213000  1.0
  O  O197  1  0.57102000  0.11778000  0.63432000  1.0
  O  O198  1  0.19160000  0.49572000  0.71003000  1.0
  O  O199  1  0.48141000  0.28985000  0.78567000  1.0
  O  O200  1  0.69591000  0.21426000  0.50424000  1.0
  O  O201  1  0.80840000  0.50429000  0.28997000  1.0
  O  O202  1  0.51859000  0.71015000  0.21433000  1.0
  O  O203  1  0.30409000  0.78574000  0.49575000  1.0
  O  O204  1  0.38105000  0.49713000  0.25351000  1.0
  O  O205  1  0.12732000  0.74630000  0.24362000  1.0
  O  O206  1  0.88379000  0.75629000  0.50276000  1.0
  O  O207  1  0.61895000  0.50287000  0.74649000  1.0
  O  O208  1  0.87267000  0.25369000  0.75638000  1.0
  O  O209  1  0.11621000  0.24370000  0.49724000  1.0
