# generated using pymatgen
data_AgH10C11(NO)3
_symmetry_space_group_name_H-M   'P 1'
_cell_length_a   5.39959000
_cell_length_b   8.18498000
_cell_length_c   12.80530000
_cell_angle_alpha   89.99940000
_cell_angle_beta   94.54920000
_cell_angle_gamma   89.99940000
_symmetry_Int_Tables_number   1
_chemical_formula_structural   AgH10C11(NO)3
_chemical_formula_sum   'Ag2 H20 C22 N6 O6'
_cell_volume   564.15416702
_cell_formula_units_Z   2
loop_
 _symmetry_equiv_pos_site_id
 _symmetry_equiv_pos_as_xyz
  1  'x, y, z'
loop_
 _atom_site_type_symbol
 _atom_site_label
 _atom_site_symmetry_multiplicity
 _atom_site_fract_x
 _atom_site_fract_y
 _atom_site_fract_z
 _atom_site_occupancy
  Ag  Ag0  1  0.00000000  0.24604000  0.75000000  1.0
  Ag  Ag1  1  0.00000000  0.75396000  0.25000000  1.0
  H  H2  1  0.66474000  0.55769000  0.75259000  1.0
  H  H3  1  0.66474000  0.44231000  0.25259000  1.0
  H  H4  1  0.33523000  0.44233000  0.24741000  1.0
  H  H5  1  0.33522000  0.55767000  0.74741000  1.0
  H  H6  1  0.86307000  0.47431000  0.90914000  1.0
  H  H7  1  0.86307000  0.52568000  0.40913000  1.0
  H  H8  1  0.13694000  0.52570000  0.09086000  1.0
  H  H9  1  0.13693000  0.47431000  0.59086000  1.0
  H  H10  1  0.86509000  0.31435000  0.07828000  1.0
  H  H11  1  0.86508000  0.68566000  0.57828000  1.0
  H  H12  1  0.13493000  0.68567000  0.92172000  1.0
  H  H13  1  0.13492000  0.31434000  0.42172000  1.0
  H  H14  1  0.49363000  0.13776000  0.10617000  1.0
  H  H15  1  0.49361000  0.86224000  0.60616000  1.0
  H  H16  1  0.50640000  0.86225000  0.89384000  1.0
  H  H17  1  0.50639000  0.13775000  0.39384000  1.0
  H  H18  1  0.15523000  0.11828000  0.96437000  1.0
  H  H19  1  0.15520000  0.88172000  0.46436000  1.0
  H  H20  1  0.84481000  0.88172000  0.03563000  1.0
  H  H21  1  0.84479000  0.11828000  0.53564000  1.0
  C  C22  1  0.49999000  0.47813000  0.75000000  1.0
  C  C23  1  0.49999000  0.52187000  0.25000000  1.0
  C  C24  1  0.51052000  0.37862000  0.84902000  1.0
  C  C25  1  0.51052000  0.62138000  0.34902000  1.0
  C  C26  1  0.48947000  0.62138000  0.15098000  1.0
  C  C27  1  0.48946000  0.37861000  0.65098000  1.0
  C  C28  1  0.71176000  0.39189000  0.92429000  1.0
  C  C29  1  0.71175000  0.60811000  0.42429000  1.0
  C  C30  1  0.28827000  0.60812000  0.07572000  1.0
  C  C31  1  0.28825000  0.39189000  0.57572000  1.0
  C  C32  1  0.71158000  0.30499000  0.01787000  1.0
  C  C33  1  0.71157000  0.69501000  0.51786000  1.0
  C  C34  1  0.28843000  0.69502000  0.98213000  1.0
  C  C35  1  0.28842000  0.30499000  0.48213000  1.0
  C  C36  1  0.50822000  0.20601000  0.03399000  1.0
  C  C37  1  0.50821000  0.79399000  0.53398000  1.0
  C  C38  1  0.49182000  0.79401000  0.96602000  1.0
  C  C39  1  0.49180000  0.20601000  0.46602000  1.0
  C  C40  1  0.31580000  0.19596000  0.95544000  1.0
  C  C41  1  0.31579000  0.80404000  0.45544000  1.0
  C  C42  1  0.68421000  0.80404000  0.04456000  1.0
  C  C43  1  0.68420000  0.19597000  0.54456000  1.0
  N  N44  1  0.31586000  0.27992000  0.86473000  1.0
  N  N45  1  0.31585000  0.72007000  0.36473000  1.0
  N  N46  1  0.68416000  0.72008000  0.13527000  1.0
  N  N47  1  0.68415000  0.27993000  0.63528000  1.0
  N  N48  1  0.99999000  0.87116000  0.75000000  1.0
  N  N49  1  0.99999000  0.12884000  0.25000000  1.0
  O  O50  1  0.08559000  0.94875000  0.67472000  1.0
  O  O51  1  0.08559000  0.05126000  0.17472000  1.0
  O  O52  1  0.91439000  0.05125000  0.32528000  1.0
  O  O53  1  0.91440000  0.94874000  0.82528000  1.0
  O  O54  1  0.99998000  0.71583000  0.74999000  1.0
  O  O55  1  0.99999000  0.28417000  0.25000000  1.0
