# generated using pymatgen
data_Al6H21C63NO30
_symmetry_space_group_name_H-M   'P 1'
_cell_length_a   12.26910000
_cell_length_b   12.47350000
_cell_length_c   27.03310000
_cell_angle_alpha   90.49910000
_cell_angle_beta   97.65550000
_cell_angle_gamma   119.11500000
_symmetry_Int_Tables_number   1
_chemical_formula_structural   Al6H21C63NO30
_chemical_formula_sum   'Al6 H21 C63 N1 O30'
_cell_volume   3569.20876584
_cell_formula_units_Z   1
loop_
 _symmetry_equiv_pos_site_id
 _symmetry_equiv_pos_as_xyz
  1  'x, y, z'
loop_
 _atom_site_type_symbol
 _atom_site_label
 _atom_site_symmetry_multiplicity
 _atom_site_fract_x
 _atom_site_fract_y
 _atom_site_fract_z
 _atom_site_occupancy
  Al  Al0  1  0.18745000  0.58952000  0.51153000  1.0
  Al  Al1  1  0.92281000  0.33720000  0.49710000  1.0
  Al  Al2  1  0.91767000  0.57622000  0.49580000  1.0
  Al  Al3  1  0.15033000  0.07732000  0.97909000  1.0
  Al  Al4  1  0.41651000  0.08110000  0.99372000  1.0
  Al  Al5  1  0.42046000  0.32443000  0.99623000  1.0
  H  H6  1  0.62454000  0.14729000  0.69236000  1.0
  H  H7  1  0.02241000  0.15317000  0.19016000  1.0
  H  H8  1  0.37069000  0.43612000  0.32390000  1.0
  H  H9  1  0.72766000  0.52157000  0.79970000  1.0
  H  H10  1  0.75177000  0.53716000  0.70949000  1.0
  H  H11  1  0.14358000  0.64175000  0.27993000  1.0
  H  H12  1  0.16411000  0.01491000  0.20710000  1.0
  H  H13  1  0.13028000  0.97955000  0.29592000  1.0
  H  H14  1  0.98490000  0.15016000  0.27904000  1.0
  H  H15  1  0.55419000  0.47938000  0.29602000  1.0
  H  H16  1  0.51249000  0.59756000  0.28396000  1.0
  H  H17  1  0.61361000  0.57784000  0.24688000  1.0
  H  H18  1  0.45238000  0.99532000  0.72836000  1.0
  H  H19  1  0.39952000  0.04456000  0.77839000  1.0
  H  H20  1  0.45321000  0.93476000  0.78837000  1.0
  H  H21  1  0.18836000  0.67813000  0.14756000  1.0
  H  H22  1  0.17458000  0.49471000  0.16766000  1.0
  H  H23  1  0.07027000  0.48289000  0.20994000  1.0
  H  H24  1  0.23636000  0.55729000  0.23088000  1.0
  H  H25  1  0.39301000  0.68002000  0.49288000  1.0
  H  H26  1  0.94439000  0.96777000  0.99685000  1.0
  C  C27  1  0.10547000  0.38580000  0.58036000  1.0
  C  C28  1  0.70540000  0.44040000  0.77589000  1.0
  C  C29  1  0.71839000  0.44909000  0.72572000  1.0
  C  C30  1  0.68860000  0.34295000  0.69504000  1.0
  C  C31  1  0.66137000  0.32612000  0.79705000  1.0
  C  C32  1  0.64059000  0.31405000  0.84734000  1.0
  C  C33  1  0.70574000  0.35200000  0.64415000  1.0
  C  C34  1  0.61735000  0.30043000  0.89011000  1.0
  C  C35  1  0.20524000  0.88562000  0.86289000  1.0
  C  C36  1  0.18232000  0.85475000  0.81787000  1.0
  C  C37  1  0.16158000  0.82695000  0.76834000  1.0
  C  C38  1  0.77061000  0.38187000  0.55405000  1.0
  C  C39  1  0.14735000  0.80822000  0.72244000  1.0
  C  C40  1  0.13276000  0.78738000  0.67269000  1.0
  C  C41  1  0.11922000  0.76695000  0.62718000  1.0
  C  C42  1  0.21610000  0.32386000  0.86643000  1.0
  C  C43  1  0.19867000  0.33281000  0.82126000  1.0
  C  C44  1  0.18017000  0.34013000  0.77172000  1.0
  C  C45  1  0.16367000  0.34442000  0.72591000  1.0
  C  C46  1  0.14554000  0.35143000  0.67634000  1.0
  C  C47  1  0.12872000  0.35957000  0.63109000  1.0
  C  C48  1  0.61748000  0.29475000  0.12544000  1.0
  C  C49  1  0.09563000  0.71856000  0.57611000  1.0
  C  C50  1  0.63960000  0.30854000  0.17140000  1.0
  C  C51  1  0.66219000  0.32234000  0.22164000  1.0
  C  C52  1  0.68109000  0.33377000  0.26790000  1.0
  C  C53  1  0.70426000  0.34746000  0.31814000  1.0
  C  C54  1  0.72743000  0.36070000  0.36410000  1.0
  C  C55  1  0.10811000  0.75996000  0.38645000  1.0
  C  C56  1  0.14777000  0.72248000  0.26323000  1.0
  C  C57  1  0.16563000  0.74054000  0.21304000  1.0
  C  C58  1  0.15892000  0.93325000  0.22338000  1.0
  C  C59  1  0.14009000  0.91396000  0.27270000  1.0
  C  C60  1  0.10330000  0.35999000  0.44137000  1.0
  C  C61  1  0.13561000  0.80813000  0.29286000  1.0
  C  C62  1  0.17319000  0.84970000  0.19323000  1.0
  C  C63  1  0.19550000  0.87332000  0.14367000  1.0
  C  C64  1  0.11970000  0.78519000  0.34332000  1.0
  C  C65  1  0.21588000  0.89432000  0.10080000  1.0
  C  C66  1  0.13281000  0.32181000  0.39716000  1.0
  C  C67  1  0.07721000  0.21185000  0.26908000  1.0
  C  C68  1  0.09818000  0.21358000  0.21990000  1.0
  C  C69  1  0.31775000  0.37414000  0.24482000  1.0
  C  C70  1  0.29647000  0.37379000  0.29426000  1.0
  C  C71  1  0.77747000  0.38673000  0.41672000  1.0
  C  C72  1  0.17590000  0.29438000  0.30646000  1.0
  C  C73  1  0.21669000  0.29527000  0.20654000  1.0
  C  C74  1  0.23268000  0.30126000  0.15582000  1.0
  C  C75  1  0.15291000  0.30478000  0.35567000  1.0
  C  C76  1  0.23995000  0.30454000  0.11124000  1.0
  C  C77  1  0.23427000  0.94352000  0.91270000  1.0
  C  C78  1  0.56529000  0.27498000  0.93560000  1.0
  C  C79  1  0.23862000  0.29284000  0.91638000  1.0
  C  C80  1  0.23813000  0.94335000  0.05303000  1.0
  C  C81  1  0.56696000  0.26994000  0.07287000  1.0
  C  C82  1  0.09242000  0.71033000  0.43430000  1.0
  C  C83  1  0.25080000  0.28654000  0.06002000  1.0
  C  C84  1  0.72330000  0.36010000  0.60060000  1.0
  C  C85  1  0.64543000  0.22864000  0.71572000  1.0
  C  C86  1  0.63185000  0.21982000  0.76614000  1.0
  C  C87  1  0.53301000  0.53034000  0.26680000  1.0
  C  C88  1  0.46692000  0.01615000  0.76911000  1.0
  C  C89  1  0.16343000  0.54299000  0.19892000  1.0
  N  N90  1  0.17535000  0.65804000  0.18327000  1.0
  O  O91  1  0.17935000  0.70161000  0.56100000  1.0
  O  O92  1  0.80250000  0.30856000  0.43780000  1.0
  O  O93  1  0.79826000  0.48921000  0.43707000  1.0
  O  O94  1  0.99633000  0.69796000  0.45363000  1.0
  O  O95  1  0.00686000  0.49954000  0.50136000  1.0
  O  O96  1  0.15831000  0.18877000  0.92759000  1.0
  O  O97  1  0.15653000  0.97296000  0.92534000  1.0
  O  O98  1  0.33954000  0.96433000  0.93887000  1.0
  O  O99  1  0.54070000  0.17218000  0.95363000  1.0
  O  O100  1  0.54104000  0.35478000  0.95413000  1.0
  O  O101  1  0.34155000  0.37187000  0.94454000  1.0
  O  O102  1  0.18350000  0.48960000  0.56797000  1.0
  O  O103  1  0.16428000  0.18912000  0.03519000  1.0
  O  O104  1  0.15874000  0.97155000  0.03156000  1.0
  O  O105  1  0.33912000  0.95978000  0.03676000  1.0
  O  O106  1  0.53926000  0.16543000  0.05226000  1.0
  O  O107  1  0.54796000  0.35204000  0.05211000  1.0
  O  O108  1  0.35096000  0.36889000  0.04402000  1.0
  O  O109  1  0.33156000  0.16201000  0.99016000  1.0
  O  O110  1  0.00431000  0.30249000  0.55272000  1.0
  O  O111  1  0.79525000  0.30195000  0.53586000  1.0
  O  O112  1  0.79125000  0.48228000  0.53481000  1.0
  O  O113  1  0.98702000  0.69130000  0.55108000  1.0
  O  O114  1  0.17100000  0.67817000  0.45305000  1.0
  O  O115  1  0.18098000  0.46604000  0.46228000  1.0
  O  O116  1  0.99632000  0.28398000  0.45470000  1.0
  O  O117  1  0.42957000  0.44788000  0.22951000  1.0
  O  O118  1  0.59382000  0.11156000  0.78778000  1.0
  O  O119  1  0.35221000  0.67376000  0.52177000  1.0
  O  O120  1  0.98547000  0.00035000  0.96810000  1.0
