# generated using pymatgen
data_CuH18C14S(NO3)2
_symmetry_space_group_name_H-M   'P 1'
_cell_length_a   8.49859000
_cell_length_b   8.78594000
_cell_length_c   11.93830000
_cell_angle_alpha   102.52400000
_cell_angle_beta   93.62930000
_cell_angle_gamma   117.87500000
_symmetry_Int_Tables_number   1
_chemical_formula_structural   CuH18C14S(NO3)2
_chemical_formula_sum   'Cu2 H36 C28 S2 N4 O12'
_cell_volume   755.09152355
_cell_formula_units_Z   2
loop_
 _symmetry_equiv_pos_site_id
 _symmetry_equiv_pos_as_xyz
  1  'x, y, z'
loop_
 _atom_site_type_symbol
 _atom_site_label
 _atom_site_symmetry_multiplicity
 _atom_site_fract_x
 _atom_site_fract_y
 _atom_site_fract_z
 _atom_site_occupancy
  Cu  Cu0  1  0.49999000  0.99999000  0.00000000  1.0
  Cu  Cu1  1  0.00000000  0.50000000  0.50000000  1.0
  H  H2  1  0.83257000  0.13467000  0.02472000  1.0
  H  H3  1  0.16742000  0.86532000  0.97528000  1.0
  H  H4  1  0.82573000  0.87784000  0.94527000  1.0
  H  H5  1  0.17426000  0.12215000  0.05473000  1.0
  H  H6  1  0.88305000  0.98573000  0.83257000  1.0
  H  H7  1  0.11695000  0.01427000  0.16743000  1.0
  H  H8  1  0.97942000  0.77762000  0.57069000  1.0
  H  H9  1  0.02059000  0.22239000  0.42931000  1.0
  H  H10  1  0.54032000  0.83533000  0.75221000  1.0
  H  H11  1  0.45967000  0.16467000  0.24779000  1.0
  H  H12  1  0.64190000  0.69672000  0.73517000  1.0
  H  H13  1  0.35809000  0.30328000  0.26483000  1.0
  H  H14  1  0.46075000  0.41983000  0.76076000  1.0
  H  H15  1  0.53926000  0.58017000  0.23925000  1.0
  H  H16  1  0.24976000  0.22359000  0.86792000  1.0
  H  H17  1  0.75025000  0.77639000  0.13209000  1.0
  H  H18  1  0.14611000  0.37045000  0.03513000  1.0
  H  H19  1  0.85387000  0.62953000  0.96487000  1.0
  H  H20  1  0.26227000  0.69692000  0.07953000  1.0
  H  H21  1  0.73771000  0.30306000  0.92046000  1.0
  H  H22  1  0.09508000  0.93251000  0.44845000  1.0
  H  H23  1  0.90493000  0.06750000  0.55155000  1.0
  H  H24  1  0.87749000  0.79638000  0.35656000  1.0
  H  H25  1  0.12252000  0.20363000  0.64344000  1.0
  H  H26  1  0.96713000  0.56746000  0.27192000  1.0
  H  H27  1  0.03288000  0.43255000  0.72808000  1.0
  H  H28  1  0.09577000  0.77844000  0.24293000  1.0
  H  H29  1  0.90424000  0.22157000  0.75708000  1.0
  H  H30  1  0.41670000  0.90240000  0.27449000  1.0
  H  H31  1  0.58331000  0.09760000  0.72551000  1.0
  H  H32  1  0.69531000  0.93161000  0.37551000  1.0
  H  H33  1  0.30471000  0.06840000  0.62449000  1.0
  H  H34  1  0.66964000  0.75865000  0.52571000  1.0
  H  H35  1  0.33037000  0.24137000  0.47430000  1.0
  H  H36  1  0.36070000  0.56882000  0.56392000  1.0
  H  H37  1  0.63931000  0.43120000  0.43609000  1.0
  C  C38  1  0.77618000  0.92836000  0.88289000  1.0
  C  C39  1  0.22381000  0.07163000  0.11711000  1.0
  C  C40  1  0.60419000  0.77765000  0.79953000  1.0
  C  C41  1  0.39580000  0.22234000  0.20047000  1.0
  C  C42  1  0.47070000  0.65916000  0.86109000  1.0
  C  C43  1  0.52929000  0.34084000  0.13891000  1.0
  C  C44  1  0.41045000  0.47529000  0.83091000  1.0
  C  C45  1  0.58955000  0.52470000  0.16909000  1.0
  C  C46  1  0.29195000  0.36623000  0.89105000  1.0
  C  C47  1  0.70805000  0.63376000  0.10895000  1.0
  C  C48  1  0.23611000  0.44564000  0.98233000  1.0
  C  C49  1  0.76387000  0.55434000  0.01766000  1.0
  C  C50  1  0.30147000  0.62924000  0.00883000  1.0
  C  C51  1  0.69852000  0.37075000  0.99116000  1.0
  C  C52  1  0.99215000  0.79355000  0.40207000  1.0
  C  C53  1  0.00786000  0.20646000  0.59794000  1.0
  C  C54  1  0.06917000  0.70935000  0.31172000  1.0
  C  C55  1  0.93084000  0.29065000  0.68828000  1.0
  C  C56  1  0.24032000  0.72313000  0.36613000  1.0
  C  C57  1  0.75969000  0.27688000  0.63387000  1.0
  C  C58  1  0.40818000  0.83117000  0.33993000  1.0
  C  C59  1  0.59183000  0.16884000  0.66007000  1.0
  C  C60  1  0.56516000  0.84701000  0.39692000  1.0
  C  C61  1  0.43485000  0.15300000  0.60308000  1.0
  C  C62  1  0.55130000  0.75235000  0.47921000  1.0
  C  C63  1  0.44871000  0.24767000  0.52080000  1.0
  C  C64  1  0.38091000  0.64634000  0.50124000  1.0
  C  C65  1  0.61910000  0.35368000  0.49876000  1.0
  S  S66  1  0.15257000  0.83578000  0.76585000  1.0
  S  S67  1  0.84743000  0.16422000  0.23415000  1.0
  N  N68  1  0.41524000  0.73434000  0.94980000  1.0
  N  N69  1  0.58474000  0.26564000  0.05020000  1.0
  N  N70  1  0.22945000  0.63239000  0.44624000  1.0
  N  N71  1  0.77056000  0.36762000  0.55376000  1.0
  O  O72  1  0.74156000  0.06577000  0.94466000  1.0
  O  O73  1  0.25843000  0.93422000  0.05534000  1.0
  O  O74  1  0.92954000  0.69240000  0.48524000  1.0
  O  O75  1  0.07047000  0.30761000  0.51476000  1.0
  O  O76  1  0.33164000  0.99511000  0.82286000  1.0
  O  O77  1  0.66836000  0.00489000  0.17714000  1.0
  O  O78  1  0.04825000  0.76992000  0.85859000  1.0
  O  O79  1  0.95175000  0.23008000  0.14141000  1.0
  O  O80  1  0.04681000  0.89009000  0.69218000  1.0
  O  O81  1  0.95319000  0.10992000  0.30782000  1.0
  O  O82  1  0.17397000  0.69129000  0.69053000  1.0
  O  O83  1  0.82603000  0.30872000  0.30947000  1.0
