# generated using pymatgen
data_Ag2H6C7N2O5
_symmetry_space_group_name_H-M   'P 1'
_cell_length_a   7.62109000
_cell_length_b   8.36601000
_cell_length_c   15.27550000
_cell_angle_alpha   78.09300000
_cell_angle_beta   89.99990000
_cell_angle_gamma   89.99910000
_symmetry_Int_Tables_number   1
_chemical_formula_structural   Ag2H6C7N2O5
_chemical_formula_sum   'Ag8 H24 C28 N8 O20'
_cell_volume   952.98164829
_cell_formula_units_Z   4
loop_
 _symmetry_equiv_pos_site_id
 _symmetry_equiv_pos_as_xyz
  1  'x, y, z'
loop_
 _atom_site_type_symbol
 _atom_site_label
 _atom_site_symmetry_multiplicity
 _atom_site_fract_x
 _atom_site_fract_y
 _atom_site_fract_z
 _atom_site_occupancy
  Ag  Ag0  1  0.66842000  0.66315000  0.70630000  1.0
  Ag  Ag1  1  0.16842000  0.83685000  0.79370000  1.0
  Ag  Ag2  1  0.33157000  0.33685000  0.29370000  1.0
  Ag  Ag3  1  0.83158000  0.16315000  0.20630000  1.0
  Ag  Ag4  1  0.95721000  0.00763000  0.58685000  1.0
  Ag  Ag5  1  0.45722000  0.49238000  0.91315000  1.0
  Ag  Ag6  1  0.04277000  0.99237000  0.41315000  1.0
  Ag  Ag7  1  0.54278000  0.50763000  0.08685000  1.0
  H  H8  1  0.41999000  0.30396000  0.65545000  1.0
  H  H9  1  0.91999000  0.19603000  0.84455000  1.0
  H  H10  1  0.58001000  0.69604000  0.34455000  1.0
  H  H11  1  0.08001000  0.80396000  0.15545000  1.0
  H  H12  1  0.94884000  0.40356000  0.55959000  1.0
  H  H13  1  0.44884000  0.09642000  0.94040000  1.0
  H  H14  1  0.05116000  0.59644000  0.44040000  1.0
  H  H15  1  0.55116000  0.90359000  0.05960000  1.0
  H  H16  1  0.87599000  0.29829000  0.42333000  1.0
  H  H17  1  0.37600000  0.20169000  0.07667000  1.0
  H  H18  1  0.12400000  0.70170000  0.57667000  1.0
  H  H19  1  0.62400000  0.79831000  0.92333000  1.0
  H  H20  1  0.57863000  0.18457000  0.40572000  1.0
  H  H21  1  0.07865000  0.31542000  0.09428000  1.0
  H  H22  1  0.42136000  0.81543000  0.59428000  1.0
  H  H23  1  0.92136000  0.68458000  0.90572000  1.0
  H  H24  1  0.86939000  0.41292000  0.70318000  1.0
  H  H25  1  0.36939000  0.08708000  0.79682000  1.0
  H  H26  1  0.13061000  0.58708000  0.29682000  1.0
  H  H27  1  0.63061000  0.91293000  0.20318000  1.0
  H  H28  1  0.68141000  0.34132000  0.75104000  1.0
  H  H29  1  0.18141000  0.15868000  0.74896000  1.0
  H  H30  1  0.31858000  0.65868000  0.24896000  1.0
  H  H31  1  0.81859000  0.84132000  0.25104000  1.0
  C  C32  1  0.52068000  0.30111000  0.60525000  1.0
  C  C33  1  0.02068000  0.19888000  0.89475000  1.0
  C  C34  1  0.47932000  0.69889000  0.39475000  1.0
  C  C35  1  0.97932000  0.80111000  0.10525000  1.0
  C  C36  1  0.68939000  0.35951000  0.61641000  1.0
  C  C37  1  0.18940000  0.14048000  0.88359000  1.0
  C  C38  1  0.31061000  0.64049000  0.38359000  1.0
  C  C39  1  0.81061000  0.85951000  0.11641000  1.0
  C  C40  1  0.81696000  0.35946000  0.55015000  1.0
  C  C41  1  0.31696000  0.14053000  0.94985000  1.0
  C  C42  1  0.18304000  0.64054000  0.44985000  1.0
  C  C43  1  0.68304000  0.85947000  0.05015000  1.0
  C  C44  1  0.77521000  0.29957000  0.47386000  1.0
  C  C45  1  0.27522000  0.20042000  0.02614000  1.0
  C  C46  1  0.22479000  0.70043000  0.52614000  1.0
  C  C47  1  0.72478000  0.79959000  0.97386000  1.0
  C  C48  1  0.60791000  0.23874000  0.46310000  1.0
  C  C49  1  0.10793000  0.26125000  0.03690000  1.0
  C  C50  1  0.39208000  0.76126000  0.53690000  1.0
  C  C51  1  0.89207000  0.73875000  0.96310000  1.0
  C  C52  1  0.48022000  0.23923000  0.52921000  1.0
  C  C53  1  0.98023000  0.26076000  0.97079000  1.0
  C  C54  1  0.51977000  0.76077000  0.47079000  1.0
  C  C55  1  0.01977000  0.73924000  0.02920000  1.0
  C  C56  1  0.30323000  0.16592000  0.52058000  1.0
  C  C57  1  0.80324000  0.33407000  0.97942000  1.0
  C  C58  1  0.69677000  0.83408000  0.47942000  1.0
  C  C59  1  0.19677000  0.66592000  0.02058000  1.0
  N  N60  1  0.73486000  0.41538000  0.69553000  1.0
  N  N61  1  0.23486000  0.08462000  0.80446000  1.0
  N  N62  1  0.26514000  0.58462000  0.30446000  1.0
  N  N63  1  0.76514000  0.91539000  0.19554000  1.0
  N  N64  1  0.67283000  0.98694000  0.76606000  1.0
  N  N65  1  0.17282000  0.51306000  0.73394000  1.0
  N  N66  1  0.32717000  0.01307000  0.23394000  1.0
  N  N67  1  0.82717000  0.48694000  0.26607000  1.0
  O  O68  1  0.25822000  0.14729000  0.44239000  1.0
  O  O69  1  0.75823000  0.35271000  0.05761000  1.0
  O  O70  1  0.74178000  0.85271000  0.55762000  1.0
  O  O71  1  0.24178000  0.64729000  0.94239000  1.0
  O  O72  1  0.21219000  0.12405000  0.59155000  1.0
  O  O73  1  0.71219000  0.37594000  0.90845000  1.0
  O  O74  1  0.78781000  0.87595000  0.40845000  1.0
  O  O75  1  0.28782000  0.62405000  0.09155000  1.0
  O  O76  1  0.56624000  0.87125000  0.75740000  1.0
  O  O77  1  0.06624000  0.62875000  0.74260000  1.0
  O  O78  1  0.43376000  0.12875000  0.24260000  1.0
  O  O79  1  0.93377000  0.37125000  0.25741000  1.0
  O  O80  1  0.83042000  0.98469000  0.74168000  1.0
  O  O81  1  0.33042000  0.51531000  0.75832000  1.0
  O  O82  1  0.16958000  0.01531000  0.25832000  1.0
  O  O83  1  0.66958000  0.48469000  0.24168000  1.0
  O  O84  1  0.61478000  0.09989000  0.80125000  1.0
  O  O85  1  0.11478000  0.40011000  0.69875000  1.0
  O  O86  1  0.38522000  0.90011000  0.19875000  1.0
  O  O87  1  0.88522000  0.59990000  0.30125000  1.0
