# generated using pymatgen
data_HgH3C5Br2NCl2
_symmetry_space_group_name_H-M   'P 1'
_cell_length_a   4.09785000
_cell_length_b   13.47690000
_cell_length_c   17.71070000
_cell_angle_alpha   89.99980000
_cell_angle_beta   89.99920000
_cell_angle_gamma   88.30400000
_symmetry_Int_Tables_number   1
_chemical_formula_structural   HgH3C5Br2NCl2
_chemical_formula_sum   'Hg4 H12 C20 Br8 N4 Cl8'
_cell_volume   977.66821502
_cell_formula_units_Z   4
loop_
 _symmetry_equiv_pos_site_id
 _symmetry_equiv_pos_as_xyz
  1  'x, y, z'
loop_
 _atom_site_type_symbol
 _atom_site_label
 _atom_site_symmetry_multiplicity
 _atom_site_fract_x
 _atom_site_fract_y
 _atom_site_fract_z
 _atom_site_occupancy
  Hg  Hg0  1  0.11598000  0.55211000  0.73426000  1.0
  Hg  Hg1  1  0.88398000  0.94790000  0.23427000  1.0
  Hg  Hg2  1  0.88398000  0.44789000  0.26574000  1.0
  Hg  Hg3  1  0.11600000  0.05210000  0.76574000  1.0
  H  H4  1  0.32056000  0.77469000  0.81227000  1.0
  H  H5  1  0.67947000  0.72532000  0.31228000  1.0
  H  H6  1  0.67943000  0.22531000  0.18773000  1.0
  H  H7  1  0.32055000  0.27468000  0.68773000  1.0
  H  H8  1  0.95395000  0.80206000  0.04129000  1.0
  H  H9  1  0.04608000  0.69793000  0.54129000  1.0
  H  H10  1  0.04612000  0.19794000  0.95871000  1.0
  H  H11  1  0.95390000  0.30206000  0.45871000  1.0
  H  H12  1  0.80951000  0.54143000  0.90394000  1.0
  H  H13  1  0.19046000  0.95859000  0.40396000  1.0
  H  H14  1  0.19045000  0.45859000  0.09606000  1.0
  H  H15  1  0.80954000  0.04141000  0.59605000  1.0
  C  C16  1  0.18966000  0.74578000  0.86077000  1.0
  C  C17  1  0.81037000  0.75422000  0.36078000  1.0
  C  C18  1  0.81037000  0.25423000  0.13922000  1.0
  C  C19  1  0.18964000  0.24577000  0.63923000  1.0
  C  C20  1  0.15143000  0.80070000  0.92742000  1.0
  C  C21  1  0.84861000  0.69931000  0.42743000  1.0
  C  C22  1  0.84862000  0.19931000  0.07258000  1.0
  C  C23  1  0.15140000  0.30069000  0.57258000  1.0
  C  C24  1  0.98596000  0.76097000  0.98871000  1.0
  C  C25  1  0.01408000  0.73903000  0.48871000  1.0
  C  C26  1  0.01408000  0.23904000  0.01129000  1.0
  C  C27  1  0.98592000  0.26097000  0.51128000  1.0
  C  C28  1  0.86222000  0.66626000  0.98039000  1.0
  C  C29  1  0.13779000  0.83374000  0.48040000  1.0
  C  C30  1  0.13779000  0.33375000  0.01960000  1.0
  C  C31  1  0.86219000  0.16626000  0.51960000  1.0
  C  C32  1  0.90500000  0.61522000  0.91238000  1.0
  C  C33  1  0.09499000  0.88479000  0.41238000  1.0
  C  C34  1  0.09495000  0.38478000  0.08763000  1.0
  C  C35  1  0.90502000  0.11521000  0.58763000  1.0
  Br  Br36  1  0.76350000  0.41144000  0.77328000  1.0
  Br  Br37  1  0.23645000  0.08856000  0.27328000  1.0
  Br  Br38  1  0.23646000  0.58857000  0.22673000  1.0
  Br  Br39  1  0.76352000  0.91144000  0.72672000  1.0
  Br  Br40  1  0.50313000  0.66256000  0.66545000  1.0
  Br  Br41  1  0.49688000  0.83742000  0.16546000  1.0
  Br  Br42  1  0.49685000  0.33742000  0.33455000  1.0
  Br  Br43  1  0.50308000  0.16259000  0.83454000  1.0
  N  N44  1  0.06676000  0.65507000  0.85467000  1.0
  N  N45  1  0.93324000  0.84494000  0.35468000  1.0
  N  N46  1  0.93322000  0.34493000  0.14533000  1.0
  N  N47  1  0.06677000  0.15506000  0.64532000  1.0
  Cl  Cl48  1  0.30997000  0.91738000  0.93383000  1.0
  Cl  Cl49  1  0.69009000  0.58262000  0.43383000  1.0
  Cl  Cl50  1  0.69013000  0.08261000  0.06617000  1.0
  Cl  Cl51  1  0.30991000  0.41738000  0.56617000  1.0
  Cl  Cl52  1  0.66107000  0.61181000  0.05420000  1.0
  Cl  Cl53  1  0.33893000  0.88819000  0.55420000  1.0
  Cl  Cl54  1  0.33893000  0.38820000  0.94581000  1.0
  Cl  Cl55  1  0.66105000  0.11181000  0.44580000  1.0
