# generated using pymatgen
data_CdH12C10(NO4)2
_symmetry_space_group_name_H-M   'P 1'
_cell_length_a   7.55822000
_cell_length_b   10.68110000
_cell_length_c   17.87410000
_cell_angle_alpha   89.99930000
_cell_angle_beta   89.99860000
_cell_angle_gamma   75.24100000
_symmetry_Int_Tables_number   1
_chemical_formula_structural   CdH12C10(NO4)2
_chemical_formula_sum   'Cd4 H48 C40 N8 O32'
_cell_volume   1395.36823579
_cell_formula_units_Z   4
loop_
 _symmetry_equiv_pos_site_id
 _symmetry_equiv_pos_as_xyz
  1  'x, y, z'
loop_
 _atom_site_type_symbol
 _atom_site_label
 _atom_site_symmetry_multiplicity
 _atom_site_fract_x
 _atom_site_fract_y
 _atom_site_fract_z
 _atom_site_occupancy
  Cd  Cd0  1  0.09397000  0.75641000  0.03759000  1.0
  Cd  Cd1  1  0.40603000  0.24358000  0.53759000  1.0
  Cd  Cd2  1  0.90603000  0.24359000  0.96242000  1.0
  Cd  Cd3  1  0.59397000  0.75641000  0.46241000  1.0
  H  H4  1  0.21604000  0.94061000  0.94835000  1.0
  H  H5  1  0.28397000  0.05940000  0.44835000  1.0
  H  H6  1  0.78396000  0.05939000  0.05165000  1.0
  H  H7  1  0.71602000  0.94060000  0.55165000  1.0
  H  H8  1  0.40839000  0.84945000  0.98124000  1.0
  H  H9  1  0.09162000  0.15054000  0.48125000  1.0
  H  H10  1  0.59161000  0.15055000  0.01876000  1.0
  H  H11  1  0.90838000  0.84946000  0.51875000  1.0
  H  H12  1  0.86696000  0.64047000  0.13383000  1.0
  H  H13  1  0.63306000  0.35952000  0.63382000  1.0
  H  H14  1  0.13304000  0.35953000  0.86617000  1.0
  H  H15  1  0.36694000  0.64048000  0.36618000  1.0
  H  H16  1  0.77217000  0.69966000  0.05629000  1.0
  H  H17  1  0.72784000  0.30032000  0.55629000  1.0
  H  H18  1  0.22783000  0.30034000  0.94371000  1.0
  H  H19  1  0.27216000  0.69968000  0.44371000  1.0
  H  H20  1  0.24942000  0.49314000  0.02415000  1.0
  H  H21  1  0.25057000  0.50686000  0.52416000  1.0
  H  H22  1  0.75058000  0.50686000  0.97585000  1.0
  H  H23  1  0.74942000  0.49314000  0.47584000  1.0
  H  H24  1  0.68167000  0.83713000  0.67161000  1.0
  H  H25  1  0.81832000  0.16285000  0.17161000  1.0
  H  H26  1  0.31834000  0.16287000  0.32839000  1.0
  H  H27  1  0.18168000  0.83715000  0.82839000  1.0
  H  H28  1  0.39225000  0.16086000  0.80369000  1.0
  H  H29  1  0.10776000  0.83912000  0.30368000  1.0
  H  H30  1  0.60775000  0.83914000  0.19631000  1.0
  H  H31  1  0.89224000  0.16087000  0.69632000  1.0
  H  H32  1  0.50143000  0.03788000  0.92059000  1.0
  H  H33  1  0.99860000  0.96209000  0.42059000  1.0
  H  H34  1  0.49857000  0.96212000  0.07941000  1.0
  H  H35  1  0.00139000  0.03791000  0.57941000  1.0
  H  H36  1  0.40075000  0.54825000  0.12977000  1.0
  H  H37  1  0.09922000  0.45174000  0.62977000  1.0
  H  H38  1  0.59926000  0.45175000  0.87023000  1.0
  H  H39  1  0.90078000  0.54826000  0.37023000  1.0
  H  H40  1  0.50649000  0.64315000  0.07165000  1.0
  H  H41  1  0.99349000  0.35684000  0.57164000  1.0
  H  H42  1  0.49351000  0.35685000  0.92835000  1.0
  H  H43  1  0.00651000  0.64316000  0.42836000  1.0
  H  H44  1  0.42979000  0.65206000  0.93139000  1.0
  H  H45  1  0.07023000  0.34795000  0.43139000  1.0
  H  H46  1  0.57021000  0.34794000  0.06861000  1.0
  H  H47  1  0.92977000  0.65205000  0.56861000  1.0
  H  H48  1  0.27071000  0.56601000  0.90122000  1.0
  H  H49  1  0.22931000  0.43400000  0.40123000  1.0
  H  H50  1  0.72929000  0.43399000  0.09878000  1.0
  H  H51  1  0.77069000  0.56600000  0.59877000  1.0
  C  C52  1  0.74345000  0.80702000  0.93335000  1.0
  C  C53  1  0.75657000  0.19295000  0.43336000  1.0
  C  C54  1  0.25655000  0.19298000  0.06665000  1.0
  C  C55  1  0.24342000  0.80705000  0.56665000  1.0
  C  C56  1  0.65306000  0.86786000  0.86249000  1.0
  C  C57  1  0.84695000  0.13212000  0.36249000  1.0
  C  C58  1  0.34695000  0.13215000  0.13751000  1.0
  C  C59  1  0.15305000  0.86787000  0.63751000  1.0
  C  C60  1  0.69775000  0.81296000  0.79133000  1.0
  C  C61  1  0.80226000  0.18702000  0.29133000  1.0
  C  C62  1  0.30225000  0.18704000  0.20867000  1.0
  C  C63  1  0.19774000  0.81299000  0.70867000  1.0
  C  C64  1  0.64312000  0.88225000  0.72578000  1.0
  C  C65  1  0.85688000  0.11773000  0.22578000  1.0
  C  C66  1  0.35688000  0.11775000  0.27422000  1.0
  C  C67  1  0.14312000  0.88227000  0.77422000  1.0
  C  C68  1  0.53542000  0.00958000  0.73081000  1.0
  C  C69  1  0.96458000  0.99040000  0.23081000  1.0
  C  C70  1  0.46458000  0.99042000  0.26919000  1.0
  C  C71  1  0.03542000  0.00960000  0.76919000  1.0
  C  C72  1  0.47928000  0.06256000  0.80113000  1.0
  C  C73  1  0.02073000  0.93741000  0.30112000  1.0
  C  C74  1  0.52073000  0.93744000  0.19887000  1.0
  C  C75  1  0.97926000  0.06259000  0.69888000  1.0
  C  C76  1  0.53844000  0.99300000  0.86622000  1.0
  C  C77  1  0.96157000  0.00698000  0.36622000  1.0
  C  C78  1  0.46156000  0.00700000  0.13378000  1.0
  C  C79  1  0.03843000  0.99302000  0.63378000  1.0
  C  C80  1  0.48544000  0.09236000  0.66276000  1.0
  C  C81  1  0.01456000  0.90763000  0.16275000  1.0
  C  C82  1  0.51456000  0.90764000  0.33724000  1.0
  C  C83  1  0.98544000  0.09237000  0.83725000  1.0
  C  C84  1  0.45894000  0.55425000  0.07408000  1.0
  C  C85  1  0.04104000  0.44574000  0.57408000  1.0
  C  C86  1  0.54106000  0.44575000  0.92592000  1.0
  C  C87  1  0.95896000  0.55426000  0.42592000  1.0
  C  C88  1  0.38337000  0.56384000  0.94019000  1.0
  C  C89  1  0.11665000  0.43615000  0.44019000  1.0
  C  C90  1  0.61664000  0.43616000  0.05981000  1.0
  C  C91  1  0.88335000  0.56384000  0.55980000  1.0
  N  N92  1  0.80417000  0.67780000  0.78509000  1.0
  N  N93  1  0.69584000  0.32218000  0.28509000  1.0
  N  N94  1  0.19583000  0.32220000  0.21491000  1.0
  N  N95  1  0.30416000  0.67782000  0.71491000  1.0
  N  N96  1  0.31146000  0.56736000  0.01763000  1.0
  N  N97  1  0.18854000  0.43263000  0.51764000  1.0
  N  N98  1  0.68855000  0.43263000  0.98237000  1.0
  N  N99  1  0.81146000  0.56737000  0.48236000  1.0
  O  O100  1  0.91625000  0.78370000  0.93345000  1.0
  O  O101  1  0.58376000  0.21629000  0.43345000  1.0
  O  O102  1  0.08375000  0.21629000  0.06655000  1.0
  O  O103  1  0.41624000  0.78371000  0.56655000  1.0
  O  O104  1  0.64227000  0.79115000  0.98785000  1.0
  O  O105  1  0.85774000  0.20882000  0.48786000  1.0
  O  O106  1  0.35772000  0.20885000  0.01215000  1.0
  O  O107  1  0.14226000  0.79118000  0.51214000  1.0
  O  O108  1  0.36058000  0.19706000  0.66748000  1.0
  O  O109  1  0.13942000  0.80292000  0.16747000  1.0
  O  O110  1  0.63942000  0.80294000  0.33252000  1.0
  O  O111  1  0.86058000  0.19708000  0.83253000  1.0
  O  O112  1  0.57581000  0.05794000  0.60207000  1.0
  O  O113  1  0.92419000  0.94205000  0.10207000  1.0
  O  O114  1  0.42419000  0.94206000  0.39793000  1.0
  O  O115  1  0.07581000  0.05795000  0.89793000  1.0
  O  O116  1  0.89355000  0.64427000  0.72683000  1.0
  O  O117  1  0.60644000  0.35571000  0.22685000  1.0
  O  O118  1  0.10645000  0.35573000  0.27317000  1.0
  O  O119  1  0.39357000  0.64429000  0.77315000  1.0
  O  O120  1  0.79799000  0.60359000  0.83795000  1.0
  O  O121  1  0.70207000  0.39640000  0.33795000  1.0
  O  O122  1  0.20201000  0.39641000  0.16205000  1.0
  O  O123  1  0.29792000  0.60361000  0.66205000  1.0
  O  O124  1  0.27410000  0.88080000  0.98908000  1.0
  O  O125  1  0.22591000  0.11920000  0.48909000  1.0
  O  O126  1  0.72589000  0.11920000  0.01091000  1.0
  O  O127  1  0.77409000  0.88080000  0.51091000  1.0
  O  O128  1  0.87857000  0.63573000  0.07961000  1.0
  O  O129  1  0.62145000  0.36426000  0.57961000  1.0
  O  O130  1  0.12143000  0.36427000  0.92039000  1.0
  O  O131  1  0.37855000  0.63574000  0.42039000  1.0
