# generated using pymatgen
data_Zn4H68C80N28O5
_symmetry_space_group_name_H-M   'P 1'
_cell_length_a   19.75500000
_cell_length_b   19.80250000
_cell_length_c   20.63850000
_cell_angle_alpha   106.03100000
_cell_angle_beta   106.45200000
_cell_angle_gamma   111.26100000
_symmetry_Int_Tables_number   1
_chemical_formula_structural   Zn4H68C80N28O5
_chemical_formula_sum   'Zn4 H68 C80 N28 O5'
_cell_volume   6535.82565397
_cell_formula_units_Z   1
loop_
 _symmetry_equiv_pos_site_id
 _symmetry_equiv_pos_as_xyz
  1  'x, y, z'
loop_
 _atom_site_type_symbol
 _atom_site_label
 _atom_site_symmetry_multiplicity
 _atom_site_fract_x
 _atom_site_fract_y
 _atom_site_fract_z
 _atom_site_occupancy
  Zn  Zn0  1  0.38803000  0.40012000  0.49529000  1.0
  Zn  Zn1  1  0.62064000  0.60860000  0.50241000  1.0
  Zn  Zn2  1  0.41993000  0.52701000  0.42056000  1.0
  Zn  Zn3  1  0.58510000  0.48157000  0.58092000  1.0
  H  H4  1  0.35460000  0.24042000  0.36531000  1.0
  H  H5  1  0.95860000  0.33195000  0.44306000  1.0
  H  H6  1  0.93098000  0.46635000  0.46641000  1.0
  H  H7  1  0.96904000  0.48302000  0.34654000  1.0
  H  H8  1  0.80421000  0.38126000  0.24619000  1.0
  H  H9  1  0.41688000  0.60000000  0.18169000  1.0
  H  H10  1  0.39877000  0.53467000  0.26139000  1.0
  H  H11  1  0.41473000  0.61873000  0.06661000  1.0
  H  H12  1  0.35948000  0.59552000  0.85610000  1.0
  H  H13  1  0.36083000  0.57510000  0.73221000  1.0
  H  H14  1  0.61641000  0.69713000  0.95871000  1.0
  H  H15  1  0.65686000  0.77979000  0.62077000  1.0
  H  H16  1  0.61922000  0.67897000  0.83624000  1.0
  H  H17  1  0.90326000  0.68656000  0.83042000  1.0
  H  H18  1  0.19162000  0.02958000  0.09385000  1.0
  H  H19  1  0.59726000  0.34366000  0.63488000  1.0
  H  H20  1  0.30634000  0.15182000  0.20432000  1.0
  H  H21  1  0.83145000  0.85650000  0.78551000  1.0
  H  H22  1  0.03556000  0.13201000  0.10927000  1.0
  H  H23  1  0.94275000  0.96322000  0.90717000  1.0
  H  H24  1  0.14938000  0.25334000  0.22205000  1.0
  H  H25  1  0.65812000  0.64414000  0.36105000  1.0
  H  H26  1  0.75021000  0.58605000  0.74130000  1.0
  H  H27  1  0.33805000  0.23108000  0.52153000  1.0
  H  H28  1  0.35973000  0.51326000  0.61636000  1.0
  H  H29  1  0.28885000  0.57987000  0.38597000  1.0
  H  H30  1  0.17867000  0.58349000  0.31185000  1.0
  H  H31  1  0.14649000  0.55399000  0.37704000  1.0
  H  H32  1  0.11505000  0.48093000  0.28655000  1.0
  H  H33  1  0.83898000  0.81597000  0.68712000  1.0
  H  H34  1  0.67681000  0.02003000  0.64359000  1.0
  H  H35  1  0.71941000  0.07155000  0.56213000  1.0
  H  H36  1  0.70198000  0.14431000  0.61886000  1.0
  H  H37  1  0.18541000  0.31751000  0.42775000  1.0
  H  H38  1  0.62803000  0.07457000  0.52682000  1.0
  H  H39  1  0.40374000  0.83059000  0.54362000  1.0
  H  H40  1  0.72683000  0.51732000  0.37644000  1.0
  H  H41  1  0.33563000  0.01762000  0.61643000  1.0
  H  H42  1  0.28771000  0.96229000  0.69375000  1.0
  H  H43  1  0.37724000  0.95614000  0.72919000  1.0
  H  H44  1  0.30451000  0.89022000  0.63555000  1.0
  H  H45  1  0.60745000  0.20885000  0.73776000  1.0
  H  H46  1  0.74086000  0.24811000  0.81599000  1.0
  H  H47  1  0.72899000  0.15338000  0.76432000  1.0
  H  H48  1  0.62024000  0.62829000  0.72304000  1.0
  H  H49  1  0.68022000  0.16151000  0.82455000  1.0
  H  H50  1  0.79650000  0.17752000  0.33090000  1.0
  H  H51  1  0.68101000  0.57599000  0.19148000  1.0
  H  H52  1  0.66541000  0.48196000  0.23769000  1.0
  H  H53  1  0.56735000  0.44826000  0.16924000  1.0
  H  H54  1  0.59310000  0.49696000  0.26602000  1.0
  H  H55  1  0.64626000  0.62887000  0.06173000  1.0
  H  H56  1  0.78518000  0.69945000  0.15034000  1.0
  H  H57  1  0.75345000  0.69949000  0.22300000  1.0
  H  H58  1  0.73469000  0.75542000  0.17258000  1.0
  H  H59  1  0.39642000  0.66081000  0.52944000  1.0
  H  H60  1  0.00211000  0.72435000  0.93646000  1.0
  H  H61  1  0.08939000  0.87301000  0.07155000  1.0
  H  H62  1  0.14153000  0.86820000  0.01485000  1.0
  H  H63  1  0.11066000  0.79136000  0.04624000  1.0
  H  H64  1  0.63371000  0.30239000  0.46231000  1.0
  H  H65  1  0.27143000  0.43142000  0.27875000  1.0
  H  H66  1  0.26105000  0.41042000  0.15484000  1.0
  H  H67  1  0.19783000  0.31555000  0.14899000  1.0
  H  H68  1  0.29599000  0.33950000  0.15505000  1.0
  H  H69  1  0.47907000  0.99949000  0.50090000  1.0
  H  H70  1  0.52980000  0.03380000  0.75928000  1.0
  H  H71  1  0.83104000  0.24716000  0.22235000  1.0
  C  C72  1  0.35385000  0.28873000  0.35030000  1.0
  C  C73  1  0.21243000  0.37089000  0.41925000  1.0
  C  C74  1  0.55641000  0.59370000  0.68649000  1.0
  C  C75  1  0.66031000  0.48722000  0.42463000  1.0
  C  C76  1  0.45947000  0.67795000  0.54443000  1.0
  C  C77  1  0.49006000  0.59054000  0.70109000  1.0
  C  C78  1  0.52785000  0.75306000  0.59232000  1.0
  C  C79  1  0.17277000  0.40412000  0.38045000  1.0
  C  C80  1  0.79721000  0.70021000  0.72683000  1.0
  C  C81  1  0.57184000  0.02360000  0.61833000  1.0
  C  C82  1  0.49114000  0.00667000  0.55813000  1.0
  C  C83  1  0.66475000  0.41718000  0.42321000  1.0
  C  C84  1  0.46369000  0.18971000  0.59462000  1.0
  C  C85  1  0.52948000  0.82694000  0.62281000  1.0
  C  C86  1  0.56819000  0.09182000  0.67857000  1.0
  C  C87  1  0.46247000  0.56412000  0.29757000  1.0
  C  C88  1  0.48720000  0.07384000  0.61706000  1.0
  C  C89  1  0.51913000  0.02687000  0.70226000  1.0
  C  C90  1  0.52345000  0.96043000  0.64349000  1.0
  C  C91  1  0.43868000  0.01101000  0.64215000  1.0
  C  C92  1  0.44253000  0.94344000  0.58154000  1.0
  C  C93  1  0.47165000  0.13458000  0.60470000  1.0
  C  C94  1  0.52876000  0.59059000  0.28054000  1.0
  C  C95  1  0.53271000  0.89278000  0.64342000  1.0
  C  C96  1  0.85364000  0.29614000  0.27666000  1.0
  C  C97  1  0.83317000  0.28714000  0.34324000  1.0
  C  C98  1  0.71066000  0.38842000  0.39554000  1.0
  C  C99  1  0.53502000  0.32873000  0.60614000  1.0
  C  C100  1  0.08991000  0.37843000  0.35121000  1.0
  C  C101  1  0.83925000  0.37055000  0.28989000  1.0
  C  C102  1  0.81779000  0.36189000  0.35666000  1.0
  C  C103  1  0.92941000  0.42725000  0.34609000  1.0
  C  C104  1  0.94541000  0.35289000  0.33348000  1.0
  C  C105  1  0.46520000  0.25734000  0.58403000  1.0
  C  C106  1  0.91013000  0.41794000  0.41239000  1.0
  C  C107  1  0.92387000  0.34351000  0.39990000  1.0
  C  C108  1  0.75551000  0.37095000  0.37245000  1.0
  C  C109  1  0.01820000  0.35727000  0.33174000  1.0
  C  C110  1  0.48973000  0.62099000  0.77392000  1.0
  C  C111  1  0.59478000  0.61899000  0.34865000  1.0
  C  C112  1  0.56176000  0.66003000  0.83992000  1.0
  C  C113  1  0.56080000  0.67044000  0.90871000  1.0
  C  C114  1  0.48700000  0.64298000  0.91426000  1.0
  C  C115  1  0.41598000  0.61384000  0.85066000  1.0
  C  C116  1  0.42361000  0.53521000  0.63211000  1.0
  C  C117  1  0.41733000  0.60255000  0.78159000  1.0
  C  C118  1  0.46424000  0.61480000  0.10234000  1.0
  C  C119  1  0.46526000  0.60257000  0.16520000  1.0
  C  C120  1  0.53064000  0.62576000  0.08532000  1.0
  C  C121  1  0.52836000  0.59513000  0.21101000  1.0
  C  C122  1  0.59020000  0.59633000  0.18877000  1.0
  C  C123  1  0.40248000  0.27054000  0.54766000  1.0
  C  C124  1  0.59468000  0.61858000  0.12991000  1.0
  C  C125  1  0.23617000  0.21164000  0.21992000  1.0
  C  C126  1  0.15893000  0.20490000  0.19306000  1.0
  C  C127  1  0.59275000  0.73874000  0.59180000  1.0
  C  C128  1  0.09536000  0.13738000  0.13106000  1.0
  C  C129  1  0.10659000  0.07357000  0.09494000  1.0
  C  C130  1  0.18304000  0.07871000  0.12278000  1.0
  C  C131  1  0.24655000  0.14679000  0.18420000  1.0
  C  C132  1  0.97341000  0.80671000  0.91785000  1.0
  C  C133  1  0.91090000  0.74723000  0.84760000  1.0
  C  C134  1  0.98420000  0.88641000  0.93883000  1.0
  C  C135  1  0.62020000  0.39264000  0.46286000  1.0
  C  C136  1  0.86060000  0.76322000  0.79879000  1.0
  C  C137  1  0.87250000  0.84276000  0.82063000  1.0
  C  C138  1  0.23732000  0.47301000  0.38774000  1.0
  C  C139  1  0.93279000  0.90189000  0.88892000  1.0
  C  C140  1  0.32656000  0.36524000  0.29748000  1.0
  C  C141  1  0.30334000  0.28411000  0.28398000  1.0
  C  C142  1  0.16539000  0.53691000  0.33237000  1.0
  C  C143  1  0.67383000  0.08189000  0.57718000  1.0
  C  C144  1  0.33346000  0.95174000  0.67924000  1.0
  C  C145  1  0.69776000  0.18396000  0.78514000  1.0
  C  C146  1  0.61594000  0.49632000  0.22346000  1.0
  C  C147  1  0.73745000  0.69954000  0.16754000  1.0
  C  C148  1  0.09371000  0.83174000  0.02692000  1.0
  C  C149  1  0.74980000  0.61845000  0.70651000  1.0
  C  C150  1  0.26028000  0.36416000  0.17473000  1.0
  C  C151  1  0.76741000  0.70711000  0.65949000  1.0
  N  N152  1  0.40315000  0.36609000  0.40047000  1.0
  N  N153  1  0.53825000  0.63914000  0.02426000  1.0
  N  N154  1  0.03978000  0.00983000  0.03059000  1.0
  N  N155  1  0.61570000  0.50118000  0.45890000  1.0
  N  N156  1  0.04621000  0.94667000  0.00713000  1.0
  N  N157  1  0.48695000  0.57624000  0.36944000  1.0
  N  N158  1  0.51541000  0.37966000  0.58472000  1.0
  N  N159  1  0.56964000  0.61083000  0.40147000  1.0
  N  N160  1  0.43303000  0.34364000  0.54831000  1.0
  N  N161  1  0.59115000  0.44213000  0.48404000  1.0
  N  N162  1  0.38883000  0.41250000  0.36594000  1.0
  N  N163  1  0.56415000  0.66194000  0.54615000  1.0
  N  N164  1  0.44912000  0.50704000  0.58217000  1.0
  N  N165  1  0.23675000  0.52708000  0.35711000  1.0
  N  N166  1  0.63596000  0.02188000  0.60187000  1.0
  N  N167  1  0.37462000  0.01374000  0.65801000  1.0
  N  N168  1  0.63035000  0.17164000  0.72235000  1.0
  N  N169  1  0.64750000  0.57489000  0.22127000  1.0
  N  N170  1  0.66090000  0.62769000  0.11298000  1.0
  N  N171  1  0.01727000  0.78275000  0.96143000  1.0
  N  N172  1  0.29710000  0.40119000  0.25587000  1.0
  N  N173  1  0.30810000  0.47943000  0.42805000  1.0
  N  N174  1  0.69660000  0.58087000  0.63446000  1.0
  N  N175  1  0.70815000  0.63670000  0.60473000  1.0
  N  N176  1  0.29201000  0.41530000  0.44735000  1.0
  N  N177  1  0.53071000  0.54284000  0.61546000  1.0
  N  N178  1  0.48258000  0.62469000  0.51691000  1.0
  N  N179  1  0.47770000  0.63631000  0.97765000  1.0
  O  O180  1  0.79129000  0.77163000  0.64336000  1.0
  O  O181  1  0.38168000  0.86598000  0.53427000  1.0
  O  O182  1  0.69767000  0.53876000  0.39927000  1.0
  O  O183  1  0.77959000  0.21812000  0.34278000  1.0
  O  O184  1  0.60703000  0.33029000  0.48173000  1.0
