# generated using pymatgen
data_NiH5C7NO5
_symmetry_space_group_name_H-M   'P 1'
_cell_length_a   6.24421000
_cell_length_b   7.76463000
_cell_length_c   15.13410000
_cell_angle_alpha   90.00000000
_cell_angle_beta   89.99990000
_cell_angle_gamma   107.75000000
_symmetry_Int_Tables_number   1
_chemical_formula_structural   NiH5C7NO5
_chemical_formula_sum   'Ni4 H20 C28 N4 O20'
_cell_volume   698.83128115
_cell_formula_units_Z   4
loop_
 _symmetry_equiv_pos_site_id
 _symmetry_equiv_pos_as_xyz
  1  'x, y, z'
loop_
 _atom_site_type_symbol
 _atom_site_label
 _atom_site_symmetry_multiplicity
 _atom_site_fract_x
 _atom_site_fract_y
 _atom_site_fract_z
 _atom_site_occupancy
  Ni  Ni0  1  0.25958000  0.72253000  0.41767000  1.0
  Ni  Ni1  1  0.24042000  0.27747000  0.91767000  1.0
  Ni  Ni2  1  0.74042000  0.27747000  0.58233000  1.0
  Ni  Ni3  1  0.75958000  0.72253000  0.08233000  1.0
  H  H4  1  0.66780000  0.90488000  0.47009000  1.0
  H  H5  1  0.83220000  0.09513000  0.97008000  1.0
  H  H6  1  0.33219000  0.09512000  0.52992000  1.0
  H  H7  1  0.16781000  0.90488000  0.02991000  1.0
  H  H8  1  0.69837000  0.75976000  0.40382000  1.0
  H  H9  1  0.80163000  0.24023000  0.90382000  1.0
  H  H10  1  0.30163000  0.24023000  0.59618000  1.0
  H  H11  1  0.19837000  0.75977000  0.09618000  1.0
  H  H12  1  0.34278000  0.67864000  0.23752000  1.0
  H  H13  1  0.15722000  0.32135000  0.73752000  1.0
  H  H14  1  0.65722000  0.32135000  0.76248000  1.0
  H  H15  1  0.84278000  0.67865000  0.26248000  1.0
  H  H16  1  0.22460000  0.11043000  0.18366000  1.0
  H  H17  1  0.27540000  0.88957000  0.68366000  1.0
  H  H18  1  0.77540000  0.88957000  0.81634000  1.0
  H  H19  1  0.72460000  0.11043000  0.31634000  1.0
  H  H20  1  0.22866000  0.32151000  0.44830000  1.0
  H  H21  1  0.27133000  0.67849000  0.94830000  1.0
  H  H22  1  0.77134000  0.67849000  0.55170000  1.0
  H  H23  1  0.72866000  0.32151000  0.05170000  1.0
  C  C24  1  0.30632000  0.53886000  0.25884000  1.0
  C  C25  1  0.19368000  0.46113000  0.75885000  1.0
  C  C26  1  0.69368000  0.46113000  0.74115000  1.0
  C  C27  1  0.80632000  0.53887000  0.24115000  1.0
  C  C28  1  0.28091000  0.39964000  0.19766000  1.0
  C  C29  1  0.21909000  0.60036000  0.69766000  1.0
  C  C30  1  0.71909000  0.60036000  0.80234000  1.0
  C  C31  1  0.78091000  0.39964000  0.30234000  1.0
  C  C32  1  0.24386000  0.22361000  0.22895000  1.0
  C  C33  1  0.25614000  0.77639000  0.72895000  1.0
  C  C34  1  0.75614000  0.77639000  0.77105000  1.0
  C  C35  1  0.74387000  0.22361000  0.27105000  1.0
  C  C36  1  0.23539000  0.19449000  0.32030000  1.0
  C  C37  1  0.26461000  0.80551000  0.82030000  1.0
  C  C38  1  0.76461000  0.80551000  0.67970000  1.0
  C  C39  1  0.73539000  0.19449000  0.17970000  1.0
  C  C40  1  0.24880000  0.33945000  0.37709000  1.0
  C  C41  1  0.25120000  0.66055000  0.87709000  1.0
  C  C42  1  0.75120000  0.66055000  0.62291000  1.0
  C  C43  1  0.74880000  0.33945000  0.12291000  1.0
  C  C44  1  0.29681000  0.44476000  0.10072000  1.0
  C  C45  1  0.20318000  0.55524000  0.60072000  1.0
  C  C46  1  0.70319000  0.55524000  0.89928000  1.0
  C  C47  1  0.79681000  0.44476000  0.39928000  1.0
  C  C48  1  0.22432000  0.01364000  0.35667000  1.0
  C  C49  1  0.27568000  0.98636000  0.85667000  1.0
  C  C50  1  0.77568000  0.98636000  0.64333000  1.0
  C  C51  1  0.72433000  0.01364000  0.14333000  1.0
  N  N52  1  0.28278000  0.50858000  0.34665000  1.0
  N  N53  1  0.21721000  0.49142000  0.84666000  1.0
  N  N54  1  0.71721000  0.49142000  0.65335000  1.0
  N  N55  1  0.78279000  0.50858000  0.15335000  1.0
  O  O56  1  0.38763000  0.60960000  0.07753000  1.0
  O  O57  1  0.11237000  0.39040000  0.57754000  1.0
  O  O58  1  0.61237000  0.39040000  0.92247000  1.0
  O  O59  1  0.88762000  0.60960000  0.42246000  1.0
  O  O60  1  0.21401000  0.31354000  0.04866000  1.0
  O  O61  1  0.28598000  0.68646000  0.54866000  1.0
  O  O62  1  0.78598000  0.68646000  0.95134000  1.0
  O  O63  1  0.71402000  0.31354000  0.45134000  1.0
  O  O64  1  0.22125000  0.98720000  0.44040000  1.0
  O  O65  1  0.27875000  0.01280000  0.94040000  1.0
  O  O66  1  0.77875000  0.01280000  0.55960000  1.0
  O  O67  1  0.72124000  0.98720000  0.05960000  1.0
  O  O68  1  0.22682000  0.88660000  0.30418000  1.0
  O  O69  1  0.27319000  0.11341000  0.80418000  1.0
  O  O70  1  0.77319000  0.11341000  0.69582000  1.0
  O  O71  1  0.72683000  0.88660000  0.19582000  1.0
  O  O72  1  0.61054000  0.84463000  0.41244000  1.0
  O  O73  1  0.88946000  0.15537000  0.91244000  1.0
  O  O74  1  0.38946000  0.15537000  0.58756000  1.0
  O  O75  1  0.11055000  0.84463000  0.08755000  1.0
