# generated using pymatgen
data_CdH14C16S2(N2O)2
_symmetry_space_group_name_H-M   'P 1'
_cell_length_a   5.77525000
_cell_length_b   11.39470000
_cell_length_c   13.76660000
_cell_angle_alpha   89.99930000
_cell_angle_beta   99.54570000
_cell_angle_gamma   89.99900000
_symmetry_Int_Tables_number   1
_chemical_formula_structural   CdH14C16S2(N2O)2
_chemical_formula_sum   'Cd2 H28 C32 S4 N8 O4'
_cell_volume   893.39797050
_cell_formula_units_Z   2
loop_
 _symmetry_equiv_pos_site_id
 _symmetry_equiv_pos_as_xyz
  1  'x, y, z'
loop_
 _atom_site_type_symbol
 _atom_site_label
 _atom_site_symmetry_multiplicity
 _atom_site_fract_x
 _atom_site_fract_y
 _atom_site_fract_z
 _atom_site_occupancy
  Cd  Cd0  1  0.49999000  0.50000000  0.00000000  1.0
  Cd  Cd1  1  0.50001000  0.00000000  0.49999000  1.0
  H  H2  1  0.87783000  0.28788000  0.00437000  1.0
  H  H3  1  0.12217000  0.78788000  0.49563000  1.0
  H  H4  1  0.12215000  0.71211000  0.99563000  1.0
  H  H5  1  0.87784000  0.21212000  0.50437000  1.0
  H  H6  1  0.90852000  0.07709000  0.96337000  1.0
  H  H7  1  0.09150000  0.57708000  0.53663000  1.0
  H  H8  1  0.09149000  0.92292000  0.03663000  1.0
  H  H9  1  0.90850000  0.42293000  0.46337000  1.0
  H  H10  1  0.18204000  0.09187000  0.82076000  1.0
  H  H11  1  0.81796000  0.59186000  0.67924000  1.0
  H  H12  1  0.81795000  0.90813000  0.17924000  1.0
  H  H13  1  0.18206000  0.40814000  0.32076000  1.0
  H  H14  1  0.18210000  0.30241000  0.86795000  1.0
  H  H15  1  0.81789000  0.80240000  0.63205000  1.0
  H  H16  1  0.81788000  0.69759000  0.13205000  1.0
  H  H17  1  0.18211000  0.19760000  0.36795000  1.0
  H  H18  1  0.39099000  0.78230000  0.80434000  1.0
  H  H19  1  0.60902000  0.28229000  0.69567000  1.0
  H  H20  1  0.60901000  0.21770000  0.19566000  1.0
  H  H21  1  0.39100000  0.71771000  0.30433000  1.0
  H  H22  1  0.33812000  0.91230000  0.73041000  1.0
  H  H23  1  0.66189000  0.41230000  0.76960000  1.0
  H  H24  1  0.66190000  0.08769000  0.26959000  1.0
  H  H25  1  0.33810000  0.58769000  0.23040000  1.0
  H  H26  1  0.19572000  0.89452000  0.83326000  1.0
  H  H27  1  0.80429000  0.39452000  0.66673000  1.0
  H  H28  1  0.80428000  0.10547000  0.16673000  1.0
  H  H29  1  0.19572000  0.60548000  0.33333333  1.0
  C  C30  1  0.95834000  0.55545000  0.87972000  1.0
  C  C31  1  0.04167000  0.05546000  0.62028000  1.0
  C  C32  1  0.04163000  0.44455000  0.12028000  1.0
  C  C33  1  0.95835000  0.94455000  0.37972000  1.0
  C  C34  1  0.72759000  0.24161000  0.96332000  1.0
  C  C35  1  0.27240000  0.74161000  0.53668000  1.0
  C  C36  1  0.27239000  0.75839000  0.03668000  1.0
  C  C37  1  0.72761000  0.25839000  0.46332000  1.0
  C  C38  1  0.74434000  0.12370000  0.94005000  1.0
  C  C39  1  0.25567000  0.62370000  0.55995000  1.0
  C  C40  1  0.25566000  0.87630000  0.05995000  1.0
  C  C41  1  0.74434000  0.37630000  0.44005000  1.0
  C  C42  1  0.54761000  0.06568000  0.88877000  1.0
  C  C43  1  0.45238000  0.56569000  0.61123000  1.0
  C  C44  1  0.45238000  0.93431000  0.11123000  1.0
  C  C45  1  0.54763000  0.43431000  0.38877000  1.0
  C  C46  1  0.34156000  0.13079000  0.86139000  1.0
  C  C47  1  0.65845000  0.63078000  0.63861000  1.0
  C  C48  1  0.65843000  0.86921000  0.13861000  1.0
  C  C49  1  0.34156000  0.36922000  0.36139000  1.0
  C  C50  1  0.33939000  0.24882000  0.88789000  1.0
  C  C51  1  0.66060000  0.74881000  0.61211000  1.0
  C  C52  1  0.66059000  0.75118000  0.11211000  1.0
  C  C53  1  0.33941000  0.25119000  0.38789000  1.0
  C  C54  1  0.56627000  0.93648000  0.86715000  1.0
  C  C55  1  0.43370000  0.43647000  0.63284000  1.0
  C  C56  1  0.43373000  0.06353000  0.13284000  1.0
  C  C57  1  0.56626000  0.56352000  0.36716000  1.0
  C  C58  1  0.36065000  0.87698000  0.80583000  1.0
  C  C59  1  0.63936000  0.37697000  0.69417000  1.0
  C  C60  1  0.63935000  0.12302000  0.19417000  1.0
  C  C61  1  0.36065000  0.62302000  0.30583000  1.0
  S  S62  1  0.19454000  0.55434000  0.82953000  1.0
  S  S63  1  0.80545000  0.05433000  0.67047000  1.0
  S  S64  1  0.80543000  0.44566000  0.17047000  1.0
  S  S65  1  0.19456000  0.94567000  0.32953000  1.0
  N  N66  1  0.78617000  0.55856000  0.91565000  1.0
  N  N67  1  0.21380000  0.05856000  0.58435000  1.0
  N  N68  1  0.21380000  0.44144000  0.08435000  1.0
  N  N69  1  0.78621000  0.94144000  0.41565000  1.0
  N  N70  1  0.52772000  0.30338000  0.93846000  1.0
  N  N71  1  0.47227000  0.80337000  0.56155000  1.0
  N  N72  1  0.47226000  0.69662000  0.06154000  1.0
  N  N73  1  0.52773000  0.19663000  0.43846000  1.0
  O  O74  1  0.74922000  0.88386000  0.89953000  1.0
  O  O75  1  0.25082000  0.38387000  0.60048000  1.0
  O  O76  1  0.25079000  0.11615000  0.10047000  1.0
  O  O77  1  0.74921000  0.61614000  0.39952000  1.0
