# generated using pymatgen
data_CdH22C11(N2O3)3
_symmetry_space_group_name_H-M   'P 1'
_cell_length_a   8.99251000
_cell_length_b   9.61998000
_cell_length_c   12.29960000
_cell_angle_alpha   76.49820000
_cell_angle_beta   73.63580000
_cell_angle_gamma   63.17320000
_symmetry_Int_Tables_number   1
_chemical_formula_structural   CdH22C11(N2O3)3
_chemical_formula_sum   'Cd2 H44 C22 N12 O18'
_cell_volume   903.98083385
_cell_formula_units_Z   2
loop_
 _symmetry_equiv_pos_site_id
 _symmetry_equiv_pos_as_xyz
  1  'x, y, z'
loop_
 _atom_site_type_symbol
 _atom_site_label
 _atom_site_symmetry_multiplicity
 _atom_site_fract_x
 _atom_site_fract_y
 _atom_site_fract_z
 _atom_site_occupancy
  Cd  Cd0  1  0.32869000  0.21938000  0.03213000  1.0
  Cd  Cd1  1  0.67131000  0.78062000  0.96787000  1.0
  H  H2  1  0.28718000  0.51025000  0.89054000  1.0
  H  H3  1  0.71282000  0.48975000  0.10946000  1.0
  H  H4  1  0.15394000  0.45956000  0.87007000  1.0
  H  H5  1  0.84607000  0.54044000  0.12993000  1.0
  H  H6  1  0.13663000  0.03451000  0.11761000  1.0
  H  H7  1  0.86337000  0.96549000  0.88239000  1.0
  H  H8  1  0.53237000  0.69246000  0.23828000  1.0
  H  H9  1  0.46763000  0.30755000  0.76172000  1.0
  H  H10  1  0.12548000  0.78806000  0.05700000  1.0
  H  H11  1  0.87452000  0.21194000  0.94300000  1.0
  H  H12  1  0.62171000  0.93009000  0.17401000  1.0
  H  H13  1  0.37829000  0.06991000  0.82599000  1.0
  H  H14  1  0.07143000  0.65633000  0.34933000  1.0
  H  H15  1  0.92856000  0.34367000  0.65067000  1.0
  H  H16  1  0.22852000  0.61437000  0.22329000  1.0
  H  H17  1  0.77148000  0.38563000  0.77671000  1.0
  H  H18  1  0.45580000  0.45274000  0.30584000  1.0
  H  H19  1  0.54420000  0.54726000  0.69416000  1.0
  H  H20  1  0.33379000  0.46623000  0.44812000  1.0
  H  H21  1  0.66621000  0.53377000  0.55188000  1.0
  H  H22  1  0.51586000  0.51016000  0.40856000  1.0
  H  H23  1  0.48414000  0.48984000  0.59144000  1.0
  H  H24  1  0.31767000  0.76448000  0.49119000  1.0
  H  H25  1  0.68233000  0.23552000  0.50881000  1.0
  H  H26  1  0.12530000  0.74237000  0.51134000  1.0
  H  H27  1  0.87470000  0.25763000  0.48866000  1.0
  H  H28  1  0.15238000  0.90921000  0.42289000  1.0
  H  H29  1  0.84762000  0.09079000  0.57711000  1.0
  H  H30  1  0.86361000  0.08558000  0.25104000  1.0
  H  H31  1  0.13639000  0.91443000  0.74896000  1.0
  H  H32  1  0.91211000  0.96182000  0.37919000  1.0
  H  H33  1  0.08789000  0.03818000  0.62081000  1.0
  H  H34  1  0.57273000  0.17835000  0.29007000  1.0
  H  H35  1  0.42726000  0.82165000  0.70993000  1.0
  H  H36  1  0.57601000  0.08501000  0.43285000  1.0
  H  H37  1  0.42399000  0.91499000  0.56715000  1.0
  H  H38  1  0.46368000  0.05470000  0.34901000  1.0
  H  H39  1  0.53632000  0.94530000  0.65099000  1.0
  H  H40  1  0.61838000  0.77552000  0.40298000  1.0
  H  H41  1  0.38162000  0.22448000  0.59703000  1.0
  H  H42  1  0.76388000  0.78325000  0.47150000  1.0
  H  H43  1  0.23612000  0.21676000  0.52850000  1.0
  H  H44  1  0.83915000  0.67219000  0.35418000  1.0
  H  H45  1  0.16085000  0.32781000  0.64582000  1.0
  C  C46  1  0.33969000  0.88509000  0.18531000  1.0
  C  C47  1  0.66030000  0.11491000  0.81468000  1.0
  C  C48  1  0.29487000  0.69094000  0.34500000  1.0
  C  C49  1  0.70513000  0.30906000  0.65500000  1.0
  C  C50  1  0.16125000  0.69741000  0.28670000  1.0
  C  C51  1  0.83875000  0.30260000  0.71330000  1.0
  C  C52  1  0.06346000  0.85912000  0.22393000  1.0
  C  C53  1  0.93654000  0.14088000  0.77607000  1.0
  C  C54  1  0.40720000  0.51916000  0.37894000  1.0
  C  C55  1  0.59280000  0.48084000  0.62106000  1.0
  C  C56  1  0.21667000  0.78258000  0.44889000  1.0
  C  C57  1  0.78333000  0.21742000  0.55111000  1.0
  C  C58  1  0.87290000  0.86096000  0.10775000  1.0
  C  C59  1  0.12709000  0.13904000  0.89224000  1.0
  C  C60  1  0.74008000  0.92825000  0.30568000  1.0
  C  C61  1  0.25992000  0.07175000  0.69432000  1.0
  C  C62  1  0.89418000  0.96489000  0.29404000  1.0
  C  C63  1  0.10582000  0.03512000  0.70596000  1.0
  C  C64  1  0.57845000  0.07019000  0.34651000  1.0
  C  C65  1  0.42155000  0.92981000  0.65349000  1.0
  C  C66  1  0.74237000  0.78048000  0.38851000  1.0
  C  C67  1  0.25764000  0.21952000  0.61149000  1.0
  N  N68  1  0.17236000  0.94605000  0.18377000  1.0
  N  N69  1  0.82764000  0.05395000  0.81623000  1.0
  N  N70  1  0.40400000  0.75905000  0.26031000  1.0
  N  N71  1  0.59600000  0.24095000  0.73968000  1.0
  N  N72  1  0.02641000  0.83781000  0.12184000  1.0
  N  N73  1  0.97359000  0.16220000  0.87816000  1.0
  N  N74  1  0.73551000  0.90991000  0.19156000  1.0
  N  N75  1  0.26449000  0.09009000  0.80844000  1.0
  N  N76  1  0.08849000  0.35803000  0.23380000  1.0
  N  N77  1  0.91152000  0.64196000  0.76620000  1.0
  N  N78  1  0.57991000  0.32665000  0.07699000  1.0
  N  N79  1  0.42009000  0.67335000  0.92301000  1.0
  O  O80  1  0.43709000  0.94885000  0.11824000  1.0
  O  O81  1  0.56291000  0.05115000  0.88176000  1.0
  O  O82  1  0.86477000  0.83535000  0.01227000  1.0
  O  O83  1  0.13523000  0.16465000  0.98773000  1.0
  O  O84  1  0.22414000  0.23062000  0.23324000  1.0
  O  O85  1  0.77586000  0.76937000  0.76676000  1.0
  O  O86  1  0.05756000  0.43521000  0.13595000  1.0
  O  O87  1  0.94245000  0.56478000  0.86405000  1.0
  O  O88  1  0.99129000  0.40489000  0.32463000  1.0
  O  O89  1  0.00872000  0.59511000  0.67537000  1.0
  O  O90  1  0.58502000  0.21982000  0.02812000  1.0
  O  O91  1  0.41498000  0.78018000  0.97188000  1.0
  O  O92  1  0.44130000  0.42897000  0.11862000  1.0
  O  O93  1  0.55870000  0.57103000  0.88138000  1.0
  O  O94  1  0.72205000  0.32173000  0.08066000  1.0
  O  O95  1  0.27794000  0.67827000  0.91934000  1.0
  O  O96  1  0.27520000  0.41731000  0.87735000  1.0
  O  O97  1  0.72480000  0.58269000  0.12265000  1.0
