# generated using pymatgen
data_LiH3C7(NO3)2
_symmetry_space_group_name_H-M   'P 1'
_cell_length_a   5.80801000
_cell_length_b   10.93856533
_cell_length_c   10.93840000
_cell_angle_alpha   59.99950000
_cell_angle_beta   89.98710000
_cell_angle_gamma   89.99930001
_symmetry_Int_Tables_number   1
_chemical_formula_structural   LiH3C7(NO3)2
_chemical_formula_sum   'Li3 H9 C21 N6 O18'
_cell_volume   601.82462092
_cell_formula_units_Z   3
loop_
 _symmetry_equiv_pos_site_id
 _symmetry_equiv_pos_as_xyz
  1  'x, y, z'
loop_
 _atom_site_type_symbol
 _atom_site_label
 _atom_site_symmetry_multiplicity
 _atom_site_fract_x
 _atom_site_fract_y
 _atom_site_fract_z
 _atom_site_occupancy
  Li  Li0  1  0.00001000  0.90586000  0.00000000  1.0
  Li  Li1  1  0.66660000  0.99996000  0.09412000  1.0
  Li  Li2  1  0.33333333  0.09408000  0.90588000  1.0
  H  H3  1  0.85687000  0.87479000  0.40476000  1.0
  H  H4  1  0.52382000  0.40474000  0.72053000  1.0
  H  H5  1  0.14314000  0.27953000  0.59525000  1.0
  H  H6  1  0.19040000  0.72046000  0.87478000  1.0
  H  H7  1  0.80962000  0.59524000  0.12522000  1.0
  H  H8  1  0.47618000  0.12527000  0.27947000  1.0
  H  H9  1  0.16646000  0.00002000  0.68460000  1.0
  H  H10  1  0.83355000  0.68460000  0.31540000  1.0
  H  H11  1  0.50001000  0.31538000  0.00000000  1.0
  C  C12  1  0.16662000  0.99999000  0.18933000  1.0
  C  C13  1  0.83338000  0.18933000  0.81068000  1.0
  C  C14  1  0.50001000  0.81065000  1.00000000  1.0
  C  C15  1  0.16659000  0.99999000  0.32725000  1.0
  C  C16  1  0.83343000  0.32725000  0.67275000  1.0
  C  C17  1  0.50001000  0.67273000  1.00000000  1.0
  C  C18  1  0.99334000  0.92925000  0.42666000  1.0
  C  C19  1  0.66028000  0.42665000  0.64412000  1.0
  C  C20  1  0.00668000  0.35590000  0.57335000  1.0
  C  C21  1  0.32682000  0.64406000  0.92929000  1.0
  C  C22  1  0.67321000  0.57334000  0.07072000  1.0
  C  C23  1  0.33973000  0.07076000  0.35589000  1.0
  C  C24  1  0.99792000  0.93012000  0.55353000  1.0
  C  C25  1  0.66494000  0.55354000  0.51642000  1.0
  C  C26  1  0.00209000  0.48364000  0.44647000  1.0
  C  C27  1  0.33140000  0.51634000  0.93015000  1.0
  C  C28  1  0.66862000  0.44648000  0.06986000  1.0
  C  C29  1  0.33507000  0.06996000  0.48359000  1.0
  C  C30  1  0.16647000  0.00004000  0.58519000  1.0
  C  C31  1  0.83355000  0.58522000  0.41481000  1.0
  C  C32  1  0.50001000  0.41477000  0.00000000  1.0
  N  N33  1  0.81581000  0.85835000  0.65855000  1.0
  N  N34  1  0.48282000  0.65853000  0.48317000  1.0
  N  N35  1  0.18420000  0.51689000  0.34144000  1.0
  N  N36  1  0.14936000  0.48310000  0.85837000  1.0
  N  N37  1  0.85066000  0.34146000  0.14164000  1.0
  N  N38  1  0.51719000  0.14171000  0.51682000  1.0
  O  O39  1  0.98943000  0.95179000  0.15935000  1.0
  O  O40  1  0.65618000  0.15935000  0.88886000  1.0
  O  O41  1  0.01058000  0.11114000  0.84066000  1.0
  O  O42  1  0.32287000  0.88886000  0.95175000  1.0
  O  O43  1  0.67715000  0.84061000  0.04825000  1.0
  O  O44  1  0.34382000  0.04821000  0.11113000  1.0
  O  O45  1  0.65372000  0.80520000  0.62759000  1.0
  O  O46  1  0.32069000  0.62754000  0.56725000  1.0
  O  O47  1  0.34629000  0.43277000  0.37241000  1.0
  O  O48  1  0.98732000  0.56723000  0.80521000  1.0
  O  O49  1  0.01271000  0.37244000  0.19479000  1.0
  O  O50  1  0.67930000  0.19481000  0.43273000  1.0
  O  O51  1  0.83218000  0.85749000  0.77218000  1.0
  O  O52  1  0.49928000  0.77216000  0.37039000  1.0
  O  O53  1  0.16784000  0.62966000  0.22782000  1.0
  O  O54  1  0.16579000  0.37034000  0.85751000  1.0
  O  O55  1  0.83424000  0.22784000  0.14250000  1.0
  O  O56  1  0.50074000  0.14255000  0.62961000  1.0
