# generated using pymatgen
data_BiH23C29NO9
_symmetry_space_group_name_H-M   'P 1'
_cell_length_a   7.47158000
_cell_length_b   16.68240000
_cell_length_c   24.32050000
_cell_angle_alpha   89.99920000
_cell_angle_beta   89.99960000
_cell_angle_gamma   82.71510000
_symmetry_Int_Tables_number   1
_chemical_formula_structural   BiH23C29NO9
_chemical_formula_sum   'Bi4 H92 C116 N4 O36'
_cell_volume   3006.93184257
_cell_formula_units_Z   4
loop_
 _symmetry_equiv_pos_site_id
 _symmetry_equiv_pos_as_xyz
  1  'x, y, z'
loop_
 _atom_site_type_symbol
 _atom_site_label
 _atom_site_symmetry_multiplicity
 _atom_site_fract_x
 _atom_site_fract_y
 _atom_site_fract_z
 _atom_site_occupancy
  Bi  Bi0  1  0.12075000  0.52222000  0.31019000  1.0
  Bi  Bi1  1  0.37925000  0.97779000  0.81019000  1.0
  Bi  Bi2  1  0.87925000  0.47779000  0.68981000  1.0
  Bi  Bi3  1  0.62076000  0.02219000  0.18982000  1.0
  H  H4  1  0.42054000  0.26861000  0.33945000  1.0
  H  H5  1  0.07947000  0.23140000  0.83945000  1.0
  H  H6  1  0.57946000  0.73138000  0.66055000  1.0
  H  H7  1  0.92052000  0.76860000  0.16055000  1.0
  H  H8  1  0.97128000  0.94821000  0.52816000  1.0
  H  H9  1  0.52872000  0.55179000  0.02816000  1.0
  H  H10  1  0.02872000  0.05179000  0.47185000  1.0
  H  H11  1  0.47126000  0.44821000  0.97184000  1.0
  H  H12  1  0.08236000  0.33048000  0.47991000  1.0
  H  H13  1  0.41769000  0.16953000  0.97990000  1.0
  H  H14  1  0.91768000  0.66953000  0.52009000  1.0
  H  H15  1  0.58234000  0.83047000  0.02009000  1.0
  H  H16  1  0.83487000  0.01090000  0.72442000  1.0
  H  H17  1  0.66512000  0.48910000  0.22443000  1.0
  H  H18  1  0.16513000  0.98910000  0.27558000  1.0
  H  H19  1  0.33487000  0.51090000  0.77557000  1.0
  H  H20  1  0.51766000  0.13357000  0.37840000  1.0
  H  H21  1  0.98233000  0.36643000  0.87840000  1.0
  H  H22  1  0.48233000  0.86642000  0.62161000  1.0
  H  H23  1  0.01765000  0.63356000  0.12161000  1.0
  H  H24  1  0.19195000  0.19758000  0.52262000  1.0
  H  H25  1  0.30809000  0.30242000  0.02262000  1.0
  H  H26  1  0.80806000  0.80243000  0.47738000  1.0
  H  H27  1  0.69193000  0.69758000  0.97737000  1.0
  H  H28  1  0.22060000  0.93618000  0.59706000  1.0
  H  H29  1  0.27942000  0.56383000  0.09706000  1.0
  H  H30  1  0.77940000  0.06381000  0.40294000  1.0
  H  H31  1  0.72058000  0.43618000  0.90294000  1.0
  H  H32  1  0.76048000  0.17596000  0.47691000  1.0
  H  H33  1  0.73952000  0.32404000  0.97691000  1.0
  H  H34  1  0.23952000  0.82405000  0.52309000  1.0
  H  H35  1  0.26048000  0.67595000  0.02309000  1.0
  H  H36  1  0.83134000  0.30608000  0.51509000  1.0
  H  H37  1  0.66867000  0.19391000  0.01509000  1.0
  H  H38  1  0.16866000  0.69392000  0.48492000  1.0
  H  H39  1  0.33136000  0.80608000  0.98491000  1.0
  H  H40  1  0.58702000  0.01948000  0.65674000  1.0
  H  H41  1  0.91298000  0.48051000  0.15674000  1.0
  H  H42  1  0.41299000  0.98052000  0.34326000  1.0
  H  H43  1  0.08700000  0.51949000  0.84326000  1.0
  H  H44  1  0.52019000  0.27034000  0.65947000  1.0
  H  H45  1  0.97983000  0.22966000  0.15948000  1.0
  H  H46  1  0.47980000  0.72967000  0.34053000  1.0
  H  H47  1  0.02018000  0.77034000  0.84053000  1.0
  H  H48  1  0.94233000  0.66873000  0.39990000  1.0
  H  H49  1  0.55768000  0.83126000  0.89991000  1.0
  H  H50  1  0.05766000  0.33127000  0.60009000  1.0
  H  H51  1  0.44235000  0.16874000  0.10010000  1.0
  H  H52  1  0.45043000  0.13917000  0.62179000  1.0
  H  H53  1  0.04958000  0.36083000  0.12179000  1.0
  H  H54  1  0.54958000  0.86084000  0.37821000  1.0
  H  H55  1  0.95040000  0.63917000  0.87821000  1.0
  H  H56  1  0.05504000  0.85035000  0.35501000  1.0
  H  H57  1  0.44494000  0.64964000  0.85501000  1.0
  H  H58  1  0.94496000  0.14964000  0.64499000  1.0
  H  H59  1  0.55505000  0.35036000  0.14499000  1.0
  H  H60  1  0.81850000  0.87006000  0.35657000  1.0
  H  H61  1  0.68149000  0.62993000  0.85655000  1.0
  H  H62  1  0.18150000  0.12994000  0.64344000  1.0
  H  H63  1  0.31849000  0.37006000  0.14344000  1.0
  H  H64  1  0.93429000  0.85349000  0.29186000  1.0
  H  H65  1  0.56565000  0.64652000  0.79185000  1.0
  H  H66  1  0.06569000  0.14652000  0.70814000  1.0
  H  H67  1  0.43432000  0.35348000  0.20815000  1.0
  H  H68  1  0.20036000  0.32646000  0.25336000  1.0
  H  H69  1  0.29964000  0.17355000  0.75335000  1.0
  H  H70  1  0.79963000  0.67355000  0.74666000  1.0
  H  H71  1  0.70034000  0.82645000  0.24666000  1.0
  H  H72  1  0.00186000  0.15865000  0.24834000  1.0
  H  H73  1  0.49814000  0.34135000  0.74835000  1.0
  H  H74  1  0.99815000  0.84135000  0.75165000  1.0
  H  H75  1  0.50183000  0.65865000  0.25166000  1.0
  H  H76  1  0.06083000  0.17596000  0.31830000  1.0
  H  H77  1  0.43917000  0.32404000  0.81831000  1.0
  H  H78  1  0.93915000  0.82404000  0.68170000  1.0
  H  H79  1  0.56082000  0.67595000  0.18170000  1.0
  H  H80  1  0.20612000  0.19944000  0.26395000  1.0
  H  H81  1  0.29388000  0.30056000  0.76396000  1.0
  H  H82  1  0.79387000  0.80056000  0.73605000  1.0
  H  H83  1  0.70610000  0.69943000  0.23605000  1.0
  H  H84  1  0.72127000  0.35365000  0.28183000  1.0
  H  H85  1  0.77872000  0.14635000  0.78184000  1.0
  H  H86  1  0.27869000  0.64634000  0.71815000  1.0
  H  H87  1  0.22129000  0.85365000  0.21816000  1.0
  H  H88  1  0.76401000  0.27485000  0.33171000  1.0
  H  H89  1  0.73598000  0.22515000  0.83171000  1.0
  H  H90  1  0.23593000  0.72515000  0.66827000  1.0
  H  H91  1  0.26403000  0.77484000  0.16828000  1.0
  H  H92  1  0.70572000  0.25022000  0.26296000  1.0
  H  H93  1  0.79427000  0.24978000  0.76296000  1.0
  H  H94  1  0.29427000  0.74977000  0.73702000  1.0
  H  H95  1  0.20571000  0.75022000  0.23703000  1.0
  C  C96  1  0.55049000  0.07146000  0.52347000  1.0
  C  C97  1  0.94951000  0.42854000  0.02347000  1.0
  C  C98  1  0.44951000  0.92855000  0.47654000  1.0
  C  C99  1  0.05047000  0.57145000  0.97653000  1.0
  C  C100  1  0.43120000  0.07608000  0.47835000  1.0
  C  C101  1  0.06880000  0.42392000  0.97834000  1.0
  C  C102  1  0.56880000  0.92392000  0.52166000  1.0
  C  C103  1  0.93120000  0.57608000  0.02166000  1.0
  C  C104  1  0.18908000  0.96793000  0.70695000  1.0
  C  C105  1  0.31092000  0.53207000  0.20696000  1.0
  C  C106  1  0.81091000  0.03206000  0.29305000  1.0
  C  C107  1  0.68907000  0.46793000  0.79305000  1.0
  C  C108  1  0.62023000  0.99512000  0.54455000  1.0
  C  C109  1  0.87975000  0.50488000  0.04456000  1.0
  C  C110  1  0.37978000  0.00488000  0.45544000  1.0
  C  C111  1  0.12023000  0.49512000  0.95544000  1.0
  C  C112  1  0.17647000  0.38635000  0.38113000  1.0
  C  C113  1  0.32356000  0.11366000  0.88112000  1.0
  C  C114  1  0.82356000  0.61365000  0.61887000  1.0
  C  C115  1  0.67644000  0.88634000  0.11888000  1.0
  C  C116  1  0.36262000  0.15606000  0.45376000  1.0
  C  C117  1  0.13738000  0.34394000  0.95376000  1.0
  C  C118  1  0.63737000  0.84394000  0.54624000  1.0
  C  C119  1  0.86262000  0.65606000  0.04624000  1.0
  C  C120  1  0.04317000  0.97354000  0.66494000  1.0
  C  C121  1  0.45683000  0.52646000  0.16494000  1.0
  C  C122  1  0.95683000  0.02646000  0.33506000  1.0
  C  C123  1  0.54316000  0.47354000  0.83506000  1.0
  C  C124  1  0.24357000  0.30747000  0.40707000  1.0
  C  C125  1  0.25646000  0.19254000  0.90707000  1.0
  C  C126  1  0.75646000  0.69253000  0.59293000  1.0
  C  C127  1  0.74355000  0.80747000  0.09293000  1.0
  C  C128  1  0.60176000  0.14782000  0.54710000  1.0
  C  C129  1  0.89825000  0.35218000  0.04710000  1.0
  C  C130  1  0.39825000  0.85218000  0.45291000  1.0
  C  C131  1  0.10174000  0.64782000  0.95290000  1.0
  C  C132  1  0.76356000  0.98756000  0.58737000  1.0
  C  C133  1  0.73643000  0.51243000  0.08737000  1.0
  C  C134  1  0.23645000  0.01244000  0.41263000  1.0
  C  C135  1  0.26356000  0.48757000  0.91263000  1.0
  C  C136  1  0.36885000  0.25222000  0.37924000  1.0
  C  C137  1  0.13116000  0.24778000  0.87924000  1.0
  C  C138  1  0.63117000  0.74778000  0.62076000  1.0
  C  C139  1  0.86883000  0.75221000  0.12076000  1.0
  C  C140  1  0.94247000  0.96241000  0.57128000  1.0
  C  C141  1  0.55753000  0.53759000  0.07128000  1.0
  C  C142  1  0.05753000  0.03758000  0.42873000  1.0
  C  C143  1  0.44247000  0.46241000  0.92872000  1.0
  C  C144  1  0.68127000  0.29622000  0.58992000  1.0
  C  C145  1  0.81875000  0.20378000  0.08993000  1.0
  C  C146  1  0.31875000  0.70379000  0.41008000  1.0
  C  C147  1  0.18127000  0.79621000  0.91007000  1.0
  C  C148  1  0.73760000  0.37027000  0.61514000  1.0
  C  C149  1  0.76241000  0.12972000  0.11515000  1.0
  C  C150  1  0.26240000  0.62973000  0.38486000  1.0
  C  C151  1  0.23762000  0.87027000  0.88485000  1.0
  C  C152  1  0.17849000  0.28669000  0.45847000  1.0
  C  C153  1  0.32154000  0.21332000  0.95846000  1.0
  C  C154  1  0.82154000  0.71332000  0.54153000  1.0
  C  C155  1  0.67848000  0.78669000  0.04154000  1.0
  C  C156  1  0.86436000  0.99734000  0.68133000  1.0
  C  C157  1  0.63564000  0.50266000  0.18133000  1.0
  C  C158  1  0.13565000  0.00266000  0.31867000  1.0
  C  C159  1  0.36434000  0.49734000  0.81867000  1.0
  C  C160  1  0.42471000  0.17651000  0.40174000  1.0
  C  C161  1  0.07530000  0.32349000  0.90175000  1.0
  C  C162  1  0.57530000  0.82349000  0.59826000  1.0
  C  C163  1  0.92468000  0.67650000  0.09826000  1.0
  C  C164  1  0.23984000  0.21211000  0.48198000  1.0
  C  C165  1  0.26018000  0.28789000  0.98198000  1.0
  C  C166  1  0.76017000  0.78790000  0.51802000  1.0
  C  C167  1  0.73981000  0.71211000  0.01802000  1.0
  C  C168  1  0.08164000  0.95508000  0.60969000  1.0
  C  C169  1  0.41837000  0.54492000  0.10969000  1.0
  C  C170  1  0.91837000  0.04492000  0.39031000  1.0
  C  C171  1  0.58163000  0.45508000  0.89031000  1.0
  C  C172  1  0.70870000  0.19593000  0.51721000  1.0
  C  C173  1  0.79131000  0.30407000  0.01721000  1.0
  C  C174  1  0.29131000  0.80407000  0.48279000  1.0
  C  C175  1  0.20870000  0.69593000  0.98279000  1.0
  C  C176  1  0.74817000  0.26913000  0.53837000  1.0
  C  C177  1  0.75186000  0.23087000  0.03837000  1.0
  C  C178  1  0.25184000  0.73088000  0.46163000  1.0
  C  C179  1  0.24817000  0.76912000  0.96163000  1.0
  C  C180  1  0.72555000  0.00352000  0.64297000  1.0
  C  C181  1  0.77445000  0.49648000  0.14297000  1.0
  C  C182  1  0.27445000  0.99647000  0.35703000  1.0
  C  C183  1  0.22554000  0.50352000  0.85704000  1.0
  C  C184  1  0.57300000  0.24890000  0.61968000  1.0
  C  C185  1  0.92703000  0.25109000  0.11968000  1.0
  C  C186  1  0.42701000  0.75111000  0.38032000  1.0
  C  C187  1  0.07299000  0.74890000  0.88032000  1.0
  C  C188  1  0.53517000  0.17545000  0.59855000  1.0
  C  C189  1  0.96484000  0.32454000  0.09855000  1.0
  C  C190  1  0.46484000  0.82455000  0.40145000  1.0
  C  C191  1  0.03515000  0.67546000  0.90145000  1.0
  C  C192  1  0.93146000  0.83533000  0.33498000  1.0
  C  C193  1  0.56851000  0.66466000  0.83496000  1.0
  C  C194  1  0.06853000  0.16467000  0.66502000  1.0
  C  C195  1  0.43147000  0.33533000  0.16503000  1.0
  C  C196  1  0.92896000  0.74640000  0.34147000  1.0
  C  C197  1  0.57103000  0.75359000  0.84147000  1.0
  C  C198  1  0.07103000  0.25359000  0.65853000  1.0
  C  C199  1  0.42898000  0.24640000  0.15854000  1.0
  C  C200  1  0.05496000  0.34299000  0.26111000  1.0
  C  C201  1  0.44504000  0.15702000  0.76110000  1.0
  C  C202  1  0.94501000  0.65702000  0.73889000  1.0
  C  C203  1  0.55496000  0.84298000  0.23889000  1.0
  C  C204  1  0.06494000  0.19890000  0.27607000  1.0
  C  C205  1  0.43505000  0.30110000  0.77608000  1.0
  C  C206  1  0.93505000  0.80110000  0.72393000  1.0
  C  C207  1  0.56492000  0.69889000  0.22393000  1.0
  C  C208  1  0.77772000  0.29054000  0.28812000  1.0
  C  C209  1  0.72227000  0.20946000  0.78812000  1.0
  C  C210  1  0.22225000  0.70945000  0.71186000  1.0
  C  C211  1  0.27773000  0.79054000  0.21187000  1.0
  N  N212  1  0.96830000  0.28034000  0.27321000  1.0
  N  N213  1  0.53170000  0.21967000  0.77321000  1.0
  N  N214  1  0.03168000  0.71966000  0.72679000  1.0
  N  N215  1  0.46829000  0.78034000  0.22679000  1.0
  O  O216  1  0.28791000  0.41474000  0.34651000  1.0
  O  O217  1  0.21212000  0.08526000  0.84650000  1.0
  O  O218  1  0.71212000  0.58526000  0.65349000  1.0
  O  O219  1  0.78789000  0.91474000  0.15350000  1.0
  O  O220  1  0.14776000  0.00963000  0.75159000  1.0
  O  O221  1  0.35224000  0.49037000  0.25159000  1.0
  O  O222  1  0.85222000  0.99037000  0.24841000  1.0
  O  O223  1  0.64775000  0.50962000  0.74841000  1.0
  O  O224  1  0.02123000  0.42221000  0.38966000  1.0
  O  O225  1  0.47880000  0.07780000  0.88965000  1.0
  O  O226  1  0.97880000  0.57780000  0.61034000  1.0
  O  O227  1  0.52121000  0.92220000  0.11034000  1.0
  O  O228  1  0.65987000  0.39832000  0.65967000  1.0
  O  O229  1  0.84014000  0.10167000  0.15968000  1.0
  O  O230  1  0.34012000  0.60169000  0.34033000  1.0
  O  O231  1  0.15988000  0.89833000  0.84033000  1.0
  O  O232  1  0.33934000  0.92586000  0.70034000  1.0
  O  O233  1  0.16067000  0.57416000  0.20035000  1.0
  O  O234  1  0.66067000  0.07414000  0.29966000  1.0
  O  O235  1  0.83933000  0.42585000  0.79966000  1.0
  O  O236  1  0.87105000  0.40196000  0.59531000  1.0
  O  O237  1  0.62898000  0.09803000  0.09531000  1.0
  O  O238  1  0.12897000  0.59804000  0.40470000  1.0
  O  O239  1  0.37106000  0.90195000  0.90469000  1.0
  O  O240  1  0.88748000  0.72609000  0.39278000  1.0
  O  O241  1  0.61251000  0.77390000  0.89277000  1.0
  O  O242  1  0.11251000  0.27391000  0.60722000  1.0
  O  O243  1  0.38752000  0.22610000  0.10722000  1.0
  O  O244  1  0.96895000  0.69656000  0.30444000  1.0
  O  O245  1  0.53106000  0.80345000  0.80444000  1.0
  O  O246  1  0.03103000  0.30345000  0.69555000  1.0
  O  O247  1  0.46895000  0.19655000  0.19556000  1.0
  O  O248  1  0.98285000  0.41551000  0.25873000  1.0
  O  O249  1  0.51713000  0.08451000  0.75872000  1.0
  O  O250  1  0.01711000  0.58450000  0.74127000  1.0
  O  O251  1  0.48287000  0.91549000  0.24127000  1.0
