# generated using pymatgen
data_Gd6CoH36C20S6(N4O27)2
_symmetry_space_group_name_H-M   'P 1'
_cell_length_a   6.60073000
_cell_length_b   9.45308000
_cell_length_c   21.25610000
_cell_angle_alpha   96.04970000
_cell_angle_beta   95.06220000
_cell_angle_gamma   98.55720000
_symmetry_Int_Tables_number   1
_chemical_formula_structural   Gd6CoH36C20S6(N4O27)2
_chemical_formula_sum   'Gd6 Co1 H36 C20 S6 N8 O54'
_cell_volume   1296.94940208
_cell_formula_units_Z   1
loop_
 _symmetry_equiv_pos_site_id
 _symmetry_equiv_pos_as_xyz
  1  'x, y, z'
loop_
 _atom_site_type_symbol
 _atom_site_label
 _atom_site_symmetry_multiplicity
 _atom_site_fract_x
 _atom_site_fract_y
 _atom_site_fract_z
 _atom_site_occupancy
  Gd  Gd0  1  0.33001000  0.01291000  0.86454000  1.0
  Gd  Gd1  1  0.66998000  0.98709000  0.13546000  1.0
  Gd  Gd2  1  0.07392000  0.88072000  0.67699000  1.0
  Gd  Gd3  1  0.92608000  0.11928000  0.32301000  1.0
  Gd  Gd4  1  0.33392000  0.29134000  0.57769000  1.0
  Gd  Gd5  1  0.66608000  0.70866000  0.42231000  1.0
  Co  Co6  1  0.00000000  0.50000000  0.00000000  1.0
  H  H7  1  0.58162000  0.62100000  0.69159000  1.0
  H  H8  1  0.41838000  0.37900000  0.30841000  1.0
  H  H9  1  0.84753000  0.26950000  0.85766000  1.0
  H  H10  1  0.15246000  0.73050000  0.14234000  1.0
  H  H11  1  0.93311000  0.38326000  0.75806000  1.0
  H  H12  1  0.06689000  0.61674000  0.24194000  1.0
  H  H13  1  0.59805000  0.63160000  0.81172000  1.0
  H  H14  1  0.40194000  0.36841000  0.18828000  1.0
  H  H15  1  0.05528000  0.50609000  0.56980000  1.0
  H  H16  1  0.94472000  0.49391000  0.43020000  1.0
  H  H17  1  0.12582000  0.53237000  0.64302000  1.0
  H  H18  1  0.87417000  0.46763000  0.35699000  1.0
  H  H19  1  0.26499000  0.04474000  0.46999000  1.0
  H  H20  1  0.73501000  0.95526000  0.53001000  1.0
  H  H21  1  0.19893000  0.96926000  0.53006000  1.0
  H  H22  1  0.80107000  0.03074000  0.46994000  1.0
  H  H23  1  0.05274000  0.74946000  0.54376000  1.0
  H  H24  1  0.94726000  0.25054000  0.45624000  1.0
  H  H25  1  0.29491000  0.77359000  0.56258000  1.0
  H  H26  1  0.70509000  0.22641000  0.43742000  1.0
  H  H27  1  0.50810000  0.91389000  0.72573000  1.0
  H  H28  1  0.49190000  0.08611000  0.27427000  1.0
  H  H29  1  0.53802000  0.90789000  0.65395000  1.0
  H  H30  1  0.46198000  0.09210000  0.34605000  1.0
  H  H31  1  0.63802000  0.58476000  0.95923000  1.0
  H  H32  1  0.36198000  0.41524000  0.04077000  1.0
  H  H33  1  0.64959000  0.58315000  0.03386000  1.0
  H  H34  1  0.35042000  0.41685000  0.96614000  1.0
  H  H35  1  0.04614000  0.07652000  0.95668000  1.0
  H  H36  1  0.95386000  0.92348000  0.04333000  1.0
  H  H37  1  0.22642000  0.20655000  0.98269000  1.0
  H  H38  1  0.77358000  0.79345000  0.01731000  1.0
  H  H39  1  0.68079000  0.15913000  0.96155000  1.0
  H  H40  1  0.31921000  0.84087000  0.03845000  1.0
  H  H41  1  0.67059000  0.99574000  0.97188000  1.0
  H  H42  1  0.32941000  0.00426000  0.02812000  1.0
  C  C43  1  0.44630000  0.38258000  0.86349000  1.0
  C  C44  1  0.55370000  0.61741000  0.13651000  1.0
  C  C45  1  0.45880000  0.40601000  0.79662000  1.0
  C  C46  1  0.54120000  0.59399000  0.20338000  1.0
  C  C47  1  0.52547000  0.53102000  0.71648000  1.0
  C  C48  1  0.47453000  0.46898000  0.28352000  1.0
  C  C49  1  0.39859000  0.31867000  0.73888000  1.0
  C  C50  1  0.60141000  0.68133000  0.26112000  1.0
  C  C51  1  0.29592000  0.16949000  0.72039000  1.0
  C  C52  1  0.70409000  0.83051000  0.27961000  1.0
  C  C53  1  0.12701000  0.67439000  0.77235000  1.0
  C  C54  1  0.87298000  0.32561000  0.22765000  1.0
  C  C55  1  0.06710000  0.57779000  0.82001000  1.0
  C  C56  1  0.93290000  0.42220000  0.17999000  1.0
  C  C57  1  0.92248000  0.37977000  0.85755000  1.0
  C  C58  1  0.07752000  0.62023000  0.14245000  1.0
  C  C59  1  0.07958000  0.60023000  0.88607000  1.0
  C  C60  1  0.92041000  0.39977000  0.11393000  1.0
  C  C61  1  0.18560000  0.71181000  0.93562000  1.0
  C  C62  1  0.81440000  0.28819000  0.06438000  1.0
  S  S63  1  0.67995000  0.63889000  0.56487000  1.0
  S  S64  1  0.32005000  0.36112000  0.43513000  1.0
  S  S65  1  0.82796000  0.17543000  0.62850000  1.0
  S  S66  1  0.17205000  0.82457000  0.37150000  1.0
  S  S67  1  0.78786000  0.91605000  0.81649000  1.0
  S  S68  1  0.21215000  0.08396000  0.18351000  1.0
  N  N69  1  0.44017000  0.39934000  0.68995000  1.0
  N  N70  1  0.55983000  0.60066000  0.31005000  1.0
  N  N71  1  0.53635000  0.53902000  0.78051000  1.0
  N  N72  1  0.46365000  0.46099000  0.21949000  1.0
  N  N73  1  0.98670000  0.47753000  0.90847000  1.0
  N  N74  1  0.01330000  0.52247000  0.09153000  1.0
  N  N75  1  0.96776000  0.43792000  0.80386000  1.0
  N  N76  1  0.03224000  0.56208000  0.19614000  1.0
  O  O77  1  0.59218000  0.49269000  0.57545000  1.0
  O  O78  1  0.40782000  0.50731000  0.42455000  1.0
  O  O79  1  0.78818000  0.71780000  0.62530000  1.0
  O  O80  1  0.21182000  0.28220000  0.37470000  1.0
  O  O81  1  0.52386000  0.71939000  0.53690000  1.0
  O  O82  1  0.47614000  0.28060000  0.46310000  1.0
  O  O83  1  0.83655000  0.63045000  0.51704000  1.0
  O  O84  1  0.16345000  0.36955000  0.48296000  1.0
  O  O85  1  0.97875000  0.23044000  0.58552000  1.0
  O  O86  1  0.02125000  0.76956000  0.41448000  1.0
  O  O87  1  0.61935000  0.18331000  0.59846000  1.0
  O  O88  1  0.38065000  0.81669000  0.40154000  1.0
  O  O89  1  0.86988000  0.25293000  0.69292000  1.0
  O  O90  1  0.13013000  0.74707000  0.30708000  1.0
  O  O91  1  0.83481000  0.01587000  0.63139000  1.0
  O  O92  1  0.16520000  0.98413000  0.36861000  1.0
  O  O93  1  0.26338000  0.12581000  0.66087000  1.0
  O  O94  1  0.73662000  0.87419000  0.33913000  1.0
  O  O95  1  0.23499000  0.08341000  0.76005000  1.0
  O  O96  1  0.76501000  0.91659000  0.23995000  1.0
  O  O97  1  0.46247000  0.49276000  0.90428000  1.0
  O  O98  1  0.53753000  0.50724000  0.09572000  1.0
  O  O99  1  0.41648000  0.25414000  0.87720000  1.0
  O  O100  1  0.58352000  0.74587000  0.12280000  1.0
  O  O101  1  0.83969000  0.86581000  0.75193000  1.0
  O  O102  1  0.16031000  0.13420000  0.24807000  1.0
  O  O103  1  0.61653000  0.00276000  0.80548000  1.0
  O  O104  1  0.38347000  0.99724000  0.19453000  1.0
  O  O105  1  0.71900000  0.79343000  0.85074000  1.0
  O  O106  1  0.28101000  0.20657000  0.14926000  1.0
  O  O107  1  0.96904000  0.01119000  0.85356000  1.0
  O  O108  1  0.03096000  0.98882000  0.14644000  1.0
  O  O109  1  0.07286000  0.63158000  0.71379000  1.0
  O  O110  1  0.92714000  0.36843000  0.28621000  1.0
  O  O111  1  0.22264000  0.80231000  0.79019000  1.0
  O  O112  1  0.77736000  0.19769000  0.20981000  1.0
  O  O113  1  0.28999000  0.82723000  0.92498000  1.0
  O  O114  1  0.71000000  0.17276000  0.07502000  1.0
  O  O115  1  0.17108000  0.67977000  0.99320000  1.0
  O  O116  1  0.82892000  0.32023000  0.00680000  1.0
  O  O117  1  0.17467000  0.51157000  0.60107000  1.0
  O  O118  1  0.82532000  0.48842000  0.39893000  1.0
  O  O119  1  0.23722000  0.06357000  0.51421000  1.0
  O  O120  1  0.76278000  0.93643000  0.48579000  1.0
  O  O121  1  0.16861000  0.81676000  0.56984000  1.0
  O  O122  1  0.83139000  0.18325000  0.43016000  1.0
  O  O123  1  0.43811000  0.87496000  0.68297000  1.0
  O  O124  1  0.56190000  0.12504000  0.31703000  1.0
  O  O125  1  0.72771000  0.62195000  0.99945000  1.0
  O  O126  1  0.27229000  0.37805000  0.00055000  1.0
  O  O127  1  0.19502000  0.09882000  0.96854000  1.0
  O  O128  1  0.80498000  0.90118000  0.03146000  1.0
  O  O129  1  0.62689000  0.06009000  0.94131000  1.0
  O  O130  1  0.37311000  0.93991000  0.05869000  1.0
