# generated using pymatgen
data_AgH7C4N2O3
_symmetry_space_group_name_H-M   'P 1'
_cell_length_a   5.42820000
_cell_length_b   5.42822000
_cell_length_c   21.39100000
_cell_angle_alpha   90.00060000
_cell_angle_beta   90.00020000
_cell_angle_gamma   86.39550000
_symmetry_Int_Tables_number   1
_chemical_formula_structural   AgH7C4N2O3
_chemical_formula_sum   'Ag4 H28 C16 N8 O12'
_cell_volume   629.04888126
_cell_formula_units_Z   4
loop_
 _symmetry_equiv_pos_site_id
 _symmetry_equiv_pos_as_xyz
  1  'x, y, z'
loop_
 _atom_site_type_symbol
 _atom_site_label
 _atom_site_symmetry_multiplicity
 _atom_site_fract_x
 _atom_site_fract_y
 _atom_site_fract_z
 _atom_site_occupancy
  Ag  Ag0  1  0.55571000  0.32226000  0.42432000  1.0
  Ag  Ag1  1  0.67771000  0.44429000  0.57568000  1.0
  Ag  Ag2  1  0.44429000  0.67774000  0.92431000  1.0
  Ag  Ag3  1  0.32228000  0.55572000  0.07568000  1.0
  H  H4  1  0.30482000  0.87275000  0.44204000  1.0
  H  H5  1  0.12723000  0.69516000  0.55796000  1.0
  H  H6  1  0.69518000  0.12724000  0.94204000  1.0
  H  H7  1  0.87277000  0.30484000  0.05796000  1.0
  H  H8  1  0.14364000  0.48252000  0.47371000  1.0
  H  H9  1  0.51745000  0.85635000  0.52629000  1.0
  H  H10  1  0.85636000  0.51748000  0.97371000  1.0
  H  H11  1  0.48255000  0.14365000  0.02629000  1.0
  H  H12  1  0.08435000  0.41462000  0.40175000  1.0
  H  H13  1  0.58536000  0.91565000  0.59825000  1.0
  H  H14  1  0.91565000  0.58537000  0.90175000  1.0
  H  H15  1  0.41464000  0.08435000  0.09825000  1.0
  H  H16  1  0.26651000  0.01426000  0.33624000  1.0
  H  H17  1  0.98573000  0.73347000  0.66377000  1.0
  H  H18  1  0.73350000  0.98573000  0.83623000  1.0
  H  H19  1  0.01427000  0.26653000  0.16377000  1.0
  H  H20  1  0.45898000  0.73807000  0.33974000  1.0
  H  H21  1  0.26193000  0.54101000  0.66026000  1.0
  H  H22  1  0.54102000  0.26192000  0.83974000  1.0
  H  H23  1  0.73808000  0.45899000  0.16026000  1.0
  H  H24  1  0.07070000  0.67298000  0.20148000  1.0
  H  H25  1  0.32702000  0.92928000  0.79852000  1.0
  H  H26  1  0.92931000  0.32703000  0.70148000  1.0
  H  H27  1  0.67298000  0.07071000  0.29852000  1.0
  H  H28  1  0.35092000  0.78674000  0.22492000  1.0
  H  H29  1  0.21327000  0.64907000  0.77508000  1.0
  H  H30  1  0.64909000  0.21327000  0.72492000  1.0
  H  H31  1  0.78673000  0.35093000  0.27508000  1.0
  C  C32  1  0.92024000  0.89386000  0.42490000  1.0
  C  C33  1  0.10609000  0.07974000  0.57511000  1.0
  C  C34  1  0.07976000  0.10613000  0.92490000  1.0
  C  C35  1  0.89390000  0.92026000  0.07510000  1.0
  C  C36  1  0.17953000  0.77407000  0.41174000  1.0
  C  C37  1  0.22591000  0.82047000  0.58826000  1.0
  C  C38  1  0.82047000  0.22593000  0.91174000  1.0
  C  C39  1  0.77409000  0.17953000  0.08826000  1.0
  C  C40  1  0.26703000  0.81447000  0.34502000  1.0
  C  C41  1  0.18553000  0.73296000  0.65499000  1.0
  C  C42  1  0.73296000  0.18553000  0.84502000  1.0
  C  C43  1  0.81447000  0.26704000  0.15498000  1.0
  C  C44  1  0.10468000  0.70487000  0.29581000  1.0
  C  C45  1  0.29513000  0.89532000  0.70419000  1.0
  C  C46  1  0.89534000  0.29515000  0.79582000  1.0
  C  C47  1  0.70487000  0.10466000  0.20418000  1.0
  N  N48  1  0.20191000  0.51134000  0.42872000  1.0
  N  N49  1  0.48863000  0.79808000  0.57128000  1.0
  N  N50  1  0.79808000  0.48866000  0.92872000  1.0
  N  N51  1  0.51137000  0.20192000  0.07127000  1.0
  N  N52  1  0.18620000  0.71309000  0.23690000  1.0
  N  N53  1  0.28692000  0.81379000  0.76311000  1.0
  N  N54  1  0.81379000  0.28692000  0.73690000  1.0
  N  N55  1  0.71309000  0.18621000  0.26311000  1.0
  O  O56  1  0.88255000  0.11237000  0.40145000  1.0
  O  O57  1  0.88759000  0.11744000  0.59856000  1.0
  O  O58  1  0.11746000  0.88763000  0.90145000  1.0
  O  O59  1  0.11241000  0.88256000  0.09855000  1.0
  O  O60  1  0.77261000  0.78577000  0.45855000  1.0
  O  O61  1  0.21417000  0.22738000  0.54145000  1.0
  O  O62  1  0.22739000  0.21423000  0.95855000  1.0
  O  O63  1  0.78582000  0.77263000  0.04145000  1.0
  O  O64  1  0.90427000  0.61667000  0.31067000  1.0
  O  O65  1  0.38332000  0.09571000  0.68933000  1.0
  O  O66  1  0.09570000  0.38334000  0.81067000  1.0
  O  O67  1  0.61668000  0.90430000  0.18933000  1.0
