# generated using pymatgen
data_Zn2H14C19N2O9
_symmetry_space_group_name_H-M   'P 1'
_cell_length_a   9.94190000
_cell_length_b   11.10650000
_cell_length_c   14.47350000
_cell_angle_alpha   90.59800000
_cell_angle_beta   94.31400000
_cell_angle_gamma   90.74280000
_symmetry_Int_Tables_number   1
_chemical_formula_structural   Zn2H14C19N2O9
_chemical_formula_sum   'Zn2 H14 C19 N2 O9'
_cell_volume   1593.39347581
_cell_formula_units_Z   1
loop_
 _symmetry_equiv_pos_site_id
 _symmetry_equiv_pos_as_xyz
  1  'x, y, z'
loop_
 _atom_site_type_symbol
 _atom_site_label
 _atom_site_symmetry_multiplicity
 _atom_site_fract_x
 _atom_site_fract_y
 _atom_site_fract_z
 _atom_site_occupancy
  Zn  Zn0  1  0.36346000  0.49341000  0.48173000  1.0
  Zn  Zn1  1  0.64742000  0.49901000  0.50403000  1.0
  H  H2  1  0.70704000  0.10934000  0.52929000  1.0
  H  H3  1  0.06755000  0.70184000  0.70335000  1.0
  H  H4  1  0.99096000  0.80478000  0.62336000  1.0
  H  H5  1  0.80846000  0.84416000  0.73331000  1.0
  H  H6  1  0.97161000  0.87790000  0.78657000  1.0
  H  H7  1  0.88706000  0.74238000  0.81358000  1.0
  H  H8  1  0.41283000  0.09057000  0.44690000  1.0
  H  H9  1  0.70745000  0.88665000  0.49950000  1.0
  H  H10  1  0.40298000  0.90038000  0.52378000  1.0
  H  H11  1  0.09651000  0.36393000  0.39037000  1.0
  H  H12  1  0.12515000  0.56100000  0.52532000  1.0
  H  H13  1  0.85345000  0.38146000  0.40844000  1.0
  H  H14  1  0.85350000  0.57377000  0.68910000  1.0
  H  H15  1  0.78159000  0.67816000  0.60648000  1.0
  C  C16  1  0.50464000  0.72885000  0.50750000  1.0
  C  C17  1  0.51208000  0.26427000  0.47927000  1.0
  C  C18  1  0.52065000  0.50850000  0.31376000  1.0
  C  C19  1  0.49511000  0.48092000  0.77295000  1.0
  C  C20  1  0.49822000  0.48554000  0.85789000  1.0
  C  C21  1  0.50320000  0.49140000  0.95070000  1.0
  C  C22  1  0.50960000  0.49728000  0.03617000  1.0
  C  C23  1  0.51564000  0.50292000  0.12900000  1.0
  C  C24  1  0.87626000  0.64190000  0.63790000  1.0
  C  C25  1  0.97029000  0.74039000  0.67808000  1.0
  C  C26  1  0.90568000  0.80483000  0.75736000  1.0
  C  C27  1  0.52053000  0.50730000  0.21398000  1.0
  C  C28  1  0.61299000  0.06271000  0.50549000  1.0
  C  C29  1  0.50771000  0.13105000  0.47549000  1.0
  C  C30  1  0.61144000  0.93210000  0.50546000  1.0
  C  C31  1  0.50111000  0.86189000  0.51313000  1.0
  C  C32  1  0.06676000  0.43276000  0.43936000  1.0
  C  C33  1  0.92295000  0.43870000  0.45181000  1.0
  C  C34  1  0.49742000  0.48087000  0.67324000  1.0
  N  N35  1  0.16065000  0.49899000  0.48054000  1.0
  N  N36  1  0.86272000  0.50479000  0.51041000  1.0
  O  O37  1  0.39320000  0.67282000  0.51486000  1.0
  O  O38  1  0.61767000  0.67931000  0.49516000  1.0
  O  O39  1  0.38720000  0.45907000  0.62566000  1.0
  O  O40  1  0.61229000  0.50432000  0.64312000  1.0
  O  O41  1  0.40056000  0.31641000  0.45688000  1.0
  O  O42  1  0.62401000  0.31696000  0.50482000  1.0
  O  O43  1  0.40787000  0.52948000  0.34646000  1.0
  O  O44  1  0.63282000  0.48775000  0.35902000  1.0
  O  O45  1  0.94480000  0.58097000  0.56428000  1.0
