# generated using pymatgen
data_CoH28C14(NO6)2
_symmetry_space_group_name_H-M   'P 1'
_cell_length_a   7.11818000
_cell_length_b   8.05243000
_cell_length_c   8.72581000
_cell_angle_alpha   92.23340000
_cell_angle_beta   90.23920000
_cell_angle_gamma   103.34560000
_symmetry_Int_Tables_number   1
_chemical_formula_structural   CoH28C14(NO6)2
_chemical_formula_sum   'Co1 H28 C14 N2 O12'
_cell_volume   486.23097234
_cell_formula_units_Z   1
loop_
 _symmetry_equiv_pos_site_id
 _symmetry_equiv_pos_as_xyz
  1  'x, y, z'
loop_
 _atom_site_type_symbol
 _atom_site_label
 _atom_site_symmetry_multiplicity
 _atom_site_fract_x
 _atom_site_fract_y
 _atom_site_fract_z
 _atom_site_occupancy
  Co  Co0  1  0.50000000  0.00000000  0.50001000  1.0
  H  H1  1  0.30008000  0.31386000  0.78726000  1.0
  H  H2  1  0.69990000  0.68613000  0.21273000  1.0
  H  H3  1  0.15419000  0.45126000  0.57733000  1.0
  H  H4  1  0.84579000  0.54872000  0.42265000  1.0
  H  H5  1  0.95860000  0.26542000  0.57656000  1.0
  H  H6  1  0.04141000  0.73457000  0.42342000  1.0
  H  H7  1  0.99969000  0.03790000  0.73413000  1.0
  H  H8  1  0.00031000  0.96210000  0.26588000  1.0
  H  H9  1  0.98536000  0.12411000  0.92358000  1.0
  H  H10  1  0.01462000  0.87590000  0.07640000  1.0
  H  H11  1  0.15952000  0.55658000  0.81448000  1.0
  H  H12  1  0.84048000  0.44342000  0.18551000  1.0
  H  H13  1  0.33370000  0.45693000  0.02563000  1.0
  H  H14  1  0.66630000  0.54308000  0.97436000  1.0
  H  H15  1  0.11856000  0.31678000  0.08424000  1.0
  H  H16  1  0.88144000  0.68323000  0.91575000  1.0
  H  H17  1  0.81568000  0.42136000  0.75406000  1.0
  H  H18  1  0.18431000  0.57864000  0.24593000  1.0
  H  H19  1  0.80270000  0.29407000  0.91733000  1.0
  H  H20  1  0.19729000  0.70594000  0.08266000  1.0
  H  H21  1  0.43256000  0.90345000  0.22234000  1.0
  H  H22  1  0.56742000  0.09654000  0.77767000  1.0
  H  H23  1  0.31411000  0.04393000  0.28350000  1.0
  H  H24  1  0.68589000  0.95607000  0.71652000  1.0
  H  H25  1  0.69719000  0.20377000  0.27480000  1.0
  H  H26  1  0.30284000  0.79624000  0.72521000  1.0
  H  H27  1  0.52843000  0.27762000  0.34410000  1.0
  H  H28  1  0.47161000  0.72239000  0.65591000  1.0
  C  C29  1  0.11348000  0.31464000  0.60130000  1.0
  C  C30  1  0.88652000  0.68535000  0.39869000  1.0
  C  C31  1  0.23349000  0.22014000  0.50014000  1.0
  C  C32  1  0.76652000  0.77986000  0.49987000  1.0
  C  C33  1  0.08036000  0.12125000  0.82527000  1.0
  C  C34  1  0.91964000  0.87876000  0.17473000  1.0
  C  C35  1  0.25609000  0.05273000  0.86896000  1.0
  C  C36  1  0.74392000  0.94728000  0.13104000  1.0
  C  C37  1  0.09145000  0.43712000  0.86883000  1.0
  C  C38  1  0.90853000  0.56288000  0.13117000  1.0
  C  C39  1  0.17601000  0.43883000  0.03027000  1.0
  C  C40  1  0.82398000  0.56116000  0.96973000  1.0
  C  C41  1  0.87340000  0.41690000  0.87026000  1.0
  C  C42  1  0.12658000  0.58309000  0.12972000  1.0
  N  N43  1  0.15045000  0.29895000  0.76927000  1.0
  N  N44  1  0.84953000  0.70105000  0.23072000  1.0
  O  O45  1  0.31698000  0.12107000  0.57262000  1.0
  O  O46  1  0.68302000  0.87892000  0.42739000  1.0
  O  O47  1  0.24407000  0.24665000  0.35867000  1.0
  O  O48  1  0.75594000  0.75336000  0.64134000  1.0
  O  O49  1  0.41635000  0.16237000  0.88382000  1.0
  O  O50  1  0.58366000  0.83764000  0.11619000  1.0
  O  O51  1  0.22610000  0.89332000  0.88187000  1.0
  O  O52  1  0.77388000  0.10669000  0.11814000  1.0
  O  O53  1  0.35082000  0.93693000  0.30901000  1.0
  O  O54  1  0.64917000  0.06306000  0.69100000  1.0
  O  O55  1  0.65479000  0.25590000  0.37068000  1.0
  O  O56  1  0.34525000  0.74411000  0.62932000  1.0
