# generated using pymatgen
data_Zn2H21C34(N4O3)2
_symmetry_space_group_name_H-M   'P 1'
_cell_length_a   14.84100000
_cell_length_b   14.92540000
_cell_length_c   14.87330000
_cell_angle_alpha   113.06700000
_cell_angle_beta   102.39300000
_cell_angle_gamma   112.43000000
_symmetry_Int_Tables_number   1
_chemical_formula_structural   Zn2H21C34(N4O3)2
_chemical_formula_sum   'Zn4 H42 C68 N16 O12'
_cell_volume   2532.04099788
_cell_formula_units_Z   2
loop_
 _symmetry_equiv_pos_site_id
 _symmetry_equiv_pos_as_xyz
  1  'x, y, z'
loop_
 _atom_site_type_symbol
 _atom_site_label
 _atom_site_symmetry_multiplicity
 _atom_site_fract_x
 _atom_site_fract_y
 _atom_site_fract_z
 _atom_site_occupancy
  Zn  Zn0  1  0.02458000  0.88211000  0.86716000  1.0
  Zn  Zn1  1  0.14906000  0.16154000  0.01829000  1.0
  Zn  Zn2  1  0.00165000  0.13988000  0.15473000  1.0
  Zn  Zn3  1  0.85928000  0.85953000  0.98825000  1.0
  H  H4  1  0.88280000  0.41541000  0.06359000  1.0
  H  H5  1  0.54442000  0.21537000  0.02438000  1.0
  H  H6  1  0.72259000  0.86110000  0.52175000  1.0
  H  H7  1  0.03839000  0.15411000  0.65852000  1.0
  H  H8  1  0.35675000  0.88265000  0.73327000  1.0
  H  H9  1  0.00769000  0.13251000  0.48178000  1.0
  H  H10  1  0.52237000  0.87897000  0.74141000  1.0
  H  H11  1  0.89536000  0.64274000  0.18116000  1.0
  H  H12  1  0.59671000  0.35221000  0.62561000  1.0
  H  H13  1  0.42394000  0.19560000  0.46501000  1.0
  H  H14  1  0.92754000  0.16135000  0.34736000  1.0
  H  H15  1  0.65554000  0.84233000  0.83392000  1.0
  H  H16  1  0.33729000  0.14974000  0.14346000  1.0
  H  H17  1  0.85029000  0.62584000  0.62104000  1.0
  H  H18  1  0.98015000  0.83292000  0.17066000  1.0
  H  H19  1  0.03285000  0.40136000  0.25123000  1.0
  H  H20  1  0.16742000  0.80372000  0.98512000  1.0
  H  H21  1  0.23385000  0.42302000  0.07930000  1.0
  H  H22  1  0.77480000  0.79509000  0.16386000  1.0
  H  H23  1  0.86978000  0.20886000  0.02763000  1.0
  H  H24  1  0.38862000  0.22555000  0.99880000  1.0
  H  H25  1  0.83502000  0.83378000  0.66870000  1.0
  H  H26  1  0.27890000  0.78674000  0.15525000  1.0
  H  H27  1  0.69145000  0.83893000  0.34104000  1.0
  H  H28  1  0.29859000  0.64549000  0.18799000  1.0
  H  H29  1  0.06773000  0.80795000  0.64984000  1.0
  H  H30  1  0.97769000  0.59707000  0.53373000  1.0
  H  H31  1  0.04328000  0.49267000  0.59767000  1.0
  H  H32  1  0.20383000  0.59985000  0.77307000  1.0
  H  H33  1  0.29744000  0.81131000  0.88579000  1.0
  H  H34  1  0.20591000  0.23763000  0.85748000  1.0
  H  H35  1  0.30744000  0.44010000  0.90987000  1.0
  H  H36  1  0.70910000  0.21217000  0.03201000  1.0
  H  H37  1  0.21445000  0.55061000  0.92631000  1.0
  H  H38  1  0.01990000  0.45693000  0.88822000  1.0
  H  H39  1  0.91854000  0.25342000  0.83249000  1.0
  H  H40  1  0.76831000  0.42519000  0.24505000  1.0
  H  H41  1  0.69690000  0.50814000  0.92889000  1.0
  H  H42  1  0.34116000  0.46418000  0.27381000  1.0
  H  H43  1  0.68096000  0.67802000  0.43154000  1.0
  H  H44  1  0.12780000  0.30766000  0.46154000  1.0
  H  H45  1  0.62218000  0.66969000  0.94451000  1.0
  C  C46  1  0.23525000  0.94664000  0.84508000  1.0
  C  C47  1  0.71707000  0.56748000  0.67137000  1.0
  C  C48  1  0.91505000  0.01496000  0.70791000  1.0
  C  C49  1  0.18760000  0.82299000  0.77580000  1.0
  C  C50  1  0.09662000  0.76159000  0.67675000  1.0
  C  C51  1  0.04575000  0.64336000  0.61225000  1.0
  C  C52  1  0.08389000  0.58513000  0.64721000  1.0
  C  C53  1  0.17427000  0.64547000  0.74568000  1.0
  C  C54  1  0.22645000  0.76374000  0.80927000  1.0
  C  C55  1  0.05598000  0.23297000  0.84285000  1.0
  C  C56  1  0.16594000  0.28656000  0.86531000  1.0
  C  C57  1  0.22248000  0.40007000  0.89412000  1.0
  C  C58  1  0.31692000  0.20877000  0.29754000  1.0
  C  C59  1  0.17013000  0.46148000  0.90230000  1.0
  C  C60  1  0.06089000  0.40907000  0.88076000  1.0
  C  C61  1  0.00399000  0.29510000  0.85035000  1.0
  C  C62  1  0.89542000  0.48454000  0.22476000  1.0
  C  C63  1  0.83816000  0.54372000  0.00767000  1.0
  C  C64  1  0.43511000  0.41141000  0.30674000  1.0
  C  C65  1  0.09124000  0.79561000  0.10022000  1.0
  C  C66  1  0.62963000  0.60104000  0.50177000  1.0
  C  C67  1  0.20889000  0.24957000  0.40557000  1.0
  C  C68  1  0.64913000  0.59675000  0.82378000  1.0
  C  C69  1  0.14023000  0.46023000  0.17505000  1.0
  C  C70  1  0.03587000  0.64651000  0.14677000  1.0
  C  C71  1  0.04703000  0.56666000  0.16597000  1.0
  C  C72  1  0.99667000  0.11212000  0.80937000  1.0
  C  C73  1  0.11498000  0.72700000  0.13790000  1.0
  C  C74  1  0.13914000  0.55854000  0.17813000  1.0
  C  C75  1  0.21138000  0.72466000  0.15736000  1.0
  C  C76  1  0.22282000  0.64417000  0.17665000  1.0
  C  C77  1  0.92887000  0.49851000  0.14008000  1.0
  C  C78  1  0.91669000  0.59355000  0.12196000  1.0
  C  C79  1  0.76813000  0.90780000  0.41080000  1.0
  C  C80  1  0.63228000  0.13993000  0.96496000  1.0
  C  C81  1  0.78585000  0.91982000  0.51226000  1.0
  C  C82  1  0.53869000  0.14152000  0.96102000  1.0
  C  C83  1  0.88376000  0.00793000  0.60392000  1.0
  C  C84  1  0.43675000  0.04654000  0.88129000  1.0
  C  C85  1  0.89350000  0.07254000  0.28778000  1.0
  C  C86  1  0.72204000  0.92986000  0.88719000  1.0
  C  C87  1  0.96093000  0.08622000  0.59041000  1.0
  C  C88  1  0.84275000  0.97681000  0.29543000  1.0
  C  C89  1  0.43391000  0.95489000  0.79966000  1.0
  C  C90  1  0.94321000  0.07440000  0.49031000  1.0
  C  C91  1  0.52776000  0.95307000  0.80405000  1.0
  C  C92  1  0.84740000  0.98415000  0.39755000  1.0
  C  C93  1  0.62859000  0.04318000  0.89007000  1.0
  C  C94  1  0.72308000  0.03170000  0.91296000  1.0
  C  C95  1  0.56531000  0.36390000  0.56049000  1.0
  C  C96  1  0.46908000  0.27578000  0.46986000  1.0
  C  C97  1  0.42656000  0.29022000  0.38651000  1.0
  C  C98  1  0.62093000  0.47032000  0.57198000  1.0
  C  C99  1  0.48502000  0.39513000  0.39439000  1.0
  C  C100  1  0.58020000  0.48543000  0.48735000  1.0
  C  C101  1  0.28753000  0.15690000  0.18647000  1.0
  C  C102  1  0.81826000  0.63744000  0.68111000  1.0
  C  C103  1  0.01913000  0.83296000  0.11666000  1.0
  C  C104  1  0.07894000  0.38819000  0.20495000  1.0
  C  C105  1  0.22021000  0.19710000  0.30576000  1.0
  C  C106  1  0.72332000  0.62553000  0.77583000  1.0
  C  C107  1  0.11654000  0.82047000  0.02368000  1.0
  C  C108  1  0.18598000  0.40240000  0.12181000  1.0
  C  C109  1  0.81374000  0.88573000  0.19389000  1.0
  C  C110  1  0.83074000  0.11684000  0.98677000  1.0
  C  C111  1  0.32902000  0.13498000  0.95027000  1.0
  C  C112  1  0.89276000  0.92406000  0.72480000  1.0
  C  C113  1  0.33909000  0.04250000  0.88939000  1.0
  N  N114  1  0.17034000  0.98171000  0.87799000  1.0
  N  N115  1  0.87915000  0.72945000  0.78276000  1.0
  N  N116  1  0.18211000  0.11902000  0.13272000  1.0
  N  N117  1  0.00235000  0.87520000  0.05377000  1.0
  N  N118  1  0.08669000  0.29490000  0.17094000  1.0
  N  N119  1  0.14091000  0.14299000  0.20559000  1.0
  N  N120  1  0.82045000  0.72363000  0.84020000  1.0
  N  N121  1  0.02017000  0.07847000  0.87866000  1.0
  N  N122  1  0.06169000  0.86662000  0.99611000  1.0
  N  N123  1  0.15259000  0.30297000  0.11875000  1.0
  N  N124  1  0.84696000  0.92546000  0.13244000  1.0
  N  N125  1  0.88788000  0.06882000  0.00508000  1.0
  N  N126  1  0.22819000  0.09770000  0.94302000  1.0
  N  N127  1  0.95731000  0.96339000  0.82696000  1.0
  N  N128  1  0.89701000  0.04190000  0.19151000  1.0
  N  N129  1  0.82039000  0.95377000  0.94393000  1.0
  O  O130  1  0.95489000  0.51634000  0.31543000  1.0
  O  O131  1  0.38199000  0.46582000  0.33690000  1.0
  O  O132  1  0.64589000  0.68695000  0.57769000  1.0
  O  O133  1  0.65326000  0.60043000  0.41774000  1.0
  O  O134  1  0.43833000  0.37764000  0.21895000  1.0
  O  O135  1  0.26728000  0.27739000  0.49505000  1.0
  O  O136  1  0.12599000  0.27045000  0.38979000  1.0
  O  O137  1  0.58204000  0.50157000  0.79918000  1.0
  O  O138  1  0.78588000  0.43014000  0.18664000  1.0
  O  O139  1  0.66755000  0.69387000  0.90985000  1.0
  O  O140  1  0.85098000  0.50059000  0.92671000  1.0
  O  O141  1  0.74785000  0.54867000  0.00530000  1.0
