# generated using pymatgen
data_GdH7C14(NO4)2
_symmetry_space_group_name_H-M   'P 1'
_cell_length_a   8.35672000
_cell_length_b   12.27170000
_cell_length_c   13.52690000
_cell_angle_alpha   77.93600000
_cell_angle_beta   89.99990000
_cell_angle_gamma   89.99990000
_symmetry_Int_Tables_number   1
_chemical_formula_structural   GdH7C14(NO4)2
_chemical_formula_sum   'Gd4 H28 C56 N8 O32'
_cell_volume   1356.56265541
_cell_formula_units_Z   4
loop_
 _symmetry_equiv_pos_site_id
 _symmetry_equiv_pos_as_xyz
  1  'x, y, z'
loop_
 _atom_site_type_symbol
 _atom_site_label
 _atom_site_symmetry_multiplicity
 _atom_site_fract_x
 _atom_site_fract_y
 _atom_site_fract_z
 _atom_site_occupancy
  Gd  Gd0  1  0.77179000  0.69963000  0.68371000  1.0
  Gd  Gd1  1  0.27180000  0.30037000  0.81630000  1.0
  Gd  Gd2  1  0.22821000  0.30037000  0.31630000  1.0
  Gd  Gd3  1  0.72820000  0.69963000  0.18371000  1.0
  H  H4  1  0.35725000  0.52332000  0.61370000  1.0
  H  H5  1  0.85725000  0.47668000  0.88630000  1.0
  H  H6  1  0.64275000  0.47669000  0.38630000  1.0
  H  H7  1  0.14275000  0.52331000  0.11371000  1.0
  H  H8  1  0.34992000  0.57557000  0.42344000  1.0
  H  H9  1  0.84992000  0.42443000  0.07656000  1.0
  H  H10  1  0.65009000  0.42443000  0.57657000  1.0
  H  H11  1  0.15008000  0.57557000  0.92344000  1.0
  H  H12  1  0.09598000  0.65332000  0.33761000  1.0
  H  H13  1  0.59597000  0.34668000  0.16240000  1.0
  H  H14  1  0.90403000  0.34668000  0.66240000  1.0
  H  H15  1  0.40402000  0.65332000  0.83761000  1.0
  H  H16  1  0.09638000  0.84505000  0.65973000  1.0
  H  H17  1  0.59639000  0.15496000  0.84027000  1.0
  H  H18  1  0.90361000  0.15495000  0.34027000  1.0
  H  H19  1  0.40361000  0.84505000  0.15972000  1.0
  H  H20  1  0.30362000  0.02321000  0.62338000  1.0
  H  H21  1  0.80362000  0.97680000  0.87661000  1.0
  H  H22  1  0.69637000  0.97679000  0.37660000  1.0
  H  H23  1  0.19638000  0.02320000  0.12339000  1.0
  H  H24  1  0.78041000  0.16501000  0.59324000  1.0
  H  H25  1  0.28041000  0.83500000  0.90674000  1.0
  H  H26  1  0.21959000  0.83499000  0.40675000  1.0
  H  H27  1  0.71960000  0.16500000  0.09326000  1.0
  H  H28  1  0.47936000  0.19192000  0.58962000  1.0
  H  H29  1  0.97937000  0.80809000  0.91036000  1.0
  H  H30  1  0.52063000  0.80808000  0.41037000  1.0
  H  H31  1  0.02064000  0.19191000  0.08964000  1.0
  C  C32  1  0.82068000  0.70839000  0.43956000  1.0
  C  C33  1  0.32067000  0.29161000  0.06044000  1.0
  C  C34  1  0.17933000  0.29161000  0.56045000  1.0
  C  C35  1  0.67933000  0.70839000  0.93956000  1.0
  C  C36  1  0.97957000  0.65863000  0.47899000  1.0
  C  C37  1  0.47957000  0.34138000  0.02101000  1.0
  C  C38  1  0.02044000  0.34137000  0.52102000  1.0
  C  C39  1  0.52043000  0.65862000  0.97899000  1.0
  C  C40  1  0.11911000  0.58677000  0.62663000  1.0
  C  C41  1  0.61911000  0.41324000  0.87338000  1.0
  C  C42  1  0.88090000  0.41323000  0.37338000  1.0
  C  C43  1  0.38089000  0.58676000  0.12663000  1.0
  C  C44  1  0.25274000  0.56261000  0.57321000  1.0
  C  C45  1  0.75274000  0.43740000  0.92679000  1.0
  C  C46  1  0.74727000  0.43740000  0.42679000  1.0
  C  C47  1  0.24726000  0.56260000  0.07322000  1.0
  C  C48  1  0.24706000  0.59052000  0.46810000  1.0
  C  C49  1  0.74706000  0.40949000  0.03191000  1.0
  C  C50  1  0.75295000  0.40949000  0.53191000  1.0
  C  C51  1  0.25294000  0.59051000  0.96810000  1.0
  C  C52  1  0.10683000  0.63596000  0.41966000  1.0
  C  C53  1  0.60683000  0.36405000  0.08034000  1.0
  C  C54  1  0.89317000  0.36405000  0.58034000  1.0
  C  C55  1  0.39317000  0.63595000  0.91966000  1.0
  C  C56  1  0.10494000  0.55822000  0.73973000  1.0
  C  C57  1  0.60494000  0.44178000  0.76028000  1.0
  C  C58  1  0.89506000  0.44178000  0.26028000  1.0
  C  C59  1  0.39507000  0.55822000  0.23973000  1.0
  C  C60  1  0.93529000  0.96668000  0.63009000  1.0
  C  C61  1  0.43530000  0.03332000  0.86991000  1.0
  C  C62  1  0.06470000  0.03332000  0.36991000  1.0
  C  C63  1  0.56471000  0.96667000  0.13009000  1.0
  C  C64  1  0.40936000  0.80206000  0.66537000  1.0
  C  C65  1  0.90937000  0.19794000  0.83463000  1.0
  C  C66  1  0.59064000  0.19794000  0.33462000  1.0
  C  C67  1  0.09063000  0.80205000  0.16537000  1.0
  C  C68  1  0.43376000  0.01531000  0.62476000  1.0
  C  C69  1  0.93377000  0.98469000  0.87523000  1.0
  C  C70  1  0.56623000  0.98469000  0.37523000  1.0
  C  C71  1  0.06623000  0.01530000  0.12476000  1.0
  C  C72  1  0.69813000  0.09475000  0.60760000  1.0
  C  C73  1  0.19813000  0.90525000  0.89238000  1.0
  C  C74  1  0.30187000  0.90525000  0.39239000  1.0
  C  C75  1  0.80187000  0.09475000  0.10762000  1.0
  C  C76  1  0.50436000  0.90971000  0.64432000  1.0
  C  C77  1  0.00436000  0.09030000  0.85567000  1.0
  C  C78  1  0.49564000  0.09029000  0.35567000  1.0
  C  C79  1  0.99564000  0.90970000  0.14432000  1.0
  C  C80  1  0.75882000  0.98651000  0.62789000  1.0
  C  C81  1  0.25882000  0.01349000  0.87210000  1.0
  C  C82  1  0.24118000  0.01349000  0.37210000  1.0
  C  C83  1  0.74118000  0.98651000  0.12790000  1.0
  C  C84  1  0.53268000  0.10913000  0.60640000  1.0
  C  C85  1  0.03268000  0.89087000  0.89359000  1.0
  C  C86  1  0.46732000  0.89087000  0.39359000  1.0
  C  C87  1  0.96733000  0.10912000  0.10641000  1.0
  N  N88  1  0.98886000  0.63665000  0.58038000  1.0
  N  N89  1  0.48886000  0.36335000  0.91962000  1.0
  N  N90  1  0.01114000  0.36335000  0.41962000  1.0
  N  N91  1  0.51114000  0.63665000  0.08038000  1.0
  N  N92  1  0.66411000  0.89614000  0.64618000  1.0
  N  N93  1  0.16411000  0.10386000  0.85382000  1.0
  N  N94  1  0.33589000  0.10386000  0.35382000  1.0
  N  N95  1  0.83589000  0.89613000  0.14618000  1.0
  O  O96  1  0.78812000  0.72000000  0.34659000  1.0
  O  O97  1  0.28812000  0.28000000  0.15342000  1.0
  O  O98  1  0.21189000  0.27999000  0.65341000  1.0
  O  O99  1  0.71188000  0.72001000  0.84659000  1.0
  O  O100  1  0.72754000  0.73417000  0.50555000  1.0
  O  O101  1  0.22754000  0.26584000  0.99446000  1.0
  O  O102  1  0.27246000  0.26583000  0.49445000  1.0
  O  O103  1  0.77245000  0.73417000  0.00554000  1.0
  O  O104  1  0.19593000  0.48267000  0.78819000  1.0
  O  O105  1  0.69592000  0.51734000  0.71181000  1.0
  O  O106  1  0.80407000  0.51733000  0.21181000  1.0
  O  O107  1  0.30408000  0.48266000  0.28820000  1.0
  O  O108  1  0.99928000  0.60969000  0.77950000  1.0
  O  O109  1  0.49929000  0.39031000  0.72051000  1.0
  O  O110  1  0.00072000  0.39031000  0.22051000  1.0
  O  O111  1  0.50072000  0.60969000  0.27950000  1.0
  O  O112  1  0.97257000  0.85729000  0.65509000  1.0
  O  O113  1  0.47257000  0.14272000  0.84491000  1.0
  O  O114  1  0.02743000  0.14271000  0.34491000  1.0
  O  O115  1  0.52743000  0.85728000  0.15509000  1.0
  O  O116  1  0.03463000  0.04145000  0.61190000  1.0
  O  O117  1  0.53463000  0.95856000  0.88809000  1.0
  O  O118  1  0.96537000  0.95856000  0.38809000  1.0
  O  O119  1  0.46537000  0.04145000  0.11190000  1.0
  O  O120  1  0.49045000  0.71258000  0.67516000  1.0
  O  O121  1  0.99045000  0.28742000  0.82484000  1.0
  O  O122  1  0.50955000  0.28742000  0.32484000  1.0
  O  O123  1  0.00955000  0.71257000  0.17516000  1.0
  O  O124  1  0.25956000  0.80483000  0.67459000  1.0
  O  O125  1  0.75955000  0.19518000  0.82541000  1.0
  O  O126  1  0.74044000  0.19517000  0.32540000  1.0
  O  O127  1  0.24044000  0.80482000  0.17458000  1.0
