# generated using pymatgen
data_ZnH3C4N3O4
_symmetry_space_group_name_H-M   'P 1'
_cell_length_a   4.63889000
_cell_length_b   10.77260000
_cell_length_c   14.21980000
_cell_angle_alpha   90.00010000
_cell_angle_beta   89.99990000
_cell_angle_gamma   89.99970000
_symmetry_Int_Tables_number   1
_chemical_formula_structural   ZnH3C4N3O4
_chemical_formula_sum   'Zn4 H12 C16 N12 O16'
_cell_volume   710.60473461
_cell_formula_units_Z   4
loop_
 _symmetry_equiv_pos_site_id
 _symmetry_equiv_pos_as_xyz
  1  'x, y, z'
loop_
 _atom_site_type_symbol
 _atom_site_label
 _atom_site_symmetry_multiplicity
 _atom_site_fract_x
 _atom_site_fract_y
 _atom_site_fract_z
 _atom_site_occupancy
  Zn  Zn0  1  0.28514000  0.24729000  0.64887000  1.0
  Zn  Zn1  1  0.71486000  0.74729000  0.35113000  1.0
  Zn  Zn2  1  0.28514000  0.74729000  0.85113000  1.0
  Zn  Zn3  1  0.71486000  0.24729000  0.14887000  1.0
  H  H4  1  0.61468000  0.48407000  0.56560000  1.0
  H  H5  1  0.38532000  0.98407000  0.43440000  1.0
  H  H6  1  0.61468000  0.98407000  0.93440000  1.0
  H  H7  1  0.38532000  0.48407000  0.06560000  1.0
  H  H8  1  0.62560000  0.70835000  0.65976000  1.0
  H  H9  1  0.37440000  0.20835000  0.34024000  1.0
  H  H10  1  0.62560000  0.20835000  0.84024000  1.0
  H  H11  1  0.37441000  0.70835000  0.15977000  1.0
  H  H12  1  0.89960000  0.21362000  0.47503000  1.0
  H  H13  1  0.10040000  0.71362000  0.52496000  1.0
  H  H14  1  0.89960000  0.71362000  0.02496000  1.0
  H  H15  1  0.10040000  0.21362000  0.97503000  1.0
  C  C16  1  0.52176000  0.50816000  0.63312000  1.0
  C  C17  1  0.47824000  0.00816000  0.36688000  1.0
  C  C18  1  0.52177000  0.00816000  0.86688000  1.0
  C  C19  1  0.47824000  0.50816000  0.13312000  1.0
  C  C20  1  0.29129000  0.48885000  0.76325000  1.0
  C  C21  1  0.70871000  0.98884000  0.23675000  1.0
  C  C22  1  0.29129000  0.98885000  0.73675000  1.0
  C  C23  1  0.70871000  0.48885000  0.26325000  1.0
  C  C24  1  0.52713000  0.62147000  0.68076000  1.0
  C  C25  1  0.47287000  0.12147000  0.31924000  1.0
  C  C26  1  0.52713000  0.12147000  0.81924000  1.0
  C  C27  1  0.47287000  0.62147000  0.18076000  1.0
  C  C28  1  0.75859000  0.22896000  0.53645000  1.0
  C  C29  1  0.24141000  0.72896000  0.46355000  1.0
  C  C30  1  0.75858000  0.72896000  0.96355000  1.0
  C  C31  1  0.24142000  0.22896000  0.03645000  1.0
  N  N32  1  0.37142000  0.42495000  0.68584000  1.0
  N  N33  1  0.62858000  0.92495000  0.31416000  1.0
  N  N34  1  0.37141000  0.92496000  0.81416000  1.0
  N  N35  1  0.62859000  0.42495000  0.18584000  1.0
  N  N36  1  0.13395000  0.43392000  0.83763000  1.0
  N  N37  1  0.86605000  0.93392000  0.16237000  1.0
  N  N38  1  0.13394000  0.93392000  0.66237000  1.0
  N  N39  1  0.86606000  0.43392000  0.33763000  1.0
  N  N40  1  0.38106000  0.60825000  0.76319000  1.0
  N  N41  1  0.61894000  0.10824000  0.23681000  1.0
  N  N42  1  0.38107000  0.10825000  0.73681000  1.0
  N  N43  1  0.61894000  0.60824000  0.26319000  1.0
  O  O44  1  0.03712000  0.32664000  0.82440000  1.0
  O  O45  1  0.96288000  0.82665000  0.17560000  1.0
  O  O46  1  0.03712000  0.82664000  0.67560000  1.0
  O  O47  1  0.96288000  0.32665000  0.32440000  1.0
  O  O48  1  0.10201000  0.49386000  0.91210000  1.0
  O  O49  1  0.89799000  0.99386000  0.08790000  1.0
  O  O50  1  0.10201000  0.99386000  0.58790000  1.0
  O  O51  1  0.89799000  0.49386000  0.41210000  1.0
  O  O52  1  0.86877000  0.24797000  0.61711000  1.0
  O  O53  1  0.13122000  0.74797000  0.38289000  1.0
  O  O54  1  0.86877000  0.74797000  0.88289000  1.0
  O  O55  1  0.13123000  0.24797000  0.11711000  1.0
  O  O56  1  0.48787000  0.22874000  0.52310000  1.0
  O  O57  1  0.51213000  0.72874000  0.47690000  1.0
  O  O58  1  0.48786000  0.72873000  0.97690000  1.0
  O  O59  1  0.51213000  0.22874000  0.02310000  1.0
