# generated using pymatgen
data_CdH12(C7N5)2
_symmetry_space_group_name_H-M   'P 1'
_cell_length_a   8.90562000
_cell_length_b   9.66310000
_cell_length_c   10.05580000
_cell_angle_alpha   89.99990000
_cell_angle_beta   89.99980000
_cell_angle_gamma   63.17700000
_symmetry_Int_Tables_number   1
_chemical_formula_structural   CdH12(C7N5)2
_chemical_formula_sum   'Cd2 H24 C28 N20'
_cell_volume   772.25216679
_cell_formula_units_Z   2
loop_
 _symmetry_equiv_pos_site_id
 _symmetry_equiv_pos_as_xyz
  1  'x, y, z'
loop_
 _atom_site_type_symbol
 _atom_site_label
 _atom_site_symmetry_multiplicity
 _atom_site_fract_x
 _atom_site_fract_y
 _atom_site_fract_z
 _atom_site_occupancy
  Cd  Cd0  1  0.00000000  0.50000000  0.50000000  1.0
  Cd  Cd1  1  0.50000000  0.50000000  0.00000000  1.0
  H  H2  1  0.01582000  0.95620000  0.82093000  1.0
  H  H3  1  0.48418000  0.04380000  0.32093000  1.0
  H  H4  1  0.98418000  0.04380000  0.17907000  1.0
  H  H5  1  0.51582000  0.95620000  0.67907000  1.0
  H  H6  1  0.99487000  0.61013000  0.83034000  1.0
  H  H7  1  0.50512000  0.38987000  0.33034000  1.0
  H  H8  1  0.00512000  0.38987000  0.16966000  1.0
  H  H9  1  0.49488000  0.61013000  0.66966000  1.0
  H  H10  1  0.12092000  0.69659000  0.88152000  1.0
  H  H11  1  0.37907000  0.30341000  0.38151000  1.0
  H  H12  1  0.87907000  0.30342000  0.11849000  1.0
  H  H13  1  0.62092000  0.69658000  0.61848000  1.0
  H  H14  1  0.70324000  0.12194000  0.47182000  1.0
  H  H15  1  0.79676000  0.87806000  0.97182000  1.0
  H  H16  1  0.29676000  0.87806000  0.52818000  1.0
  H  H17  1  0.20324000  0.12194000  0.02818000  1.0
  H  H18  1  0.82930000  0.17731000  0.67587000  1.0
  H  H19  1  0.67070000  0.82269000  0.17587000  1.0
  H  H20  1  0.17070000  0.82269000  0.32413000  1.0
  H  H21  1  0.32931000  0.17731000  0.82413000  1.0
  H  H22  1  0.78069000  0.84477000  0.41703000  1.0
  H  H23  1  0.71931000  0.15522000  0.91703000  1.0
  H  H24  1  0.21931000  0.15522000  0.58297000  1.0
  H  H25  1  0.28069000  0.84478000  0.08297000  1.0
  C  C26  1  0.98850000  0.78503000  0.69870000  1.0
  C  C27  1  0.51150000  0.21497000  0.19870000  1.0
  C  C28  1  0.01150000  0.21497000  0.30130000  1.0
  C  C29  1  0.48850000  0.78503000  0.80130000  1.0
  C  C30  1  0.95900000  0.93588000  0.73166000  1.0
  C  C31  1  0.54100000  0.06412000  0.23166000  1.0
  C  C32  1  0.04100000  0.06412000  0.26834000  1.0
  C  C33  1  0.45900000  0.93588000  0.76834000  1.0
  C  C34  1  0.08340000  0.65260000  0.79373000  1.0
  C  C35  1  0.41659000  0.34740000  0.29373000  1.0
  C  C36  1  0.91660000  0.34740000  0.20627000  1.0
  C  C37  1  0.58340000  0.65260000  0.70627000  1.0
  C  C38  1  0.78665000  0.02882000  0.53664000  1.0
  C  C39  1  0.71335000  0.97118000  0.03664000  1.0
  C  C40  1  0.21335000  0.97118000  0.46336000  1.0
  C  C41  1  0.28666000  0.02882000  0.96336000  1.0
  C  C42  1  0.85574000  0.05922000  0.65046000  1.0
  C  C43  1  0.64426000  0.94078000  0.15046000  1.0
  C  C44  1  0.14427000  0.94078000  0.34954000  1.0
  C  C45  1  0.35574000  0.05922000  0.84954000  1.0
  C  C46  1  0.82692000  0.87550000  0.50704000  1.0
  C  C47  1  0.67308000  0.12450000  0.00704000  1.0
  C  C48  1  0.17308000  0.12450000  0.49296000  1.0
  C  C49  1  0.32692000  0.87550000  0.99296000  1.0
  C  C50  1  0.23375000  0.51618000  0.74021000  1.0
  C  C51  1  0.26625000  0.48382000  0.24021000  1.0
  C  C52  1  0.76625000  0.48382000  0.25979000  1.0
  C  C53  1  0.73375000  0.51618000  0.75979000  1.0
  N  N54  1  0.92439000  0.75623000  0.58621000  1.0
  N  N55  1  0.57561000  0.24377000  0.08621000  1.0
  N  N56  1  0.07561000  0.24377000  0.41379000  1.0
  N  N57  1  0.42439000  0.75623000  0.91379000  1.0
  N  N58  1  0.38386000  0.44689000  0.80159000  1.0
  N  N59  1  0.11614000  0.55311000  0.30159000  1.0
  N  N60  1  0.61614000  0.55311000  0.19841000  1.0
  N  N61  1  0.88386000  0.44689000  0.69841000  1.0
  N  N62  1  0.23914000  0.43913000  0.62785000  1.0
  N  N63  1  0.26086000  0.56087000  0.12785000  1.0
  N  N64  1  0.76086000  0.56087000  0.37215000  1.0
  N  N65  1  0.73914000  0.43913000  0.87215000  1.0
  N  N66  1  0.48283000  0.32500000  0.72403000  1.0
  N  N67  1  0.01717000  0.67500000  0.22403000  1.0
  N  N68  1  0.51717000  0.67500000  0.27597000  1.0
  N  N69  1  0.98283000  0.32500000  0.77597000  1.0
  N  N70  1  0.39638000  0.32008000  0.62008000  1.0
  N  N71  1  0.10362000  0.67992000  0.12008000  1.0
  N  N72  1  0.60362000  0.67992000  0.37993000  1.0
  N  N73  1  0.89638000  0.32008000  0.87993000  1.0
