# generated using pymatgen
data_ZnH18C28(NO2)4
_symmetry_space_group_name_H-M   'P 1'
_cell_length_a   9.38860000
_cell_length_b   10.25410000
_cell_length_c   14.08920000
_cell_angle_alpha   73.10450000
_cell_angle_beta   71.68660000
_cell_angle_gamma   83.39820000
_symmetry_Int_Tables_number   1
_chemical_formula_structural   ZnH18C28(NO2)4
_chemical_formula_sum   'Zn2 H36 C56 N8 O16'
_cell_volume   1231.69295877
_cell_formula_units_Z   2
loop_
 _symmetry_equiv_pos_site_id
 _symmetry_equiv_pos_as_xyz
  1  'x, y, z'
loop_
 _atom_site_type_symbol
 _atom_site_label
 _atom_site_symmetry_multiplicity
 _atom_site_fract_x
 _atom_site_fract_y
 _atom_site_fract_z
 _atom_site_occupancy
  Zn  Zn0  1  0.83910000  0.99178000  0.72793000  1.0
  Zn  Zn1  1  0.16090000  0.00822000  0.27207000  1.0
  H  H2  1  0.63889000  0.96453000  0.96068000  1.0
  H  H3  1  0.36111000  0.03547000  0.03932000  1.0
  H  H4  1  0.67946000  0.87265000  0.13525000  1.0
  H  H5  1  0.32054000  0.12735000  0.86475000  1.0
  H  H6  1  0.93719000  0.78605000  0.14659000  1.0
  H  H7  1  0.06281000  0.21395000  0.85341000  1.0
  H  H8  1  0.13074000  0.98899000  0.53615000  1.0
  H  H9  1  0.86926000  0.01101000  0.46385000  1.0
  H  H10  1  0.39809000  0.91363000  0.51647000  1.0
  H  H11  1  0.60191000  0.08637000  0.48353000  1.0
  H  H12  1  0.48606000  0.82845000  0.67562000  1.0
  H  H13  1  0.51394000  0.17155000  0.32439000  1.0
  H  H14  1  0.68182000  0.62845000  0.91334000  1.0
  H  H15  1  0.31818000  0.37155000  0.08666000  1.0
  H  H16  1  0.86565000  0.51285000  0.00612000  1.0
  H  H17  1  0.13435000  0.48716000  0.99388000  1.0
  H  H18  1  0.54975000  0.54479000  0.29683000  1.0
  H  H19  1  0.45024000  0.45520000  0.70317000  1.0
  H  H20  1  0.37034000  0.66606000  0.20396000  1.0
  H  H21  1  0.62966000  0.33393000  0.79604000  1.0
  H  H22  1  0.74866000  0.79745000  0.49810000  1.0
  H  H23  1  0.25136000  0.20255000  0.50189000  1.0
  H  H24  1  0.78497000  0.37506000  0.49600000  1.0
  H  H25  1  0.21503000  0.62494000  0.50400000  1.0
  H  H26  1  0.87731000  0.48919000  0.74088000  1.0
  H  H27  1  0.12269000  0.51081000  0.25911000  1.0
  H  H28  1  0.20244000  0.72593000  0.12632000  1.0
  H  H29  1  0.79755000  0.27407000  0.87368000  1.0
  H  H30  1  0.03155000  0.36734000  0.19687000  1.0
  H  H31  1  0.96845000  0.63266000  0.80313000  1.0
  H  H32  1  0.73979000  0.55345000  0.36557000  1.0
  H  H33  1  0.26022000  0.44655000  0.63443000  1.0
  H  H34  1  0.54820000  0.90634000  0.82485000  1.0
  H  H35  1  0.45180000  0.09366000  0.17515000  1.0
  H  H36  1  0.55740000  0.04315000  0.73553000  1.0
  H  H37  1  0.44260000  0.95685000  0.26447000  1.0
  C  C38  1  0.74918000  0.92648000  0.96818000  1.0
  C  C39  1  0.25082000  0.07352000  0.03182000  1.0
  C  C40  1  0.77334000  0.87508000  0.06579000  1.0
  C  C41  1  0.22666000  0.12491000  0.93421000  1.0
  C  C42  1  0.91489000  0.82663000  0.07174000  1.0
  C  C43  1  0.08511000  0.17337000  0.92826000  1.0
  C  C44  1  0.03196000  0.83271000  0.97871000  1.0
  C  C45  1  0.96803000  0.16730000  0.02129000  1.0
  C  C46  1  0.99883000  0.88810000  0.88265000  1.0
  C  C47  1  0.00117000  0.11190000  0.11735000  1.0
  C  C48  1  0.11449000  0.89840000  0.78384000  1.0
  C  C49  1  0.88551000  0.10160000  0.21616000  1.0
  C  C50  1  0.17101000  0.95107000  0.60418000  1.0
  C  C51  1  0.82900000  0.04893000  0.39582000  1.0
  C  C52  1  0.32195000  0.90998000  0.59353000  1.0
  C  C53  1  0.67805000  0.09002000  0.40647000  1.0
  C  C54  1  0.37007000  0.86312000  0.68120000  1.0
  C  C55  1  0.62993000  0.13688000  0.31880000  1.0
  C  C56  1  0.26538000  0.85616000  0.77955000  1.0
  C  C57  1  0.73461000  0.14384000  0.22045000  1.0
  C  C58  1  0.29758000  0.80411000  0.87658000  1.0
  C  C59  1  0.70241000  0.19590000  0.12342000  1.0
  C  C60  1  0.18435000  0.79103000  0.97133000  1.0
  C  C61  1  0.81564000  0.20898000  0.02867000  1.0
  C  C62  1  0.40382000  0.71863000  0.99784000  1.0
  C  C63  1  0.59618000  0.28137000  0.00216000  1.0
  C  C64  1  0.51301000  0.65471000  0.05241000  1.0
  C  C65  1  0.48699000  0.34528000  0.94759000  1.0
  C  C66  1  0.65373000  0.61049000  0.99709000  1.0
  C  C67  1  0.34627000  0.38951000  0.00291000  1.0
  C  C68  1  0.75645000  0.54557000  0.04925000  1.0
  C  C69  1  0.24355000  0.45443000  0.95075000  1.0
  C  C70  1  0.72058000  0.52173000  0.15731000  1.0
  C  C71  1  0.27942000  0.47826000  0.84269000  1.0
  C  C72  1  0.57973000  0.56453000  0.21272000  1.0
  C  C73  1  0.42026000  0.43546000  0.78728000  1.0
  C  C74  1  0.47797000  0.63160000  0.16045000  1.0
  C  C75  1  0.52203000  0.36840000  0.83956000  1.0
  C  C76  1  0.82936000  0.45237000  0.21405000  1.0
  C  C77  1  0.17064000  0.54763000  0.78595000  1.0
  C  C78  1  0.82214000  0.75953000  0.67736000  1.0
  C  C79  1  0.17787000  0.24047000  0.32264000  1.0
  C  C80  1  0.81368000  0.65469000  0.62520000  1.0
  C  C81  1  0.18633000  0.34531000  0.37480000  1.0
  C  C82  1  0.77253000  0.69125000  0.53345000  1.0
  C  C83  1  0.22748000  0.30875000  0.46655000  1.0
  C  C84  1  0.76334000  0.59154000  0.48571000  1.0
  C  C85  1  0.23667000  0.40847000  0.51428000  1.0
  C  C86  1  0.79327000  0.45414000  0.53137000  1.0
  C  C87  1  0.20673000  0.54586000  0.46863000  1.0
  C  C88  1  0.83423000  0.41815000  0.62307000  1.0
  C  C89  1  0.16577000  0.58185000  0.37693000  1.0
  C  C90  1  0.84566000  0.51823000  0.66953000  1.0
  C  C91  1  0.15435000  0.48178000  0.33047000  1.0
  C  C92  1  0.85565000  0.27143000  0.67690000  1.0
  C  C93  1  0.14434000  0.72857000  0.32310000  1.0
  N  N94  1  0.07175000  0.94602000  0.69651000  1.0
  N  N95  1  0.92826000  0.05398000  0.30349000  1.0
  N  N96  1  0.85817000  0.93200000  0.87962000  1.0
  N  N97  1  0.14182000  0.06800000  0.12038000  1.0
  N  N98  1  0.43344000  0.76085000  0.89393000  1.0
  N  N99  1  0.56656000  0.23915000  0.10607000  1.0
  N  N100  1  0.25403000  0.73640000  0.04684000  1.0
  N  N101  1  0.74597000  0.26360000  0.95316000  1.0
  O  O102  1  0.96014000  0.41940000  0.15395000  1.0
  O  O103  1  0.03986000  0.58060000  0.84605000  1.0
  O  O104  1  0.80054000  0.42679000  0.30986000  1.0
  O  O105  1  0.19946000  0.57321000  0.69014000  1.0
  O  O106  1  0.79530000  0.88542000  0.63557000  1.0
  O  O107  1  0.20471000  0.11458000  0.36443000  1.0
  O  O108  1  0.85288000  0.72399000  0.76331000  1.0
  O  O109  1  0.14712000  0.27601000  0.23670000  1.0
  O  O110  1  0.83040000  0.18129000  0.63708000  1.0
  O  O111  1  0.16960000  0.81871000  0.36292000  1.0
  O  O112  1  0.89070000  0.24093000  0.76079000  1.0
  O  O113  1  0.10929000  0.75907000  0.23921000  1.0
  O  O114  1  0.72357000  0.63208000  0.39660000  1.0
  O  O115  1  0.27643000  0.36792000  0.60339000  1.0
  O  O116  1  0.58828000  0.00114000  0.79769000  1.0
  O  O117  1  0.41172000  0.99885000  0.20231000  1.0
