# generated using pymatgen
data_CdH17C20(NO)5
_symmetry_space_group_name_H-M   'P 1'
_cell_length_a   8.49833000
_cell_length_b   10.59290000
_cell_length_c   11.83870000
_cell_angle_alpha   64.67220000
_cell_angle_beta   84.18230000
_cell_angle_gamma   76.05810000
_symmetry_Int_Tables_number   1
_chemical_formula_structural   CdH17C20(NO)5
_chemical_formula_sum   'Cd2 H34 C40 N10 O10'
_cell_volume   934.91850374
_cell_formula_units_Z   2
loop_
 _symmetry_equiv_pos_site_id
 _symmetry_equiv_pos_as_xyz
  1  'x, y, z'
loop_
 _atom_site_type_symbol
 _atom_site_label
 _atom_site_symmetry_multiplicity
 _atom_site_fract_x
 _atom_site_fract_y
 _atom_site_fract_z
 _atom_site_occupancy
  Cd  Cd0  1  0.05546000  0.85578000  0.23297000  1.0
  Cd  Cd1  1  0.94453000  0.14423000  0.76703000  1.0
  H  H2  1  0.97510000  0.36972000  0.21135000  1.0
  H  H3  1  0.02489000  0.63028000  0.78866000  1.0
  H  H4  1  0.86768000  0.27563000  0.08281000  1.0
  H  H5  1  0.13234000  0.72436000  0.91719000  1.0
  H  H6  1  0.65821000  0.43918000  0.91973000  1.0
  H  H7  1  0.34181000  0.56080000  0.08027000  1.0
  H  H8  1  0.55996000  0.69175000  0.88826000  1.0
  H  H9  1  0.44005000  0.30823000  0.11174000  1.0
  H  H10  1  0.65426000  0.84786000  0.08740000  1.0
  H  H11  1  0.34574000  0.15214000  0.91259000  1.0
  H  H12  1  0.53936000  0.87414000  0.96021000  1.0
  H  H13  1  0.46064000  0.12585000  0.03979000  1.0
  H  H14  1  0.44315000  0.74485000  0.17888000  1.0
  H  H15  1  0.55682000  0.25517000  0.82112000  1.0
  H  H16  1  0.63905000  0.47432000  0.29173000  1.0
  H  H17  1  0.36095000  0.52571000  0.70826000  1.0
  H  H18  1  0.18266000  0.49285000  0.47755000  1.0
  H  H19  1  0.81734000  0.50715000  0.52245000  1.0
  H  H20  1  0.68639000  0.24821000  0.38503000  1.0
  H  H21  1  0.31362000  0.75179000  0.61496000  1.0
  H  H22  1  0.57869000  0.89561000  0.71818000  1.0
  H  H23  1  0.42132000  0.10440000  0.28183000  1.0
  H  H24  1  0.28019000  0.29728000  0.62667000  1.0
  H  H25  1  0.71982000  0.70273000  0.37332000  1.0
  H  H26  1  0.83030000  0.08478000  0.32731000  1.0
  H  H27  1  0.16971000  0.91522000  0.67269000  1.0
  H  H28  1  0.81221000  0.78146000  0.70382000  1.0
  H  H29  1  0.18779000  0.21853000  0.29618000  1.0
  H  H30  1  0.02730000  0.65594000  0.57068000  1.0
  H  H31  1  0.97270000  0.34405000  0.42932000  1.0
  H  H32  1  0.71646000  0.98580000  0.20501000  1.0
  H  H33  1  0.28355000  0.01421000  0.79499000  1.0
  H  H34  1  0.78890000  0.03911000  0.06692000  1.0
  H  H35  1  0.21111000  0.96088000  0.93308000  1.0
  C  C36  1  0.83724000  0.58504000  0.11745000  1.0
  C  C37  1  0.16275000  0.41495000  0.88256000  1.0
  C  C38  1  0.88507000  0.44039000  0.13946000  1.0
  C  C39  1  0.11493000  0.55960000  0.86055000  1.0
  C  C40  1  0.82437000  0.38717000  0.06775000  1.0
  C  C41  1  0.17565000  0.61282000  0.93225000  1.0
  C  C42  1  0.70927000  0.47926000  0.97532000  1.0
  C  C43  1  0.29073000  0.52072000  0.02468000  1.0
  C  C44  1  0.65685000  0.62246000  0.95576000  1.0
  C  C45  1  0.34316000  0.37752000  0.04423000  1.0
  C  C46  1  0.72126000  0.67850000  0.02403000  1.0
  C  C47  1  0.27874000  0.32148000  0.97597000  1.0
  C  C48  1  0.90986000  0.63904000  0.19449000  1.0
  C  C49  1  0.09011000  0.36095000  0.80553000  1.0
  C  C50  1  0.66279000  0.83380000  0.00020000  1.0
  C  C51  1  0.33721000  0.16620000  0.99979000  1.0
  C  C52  1  0.76638000  0.93348000  0.90955000  1.0
  C  C53  1  0.23362000  0.06652000  0.09045000  1.0
  C  C54  1  0.41968000  0.65112000  0.25845000  1.0
  C  C55  1  0.58030000  0.34890000  0.74154000  1.0
  C  C56  1  0.51630000  0.51692000  0.31286000  1.0
  C  C57  1  0.48369000  0.48309000  0.68713000  1.0
  C  C58  1  0.27901000  0.52683000  0.41205000  1.0
  C  C59  1  0.72098000  0.47317000  0.58794000  1.0
  C  C60  1  0.47536000  0.29155000  0.49282000  1.0
  C  C61  1  0.52464000  0.70846000  0.50717000  1.0
  C  C62  1  0.61251000  0.20460000  0.46711000  1.0
  C  C63  1  0.38750000  0.79540000  0.53288000  1.0
  C  C64  1  0.65168000  0.05979000  0.54883000  1.0
  C  C65  1  0.34833000  0.94022000  0.45117000  1.0
  C  C66  1  0.55379000  0.00817000  0.65343000  1.0
  C  C67  1  0.44622000  0.99184000  0.34657000  1.0
  C  C68  1  0.38569000  0.23233000  0.60119000  1.0
  C  C69  1  0.61432000  0.76768000  0.39881000  1.0
  C  C70  1  0.85712000  0.98641000  0.41137000  1.0
  C  C71  1  0.14289000  0.01359000  0.58863000  1.0
  C  C72  1  0.84465000  0.82260000  0.60589000  1.0
  C  C73  1  0.15534000  0.17740000  0.39411000  1.0
  C  C74  1  0.95471000  0.76472000  0.53853000  1.0
  C  C75  1  0.04528000  0.23527000  0.46147000  1.0
  N  N76  1  0.27311000  0.65585000  0.32092000  1.0
  N  N77  1  0.72688000  0.34415000  0.67908000  1.0
  N  N78  1  0.42645000  0.43760000  0.41120000  1.0
  N  N79  1  0.57355000  0.56241000  0.58879000  1.0
  N  N80  1  0.42555000  0.09349000  0.67871000  1.0
  N  N81  1  0.57446000  0.90652000  0.32129000  1.0
  N  N82  1  0.78256000  0.96396000  0.52430000  1.0
  N  N83  1  0.21744000  0.03604000  0.47570000  1.0
  N  N84  1  0.96056000  0.86809000  0.41750000  1.0
  N  N85  1  0.03944000  0.13191000  0.58251000  1.0
  O  O86  1  0.96534000  0.75156000  0.13098000  1.0
  O  O87  1  0.03464000  0.24843000  0.86903000  1.0
  O  O88  1  0.90978000  0.57461000  0.31257000  1.0
  O  O89  1  0.09019000  0.42539000  0.68744000  1.0
  O  O90  1  0.83815000  0.91066000  0.81974000  1.0
  O  O91  1  0.16186000  0.08934000  0.18026000  1.0
  O  O92  1  0.76862000  0.04628000  0.92591000  1.0
  O  O93  1  0.23138000  0.95371000  0.07409000  1.0
  O  O94  1  0.80434000  0.03121000  0.15269000  1.0
  O  O95  1  0.19566000  0.96880000  0.84731000  1.0
