# generated using pymatgen
data_ZnH18C28O5
_symmetry_space_group_name_H-M   'P 1'
_cell_length_a   9.10216000
_cell_length_b   12.81830000
_cell_length_c   15.00810000
_cell_angle_alpha   72.88470000
_cell_angle_beta   88.38150000
_cell_angle_gamma   69.28610000
_symmetry_Int_Tables_number   1
_chemical_formula_structural   ZnH18C28O5
_chemical_formula_sum   'Zn2 H36 C56 O10'
_cell_volume   1559.68832281
_cell_formula_units_Z   2
loop_
 _symmetry_equiv_pos_site_id
 _symmetry_equiv_pos_as_xyz
  1  'x, y, z'
loop_
 _atom_site_type_symbol
 _atom_site_label
 _atom_site_symmetry_multiplicity
 _atom_site_fract_x
 _atom_site_fract_y
 _atom_site_fract_z
 _atom_site_occupancy
  Zn  Zn0  1  0.15434000  0.95129000  0.03059000  1.0
  Zn  Zn1  1  0.84566000  0.04870000  0.96941000  1.0
  H  H2  1  0.38314000  0.76405000  0.05322000  1.0
  H  H3  1  0.61686000  0.23595000  0.94678000  1.0
  H  H4  1  0.44478000  0.86161000  0.99991000  1.0
  H  H5  1  0.55521000  0.13839000  0.00009000  1.0
  H  H6  1  0.13804000  0.65748000  0.25490000  1.0
  H  H7  1  0.86196000  0.34253000  0.74510000  1.0
  H  H8  1  0.09796000  0.48241000  0.36398000  1.0
  H  H9  1  0.90203000  0.51759000  0.63603000  1.0
  H  H10  1  0.64253000  0.58761000  0.22010000  1.0
  H  H11  1  0.35747000  0.41239000  0.77991000  1.0
  H  H12  1  0.67799000  0.76791000  0.11697000  1.0
  H  H13  1  0.32200000  0.23209000  0.88302000  1.0
  H  H14  1  0.77287000  0.65067000  0.39712000  1.0
  H  H15  1  0.22713000  0.34933000  0.60288000  1.0
  H  H16  1  0.65082000  0.77667000  0.49562000  1.0
  H  H17  1  0.34918000  0.22333000  0.50438000  1.0
  H  H18  1  0.54154000  0.70076000  0.64283000  1.0
  H  H19  1  0.45846000  0.29925000  0.35717000  1.0
  H  H20  1  0.55282000  0.49347000  0.69425000  1.0
  H  H21  1  0.44718000  0.50653000  0.30575000  1.0
  H  H22  1  0.60905000  0.27328000  0.72260000  1.0
  H  H23  1  0.39095000  0.72672000  0.27741000  1.0
  H  H24  1  0.69079000  0.06846000  0.71961000  1.0
  H  H25  1  0.30921000  0.93154000  0.28039000  1.0
  H  H26  1  0.82266000  0.01141000  0.58497000  1.0
  H  H27  1  0.17735000  0.98859000  0.41503000  1.0
  H  H28  1  0.87687000  0.15745000  0.45202000  1.0
  H  H29  1  0.12313000  0.84255000  0.54798000  1.0
  H  H30  1  0.13750000  0.28244000  0.31739000  1.0
  H  H31  1  0.86251000  0.71756000  0.68261000  1.0
  H  H32  1  0.18717000  0.14877000  0.21848000  1.0
  H  H33  1  0.81284000  0.85124000  0.78152000  1.0
  H  H34  1  0.69160000  0.21835000  0.18676000  1.0
  H  H35  1  0.30840000  0.78165000  0.81323000  1.0
  H  H36  1  0.64195000  0.34670000  0.29008000  1.0
  H  H37  1  0.35805000  0.65330000  0.70992000  1.0
  C  C38  1  0.93636000  0.82650000  0.11319000  1.0
  C  C39  1  0.06363000  0.17350000  0.88681000  1.0
  C  C40  1  0.91173000  0.72212000  0.17837000  1.0
  C  C41  1  0.08827000  0.27788000  0.82163000  1.0
  C  C42  1  0.02988000  0.64144000  0.24800000  1.0
  C  C43  1  0.97011000  0.35856000  0.75201000  1.0
  C  C44  1  0.00769000  0.54354000  0.30838000  1.0
  C  C45  1  0.99230000  0.45646000  0.69163000  1.0
  C  C46  1  0.86868000  0.52292000  0.29845000  1.0
  C  C47  1  0.13132000  0.47708000  0.70156000  1.0
  C  C48  1  0.75096000  0.60340000  0.22796000  1.0
  C  C49  1  0.24904000  0.39659000  0.77204000  1.0
  C  C50  1  0.77093000  0.70333000  0.16970000  1.0
  C  C51  1  0.22907000  0.29667000  0.83030000  1.0
  C  C52  1  0.84885000  0.41430000  0.35884000  1.0
  C  C53  1  0.15115000  0.58570000  0.64117000  1.0
  C  C54  1  0.79319000  0.40447000  0.44471000  1.0
  C  C55  1  0.20681000  0.59553000  0.55529000  1.0
  C  C56  1  0.73267000  0.49901000  0.48919000  1.0
  C  C57  1  0.26733000  0.50099000  0.51081000  1.0
  C  C58  1  0.72566000  0.61486000  0.46133000  1.0
  C  C59  1  0.27434000  0.38513000  0.53867000  1.0
  C  C60  1  0.65695000  0.68616000  0.51752000  1.0
  C  C61  1  0.34305000  0.31384000  0.48248000  1.0
  C  C62  1  0.59491000  0.64308000  0.60060000  1.0
  C  C63  1  0.40509000  0.35692000  0.39940000  1.0
  C  C64  1  0.60085000  0.52737000  0.62929000  1.0
  C  C65  1  0.39915000  0.47263000  0.37071000  1.0
  C  C66  1  0.67023000  0.45546000  0.57406000  1.0
  C  C67  1  0.32977000  0.54454000  0.42594000  1.0
  C  C68  1  0.69709000  0.33195000  0.58830000  1.0
  C  C69  1  0.30291000  0.66805000  0.41170000  1.0
  C  C70  1  0.66594000  0.24947000  0.66276000  1.0
  C  C71  1  0.33406000  0.75053000  0.33725000  1.0
  C  C72  1  0.71085000  0.13416000  0.66065000  1.0
  C  C73  1  0.28915000  0.86584000  0.33935000  1.0
  C  C74  1  0.78601000  0.10215000  0.58493000  1.0
  C  C75  1  0.21399000  0.89785000  0.41507000  1.0
  C  C76  1  0.81723000  0.18445000  0.50984000  1.0
  C  C77  1  0.18277000  0.81555000  0.49016000  1.0
  C  C78  1  0.77236000  0.30020000  0.51096000  1.0
  C  C79  1  0.22764000  0.69981000  0.48904000  1.0
  C  C80  1  0.88557000  0.32355000  0.31014000  1.0
  C  C81  1  0.11443000  0.67645000  0.68986000  1.0
  C  C82  1  0.03982000  0.26706000  0.28996000  1.0
  C  C83  1  0.96018000  0.73294000  0.71004000  1.0
  C  C84  1  0.06789000  0.19294000  0.23452000  1.0
  C  C85  1  0.93211000  0.80706000  0.76547000  1.0
  C  C86  1  0.94245000  0.17637000  0.19595000  1.0
  C  C87  1  0.05755000  0.82364000  0.80404000  1.0
  C  C88  1  0.78870000  0.23179000  0.21666000  1.0
  C  C89  1  0.21130000  0.76821000  0.78333000  1.0
  C  C90  1  0.76110000  0.30347000  0.27381000  1.0
  C  C91  1  0.23890000  0.69653000  0.72619000  1.0
  C  C92  1  0.97053000  0.10489000  0.13014000  1.0
  C  C93  1  0.02946000  0.89511000  0.86985000  1.0
  O  O94  1  0.07720000  0.82590000  0.11112000  1.0
  O  O95  1  0.92281000  0.17409000  0.88888000  1.0
  O  O96  1  0.81574000  0.90830000  0.06356000  1.0
  O  O97  1  0.18427000  0.09170000  0.93644000  1.0
  O  O98  1  0.85064000  0.11557000  0.08118000  1.0
  O  O99  1  0.14936000  0.88444000  0.91881000  1.0
  O  O100  1  0.11248000  0.03985000  0.12623000  1.0
  O  O101  1  0.88753000  0.96014000  0.87377000  1.0
  O  O102  1  0.39441000  0.83598000  0.05618000  1.0
  O  O103  1  0.60559000  0.16402000  0.94382000  1.0
