# generated using pymatgen
data_LaH27C16O9
_symmetry_space_group_name_H-M   'P 1'
_cell_length_a   8.59176000
_cell_length_b   8.97834000
_cell_length_c   13.09200000
_cell_angle_alpha   100.71000000
_cell_angle_beta   103.64400000
_cell_angle_gamma   97.93460000
_symmetry_Int_Tables_number   1
_chemical_formula_structural   LaH27C16O9
_chemical_formula_sum   'La2 H54 C32 O18'
_cell_volume   946.66249880
_cell_formula_units_Z   2
loop_
 _symmetry_equiv_pos_site_id
 _symmetry_equiv_pos_as_xyz
  1  'x, y, z'
loop_
 _atom_site_type_symbol
 _atom_site_label
 _atom_site_symmetry_multiplicity
 _atom_site_fract_x
 _atom_site_fract_y
 _atom_site_fract_z
 _atom_site_occupancy
  La  La0  1  0.75072000  0.98295000  0.00417000  1.0
  La  La1  1  0.24928000  0.01705000  0.99583000  1.0
  H  H2  1  0.73719000  0.54864000  0.96328000  1.0
  H  H3  1  0.26281000  0.45135000  0.03672000  1.0
  H  H4  1  0.15982000  0.66116000  0.19530000  1.0
  H  H5  1  0.84019000  0.33884000  0.80470000  1.0
  H  H6  1  0.00686000  0.57765000  0.24704000  1.0
  H  H7  1  0.99314000  0.42235000  0.75296000  1.0
  H  H8  1  0.14771000  0.92422000  0.28932000  1.0
  H  H9  1  0.85229000  0.07578000  0.71068000  1.0
  H  H10  1  0.97977000  0.85139000  0.33312000  1.0
  H  H11  1  0.02023000  0.14861000  0.66688000  1.0
  H  H12  1  0.15622000  0.69692000  0.43855000  1.0
  H  H13  1  0.84378000  0.30308000  0.56145000  1.0
  H  H14  1  0.32465000  0.78069000  0.39929000  1.0
  H  H15  1  0.67535000  0.21931000  0.60071000  1.0
  H  H16  1  0.12650000  0.96063000  0.52756000  1.0
  H  H17  1  0.87351000  0.03938000  0.47244000  1.0
  H  H18  1  0.29782000  0.04407000  0.49118000  1.0
  H  H19  1  0.70219000  0.95594000  0.50882000  1.0
  H  H20  1  0.30111000  0.80743000  0.63323000  1.0
  H  H21  1  0.69889000  0.19257000  0.36676000  1.0
  H  H22  1  0.47384000  0.89833000  0.60100000  1.0
  H  H23  1  0.52617000  0.10167000  0.39900000  1.0
  H  H24  1  0.43048000  0.15678000  0.69296000  1.0
  H  H25  1  0.56952000  0.84322000  0.30704000  1.0
  H  H26  1  0.26594000  0.06078000  0.73168000  1.0
  H  H27  1  0.73406000  0.93921000  0.26832000  1.0
  H  H28  1  0.21011000  0.37965000  0.25283000  1.0
  H  H29  1  0.78989000  0.62035000  0.74717000  1.0
  H  H30  1  0.26641000  0.20574000  0.27658000  1.0
  H  H31  1  0.73359000  0.79426000  0.72342000  1.0
  H  H32  1  0.07590000  0.19510000  0.39976000  1.0
  H  H33  1  0.92410000  0.80490000  0.60024000  1.0
  H  H34  1  0.03415000  0.37574000  0.38110000  1.0
  H  H35  1  0.96585000  0.62426000  0.61890000  1.0
  H  H36  1  0.33276000  0.49351000  0.45827000  1.0
  H  H37  1  0.66724000  0.50648000  0.54173000  1.0
  H  H38  1  0.37503000  0.31174000  0.47472000  1.0
  H  H39  1  0.62497000  0.68826000  0.52528000  1.0
  H  H40  1  0.15756000  0.48974000  0.58657000  1.0
  H  H41  1  0.84244000  0.51026000  0.41343000  1.0
  H  H42  1  0.19437000  0.30507000  0.60087000  1.0
  H  H43  1  0.80563000  0.69492000  0.39913000  1.0
  H  H44  1  0.45596000  0.60008000  0.66109000  1.0
  H  H45  1  0.54404000  0.39992000  0.33891000  1.0
  H  H46  1  0.49568000  0.41550000  0.67290000  1.0
  H  H47  1  0.50432000  0.58450000  0.32710000  1.0
  H  H48  1  0.28427000  0.59338000  0.79205000  1.0
  H  H49  1  0.71573000  0.40662000  0.20795000  1.0
  H  H50  1  0.32329000  0.40462000  0.80216000  1.0
  H  H51  1  0.67671000  0.59538000  0.19784000  1.0
  H  H52  1  0.84598000  0.36510000  0.02596000  1.0
  H  H53  1  0.15402000  0.63489000  0.97404000  1.0
  H  H54  1  0.67158000  0.29048000  0.95373000  1.0
  H  H55  1  0.32842000  0.70951000  0.04627000  1.0
  C  C56  1  0.92306000  0.69188000  0.12246000  1.0
  C  C57  1  0.07694000  0.30812000  0.87754000  1.0
  C  C58  1  0.05073000  0.68266000  0.22181000  1.0
  C  C59  1  0.94927000  0.31735000  0.77819000  1.0
  C  C60  1  0.09274000  0.82419000  0.31467000  1.0
  C  C61  1  0.90726000  0.17581000  0.68533000  1.0
  C  C62  1  0.20846000  0.80170000  0.41615000  1.0
  C  C63  1  0.79154000  0.19831000  0.58385000  1.0
  C  C64  1  0.24312000  0.93894000  0.51194000  1.0
  C  C65  1  0.75688000  0.06106000  0.48806000  1.0
  C  C66  1  0.35463000  0.91423000  0.61416000  1.0
  C  C67  1  0.64538000  0.08577000  0.38584000  1.0
  C  C68  1  0.38097000  0.04779000  0.71149000  1.0
  C  C69  1  0.61903000  0.95220000  0.28851000  1.0
  C  C70  1  0.50238000  0.02869000  0.80985000  1.0
  C  C71  1  0.49761000  0.97131000  0.19015000  1.0
  C  C72  1  0.02515000  0.18177000  0.18248000  1.0
  C  C73  1  0.97485000  0.81823000  0.81752000  1.0
  C  C74  1  0.16704000  0.27138000  0.27467000  1.0
  C  C75  1  0.83296000  0.72862000  0.72533000  1.0
  C  C76  1  0.12883000  0.30431000  0.38354000  1.0
  C  C77  1  0.87117000  0.69569000  0.61646000  1.0
  C  C78  1  0.28064000  0.38379000  0.47438000  1.0
  C  C79  1  0.71936000  0.61621000  0.52562000  1.0
  C  C80  1  0.24874000  0.41450000  0.58535000  1.0
  C  C81  1  0.75126000  0.58550000  0.41465000  1.0
  C  C82  1  0.40337000  0.48920000  0.67513000  1.0
  C  C83  1  0.59663000  0.51080000  0.32487000  1.0
  C  C84  1  0.37184000  0.51585000  0.78717000  1.0
  C  C85  1  0.62816000  0.48415000  0.21283000  1.0
  C  C86  1  0.52810000  0.58848000  0.87224000  1.0
  C  C87  1  0.47190000  0.41151000  0.12776000  1.0
  O  O88  1  0.86870000  0.81500000  0.11845000  1.0
  O  O89  1  0.13130000  0.18500000  0.88155000  1.0
  O  O90  1  0.87518000  0.56943000  0.04623000  1.0
  O  O91  1  0.12482000  0.43057000  0.95377000  1.0
  O  O92  1  0.46817000  0.05143000  0.90196000  1.0
  O  O93  1  0.53183000  0.94857000  0.09804000  1.0
  O  O94  1  0.63794000  0.99413000  0.80320000  1.0
  O  O95  1  0.36206000  0.00587000  0.19680000  1.0
  O  O96  1  0.88164000  0.16263000  0.19262000  1.0
  O  O97  1  0.11836000  0.83737000  0.80738000  1.0
  O  O98  1  0.05368000  0.12460000  0.09149000  1.0
  O  O99  1  0.94632000  0.87539000  0.90852000  1.0
  O  O100  1  0.56472000  0.73044000  0.91022000  1.0
  O  O101  1  0.43528000  0.26956000  0.08978000  1.0
  O  O102  1  0.62465000  0.49290000  0.89931000  1.0
  O  O103  1  0.37535000  0.50710000  0.10069000  1.0
  O  O104  1  0.77340000  0.26392000  0.99016000  1.0
  O  O105  1  0.22660000  0.73608000  0.00984000  1.0
