# generated using pymatgen
data_HgH18C16(SN)4
_symmetry_space_group_name_H-M   'P 1'
_cell_length_a   9.39126000
_cell_length_b   9.88703000
_cell_length_c   10.72960000
_cell_angle_alpha   93.30110000
_cell_angle_beta   95.11870000
_cell_angle_gamma   111.34100000
_symmetry_Int_Tables_number   1
_chemical_formula_structural   HgH18C16(SN)4
_chemical_formula_sum   'Hg2 H36 C32 S8 N8'
_cell_volume   919.88348296
_cell_formula_units_Z   2
loop_
 _symmetry_equiv_pos_site_id
 _symmetry_equiv_pos_as_xyz
  1  'x, y, z'
loop_
 _atom_site_type_symbol
 _atom_site_label
 _atom_site_symmetry_multiplicity
 _atom_site_fract_x
 _atom_site_fract_y
 _atom_site_fract_z
 _atom_site_occupancy
  Hg  Hg0  1  0.44735000  0.44997000  0.77083000  1.0
  Hg  Hg1  1  0.55265000  0.55002000  0.22917000  1.0
  H  H2  1  0.61683000  0.06338000  0.07180000  1.0
  H  H3  1  0.38317000  0.93663000  0.92820000  1.0
  H  H4  1  0.63753000  0.21947000  0.17437000  1.0
  H  H5  1  0.36247000  0.78052000  0.82563000  1.0
  H  H6  1  0.80013000  0.16858000  0.15680000  1.0
  H  H7  1  0.19987000  0.83142000  0.84320000  1.0
  H  H8  1  0.97712000  0.33971000  0.05539000  1.0
  H  H9  1  0.02289000  0.66029000  0.94461000  1.0
  H  H10  1  0.91757000  0.38302000  0.90699000  1.0
  H  H11  1  0.08243000  0.61698000  0.09301000  1.0
  H  H12  1  0.15983000  0.26622000  0.93729000  1.0
  H  H13  1  0.84017000  0.73378000  0.06272000  1.0
  H  H14  1  0.19638000  0.05607000  0.82925000  1.0
  H  H15  1  0.80362000  0.94393000  0.17075000  1.0
  H  H16  1  0.72530000  0.82082000  0.76594000  1.0
  H  H17  1  0.27470000  0.17918000  0.23406000  1.0
  H  H18  1  0.66902000  0.02404000  0.86709000  1.0
  H  H19  1  0.33098000  0.97596000  0.13291000  1.0
  H  H20  1  0.97819000  0.55944000  0.69300000  1.0
  H  H21  1  0.02181000  0.44056000  0.30700000  1.0
  H  H22  1  0.91664000  0.60912000  0.54658000  1.0
  H  H23  1  0.08336000  0.39088000  0.45342000  1.0
  H  H24  1  0.01570000  0.74702000  0.67251000  1.0
  H  H25  1  0.98430000  0.25298000  0.32750000  1.0
  H  H26  1  0.09514000  0.72837000  0.41211000  1.0
  H  H27  1  0.90486000  0.27163000  0.58790000  1.0
  H  H28  1  0.28494000  0.72592000  0.43268000  1.0
  H  H29  1  0.71506000  0.27407000  0.56732000  1.0
  H  H30  1  0.08518000  0.96764000  0.42887000  1.0
  H  H31  1  0.91483000  0.03236000  0.57113000  1.0
  H  H32  1  0.18746000  0.22367000  0.53216000  1.0
  H  H33  1  0.81254000  0.77632000  0.46784000  1.0
  H  H34  1  0.54164000  0.15661000  0.74245000  1.0
  H  H35  1  0.45837000  0.84339000  0.25754000  1.0
  H  H36  1  0.45507000  0.89687000  0.64831000  1.0
  H  H37  1  0.54494000  0.10313000  0.35169000  1.0
  C  C38  1  0.64000000  0.32553000  0.95331000  1.0
  C  C39  1  0.36000000  0.67447000  0.04669000  1.0
  C  C40  1  0.69511000  0.17442000  0.10853000  1.0
  C  C41  1  0.30489000  0.82558000  0.89147000  1.0
  C  C42  1  0.89144000  0.29692000  0.97148000  1.0
  C  C43  1  0.10856000  0.70308000  0.02852000  1.0
  C  C44  1  0.91051000  0.16497000  0.90890000  1.0
  C  C45  1  0.08949000  0.83504000  0.09110000  1.0
  C  C46  1  0.05980000  0.17054000  0.89811000  1.0
  C  C47  1  0.94020000  0.82947000  0.10189000  1.0
  C  C48  1  0.07998000  0.05142000  0.83843000  1.0
  C  C49  1  0.92003000  0.94858000  0.16156000  1.0
  C  C50  1  0.82001000  0.92227000  0.80299000  1.0
  C  C51  1  0.17999000  0.07774000  0.19701000  1.0
  C  C52  1  0.78814000  0.03733000  0.85947000  1.0
  C  C53  1  0.21186000  0.96268000  0.14052000  1.0
  C  C54  1  0.24595000  0.58696000  0.62754000  1.0
  C  C55  1  0.75405000  0.41304000  0.37246000  1.0
  C  C56  1  0.00821000  0.64182000  0.62601000  1.0
  C  C57  1  0.99179000  0.35818000  0.37399000  1.0
  C  C58  1  0.19797000  0.75211000  0.48037000  1.0
  C  C59  1  0.80203000  0.24789000  0.51963000  1.0
  C  C60  1  0.25995000  0.91000000  0.53295000  1.0
  C  C61  1  0.74005000  0.09000000  0.46706000  1.0
  C  C62  1  0.18656000  0.00450000  0.49837000  1.0
  C  C63  1  0.81344000  0.99550000  0.50163000  1.0
  C  C64  1  0.24324000  0.14729000  0.55533000  1.0
  C  C65  1  0.75676000  0.85271000  0.44467000  1.0
  C  C66  1  0.44006000  0.10935000  0.67311000  1.0
  C  C67  1  0.55994000  0.89064000  0.32689000  1.0
  C  C68  1  0.39177000  0.96572000  0.62107000  1.0
  C  C69  1  0.60823000  0.03428000  0.37893000  1.0
  S  S70  1  0.45994000  0.27904000  0.99496000  1.0
  S  S71  1  0.54006000  0.72096000  0.00504000  1.0
  S  S72  1  0.70484000  0.44672000  0.83965000  1.0
  S  S73  1  0.29515000  0.55328000  0.16035000  1.0
  S  S74  1  0.42078000  0.61542000  0.57649000  1.0
  S  S75  1  0.57922000  0.38458000  0.42352000  1.0
  S  S76  1  0.18293000  0.46609000  0.74073000  1.0
  S  S77  1  0.81707000  0.53391000  0.25928000  1.0
  N  N78  1  0.73859000  0.26929000  0.00787000  1.0
  N  N79  1  0.26141000  0.73071000  0.99213000  1.0
  N  N80  1  0.96309000  0.92773000  0.79106000  1.0
  N  N81  1  0.03690000  0.07227000  0.20894000  1.0
  N  N82  1  0.15372000  0.65367000  0.57989000  1.0
  N  N83  1  0.84628000  0.34633000  0.42010000  1.0
  N  N84  1  0.36625000  0.19841000  0.64231000  1.0
  N  N85  1  0.63375000  0.80159000  0.35769000  1.0
