# generated using pymatgen
data_Zn4H39C54N11O20
_symmetry_space_group_name_H-M   'P 1'
_cell_length_a   9.74130000
_cell_length_b   11.07160000
_cell_length_c   22.28550000
_cell_angle_alpha   89.72170000
_cell_angle_beta   88.93810000
_cell_angle_gamma   89.66130000
_symmetry_Int_Tables_number   1
_chemical_formula_structural   Zn4H39C54N11O20
_chemical_formula_sum   'Zn4 H39 C54 N11 O20'
_cell_volume   2403.04890607
_cell_formula_units_Z   1
loop_
 _symmetry_equiv_pos_site_id
 _symmetry_equiv_pos_as_xyz
  1  'x, y, z'
loop_
 _atom_site_type_symbol
 _atom_site_label
 _atom_site_symmetry_multiplicity
 _atom_site_fract_x
 _atom_site_fract_y
 _atom_site_fract_z
 _atom_site_occupancy
  Zn  Zn0  1  0.64458000  0.50346000  0.49589000  1.0
  Zn  Zn1  1  0.35862000  0.50018000  0.50096000  1.0
  Zn  Zn2  1  0.35142000  0.51104000  0.99493000  1.0
  Zn  Zn3  1  0.63845000  0.50523000  0.99679000  1.0
  H  H4  1  0.14365000  0.36805000  0.43234000  1.0
  H  H5  1  0.10729000  0.61183000  0.63117000  1.0
  H  H6  1  0.12717000  0.73429000  0.57899000  1.0
  H  H7  1  0.86881000  0.74477000  0.56843000  1.0
  H  H8  1  0.84931000  0.62408000  0.62124000  1.0
  H  H9  1  0.71372000  0.87863000  0.49873000  1.0
  H  H10  1  0.17295000  0.90034000  0.45717000  1.0
  H  H11  1  0.16908000  0.90640000  0.53728000  1.0
  H  H12  1  0.18370000  0.13183000  0.53336000  1.0
  H  H13  1  0.19090000  0.12705000  0.45329000  1.0
  H  H14  1  0.68689000  0.33786000  0.86016000  1.0
  H  H15  1  0.69076000  0.32766000  0.63666000  1.0
  H  H16  1  0.34525000  0.62072000  0.68941000  1.0
  H  H17  1  0.34125000  0.62473000  0.80163000  1.0
  H  H18  1  0.27705000  0.49610000  0.19132000  1.0
  H  H19  1  0.82349000  0.42088000  0.18924000  1.0
  H  H20  1  0.81416000  0.58192000  0.18995000  1.0
  H  H21  1  0.80955000  0.57729000  0.30339000  1.0
  H  H22  1  0.81826000  0.41658000  0.30137000  1.0
  H  H23  1  0.85642000  0.38424000  0.06811000  1.0
  H  H24  1  0.87990000  0.60620000  0.86137000  1.0
  H  H25  1  0.86589000  0.73348000  0.91029000  1.0
  H  H26  1  0.12539000  0.74021000  0.91636000  1.0
  H  H27  1  0.13845000  0.61220000  0.86788000  1.0
  H  H28  1  0.27948000  0.88822000  0.99070000  1.0
  H  H29  1  0.81602000  0.90006000  0.04039000  1.0
  H  H30  1  0.82678000  0.90544000  0.96032000  1.0
  H  H31  1  0.81521000  0.13118000  0.96255000  1.0
  H  H32  1  0.80060000  0.12760000  0.04247000  1.0
  H  H33  1  0.77160000  0.37768000  0.40559000  1.0
  H  H34  1  0.92803000  0.30341000  0.38970000  1.0
  H  H35  1  0.75742000  0.20025000  0.50906000  1.0
  H  H36  1  0.83368000  0.06055000  0.51717000  1.0
  H  H37  1  0.24406000  0.51866000  0.35163000  1.0
  H  H38  1  0.16101000  0.52220000  0.28339000  1.0
  H  H39  1  0.22962000  0.39437000  0.09135000  1.0
  H  H40  1  0.07375000  0.32258000  0.11079000  1.0
  H  H41  1  0.23841000  0.21204000  0.98035000  1.0
  H  H42  1  0.15942000  0.07210000  0.97352000  1.0
  C  C43  1  0.49219000  0.73590000  0.49818000  1.0
  C  C44  1  0.50849000  0.49643000  0.61614000  1.0
  C  C45  1  0.50569000  0.26516000  0.49800000  1.0
  C  C46  1  0.49675000  0.49467000  0.37862000  1.0
  C  C47  1  0.49943000  0.74202000  0.99634000  1.0
  C  C48  1  0.49719000  0.50661000  0.87771000  1.0
  C  C49  1  0.49133000  0.27108000  0.99370000  1.0
  C  C50  1  0.49845000  0.49669000  0.11513000  1.0
  C  C51  1  0.06884000  0.56128000  0.53730000  1.0
  C  C52  1  0.93555000  0.42910000  0.45651000  1.0
  C  C53  1  0.92762000  0.56577000  0.53229000  1.0
  C  C54  1  0.08146000  0.42546000  0.46191000  1.0
  C  C55  1  0.07212000  0.65002000  0.58852000  1.0
  C  C56  1  0.90956000  0.65653000  0.58240000  1.0
  C  C57  1  0.49415000  0.87066000  0.49820000  1.0
  C  C58  1  0.50691000  0.13178000  0.49705000  1.0
  C  C59  1  0.37530000  0.94232000  0.49711000  1.0
  C  C60  1  0.62947000  0.05944000  0.49899000  1.0
  C  C61  1  0.38375000  0.06761000  0.49578000  1.0
  C  C62  1  0.61925000  0.93206000  0.49882000  1.0
  C  C63  1  0.21955000  0.94227000  0.49646000  1.0
  C  C64  1  0.22934000  0.08472000  0.49448000  1.0
  C  C65  1  0.50336000  0.49609000  0.81054000  1.0
  C  C66  1  0.59760000  0.41710000  0.78012000  1.0
  C  C67  1  0.41350000  0.56619000  0.77754000  1.0
  C  C68  1  0.68716000  0.33796000  0.81136000  1.0
  C  C69  1  0.77249000  0.25948000  0.78081000  1.0
  C  C70  1  0.50774000  0.49071000  0.68345000  1.0
  C  C71  1  0.41571000  0.56389000  0.71462000  1.0
  C  C72  1  0.59856000  0.41357000  0.71558000  1.0
  C  C73  1  0.68731000  0.33047000  0.68550000  1.0
  C  C74  1  0.77253000  0.25539000  0.71724000  1.0
  C  C75  1  0.49668000  0.49395000  0.18211000  1.0
  C  C76  1  0.49308000  0.49178000  0.31220000  1.0
  C  C77  1  0.61742000  0.49355000  0.21500000  1.0
  C  C78  1  0.36820000  0.49384000  0.27896000  1.0
  C  C79  1  0.61409000  0.49162000  0.27739000  1.0
  C  C80  1  0.37357000  0.49372000  0.21547000  1.0
  C  C81  1  0.77256000  0.49913000  0.21052000  1.0
  C  C82  1  0.76941000  0.49647000  0.28144000  1.0
  C  C83  1  0.92516000  0.56356000  0.95605000  1.0
  C  C84  1  0.06317000  0.44019000  0.03993000  1.0
  C  C85  1  0.06653000  0.56714000  0.95950000  1.0
  C  C86  1  0.91714000  0.43677000  0.03585000  1.0
  C  C87  1  0.91904000  0.64721000  0.90236000  1.0
  C  C88  1  0.08203000  0.65144000  0.90621000  1.0
  C  C89  1  0.49856000  0.87665000  0.99471000  1.0
  C  C90  1  0.48885000  0.13776000  0.99403000  1.0
  C  C91  1  0.61808000  0.94590000  0.99687000  1.0
  C  C92  1  0.36557000  0.06776000  0.99071000  1.0
  C  C93  1  0.61110000  0.07133000  0.99714000  1.0
  C  C94  1  0.37427000  0.94015000  0.99164000  1.0
  C  C95  1  0.77348000  0.94275000  0.00010000  1.0
  C  C96  1  0.76539000  0.08544000  0.00096000  1.0
  N  N97  1  0.14841000  0.49199000  0.50187000  1.0
  N  N98  1  0.85631000  0.50207000  0.49299000  1.0
  N  N99  1  0.84792000  0.49868000  0.99439000  1.0
  N  N100  1  0.14021000  0.50765000  0.00011000  1.0
  N  N101  1  0.87257000  0.36137000  0.41543000  1.0
  N  N102  1  0.75790000  0.11072000  0.49868000  1.0
  N  N103  1  0.24151000  0.49285000  0.30776000  1.0
  N  N104  1  0.12788000  0.37796000  0.08322000  1.0
  N  N105  1  0.23834000  0.12160000  0.98883000  1.0
  N  N106  1  0.85080000  0.17189000  0.81670000  1.0
  N  N107  1  0.87235000  0.18160000  0.68304000  1.0
  O  O108  1  0.60701000  0.68155000  0.48947000  1.0
  O  O109  1  0.37662000  0.68466000  0.50668000  1.0
  O  O110  1  0.39220000  0.48758000  0.59178000  1.0
  O  O111  1  0.62393000  0.51193000  0.58977000  1.0
  O  O112  1  0.39082000  0.31857000  0.49050000  1.0
  O  O113  1  0.61929000  0.32077000  0.50681000  1.0
  O  O114  1  0.61268000  0.47600000  0.40358000  1.0
  O  O115  1  0.38540000  0.51712000  0.40800000  1.0
  O  O116  1  0.38307000  0.68948000  0.00054000  1.0
  O  O117  1  0.61588000  0.68922000  0.99365000  1.0
  O  O118  1  0.61079000  0.50048000  0.90483000  1.0
  O  O119  1  0.37903000  0.52208000  0.90153000  1.0
  O  O120  1  0.60732000  0.32219000  0.99977000  1.0
  O  O121  1  0.37746000  0.32880000  0.98699000  1.0
  O  O122  1  0.38397000  0.48714000  0.08825000  1.0
  O  O123  1  0.61483000  0.50903000  0.08928000  1.0
  O  O124  1  0.90699000  0.21006000  0.86228000  1.0
  O  O125  1  0.85059000  0.06543000  0.79992000  1.0
  O  O126  1  0.83250000  0.13376000  0.63629000  1.0
  O  O127  1  0.99073000  0.17625000  0.70230000  1.0
