# generated using pymatgen
data_CuH5C9N3O2
_symmetry_space_group_name_H-M   'P 1'
_cell_length_a   7.52265000
_cell_length_b   7.82228000
_cell_length_c   13.87100000
_cell_angle_alpha   90.00050000
_cell_angle_beta   90.00080000
_cell_angle_gamma   86.19250000
_symmetry_Int_Tables_number   1
_chemical_formula_structural   CuH5C9N3O2
_chemical_formula_sum   'Cu4 H20 C36 N12 O8'
_cell_volume   814.42734031
_cell_formula_units_Z   4
loop_
 _symmetry_equiv_pos_site_id
 _symmetry_equiv_pos_as_xyz
  1  'x, y, z'
loop_
 _atom_site_type_symbol
 _atom_site_label
 _atom_site_symmetry_multiplicity
 _atom_site_fract_x
 _atom_site_fract_y
 _atom_site_fract_z
 _atom_site_occupancy
  Cu  Cu0  1  0.94121000  0.70083000  0.58188000  1.0
  Cu  Cu1  1  0.55879000  0.29917000  0.08188000  1.0
  Cu  Cu2  1  0.05880000  0.29918000  0.41811000  1.0
  Cu  Cu3  1  0.44121000  0.70081000  0.91812000  1.0
  H  H4  1  0.58523000  0.06362000  0.34078000  1.0
  H  H5  1  0.91479000  0.93637000  0.84079000  1.0
  H  H6  1  0.41477000  0.93639000  0.65922000  1.0
  H  H7  1  0.08521000  0.06363000  0.15921000  1.0
  H  H8  1  0.55261000  0.32580000  0.43857000  1.0
  H  H9  1  0.94741000  0.67419000  0.93858000  1.0
  H  H10  1  0.44737000  0.67421000  0.56142000  1.0
  H  H11  1  0.05261000  0.32579000  0.06141000  1.0
  H  H12  1  0.86180000  0.05866000  0.66273000  1.0
  H  H13  1  0.63821000  0.94134000  0.16272000  1.0
  H  H14  1  0.13821000  0.94136000  0.33728000  1.0
  H  H15  1  0.36179000  0.05864000  0.83727000  1.0
  H  H16  1  0.69796000  0.33290000  0.60268000  1.0
  H  H17  1  0.80207000  0.66710000  0.10269000  1.0
  H  H18  1  0.30204000  0.66711000  0.39731000  1.0
  H  H19  1  0.19794000  0.33288000  0.89730000  1.0
  H  H20  1  0.64494000  0.73627000  0.25453000  1.0
  H  H21  1  0.85507000  0.26371000  0.75454000  1.0
  H  H22  1  0.35505000  0.26372000  0.74547000  1.0
  H  H23  1  0.14494000  0.73629000  0.24546000  1.0
  C  C24  1  0.64530000  0.06528000  0.41227000  1.0
  C  C25  1  0.85470000  0.93472000  0.91228000  1.0
  C  C26  1  0.35469000  0.93473000  0.58773000  1.0
  C  C27  1  0.14529000  0.06528000  0.08772000  1.0
  C  C28  1  0.73888000  0.92050000  0.45018000  1.0
  C  C29  1  0.76111000  0.07949000  0.95018000  1.0
  C  C30  1  0.26110000  0.07951000  0.54982000  1.0
  C  C31  1  0.23888000  0.92050000  0.04981000  1.0
  C  C32  1  0.62876000  0.21406000  0.46756000  1.0
  C  C33  1  0.87125000  0.78594000  0.96757000  1.0
  C  C34  1  0.37123000  0.78595000  0.53243000  1.0
  C  C35  1  0.12875000  0.21406000  0.03242000  1.0
  C  C36  1  0.79725000  0.06725000  0.59238000  1.0
  C  C37  1  0.70276000  0.93275000  0.09238000  1.0
  C  C38  1  0.20275000  0.93276000  0.40762000  1.0
  C  C39  1  0.29724000  0.06724000  0.90761000  1.0
  C  C40  1  0.70627000  0.21656000  0.55902000  1.0
  C  C41  1  0.79374000  0.78344000  0.05903000  1.0
  C  C42  1  0.29374000  0.78344000  0.44097000  1.0
  C  C43  1  0.20626000  0.21655000  0.94097000  1.0
  C  C44  1  0.77119000  0.75736000  0.40055000  1.0
  C  C45  1  0.72882000  0.24263000  0.90054000  1.0
  C  C46  1  0.22881000  0.24264000  0.59946000  1.0
  C  C47  1  0.27118000  0.75736000  0.09945000  1.0
  C  C48  1  0.82458000  0.52154000  0.31291000  1.0
  C  C49  1  0.67541000  0.47845000  0.81292000  1.0
  C  C50  1  0.17542000  0.47846000  0.68709000  1.0
  C  C51  1  0.32457000  0.52154000  0.18709000  1.0
  C  C52  1  0.73146000  0.68379000  0.31103000  1.0
  C  C53  1  0.76854000  0.31620000  0.81104000  1.0
  C  C54  1  0.26854000  0.31621000  0.68897000  1.0
  C  C55  1  0.23145000  0.68378000  0.18896000  1.0
  C  C56  1  0.86270000  0.37471000  0.24621000  1.0
  C  C57  1  0.63731000  0.62528000  0.74620000  1.0
  C  C58  1  0.13731000  0.62527000  0.75380000  1.0
  C  C59  1  0.36269000  0.37473000  0.25380000  1.0
  N  N60  1  0.81350000  0.92361000  0.53976000  1.0
  N  N61  1  0.68650000  0.07638000  0.03975000  1.0
  N  N62  1  0.18649000  0.07640000  0.46025000  1.0
  N  N63  1  0.31350000  0.92360000  0.96024000  1.0
  N  N64  1  0.87788000  0.64109000  0.45055000  1.0
  N  N65  1  0.62211000  0.35891000  0.95053000  1.0
  N  N66  1  0.12210000  0.35893000  0.54947000  1.0
  N  N67  1  0.37789000  0.64108000  0.04946000  1.0
  N  N68  1  0.90849000  0.50413000  0.39915000  1.0
  N  N69  1  0.59150000  0.49588000  0.89914000  1.0
  N  N70  1  0.09150000  0.49589000  0.60086000  1.0
  N  N71  1  0.40849000  0.50412000  0.10086000  1.0
  O  O72  1  0.95672000  0.24608000  0.28344000  1.0
  O  O73  1  0.54329000  0.75390000  0.78343000  1.0
  O  O74  1  0.04330000  0.75389000  0.71658000  1.0
  O  O75  1  0.45670000  0.24611000  0.21658000  1.0
  O  O76  1  0.81036000  0.38465000  0.16012000  1.0
  O  O77  1  0.68964000  0.61532000  0.66011000  1.0
  O  O78  1  0.18964000  0.61531000  0.83990000  1.0
  O  O79  1  0.31037000  0.38470000  0.33990000  1.0
