# generated using pymatgen
data_ZnPH8C7(NO2)2
_symmetry_space_group_name_H-M   'P 1'
_cell_length_a   8.00174000
_cell_length_b   8.31530000
_cell_length_c   14.11550000
_cell_angle_alpha   79.99160000
_cell_angle_beta   80.46130000
_cell_angle_gamma   75.77300000
_symmetry_Int_Tables_number   1
_chemical_formula_structural   ZnPH8C7(NO2)2
_chemical_formula_sum   'Zn4 P4 H32 C28 N8 O16'
_cell_volume   889.06738589
_cell_formula_units_Z   4
loop_
 _symmetry_equiv_pos_site_id
 _symmetry_equiv_pos_as_xyz
  1  'x, y, z'
loop_
 _atom_site_type_symbol
 _atom_site_label
 _atom_site_symmetry_multiplicity
 _atom_site_fract_x
 _atom_site_fract_y
 _atom_site_fract_z
 _atom_site_occupancy
  Zn  Zn0  1  0.41102000  0.64180000  0.39130000  1.0
  Zn  Zn1  1  0.58898000  0.35820000  0.60870000  1.0
  Zn  Zn2  1  0.92423000  0.12375000  0.38273000  1.0
  Zn  Zn3  1  0.07576000  0.87625000  0.61727000  1.0
  P  P4  1  0.78339000  0.51746000  0.41269000  1.0
  P  P5  1  0.21661000  0.48254000  0.58730000  1.0
  P  P6  1  0.28378000  0.02212000  0.43075000  1.0
  P  P7  1  0.71622000  0.97788000  0.56925000  1.0
  H  H8  1  0.87566000  0.73724000  0.43968000  1.0
  H  H9  1  0.12434000  0.26276000  0.56032000  1.0
  H  H10  1  0.46014000  0.17102000  0.45912000  1.0
  H  H11  1  0.53986000  0.82899000  0.54088000  1.0
  H  H12  1  0.45377000  0.39087000  0.87760000  1.0
  H  H13  1  0.54624000  0.60913000  0.12240000  1.0
  H  H14  1  0.29128000  0.53666000  0.01586000  1.0
  H  H15  1  0.70872000  0.46334000  0.98414000  1.0
  H  H16  1  0.05026000  0.12000000  0.12276000  1.0
  H  H17  1  0.94974000  0.88000000  0.87724000  1.0
  H  H18  1  0.21470000  0.97326000  0.98526000  1.0
  H  H19  1  0.78529000  0.02674000  0.01473000  1.0
  H  H20  1  0.46774000  0.18505000  0.77563000  1.0
  H  H21  1  0.53225000  0.81495000  0.22437000  1.0
  H  H22  1  0.57908000  0.01963000  0.85572000  1.0
  H  H23  1  0.42091000  0.98037000  0.14428000  1.0
  H  H24  1  0.20871000  0.14110000  0.70645000  1.0
  H  H25  1  0.79128000  0.85890000  0.29355000  1.0
  H  H26  1  0.30363000  0.61418000  0.77248000  1.0
  H  H27  1  0.69637000  0.38582000  0.22752000  1.0
  H  H28  1  0.49660000  0.73632000  0.88184000  1.0
  H  H29  1  0.50340000  0.26368000  0.11816000  1.0
  H  H30  1  0.92668000  0.48753000  0.14662000  1.0
  H  H31  1  0.07333000  0.51246000  0.85339000  1.0
  H  H32  1  0.03788000  0.32492000  0.22698000  1.0
  H  H33  1  0.96214000  0.67507000  0.77302000  1.0
  H  H34  1  0.27899000  0.38003000  0.30770000  1.0
  H  H35  1  0.72102000  0.61997000  0.69230000  1.0
  H  H36  1  0.19140000  0.90214000  0.22406000  1.0
  H  H37  1  0.80859000  0.09787000  0.77594000  1.0
  H  H38  1  0.01665000  0.76721000  0.11100000  1.0
  H  H39  1  0.98334000  0.23278000  0.88900000  1.0
  C  C40  1  0.34594000  0.17242000  0.92218000  1.0
  C  C41  1  0.65405000  0.82758000  0.07781000  1.0
  C  C42  1  0.36610000  0.33106000  0.93210000  1.0
  C  C43  1  0.63389000  0.66894000  0.06790000  1.0
  C  C44  1  0.27440000  0.41270000  0.00980000  1.0
  C  C45  1  0.72560000  0.58730000  0.99020000  1.0
  C  C46  1  0.16036000  0.33725000  0.07935000  1.0
  C  C47  1  0.83964000  0.66275000  0.92064000  1.0
  C  C48  1  0.13925000  0.17919000  0.06888000  1.0
  C  C49  1  0.86075000  0.82081000  0.93112000  1.0
  C  C50  1  0.23134000  0.09730000  0.99141000  1.0
  C  C51  1  0.76865000  0.90271000  0.00858000  1.0
  C  C52  1  0.45006000  0.08860000  0.83772000  1.0
  C  C53  1  0.54994000  0.91140000  0.16228000  1.0
  C  C54  1  0.25458000  0.01387000  0.74129000  1.0
  C  C55  1  0.74542000  0.98613000  0.25871000  1.0
  C  C56  1  0.30589000  0.74118000  0.78022000  1.0
  C  C57  1  0.69411000  0.25882000  0.21979000  1.0
  C  C58  1  0.40390000  0.79925000  0.83205000  1.0
  C  C59  1  0.59610000  0.20075000  0.16796000  1.0
  C  C60  1  0.05654000  0.41989000  0.16435000  1.0
  C  C61  1  0.94347000  0.58010000  0.83565000  1.0
  C  C62  1  0.23830000  0.50352000  0.26706000  1.0
  C  C63  1  0.76171000  0.49648000  0.73294000  1.0
  C  C64  1  0.18976000  0.77390000  0.21994000  1.0
  C  C65  1  0.81024000  0.22611000  0.78007000  1.0
  C  C66  1  0.10201000  0.70941000  0.16547000  1.0
  C  C67  1  0.89799000  0.29058000  0.83453000  1.0
  N  N68  1  0.37025000  0.97134000  0.80616000  1.0
  N  N69  1  0.62974000  0.02866000  0.19385000  1.0
  N  N70  1  0.21219000  0.87662000  0.72493000  1.0
  N  N71  1  0.78781000  0.12338000  0.27507000  1.0
  N  N72  1  0.13393000  0.53869000  0.19623000  1.0
  N  N73  1  0.86607000  0.46131000  0.80377000  1.0
  N  N74  1  0.27535000  0.64433000  0.28204000  1.0
  N  N75  1  0.72465000  0.35567000  0.71796000  1.0
  O  O76  1  0.90119000  0.65303000  0.39407000  1.0
  O  O77  1  0.09881000  0.34698000  0.60593000  1.0
  O  O78  1  0.65700000  0.56809000  0.33446000  1.0
  O  O79  1  0.34300000  0.43192000  0.66554000  1.0
  O  O80  1  0.91341000  0.35176000  0.39830000  1.0
  O  O81  1  0.08659000  0.64825000  0.60170000  1.0
  O  O82  1  0.68139000  0.52444000  0.51429000  1.0
  O  O83  1  0.31861000  0.47556000  0.48570000  1.0
  O  O84  1  0.18155000  0.04505000  0.34449000  1.0
  O  O85  1  0.81845000  0.95495000  0.65551000  1.0
  O  O86  1  0.40035000  0.15769000  0.40499000  1.0
  O  O87  1  0.59965000  0.84231000  0.59501000  1.0
  O  O88  1  0.40593000  0.84646000  0.44663000  1.0
  O  O89  1  0.59407000  0.15355000  0.55337000  1.0
  O  O90  1  0.15972000  0.05849000  0.52522000  1.0
  O  O91  1  0.84028000  0.94152000  0.47478000  1.0
