# generated using pymatgen
data_Zn4H20(C16O11)3
_symmetry_space_group_name_H-M   'P 1'
_cell_length_a   23.81735449
_cell_length_b   23.81740000
_cell_length_c   23.81570000
_cell_angle_alpha   66.58320000
_cell_angle_beta   72.46225649
_cell_angle_gamma   107.53533731
_symmetry_Int_Tables_number   1
_chemical_formula_structural   Zn4H20(C16O11)3
_chemical_formula_sum   'Zn8 H40 C96 O66'
_cell_volume   10362.31344420
_cell_formula_units_Z   2
loop_
 _symmetry_equiv_pos_site_id
 _symmetry_equiv_pos_as_xyz
  1  'x, y, z'
loop_
 _atom_site_type_symbol
 _atom_site_label
 _atom_site_symmetry_multiplicity
 _atom_site_fract_x
 _atom_site_fract_y
 _atom_site_fract_z
 _atom_site_occupancy
  Zn  Zn0  1  0.05707000  0.09999000  0.45707000  1.0
  Zn  Zn1  1  0.05706000  0.95708000  0.48584000  1.0
  Zn  Zn2  1  0.94293000  0.95708000  0.59999000  1.0
  Zn  Zn3  1  0.94295000  0.98586000  0.45706000  1.0
  Zn  Zn4  1  0.94293000  0.40002000  0.04293000  1.0
  Zn  Zn5  1  0.05709000  0.54294000  0.89999000  1.0
  Zn  Zn6  1  0.94293000  0.54291000  0.01415000  1.0
  Zn  Zn7  1  0.05706000  0.51414000  0.04292000  1.0
  H  H8  1  0.91938000  0.27229000  0.96301000  1.0
  H  H9  1  0.08066000  0.46301000  0.77224000  1.0
  H  H10  1  0.92779000  0.03478000  0.72987000  1.0
  H  H11  1  0.07213000  0.22986000  0.53475000  1.0
  H  H12  1  0.08064000  0.61764000  0.14708000  1.0
  H  H13  1  0.91935000  0.64708000  0.11764000  1.0
  H  H14  1  0.07216000  0.84230000  0.39305000  1.0
  H  H15  1  0.92782000  0.89305000  0.34231000  1.0
  H  H16  1  0.73537000  0.27014000  0.15771000  1.0
  H  H17  1  0.73537000  0.46522000  0.10699000  1.0
  H  H18  1  0.26474000  0.03700000  0.38235000  1.0
  H  H19  1  0.26472000  0.22772000  0.35292000  1.0
  H  H20  1  0.26465000  0.65771000  0.77015000  1.0
  H  H21  1  0.26462000  0.60696000  0.96526000  1.0
  H  H22  1  0.73528000  0.88240000  0.53697000  1.0
  H  H23  1  0.73527000  0.85291000  0.72772000  1.0
  H  H24  1  0.91903000  0.08220000  0.33733000  1.0
  H  H25  1  0.08042000  0.41780000  0.16322000  1.0
  H  H26  1  0.91955000  0.25636000  0.16265000  1.0
  H  H27  1  0.08103000  0.24365000  0.33678000  1.0
  H  H28  1  0.91899000  0.83679000  0.74367000  1.0
  H  H29  1  0.08045000  0.66265000  0.75633000  1.0
  H  H30  1  0.91957000  0.66319000  0.91781000  1.0
  H  H31  1  0.08099000  0.83737000  0.58218000  1.0
  H  H32  1  0.12206000  0.34074000  0.70550000  1.0
  H  H33  1  0.87792000  0.20552000  0.84077000  1.0
  H  H34  1  0.00956000  0.32476000  0.62904000  1.0
  H  H35  1  0.99037000  0.12904000  0.82474000  1.0
  H  H36  1  0.87790000  0.67238000  0.28135000  1.0
  H  H37  1  0.12208000  0.78136000  0.17238000  1.0
  H  H38  1  0.99038000  0.86137000  0.18485000  1.0
  H  H39  1  0.00958000  0.68484000  0.36137000  1.0
  H  H40  1  0.54624000  0.37097000  0.13866000  1.0
  H  H41  1  0.54619000  0.17522000  0.31520000  1.0
  H  H42  1  0.45373000  0.29446000  0.32762000  1.0
  H  H43  1  0.45374000  0.15926000  0.21866000  1.0
  H  H44  1  0.45377000  0.63865000  0.87099000  1.0
  H  H45  1  0.45379000  0.81517000  0.67525000  1.0
  H  H46  1  0.54627000  0.82762000  0.79447000  1.0
  H  H47  1  0.54628000  0.71871000  0.65922000  1.0
  C  C48  1  0.18158000  0.09079000  0.40920000  1.0
  C  C49  1  0.99999000  0.85997000  0.64003000  1.0
  C  C50  1  0.99997000  0.09077000  0.59077000  1.0
  C  C51  1  0.81843000  0.90924000  0.59075000  1.0
  C  C52  1  0.00004000  0.14004000  0.35994000  1.0
  C  C53  1  1.00000000  0.90923000  0.40922000  1.0
  C  C54  1  0.00003000  0.40923000  0.90920000  1.0
  C  C55  1  0.00001000  0.64003000  0.85996000  1.0
  C  C56  1  0.81845000  0.40922000  0.09080000  1.0
  C  C57  1  0.99998000  0.59078000  0.09080000  1.0
  C  C58  1  0.99999000  0.35997000  0.14004000  1.0
  C  C59  1  0.18155000  0.59079000  0.90924000  1.0
  C  C60  1  0.00004000  0.19593000  0.30405000  1.0
  C  C61  1  0.99999000  0.30409000  0.19593000  1.0
  C  C62  1  0.95604000  0.17919000  0.27686000  1.0
  C  C63  1  0.04394000  0.32082000  0.22317000  1.0
  C  C64  1  0.95607000  0.23290000  0.22313000  1.0
  C  C65  1  0.04400000  0.26712000  0.27681000  1.0
  C  C66  1  0.99999000  0.80408000  0.69592000  1.0
  C  C67  1  0.00001000  0.69592000  0.80407000  1.0
  C  C68  1  0.95602000  0.77682000  0.76712000  1.0
  C  C69  1  0.04395000  0.72314000  0.73286000  1.0
  C  C70  1  0.95607000  0.72317000  0.82081000  1.0
  C  C71  1  0.04398000  0.77688000  0.67918000  1.0
  C  C72  1  0.00002000  0.37169000  0.87167000  1.0
  C  C73  1  0.95437000  0.30067000  0.90749000  1.0
  C  C74  1  0.95237000  0.26555000  0.87266000  1.0
  C  C75  1  0.99999000  0.30094000  0.80095000  1.0
  C  C76  1  0.04762000  0.37264000  0.76554000  1.0
  C  C77  1  0.04565000  0.40749000  0.80065000  1.0
  C  C78  1  0.99997000  0.26535000  0.76537000  1.0
  C  C79  1  0.99997000  0.23462000  0.73460000  1.0
  C  C80  1  0.99995000  0.19902000  0.69902000  1.0
  C  C81  1  0.96074000  0.12510000  0.73664000  1.0
  C  C82  1  0.95979000  0.09107000  0.70072000  1.0
  C  C83  1  0.99995000  0.12830000  0.62829000  1.0
  C  C84  1  0.04011000  0.20073000  0.59105000  1.0
  C  C85  1  0.03914000  0.23663000  0.62509000  1.0
  C  C86  1  0.99999000  0.62831000  0.12833000  1.0
  C  C87  1  0.04564000  0.63816000  0.15369000  1.0
  C  C88  1  0.04763000  0.67498000  0.18681000  1.0
  C  C89  1  1.00000000  0.69905000  0.19904000  1.0
  C  C90  1  0.95237000  0.68682000  0.17498000  1.0
  C  C91  1  0.95436000  0.65369000  0.13816000  1.0
  C  C92  1  1.00000000  0.73464000  0.23463000  1.0
  C  C93  1  0.99999000  0.76539000  0.26539000  1.0
  C  C94  1  0.99998000  0.80096000  0.30098000  1.0
  C  C95  1  0.03919000  0.80256000  0.33569000  1.0
  C  C96  1  0.04015000  0.83943000  0.36877000  1.0
  C  C97  1  0.99999000  0.87169000  0.37170000  1.0
  C  C98  1  0.95983000  0.86877000  0.33943000  1.0
  C  C99  1  0.96078000  0.83568000  0.30258000  1.0
  C  C100  1  0.74340000  0.37169000  0.12835000  1.0
  C  C101  1  0.70821000  0.29927000  0.16060000  1.0
  C  C102  1  0.63826000  0.26336000  0.19747000  1.0
  C  C103  1  0.60195000  0.30097000  0.19907000  1.0
  C  C104  1  0.63826000  0.37488000  0.16436000  1.0
  C  C105  1  0.70821000  0.40893000  0.13128000  1.0
  C  C106  1  0.53078000  0.26538000  0.23465000  1.0
  C  C107  1  0.46928000  0.23464000  0.26539000  1.0
  C  C108  1  0.39810000  0.19905000  0.30097000  1.0
  C  C109  1  0.36180000  0.12735000  0.32503000  1.0
  C  C110  1  0.29185000  0.09252000  0.36184000  1.0
  C  C111  1  0.25664000  0.12832000  0.37168000  1.0
  C  C112  1  0.29185000  0.19933000  0.34631000  1.0
  C  C113  1  0.36179000  0.23444000  0.31320000  1.0
  C  C114  1  0.25660000  0.62832000  0.87172000  1.0
  C  C115  1  0.29180000  0.66058000  0.79929000  1.0
  C  C116  1  0.36175000  0.69745000  0.76338000  1.0
  C  C117  1  0.39805000  0.69904000  0.80099000  1.0
  C  C118  1  0.36173000  0.66433000  0.87492000  1.0
  C  C119  1  0.29179000  0.63125000  0.90895000  1.0
  C  C120  1  0.46922000  0.73461000  0.76540000  1.0
  C  C121  1  0.53072000  0.76537000  0.73464000  1.0
  C  C122  1  0.60190000  0.80097000  0.69904000  1.0
  C  C123  1  0.63821000  0.82505000  0.62732000  1.0
  C  C124  1  0.70816000  0.86188000  0.59249000  1.0
  C  C125  1  0.74336000  0.87170000  0.62830000  1.0
  C  C126  1  0.70816000  0.84632000  0.69931000  1.0
  C  C127  1  0.63821000  0.81320000  0.73443000  1.0
  C  C128  1  0.10049000  0.41575000  0.68986000  1.0
  C  C129  1  0.89949000  0.18987000  0.91578000  1.0
  C  C130  1  0.08293000  0.31475000  0.57952000  1.0
  C  C131  1  0.91697000  0.07953000  0.81476000  1.0
  C  C132  1  0.89949000  0.70962000  0.18475000  1.0
  C  C133  1  0.10052000  0.68477000  0.20959000  1.0
  C  C134  1  0.91699000  0.83747000  0.26824000  1.0
  C  C135  1  0.08297000  0.76822000  0.33749000  1.0
  C  C136  1  0.60572000  0.42047000  0.16256000  1.0
  C  C137  1  0.60571000  0.18524000  0.23180000  1.0
  C  C138  1  0.39436000  0.31011000  0.29041000  1.0
  C  C139  1  0.39438000  0.08425000  0.31525000  1.0
  C  C140  1  0.39427000  0.66254000  0.92050000  1.0
  C  C141  1  0.39430000  0.73179000  0.68524000  1.0
  C  C142  1  0.60563000  0.79039000  0.81012000  1.0
  C  C143  1  0.60565000  0.81529000  0.58421000  1.0
  O  O144  1  0.00000000  0.00000000  0.50000000  1.0
  O  O145  1  0.15276000  0.12723000  0.41394000  1.0
  O  O146  1  0.04054000  0.88425000  0.57592000  1.0
  O  O147  1  0.96068000  0.02504000  0.62771000  1.0
  O  O148  1  0.15276000  0.02552000  0.43328000  1.0
  O  O149  1  0.03928000  0.12770000  0.52504000  1.0
  O  O150  1  0.95943000  0.88351000  0.65632000  1.0
  O  O151  1  0.84724000  0.91394000  0.62721000  1.0
  O  O152  1  0.95950000  0.07594000  0.38420000  1.0
  O  O153  1  0.84725000  0.93335000  0.52547000  1.0
  O  O154  1  0.04059000  0.15631000  0.38349000  1.0
  O  O155  1  0.03930000  0.91160000  0.43565000  1.0
  O  O156  1  0.96070000  0.93566000  0.41159000  1.0
  O  O157  1  1.00000000  0.50000000  0.99999000  1.0
  O  O158  1  0.95884000  0.37278000  0.97447000  1.0
  O  O159  1  0.03984000  0.61576000  0.84367000  1.0
  O  O160  1  0.84726000  0.47496000  0.06435000  1.0
  O  O161  1  0.04121000  0.47449000  0.87275000  1.0
  O  O162  1  0.84726000  0.37230000  0.08842000  1.0
  O  O163  1  0.96018000  0.61647000  0.92407000  1.0
  O  O164  1  0.95881000  0.58606000  0.06670000  1.0
  O  O165  1  0.03981000  0.42407000  0.11649000  1.0
  O  O166  1  0.04115000  0.56668000  0.08608000  1.0
  O  O167  1  0.96016000  0.34369000  0.11577000  1.0
  O  O168  1  0.15275000  0.58842000  0.87231000  1.0
  O  O169  1  0.15274000  0.56434000  0.97498000  1.0
  O  O170  1  0.91300000  0.11323000  0.29979000  1.0
  O  O171  1  0.08695000  0.38678000  0.20026000  1.0
  O  O172  1  0.91303000  0.21278000  0.20020000  1.0
  O  O173  1  0.08705000  0.28722000  0.29973000  1.0
  O  O174  1  0.91297000  0.79973000  0.78724000  1.0
  O  O175  1  0.08697000  0.70020000  0.71275000  1.0
  O  O176  1  0.91305000  0.70024000  0.88679000  1.0
  O  O177  1  0.08703000  0.79983000  0.61319000  1.0
  O  O178  1  0.13753000  0.38787000  0.66766000  1.0
  O  O179  1  0.11155000  0.47409000  0.65069000  1.0
  O  O180  1  0.86245000  0.16768000  0.88791000  1.0
  O  O181  1  0.88844000  0.15072000  0.97412000  1.0
  O  O182  1  0.05531000  0.35441000  0.58995000  1.0
  O  O183  1  0.13979000  0.34155000  0.53348000  1.0
  O  O184  1  0.94462000  0.08996000  0.85440000  1.0
  O  O185  1  0.86011000  0.03350000  0.84157000  1.0
  O  O186  1  0.86244000  0.69476000  0.24968000  1.0
  O  O187  1  0.88845000  0.73774000  0.13746000  1.0
  O  O188  1  0.13755000  0.74969000  0.19475000  1.0
  O  O189  1  0.11158000  0.63750000  0.23770000  1.0
  O  O190  1  0.94463000  0.85469000  0.20096000  1.0
  O  O191  1  0.86013000  0.82663000  0.29832000  1.0
  O  O192  1  0.05532000  0.70093000  0.35471000  1.0
  O  O193  1  0.13982000  0.79827000  0.32667000  1.0
  O  O194  1  0.55566000  0.41004000  0.14533000  1.0
  O  O195  1  0.62494000  0.46649000  0.17340000  1.0
  O  O196  1  0.55563000  0.14559000  0.29908000  1.0
  O  O197  1  0.62495000  0.15846000  0.20172000  1.0
  O  O198  1  0.44443000  0.33230000  0.30526000  1.0
  O  O199  1  0.37519000  0.34928000  0.26231000  1.0
  O  O200  1  0.44446000  0.11214000  0.25033000  1.0
  O  O201  1  0.37521000  0.02592000  0.36254000  1.0
  O  O202  1  0.44434000  0.64533000  0.91007000  1.0
  O  O203  1  0.37503000  0.67336000  0.96653000  1.0
  O  O204  1  0.44436000  0.79907000  0.64561000  1.0
  O  O205  1  0.37506000  0.70172000  0.65846000  1.0
  O  O206  1  0.55556000  0.80524000  0.83231000  1.0
  O  O207  1  0.62479000  0.76227000  0.84929000  1.0
  O  O208  1  0.55557000  0.75037000  0.61209000  1.0
  O  O209  1  0.62482000  0.86258000  0.52587000  1.0
