# generated using pymatgen
data_FeH30C30(NO2)4
_symmetry_space_group_name_H-M   'P 1'
_cell_length_a   11.09270000
_cell_length_b   16.03480000
_cell_length_c   19.27400000
_cell_angle_alpha   89.99960000
_cell_angle_beta   85.00370000
_cell_angle_gamma   89.99980000
_symmetry_Int_Tables_number   1
_chemical_formula_structural   FeH30C30(NO2)4
_chemical_formula_sum   'Fe4 H120 C120 N16 O32'
_cell_volume   3415.22521724
_cell_formula_units_Z   4
loop_
 _symmetry_equiv_pos_site_id
 _symmetry_equiv_pos_as_xyz
  1  'x, y, z'
loop_
 _atom_site_type_symbol
 _atom_site_label
 _atom_site_symmetry_multiplicity
 _atom_site_fract_x
 _atom_site_fract_y
 _atom_site_fract_z
 _atom_site_occupancy
  Fe  Fe0  1  0.60279000  0.26037000  0.07640000  1.0
  Fe  Fe1  1  0.89721000  0.76037000  0.42360000  1.0
  Fe  Fe2  1  0.39720000  0.73963000  0.92359000  1.0
  Fe  Fe3  1  0.10280000  0.23963000  0.57640000  1.0
  H  H4  1  0.64211000  0.94883000  0.30107000  1.0
  H  H5  1  0.85789000  0.44884000  0.19893000  1.0
  H  H6  1  0.35790000  0.05116000  0.69892000  1.0
  H  H7  1  0.14211000  0.55116000  0.80108000  1.0
  H  H8  1  0.65338000  0.83842000  0.17000000  1.0
  H  H9  1  0.84662000  0.33843000  0.33000000  1.0
  H  H10  1  0.34664000  0.16158000  0.83000000  1.0
  H  H11  1  0.15337000  0.66158000  0.67000000  1.0
  H  H12  1  0.56999000  0.20911000  0.27319000  1.0
  H  H13  1  0.93001000  0.70911000  0.22682000  1.0
  H  H14  1  0.43001000  0.79089000  0.72681000  1.0
  H  H15  1  0.06999000  0.29089000  0.77318000  1.0
  H  H16  1  0.61283000  0.08969000  0.26949000  1.0
  H  H17  1  0.88717000  0.58969000  0.23052000  1.0
  H  H18  1  0.38717000  0.91031000  0.73051000  1.0
  H  H19  1  0.11283000  0.41031000  0.76949000  1.0
  H  H20  1  0.64337000  0.97644000  0.02738000  1.0
  H  H21  1  0.85664000  0.47644000  0.47263000  1.0
  H  H22  1  0.35663000  0.02356000  0.97262000  1.0
  H  H23  1  0.14336000  0.52356000  0.52738000  1.0
  H  H24  1  0.64051000  0.06690000  0.95673000  1.0
  H  H25  1  0.85950000  0.56691000  0.54328000  1.0
  H  H26  1  0.35948000  0.93309000  0.04327000  1.0
  H  H27  1  0.14051000  0.43310000  0.45673000  1.0
  H  H28  1  0.54260000  0.33760000  0.83909000  1.0
  H  H29  1  0.95740000  0.83760000  0.66091000  1.0
  H  H30  1  0.45740000  0.66240000  0.16091000  1.0
  H  H31  1  0.04261000  0.16241000  0.33909000  1.0
  H  H32  1  0.69907000  0.32120000  0.82575000  1.0
  H  H33  1  0.80094000  0.82121000  0.67425000  1.0
  H  H34  1  0.30093000  0.67879000  0.17425000  1.0
  H  H35  1  0.19907000  0.17880000  0.32575000  1.0
  H  H36  1  0.64125000  0.40130000  0.88556000  1.0
  H  H37  1  0.85875000  0.90130000  0.61444000  1.0
  H  H38  1  0.35875000  0.59870000  0.11444000  1.0
  H  H39  1  0.14125000  0.09870000  0.38556000  1.0
  H  H40  1  0.58386000  0.51535000  0.13910000  1.0
  H  H41  1  0.91613000  0.01535000  0.36090000  1.0
  H  H42  1  0.41614000  0.48465000  0.86091000  1.0
  H  H43  1  0.08387000  0.98465000  0.63909000  1.0
  H  H44  1  0.63615000  0.50934000  0.22513000  1.0
  H  H45  1  0.86384000  0.00935000  0.27487000  1.0
  H  H46  1  0.36384000  0.49065000  0.77487000  1.0
  H  H47  1  0.13616000  0.99065000  0.72513000  1.0
  H  H48  1  0.48083000  0.50449000  0.21538000  1.0
  H  H49  1  0.01916000  0.00449000  0.28462000  1.0
  H  H50  1  0.51916000  0.49551000  0.78462000  1.0
  H  H51  1  0.98084000  0.99551000  0.71538000  1.0
  H  H52  1  0.76775000  0.05850000  0.74220000  1.0
  H  H53  1  0.73224000  0.55850000  0.75780000  1.0
  H  H54  1  0.23225000  0.94150000  0.25780000  1.0
  H  H55  1  0.26776000  0.44151000  0.24220000  1.0
  H  H56  1  0.60818000  0.04482000  0.75399000  1.0
  H  H57  1  0.89182000  0.54482000  0.74602000  1.0
  H  H58  1  0.39182000  0.95518000  0.24601000  1.0
  H  H59  1  0.10818000  0.45520000  0.25399000  1.0
  H  H60  1  0.79848000  0.93056000  0.81386000  1.0
  H  H61  1  0.70153000  0.43056000  0.68614000  1.0
  H  H62  1  0.20153000  0.06944000  0.18614000  1.0
  H  H63  1  0.29849000  0.56945000  0.31386000  1.0
  H  H64  1  0.70811000  0.90515000  0.74511000  1.0
  H  H65  1  0.79189000  0.40515000  0.75489000  1.0
  H  H66  1  0.29189000  0.09485000  0.25489000  1.0
  H  H67  1  0.20812000  0.59486000  0.24511000  1.0
  H  H68  1  0.63861000  0.91907000  0.83089000  1.0
  H  H69  1  0.86140000  0.41908000  0.66912000  1.0
  H  H70  1  0.36140000  0.08093000  0.16912000  1.0
  H  H71  1  0.13862000  0.58093000  0.33089000  1.0
  H  H72  1  0.59117000  0.42826000  0.42592000  1.0
  H  H73  1  0.90883000  0.92827000  0.07408000  1.0
  H  H74  1  0.40883000  0.57173000  0.57408000  1.0
  H  H75  1  0.09117000  0.07173000  0.92592000  1.0
  H  H76  1  0.43213000  0.43567000  0.41995000  1.0
  H  H77  1  0.06787000  0.93568000  0.08006000  1.0
  H  H78  1  0.56786000  0.56432000  0.58006000  1.0
  H  H79  1  0.93214000  0.06432000  0.91994000  1.0
  H  H80  1  0.61831000  0.57517000  0.38034000  1.0
  H  H81  1  0.88169000  0.07517000  0.11966000  1.0
  H  H82  1  0.38169000  0.42483000  0.61966000  1.0
  H  H83  1  0.11831000  0.92483000  0.88034000  1.0
  H  H84  1  0.51763000  0.57343000  0.45713000  1.0
  H  H85  1  0.98237000  0.07343000  0.04287000  1.0
  H  H86  1  0.48237000  0.42656000  0.54288000  1.0
  H  H87  1  0.01763000  0.92656000  0.95713000  1.0
  H  H88  1  0.45915000  0.58350000  0.37479000  1.0
  H  H89  1  0.04085000  0.08351000  0.12521000  1.0
  H  H90  1  0.54085000  0.41649000  0.62521000  1.0
  H  H91  1  0.95915000  0.91649000  0.87479000  1.0
  H  H92  1  0.02913000  0.23914000  0.96409000  1.0
  H  H93  1  0.47087000  0.73914000  0.53591000  1.0
  H  H94  1  0.97087000  0.76086000  0.03591000  1.0
  H  H95  1  0.52913000  0.26086000  0.46409000  1.0
  H  H96  1  0.81035000  0.23952000  0.96909000  1.0
  H  H97  1  0.68965000  0.73953000  0.53091000  1.0
  H  H98  1  0.18964000  0.76048000  0.03091000  1.0
  H  H99  1  0.31036000  0.26047000  0.46909000  1.0
  H  H100  1  0.77748000  0.29530000  0.18037000  1.0
  H  H101  1  0.72251000  0.79529000  0.31963000  1.0
  H  H102  1  0.22251000  0.70470000  0.81963000  1.0
  H  H103  1  0.27749000  0.20471000  0.68037000  1.0
  H  H104  1  0.99686000  0.29337000  0.18594000  1.0
  H  H105  1  0.50313000  0.79335000  0.31406000  1.0
  H  H106  1  0.00313000  0.70664000  0.81406000  1.0
  H  H107  1  0.49687000  0.20664000  0.68594000  1.0
  H  H108  1  0.20794000  0.20695000  0.97212000  1.0
  H  H109  1  0.29206000  0.70695000  0.52788000  1.0
  H  H110  1  0.79205000  0.79305000  0.02787000  1.0
  H  H111  1  0.70795000  0.29306000  0.47212000  1.0
  H  H112  1  0.42605000  0.20506000  0.97740000  1.0
  H  H113  1  0.07395000  0.70507000  0.52260000  1.0
  H  H114  1  0.57394000  0.79493000  0.02260000  1.0
  H  H115  1  0.92605000  0.29494000  0.47740000  1.0
  H  H116  1  0.39698000  0.30515000  0.17722000  1.0
  H  H117  1  0.10302000  0.80515000  0.32278000  1.0
  H  H118  1  0.60302000  0.69485000  0.82277000  1.0
  H  H119  1  0.89698000  0.19485000  0.67722000  1.0
  H  H120  1  0.17762000  0.31093000  0.18109000  1.0
  H  H121  1  0.32239000  0.81093000  0.31891000  1.0
  H  H122  1  0.82238000  0.68907000  0.81890000  1.0
  H  H123  1  0.67762000  0.18907000  0.68109000  1.0
  C  C124  1  0.57763000  0.39305000  0.18056000  1.0
  C  C125  1  0.92237000  0.89305000  0.31943000  1.0
  C  C126  1  0.42237000  0.60695000  0.81944000  1.0
  C  C127  1  0.07764000  0.10695000  0.68056000  1.0
  C  C128  1  0.56860000  0.33366000  0.23666000  1.0
  C  C129  1  0.93140000  0.83367000  0.26334000  1.0
  C  C130  1  0.43139000  0.66633000  0.76334000  1.0
  C  C131  1  0.06860000  0.16633000  0.73666000  1.0
  C  C132  1  0.57795000  0.24596000  0.22527000  1.0
  C  C133  1  0.92205000  0.74597000  0.27474000  1.0
  C  C134  1  0.42205000  0.75403000  0.77473000  1.0
  C  C135  1  0.07795000  0.25403000  0.72527000  1.0
  C  C136  1  0.61049000  0.12096000  0.15966000  1.0
  C  C137  1  0.88951000  0.62096000  0.34035000  1.0
  C  C138  1  0.38951000  0.87904000  0.84034000  1.0
  C  C139  1  0.11050000  0.37904000  0.65966000  1.0
  C  C140  1  0.61845000  0.06637000  0.21612000  1.0
  C  C141  1  0.88155000  0.56638000  0.28388000  1.0
  C  C142  1  0.38155000  0.93362000  0.78387000  1.0
  C  C143  1  0.11845000  0.43362000  0.71612000  1.0
  C  C144  1  0.63423000  0.98164000  0.20415000  1.0
  C  C145  1  0.86577000  0.48165000  0.29586000  1.0
  C  C146  1  0.36578000  0.01835000  0.79585000  1.0
  C  C147  1  0.13422000  0.51835000  0.70415000  1.0
  C  C148  1  0.64223000  0.94959000  0.13571000  1.0
  C  C149  1  0.85777000  0.44960000  0.36429000  1.0
  C  C150  1  0.35777000  0.05040000  0.86429000  1.0
  C  C151  1  0.14223000  0.55040000  0.63571000  1.0
  C  C152  1  0.63567000  0.00322000  0.07952000  1.0
  C  C153  1  0.86433000  0.50322000  0.42048000  1.0
  C  C154  1  0.36433000  0.99678000  0.92048000  1.0
  C  C155  1  0.13567000  0.49678000  0.57952000  1.0
  C  C156  1  0.62093000  0.08935000  0.09082000  1.0
  C  C157  1  0.87907000  0.58935000  0.40919000  1.0
  C  C158  1  0.37907000  0.91065000  0.90918000  1.0
  C  C159  1  0.12093000  0.41065000  0.59082000  1.0
  C  C160  1  0.63014000  0.13227000  0.97193000  1.0
  C  C161  1  0.86986000  0.63227000  0.52807000  1.0
  C  C162  1  0.36985000  0.86772000  0.02807000  1.0
  C  C163  1  0.13015000  0.36773000  0.47193000  1.0
  C  C164  1  0.62926000  0.19009000  0.91589000  1.0
  C  C165  1  0.87074000  0.69009000  0.58411000  1.0
  C  C166  1  0.37073000  0.80991000  0.08410000  1.0
  C  C167  1  0.12926000  0.30992000  0.41589000  1.0
  C  C168  1  0.61951000  0.27864000  0.92579000  1.0
  C  C169  1  0.88049000  0.77864000  0.57421000  1.0
  C  C170  1  0.38048000  0.72136000  0.07421000  1.0
  C  C171  1  0.11952000  0.22136000  0.42579000  1.0
  C  C172  1  0.62651000  0.33853000  0.86543000  1.0
  C  C173  1  0.87349000  0.83853000  0.63457000  1.0
  C  C174  1  0.37348000  0.66147000  0.13457000  1.0
  C  C175  1  0.12652000  0.16148000  0.36543000  1.0
  C  C176  1  0.56991000  0.48629000  0.19062000  1.0
  C  C177  1  0.93009000  0.98629000  0.30938000  1.0
  C  C178  1  0.43009000  0.51371000  0.80938000  1.0
  C  C179  1  0.06991000  0.01371000  0.69062000  1.0
  C  C180  1  0.63930000  0.15524000  0.84537000  1.0
  C  C181  1  0.86071000  0.65525000  0.65464000  1.0
  C  C182  1  0.36070000  0.84475000  0.15463000  1.0
  C  C183  1  0.13929000  0.34476000  0.34536000  1.0
  C  C184  1  0.69327000  0.03314000  0.77755000  1.0
  C  C185  1  0.80673000  0.53314000  0.72246000  1.0
  C  C186  1  0.30673000  0.96686000  0.22245000  1.0
  C  C187  1  0.19328000  0.46687000  0.27755000  1.0
  C  C188  1  0.71087000  0.94173000  0.79305000  1.0
  C  C189  1  0.78913000  0.44174000  0.70696000  1.0
  C  C190  1  0.28913000  0.05826000  0.20695000  1.0
  C  C191  1  0.21088000  0.55827000  0.29305000  1.0
  C  C192  1  0.55010000  0.35425000  0.31110000  1.0
  C  C193  1  0.94990000  0.85425000  0.18890000  1.0
  C  C194  1  0.44989000  0.64575000  0.68890000  1.0
  C  C195  1  0.05010000  0.14574000  0.81110000  1.0
  C  C196  1  0.52085000  0.45930000  0.39843000  1.0
  C  C197  1  0.97915000  0.95931000  0.10157000  1.0
  C  C198  1  0.47915000  0.54069000  0.60157000  1.0
  C  C199  1  0.02085000  0.04069000  0.89843000  1.0
  C  C200  1  0.52946000  0.55317000  0.40259000  1.0
  C  C201  1  0.97054000  0.05317000  0.09741000  1.0
  C  C202  1  0.47054000  0.44683000  0.59741000  1.0
  C  C203  1  0.02946000  0.94683000  0.90259000  1.0
  C  C204  1  0.97934000  0.25178000  0.01418000  1.0
  C  C205  1  0.52066000  0.75178000  0.48582000  1.0
  C  C206  1  0.02065000  0.74822000  0.98582000  1.0
  C  C207  1  0.47935000  0.24822000  0.51418000  1.0
  C  C208  1  0.85420000  0.25224000  0.01621000  1.0
  C  C209  1  0.64580000  0.75224000  0.48379000  1.0
  C  C210  1  0.14579000  0.74776000  0.98379000  1.0
  C  C211  1  0.35421000  0.24776000  0.51621000  1.0
  C  C212  1  0.83642000  0.28267000  0.13354000  1.0
  C  C213  1  0.66358000  0.78266000  0.36645000  1.0
  C  C214  1  0.16358000  0.71733000  0.86645000  1.0
  C  C215  1  0.33642000  0.21734000  0.63355000  1.0
  C  C216  1  0.96090000  0.28210000  0.13595000  1.0
  C  C217  1  0.53910000  0.78209000  0.36405000  1.0
  C  C218  1  0.03910000  0.71790000  0.86405000  1.0
  C  C219  1  0.46090000  0.21791000  0.63595000  1.0
  C  C220  1  0.03686000  0.26549000  0.07523000  1.0
  C  C221  1  0.46314000  0.76548000  0.42477000  1.0
  C  C222  1  0.96313000  0.73452000  0.92476000  1.0
  C  C223  1  0.53686000  0.23452000  0.57523000  1.0
  C  C224  1  0.16910000  0.26153000  0.07578000  1.0
  C  C225  1  0.33090000  0.76153000  0.42422000  1.0
  C  C226  1  0.83089000  0.73847000  0.92422000  1.0
  C  C227  1  0.66911000  0.23847000  0.57578000  1.0
  C  C228  1  0.24417000  0.23058000  0.01903000  1.0
  C  C229  1  0.25583000  0.73058000  0.48097000  1.0
  C  C230  1  0.75583000  0.76942000  0.98097000  1.0
  C  C231  1  0.74417000  0.26942000  0.51903000  1.0
  C  C232  1  0.36873000  0.22906000  0.02149000  1.0
  C  C233  1  0.13127000  0.72906000  0.47851000  1.0
  C  C234  1  0.63127000  0.77094000  0.97850000  1.0
  C  C235  1  0.86873000  0.27094000  0.52149000  1.0
  C  C236  1  0.35231000  0.28461000  0.13226000  1.0
  C  C237  1  0.14768000  0.78461000  0.36774000  1.0
  C  C238  1  0.64768000  0.71539000  0.86773000  1.0
  C  C239  1  0.85232000  0.21539000  0.63226000  1.0
  C  C240  1  0.22747000  0.28797000  0.13372000  1.0
  C  C241  1  0.27253000  0.78797000  0.36628000  1.0
  C  C242  1  0.77252000  0.71203000  0.86627000  1.0
  C  C243  1  0.72747000  0.21202000  0.63373000  1.0
  N  N244  1  0.59505000  0.20793000  0.16468000  1.0
  N  N245  1  0.90495000  0.70793000  0.33532000  1.0
  N  N246  1  0.40495000  0.79207000  0.83532000  1.0
  N  N247  1  0.09505000  0.29207000  0.66468000  1.0
  N  N248  1  0.61761000  0.15091000  0.03877000  1.0
  N  N249  1  0.88239000  0.65092000  0.46123000  1.0
  N  N250  1  0.38238000  0.84909000  0.96123000  1.0
  N  N251  1  0.11761000  0.34909000  0.53877000  1.0
  N  N252  1  0.78119000  0.26682000  0.07494000  1.0
  N  N253  1  0.71881000  0.76682000  0.42506000  1.0
  N  N254  1  0.21880000  0.73318000  0.92506000  1.0
  N  N255  1  0.28120000  0.23318000  0.57494000  1.0
  N  N256  1  0.42462000  0.25667000  0.07688000  1.0
  N  N257  1  0.07538000  0.75668000  0.42312000  1.0
  N  N258  1  0.57538000  0.74332000  0.92311000  1.0
  N  N259  1  0.92462000  0.24332000  0.57688000  1.0
  O  O260  1  0.59121000  0.37109000  0.11649000  1.0
  O  O261  1  0.90878000  0.87109000  0.38351000  1.0
  O  O262  1  0.40878000  0.62891000  0.88351000  1.0
  O  O263  1  0.09122000  0.12891000  0.61649000  1.0
  O  O264  1  0.61029000  0.31321000  0.98578000  1.0
  O  O265  1  0.88970000  0.81321000  0.51422000  1.0
  O  O266  1  0.38970000  0.68679000  0.01422000  1.0
  O  O267  1  0.11030000  0.18680000  0.48578000  1.0
  O  O268  1  0.53756000  0.43700000  0.32532000  1.0
  O  O269  1  0.96244000  0.93700000  0.17468000  1.0
  O  O270  1  0.46243000  0.56300000  0.67468000  1.0
  O  O271  1  0.03757000  0.06299000  0.82532000  1.0
  O  O272  1  0.54595000  0.30171000  0.35836000  1.0
  O  O273  1  0.95405000  0.80171000  0.14164000  1.0
  O  O274  1  0.45405000  0.69829000  0.64164000  1.0
  O  O275  1  0.04592000  0.19829000  0.85836000  1.0
  O  O276  1  0.69040000  0.07738000  0.84316000  1.0
  O  O277  1  0.80960000  0.57738000  0.65684000  1.0
  O  O278  1  0.30960000  0.92262000  0.15684000  1.0
  O  O279  1  0.19040000  0.42263000  0.34316000  1.0
  O  O280  1  0.60636000  0.18875000  0.79239000  1.0
  O  O281  1  0.89364000  0.68876000  0.70761000  1.0
  O  O282  1  0.39363000  0.81124000  0.20761000  1.0
  O  O283  1  0.10637000  0.31126000  0.29239000  1.0
  O  O284  1  0.64301000  0.92278000  0.25542000  1.0
  O  O285  1  0.85699000  0.42278000  0.24458000  1.0
  O  O286  1  0.35699000  0.07722000  0.74457000  1.0
  O  O287  1  0.14301000  0.57721000  0.75542000  1.0
  O  O288  1  0.65883000  0.86597000  0.12460000  1.0
  O  O289  1  0.84117000  0.36598000  0.37541000  1.0
  O  O290  1  0.34117000  0.13403000  0.87540000  1.0
  O  O291  1  0.15882000  0.63403000  0.62460000  1.0
