# generated using pymatgen
data_ZnH16C20(NO2)2
_symmetry_space_group_name_H-M   'P 1'
_cell_length_a   9.68401000
_cell_length_b   14.98740000
_cell_length_c   20.13160000
_cell_angle_alpha   90.00000000
_cell_angle_beta   90.00000000
_cell_angle_gamma   93.56710000
_symmetry_Int_Tables_number   1
_chemical_formula_structural   ZnH16C20(NO2)2
_chemical_formula_sum   'Zn4 H64 C80 N8 O16'
_cell_volume   2916.20204622
_cell_formula_units_Z   4
loop_
 _symmetry_equiv_pos_site_id
 _symmetry_equiv_pos_as_xyz
  1  'x, y, z'
loop_
 _atom_site_type_symbol
 _atom_site_label
 _atom_site_symmetry_multiplicity
 _atom_site_fract_x
 _atom_site_fract_y
 _atom_site_fract_z
 _atom_site_occupancy
  Zn  Zn0  1  0.58535000  0.94944000  0.80432000  1.0
  Zn  Zn1  1  0.91465000  0.55056000  0.30432000  1.0
  Zn  Zn2  1  0.41465000  0.05056000  0.19568000  1.0
  Zn  Zn3  1  0.08535000  0.44944000  0.69568000  1.0
  H  H4  1  0.85523000  0.74135000  0.75601000  1.0
  H  H5  1  0.64477000  0.75865000  0.25601000  1.0
  H  H6  1  0.14477000  0.25865000  0.24399000  1.0
  H  H7  1  0.35523000  0.24135000  0.74399000  1.0
  H  H8  1  0.25662000  0.66666667  0.81669000  1.0
  H  H9  1  0.24338000  0.83336000  0.31669000  1.0
  H  H10  1  0.74338000  0.33333333  0.18331000  1.0
  H  H11  1  0.75661000  0.16664000  0.68331000  1.0
  H  H12  1  0.28263000  0.80234000  0.88884000  1.0
  H  H13  1  0.21737000  0.69766000  0.38884000  1.0
  H  H14  1  0.71738000  0.19766000  0.11116000  1.0
  H  H15  1  0.78262000  0.30234000  0.61116000  1.0
  H  H16  1  0.09016000  0.90697000  0.89463000  1.0
  H  H17  1  0.40984000  0.59303000  0.39463000  1.0
  H  H18  1  0.90984000  0.09303000  0.10537000  1.0
  H  H19  1  0.59016000  0.40697000  0.60537000  1.0
  H  H20  1  0.29996000  0.97917000  0.74986000  1.0
  H  H21  1  0.20004000  0.52084000  0.24987000  1.0
  H  H22  1  0.70004000  0.02084000  0.25013000  1.0
  H  H23  1  0.79996000  0.47917000  0.75013000  1.0
  H  H24  1  0.13111000  0.90144000  0.67195000  1.0
  H  H25  1  0.36889000  0.59856000  0.17195000  1.0
  H  H26  1  0.86889000  0.09856000  0.32805000  1.0
  H  H27  1  0.63111000  0.40144000  0.82805000  1.0
  H  H28  1  0.40895000  0.68718000  0.65904000  1.0
  H  H29  1  0.09105000  0.81282000  0.15904000  1.0
  H  H30  1  0.59105000  0.31282000  0.34096000  1.0
  H  H31  1  0.90895000  0.18718000  0.84096000  1.0
  H  H32  1  0.56719000  0.77501000  0.73565000  1.0
  H  H33  1  0.93281000  0.72499000  0.23565000  1.0
  H  H34  1  0.43281000  0.22499000  0.26435000  1.0
  H  H35  1  0.06719000  0.27501000  0.76435000  1.0
  H  H36  1  0.14186000  0.79412000  0.56844000  1.0
  H  H37  1  0.35814000  0.70588000  0.06844000  1.0
  H  H38  1  0.85814000  0.20588000  0.43156000  1.0
  H  H39  1  0.64186000  0.29412000  0.93156000  1.0
  H  H40  1  0.05797000  0.72985000  0.63147000  1.0
  H  H41  1  0.44203000  0.77015000  0.13147000  1.0
  H  H42  1  0.94203000  0.27015000  0.36853000  1.0
  H  H43  1  0.55797000  0.22985000  0.86853000  1.0
  H  H44  1  0.31596000  0.67059000  0.55867000  1.0
  H  H45  1  0.18404000  0.82941000  0.05867000  1.0
  H  H46  1  0.68404000  0.32941000  0.44133000  1.0
  H  H47  1  0.81596000  0.17059000  0.94133000  1.0
  H  H48  1  0.21011000  0.60435000  0.61175000  1.0
  H  H49  1  0.28989000  0.89565000  0.11175000  1.0
  H  H50  1  0.78989000  0.39565000  0.38826000  1.0
  H  H51  1  0.71011000  0.10435000  0.88825000  1.0
  H  H52  1  0.96918000  0.72427000  0.51710000  1.0
  H  H53  1  0.53082000  0.77573000  0.01711000  1.0
  H  H54  1  0.03082000  0.27573000  0.48289000  1.0
  H  H55  1  0.46918000  0.22427000  0.98289000  1.0
  H  H56  1  0.85982000  0.67004000  0.41195000  1.0
  H  H57  1  0.64018000  0.82997000  0.91195000  1.0
  H  H58  1  0.14018000  0.32996000  0.58805000  1.0
  H  H59  1  0.35982000  0.17004000  0.08805000  1.0
  H  H60  1  0.13347000  0.47102000  0.39098000  1.0
  H  H61  1  0.36653000  0.02898000  0.89098000  1.0
  H  H62  1  0.86653000  0.52898000  0.60902000  1.0
  H  H63  1  0.63347000  0.97102000  0.10902000  1.0
  H  H64  1  0.25660000  0.51670000  0.49742000  1.0
  H  H65  1  0.24339000  0.98330000  0.99742000  1.0
  H  H66  1  0.74339000  0.48330000  0.50258000  1.0
  H  H67  1  0.75661000  0.01670000  0.00258000  1.0
  C  C68  1  0.84380000  0.89144000  0.83210000  1.0
  C  C69  1  0.65620000  0.60856000  0.33210000  1.0
  C  C70  1  0.15620000  0.10856000  0.16790000  1.0
  C  C71  1  0.34379000  0.39144000  0.66790000  1.0
  C  C72  1  0.96104000  0.83069000  0.82611000  1.0
  C  C73  1  0.53896000  0.66931000  0.32611000  1.0
  C  C74  1  0.03896000  0.16931000  0.17389000  1.0
  C  C75  1  0.46104000  0.33069000  0.67389000  1.0
  C  C76  1  0.94873000  0.75523000  0.78514000  1.0
  C  C77  1  0.55127000  0.74477000  0.28514000  1.0
  C  C78  1  0.05127000  0.24477000  0.21486000  1.0
  C  C79  1  0.44873000  0.25523000  0.71486000  1.0
  C  C80  1  0.05475000  0.69632000  0.78179000  1.0
  C  C81  1  0.44525000  0.80368000  0.28179000  1.0
  C  C82  1  0.94525000  0.30368000  0.21821000  1.0
  C  C83  1  0.55475000  0.19632000  0.71820000  1.0
  C  C84  1  0.17499000  0.71329000  0.81972000  1.0
  C  C85  1  0.32501000  0.78670000  0.31972000  1.0
  C  C86  1  0.82501000  0.28670000  0.18028000  1.0
  C  C87  1  0.67499000  0.21330000  0.68028000  1.0
  C  C88  1  0.18861000  0.78910000  0.85990000  1.0
  C  C89  1  0.31139000  0.71090000  0.35990000  1.0
  C  C90  1  0.81139000  0.21090000  0.14010000  1.0
  C  C91  1  0.68861000  0.28910000  0.64010000  1.0
  C  C92  1  0.08219000  0.84765000  0.86322000  1.0
  C  C93  1  0.41781000  0.65235000  0.36322000  1.0
  C  C94  1  0.91781000  0.15235000  0.13678000  1.0
  C  C95  1  0.58219000  0.34765000  0.63678000  1.0
  C  C96  1  0.03715000  0.61492000  0.73872000  1.0
  C  C97  1  0.46285000  0.88508000  0.23872000  1.0
  C  C98  1  0.96285000  0.38508000  0.26129000  1.0
  C  C99  1  0.53715000  0.11491000  0.76128000  1.0
  C  C100  1  0.31928000  0.91448000  0.72799000  1.0
  C  C101  1  0.18072000  0.58552000  0.22799000  1.0
  C  C102  1  0.68072000  0.08552000  0.27201000  1.0
  C  C103  1  0.81929000  0.41448000  0.77201000  1.0
  C  C104  1  0.22710000  0.87085000  0.68438000  1.0
  C  C105  1  0.27290000  0.62915000  0.18438000  1.0
  C  C106  1  0.77290000  0.12915000  0.31562000  1.0
  C  C107  1  0.72710000  0.37085000  0.81561000  1.0
  C  C108  1  0.25722000  0.78833000  0.65680000  1.0
  C  C109  1  0.24278000  0.71168000  0.15680000  1.0
  C  C110  1  0.74278000  0.21168000  0.34320000  1.0
  C  C111  1  0.75722000  0.28832000  0.84320000  1.0
  C  C112  1  0.38052000  0.75227000  0.67670000  1.0
  C  C113  1  0.11948000  0.74773000  0.17670000  1.0
  C  C114  1  0.61948000  0.24773000  0.32329000  1.0
  C  C115  1  0.88052000  0.25226000  0.82329000  1.0
  C  C116  1  0.46885000  0.80011000  0.72017000  1.0
  C  C117  1  0.03115000  0.69989000  0.22017000  1.0
  C  C118  1  0.53115000  0.19989000  0.27983000  1.0
  C  C119  1  0.96885000  0.30011000  0.77983000  1.0
  C  C120  1  0.15910000  0.74390000  0.60716000  1.0
  C  C121  1  0.34090000  0.75610000  0.10716000  1.0
  C  C122  1  0.84090000  0.25610000  0.39284000  1.0
  C  C123  1  0.65910000  0.24390000  0.89284000  1.0
  C  C124  1  0.20775000  0.65920000  0.57530000  1.0
  C  C125  1  0.29226000  0.84080000  0.07530000  1.0
  C  C126  1  0.79225000  0.34079000  0.42470000  1.0
  C  C127  1  0.70775000  0.15920000  0.92470000  1.0
  C  C128  1  0.12652000  0.62660000  0.51555000  1.0
  C  C129  1  0.37348000  0.87340000  0.01555000  1.0
  C  C130  1  0.87348000  0.37340000  0.48445000  1.0
  C  C131  1  0.62652000  0.12660000  0.98445000  1.0
  C  C132  1  0.01087000  0.66802000  0.49131000  1.0
  C  C133  1  0.48913000  0.83198000  0.99131000  1.0
  C  C134  1  0.98913000  0.33198000  0.50869000  1.0
  C  C135  1  0.51087000  0.16802000  0.00869000  1.0
  C  C136  1  0.94831000  0.63808000  0.43267000  1.0
  C  C137  1  0.55168000  0.86192000  0.93267000  1.0
  C  C138  1  0.05169000  0.36192000  0.56733000  1.0
  C  C139  1  0.44831000  0.13808000  0.06733000  1.0
  C  C140  1  0.10219000  0.52659000  0.42138000  1.0
  C  C141  1  0.39781000  0.97342000  0.92138000  1.0
  C  C142  1  0.89781000  0.47341000  0.57862000  1.0
  C  C143  1  0.60219000  0.02659000  0.07862000  1.0
  C  C144  1  0.16939000  0.55284000  0.47972000  1.0
  C  C145  1  0.33061000  0.94716000  0.97972000  1.0
  C  C146  1  0.83061000  0.44716000  0.52028000  1.0
  C  C147  1  0.66939000  0.05284000  0.02028000  1.0
  N  N148  1  0.44013000  0.88031000  0.74500000  1.0
  N  N149  1  0.05987000  0.61969000  0.24500000  1.0
  N  N150  1  0.55987000  0.11969000  0.25500000  1.0
  N  N151  1  0.94013000  0.38031000  0.75500000  1.0
  N  N152  1  0.99407000  0.56950000  0.39750000  1.0
  N  N153  1  0.50592000  0.93050000  0.89750000  1.0
  N  N154  1  0.00593000  0.43050000  0.60250000  1.0
  N  N155  1  0.49407000  0.06950000  0.10250000  1.0
  O  O156  1  0.73463000  0.86661000  0.79708000  1.0
  O  O157  1  0.76537000  0.63340000  0.29708000  1.0
  O  O158  1  0.26537000  0.13339000  0.20292000  1.0
  O  O159  1  0.23463000  0.36660000  0.70292000  1.0
  O  O160  1  0.85233000  0.95830000  0.86937000  1.0
  O  O161  1  0.64767000  0.54170000  0.36937000  1.0
  O  O162  1  0.14767000  0.04170000  0.13063000  1.0
  O  O163  1  0.35233000  0.45830000  0.63063000  1.0
  O  O164  1  0.13870000  0.56226000  0.74012000  1.0
  O  O165  1  0.36130000  0.93774000  0.24012000  1.0
  O  O166  1  0.86130000  0.43774000  0.25989000  1.0
  O  O167  1  0.63870000  0.06226000  0.75989000  1.0
  O  O168  1  0.92963000  0.60012000  0.70442000  1.0
  O  O169  1  0.57037000  0.89988000  0.20442000  1.0
  O  O170  1  0.07037000  0.39988000  0.29558000  1.0
  O  O171  1  0.42963000  0.10012000  0.79558000  1.0
