# generated using pymatgen
data_LaH16C18NO8
_symmetry_space_group_name_H-M   'P 1'
_cell_length_a   13.31110000
_cell_length_b   14.10631033
_cell_length_c   14.86660000
_cell_angle_alpha   96.23707524
_cell_angle_beta   90.00030000
_cell_angle_gamma   118.13602961
_symmetry_Int_Tables_number   1
_chemical_formula_structural   LaH16C18NO8
_chemical_formula_sum   'La4 H64 C72 N4 O32'
_cell_volume   2442.88346900
_cell_formula_units_Z   4
loop_
 _symmetry_equiv_pos_site_id
 _symmetry_equiv_pos_as_xyz
  1  'x, y, z'
loop_
 _atom_site_type_symbol
 _atom_site_label
 _atom_site_symmetry_multiplicity
 _atom_site_fract_x
 _atom_site_fract_y
 _atom_site_fract_z
 _atom_site_occupancy
  La  La0  1  0.61981000  0.66274000  0.53168000  1.0
  La  La1  1  0.95709000  0.33725000  0.96829000  1.0
  La  La2  1  0.38019000  0.33726000  0.46832000  1.0
  La  La3  1  0.04290000  0.66274000  0.03171000  1.0
  H  H4  1  0.15350000  0.98758000  0.60482000  1.0
  H  H5  1  0.16571000  0.01278000  0.89499000  1.0
  H  H6  1  0.84650000  0.01242000  0.39518000  1.0
  H  H7  1  0.83428000  0.98722000  0.10501000  1.0
  H  H8  1  0.12203000  0.81673000  0.66182000  1.0
  H  H9  1  0.30539000  0.18358000  0.83820000  1.0
  H  H10  1  0.87797000  0.18328000  0.33818000  1.0
  H  H11  1  0.69461000  0.81642000  0.16180000  1.0
  H  H12  1  0.47006000  0.89401000  0.61167000  1.0
  H  H13  1  0.57571000  0.10579000  0.88866000  1.0
  H  H14  1  0.52993000  0.10598000  0.38833000  1.0
  H  H15  1  0.42428000  0.89421000  0.11134000  1.0
  H  H16  1  0.50050000  0.06734000  0.55851000  1.0
  H  H17  1  0.43262000  0.93260000  0.94175000  1.0
  H  H18  1  0.49950000  0.93266000  0.44149000  1.0
  H  H19  1  0.56737000  0.06740000  0.05826000  1.0
  H  H20  1  0.16652000  0.73817000  0.77738000  1.0
  H  H21  1  0.42809000  0.26182000  0.72283000  1.0
  H  H22  1  0.83348000  0.26183000  0.22262000  1.0
  H  H23  1  0.57190000  0.73818000  0.27717000  1.0
  H  H24  1  0.17633000  0.43895000  0.71075000  1.0
  H  H25  1  0.73679000  0.56115000  0.78934000  1.0
  H  H26  1  0.82368000  0.56106000  0.28925000  1.0
  H  H27  1  0.26321000  0.43885000  0.21065000  1.0
  H  H28  1  0.37144000  0.70818000  0.56182000  1.0
  H  H29  1  0.66335000  0.29193000  0.93814000  1.0
  H  H30  1  0.62857000  0.29183000  0.43818000  1.0
  H  H31  1  0.33665000  0.70807000  0.06186000  1.0
  H  H32  1  0.49619000  0.62602000  0.74776000  1.0
  H  H33  1  0.87047000  0.37386000  0.75203000  1.0
  H  H34  1  0.50382000  0.37399000  0.25225000  1.0
  H  H35  1  0.12952000  0.62613000  0.24797000  1.0
  H  H36  1  0.38929000  0.74393000  0.89690000  1.0
  H  H37  1  0.64563000  0.25609000  0.60296000  1.0
  H  H38  1  0.61071000  0.25608000  0.10310000  1.0
  H  H39  1  0.35437000  0.74391000  0.39705000  1.0
  H  H40  1  0.50713000  0.74492000  0.95548000  1.0
  H  H41  1  0.76244000  0.25507000  0.54432000  1.0
  H  H42  1  0.49288000  0.25509000  0.04452000  1.0
  H  H43  1  0.23756000  0.74493000  0.45569000  1.0
  H  H44  1  0.41774000  0.63223000  0.87384000  1.0
  H  H45  1  0.78574000  0.36772000  0.62603000  1.0
  H  H46  1  0.58226000  0.36778000  0.12616000  1.0
  H  H47  1  0.21426000  0.63228000  0.37398000  1.0
  H  H48  1  0.66240000  0.91687000  0.78418000  1.0
  H  H49  1  0.74568000  0.08295000  0.71559000  1.0
  H  H50  1  0.33761000  0.08314000  0.21582000  1.0
  H  H51  1  0.25432000  0.91704000  0.28441000  1.0
  H  H52  1  0.61696000  0.92352000  0.89736000  1.0
  H  H53  1  0.69359000  0.07638000  0.60241000  1.0
  H  H54  1  0.38305000  0.07649000  0.10264000  1.0
  H  H55  1  0.30642000  0.92362000  0.39759000  1.0
  H  H56  1  0.53088000  0.91919000  0.80307000  1.0
  H  H57  1  0.61195000  0.08084000  0.69673000  1.0
  H  H58  1  0.46914000  0.08082000  0.19693000  1.0
  H  H59  1  0.38805000  0.91915000  0.30326000  1.0
  H  H60  1  0.86453000  0.72905000  0.53560000  1.0
  H  H61  1  0.13554000  0.27107000  0.96429000  1.0
  H  H62  1  0.13547000  0.27095000  0.46439000  1.0
  H  H63  1  0.86445000  0.72892000  0.03571000  1.0
  H  H64  1  0.85293000  0.83390000  0.54641000  1.0
  H  H65  1  0.01915000  0.16622000  0.95344000  1.0
  H  H66  1  0.14707000  0.16610000  0.45358000  1.0
  H  H67  1  0.98086000  0.83378000  0.04656000  1.0
  C  C68  1  0.34675000  0.13563000  0.53602000  1.0
  C  C69  1  0.21068000  0.86448000  0.96404000  1.0
  C  C70  1  0.65325000  0.86437000  0.46397000  1.0
  C  C71  1  0.78931000  0.13551000  0.03596000  1.0
  C  C72  1  0.32903000  0.03718000  0.57717000  1.0
  C  C73  1  0.29145000  0.96295000  0.92297000  1.0
  C  C74  1  0.67097000  0.96282000  0.42283000  1.0
  C  C75  1  0.70854000  0.03705000  0.07703000  1.0
  C  C76  1  0.22275000  0.96722000  0.60794000  1.0
  C  C77  1  0.25531000  0.03302000  0.89211000  1.0
  C  C78  1  0.77725000  0.03279000  0.39205000  1.0
  C  C79  1  0.74468000  0.96698000  0.10789000  1.0
  C  C80  1  0.20581000  0.87197000  0.64000000  1.0
  C  C81  1  0.33373000  0.12822000  0.86010000  1.0
  C  C82  1  0.79420000  0.12804000  0.36000000  1.0
  C  C83  1  0.66627000  0.87178000  0.13990000  1.0
  C  C84  1  0.29383000  0.84333000  0.64057000  1.0
  C  C85  1  0.45036000  0.15672000  0.85962000  1.0
  C  C86  1  0.70616000  0.15667000  0.35943000  1.0
  C  C87  1  0.54963000  0.84328000  0.14038000  1.0
  C  C88  1  0.40108000  0.91527000  0.61195000  1.0
  C  C89  1  0.48554000  0.08470000  0.88830000  1.0
  C  C90  1  0.59891000  0.08473000  0.38805000  1.0
  C  C91  1  0.51446000  0.91530000  0.11170000  1.0
  C  C92  1  0.41828000  0.01146000  0.58169000  1.0
  C  C93  1  0.40642000  0.98859000  0.91856000  1.0
  C  C94  1  0.58172000  0.98854000  0.41830000  1.0
  C  C95  1  0.59358000  0.01141000  0.08145000  1.0
  C  C96  1  0.27018000  0.73632000  0.66529000  1.0
  C  C97  1  0.53370000  0.26372000  0.83486000  1.0
  C  C98  1  0.72983000  0.26368000  0.33472000  1.0
  C  C99  1  0.46629000  0.73627000  0.16514000  1.0
  C  C100  1  0.19872000  0.69140000  0.73529000  1.0
  C  C101  1  0.50701000  0.30863000  0.76493000  1.0
  C  C102  1  0.80128000  0.30860000  0.26471000  1.0
  C  C103  1  0.49300000  0.69137000  0.23507000  1.0
  C  C104  1  0.16749000  0.58604000  0.75341000  1.0
  C  C105  1  0.58097000  0.41400000  0.74679000  1.0
  C  C106  1  0.83251000  0.41396000  0.24659000  1.0
  C  C107  1  0.41903000  0.58600000  0.25320000  1.0
  C  C108  1  0.20403000  0.52241000  0.69896000  1.0
  C  C109  1  0.68116000  0.47769000  0.80117000  1.0
  C  C110  1  0.79597000  0.47759000  0.30104000  1.0
  C  C111  1  0.31883000  0.52231000  0.19883000  1.0
  C  C112  1  0.27741000  0.56730000  0.63019000  1.0
  C  C113  1  0.70991000  0.43280000  0.86982000  1.0
  C  C114  1  0.72260000  0.43271000  0.36981000  1.0
  C  C115  1  0.29008000  0.56720000  0.13018000  1.0
  C  C116  1  0.31309000  0.67448000  0.61509000  1.0
  C  C117  1  0.63854000  0.32559000  0.88492000  1.0
  C  C118  1  0.68692000  0.32553000  0.38492000  1.0
  C  C119  1  0.36146000  0.67441000  0.11508000  1.0
  C  C120  1  0.31458000  0.49908000  0.57077000  1.0
  C  C121  1  0.81549000  0.50098000  0.92906000  1.0
  C  C122  1  0.68542000  0.50092000  0.42923000  1.0
  C  C123  1  0.18451000  0.49902000  0.07093000  1.0
  C  C124  1  0.09377000  0.54288000  0.83092000  1.0
  C  C125  1  0.55041000  0.45704000  0.66924000  1.0
  C  C126  1  0.90624000  0.45712000  0.16908000  1.0
  C  C127  1  0.44958000  0.54295000  0.33076000  1.0
  C  C128  1  0.54181000  0.71442000  0.74598000  1.0
  C  C129  1  0.82769000  0.28546000  0.75380000  1.0
  C  C130  1  0.45819000  0.28558000  0.25402000  1.0
  C  C131  1  0.17231000  0.71455000  0.24620000  1.0
  C  C132  1  0.45721000  0.72049000  0.89038000  1.0
  C  C133  1  0.73698000  0.27948000  0.60945000  1.0
  C  C134  1  0.54280000  0.27952000  0.10963000  1.0
  C  C135  1  0.26302000  0.72052000  0.39055000  1.0
  C  C136  1  0.58874000  0.89013000  0.82628000  1.0
  C  C137  1  0.69885000  0.10980000  0.67350000  1.0
  C  C138  1  0.41126000  0.10988000  0.17372000  1.0
  C  C139  1  0.30116000  0.89020000  0.32650000  1.0
  N  N140  1  0.53102000  0.77229000  0.81889000  1.0
  N  N141  1  0.75902000  0.22762000  0.68090000  1.0
  N  N142  1  0.46899000  0.22772000  0.18111000  1.0
  N  N143  1  0.24099000  0.77238000  0.31911000  1.0
  O  O144  1  0.26155000  0.15381000  0.52686000  1.0
  O  O145  1  0.10727000  0.84620000  0.97300000  1.0
  O  O146  1  0.73845000  0.84619000  0.47313000  1.0
  O  O147  1  0.89272000  0.15379000  0.02699000  1.0
  O  O148  1  0.44506000  0.19892000  0.51022000  1.0
  O  O149  1  0.24577000  0.80126000  0.98998000  1.0
  O  O150  1  0.55494000  0.80108000  0.48978000  1.0
  O  O151  1  0.75423000  0.19874000  0.01002000  1.0
  O  O152  1  0.41290000  0.54438000  0.53734000  1.0
  O  O153  1  0.86844000  0.45552000  0.96232000  1.0
  O  O154  1  0.58710000  0.45562000  0.46266000  1.0
  O  O155  1  0.13155000  0.54447000  0.03768000  1.0
  O  O156  1  0.24824000  0.39790000  0.55443000  1.0
  O  O157  1  0.85050000  0.60220000  0.94536000  1.0
  O  O158  1  0.75176000  0.60210000  0.44556000  1.0
  O  O159  1  0.14951000  0.39780000  0.05464000  1.0
  O  O160  1  0.06486000  0.44644000  0.84598000  1.0
  O  O161  1  0.61789000  0.55346000  0.65412000  1.0
  O  O162  1  0.93515000  0.55356000  0.15402000  1.0
  O  O163  1  0.38210000  0.44654000  0.34588000  1.0
  O  O164  1  0.06443000  0.60672000  0.87628000  1.0
  O  O165  1  0.45729000  0.39311000  0.62386000  1.0
  O  O166  1  0.93557000  0.39327000  0.12372000  1.0
  O  O167  1  0.54271000  0.60689000  0.37614000  1.0
  O  O168  1  0.59892000  0.75530000  0.68026000  1.0
  O  O169  1  0.84392000  0.24455000  0.81953000  1.0
  O  O170  1  0.40109000  0.24471000  0.31974000  1.0
  O  O171  1  0.15609000  0.75544000  0.18048000  1.0
  O  O172  1  0.84706000  0.77523000  0.57973000  1.0
  O  O173  1  0.07195000  0.22492000  0.92014000  1.0
  O  O174  1  0.15294000  0.22477000  0.42027000  1.0
  O  O175  1  0.92806000  0.77508000  0.07986000  1.0
