# generated using pymatgen
data_CuH14C6(NCl)2
_symmetry_space_group_name_H-M   'P 1'
_cell_length_a   5.69284000
_cell_length_b   6.62465000
_cell_length_c   24.65690000
_cell_angle_alpha   90.00070000
_cell_angle_beta   90.00040000
_cell_angle_gamma   89.99920000
_symmetry_Int_Tables_number   1
_chemical_formula_structural   CuH14C6(NCl)2
_chemical_formula_sum   'Cu4 H56 C24 N8 Cl8'
_cell_volume   929.88745729
_cell_formula_units_Z   4
loop_
 _symmetry_equiv_pos_site_id
 _symmetry_equiv_pos_as_xyz
  1  'x, y, z'
loop_
 _atom_site_type_symbol
 _atom_site_label
 _atom_site_symmetry_multiplicity
 _atom_site_fract_x
 _atom_site_fract_y
 _atom_site_fract_z
 _atom_site_occupancy
  Cu  Cu0  1  0.25665000  0.40134000  0.98750000  1.0
  Cu  Cu1  1  0.24335000  0.59867000  0.48750000  1.0
  Cu  Cu2  1  0.74336000  0.90133000  0.51250000  1.0
  Cu  Cu3  1  0.75665000  0.09866000  0.01250000  1.0
  H  H4  1  0.51834000  0.45194000  0.87767000  1.0
  H  H5  1  0.98166000  0.54806000  0.37767000  1.0
  H  H6  1  0.48165000  0.95194000  0.62233000  1.0
  H  H7  1  0.01834000  0.04806000  0.12233000  1.0
  H  H8  1  0.10978000  0.27896000  0.81135000  1.0
  H  H9  1  0.39023000  0.72103000  0.31135000  1.0
  H  H10  1  0.89021000  0.77895000  0.68865000  1.0
  H  H11  1  0.60978000  0.22105000  0.18865000  1.0
  H  H12  1  0.40834000  0.20611000  0.80739000  1.0
  H  H13  1  0.09167000  0.79389000  0.30740000  1.0
  H  H14  1  0.59164000  0.70611000  0.69260000  1.0
  H  H15  1  0.90834000  0.29389000  0.19260000  1.0
  H  H16  1  0.51959000  0.54933000  0.77534000  1.0
  H  H17  1  0.98041000  0.45067000  0.27534000  1.0
  H  H18  1  0.48039000  0.04934000  0.72465000  1.0
  H  H19  1  0.01960000  0.95068000  0.22466000  1.0
  H  H20  1  0.30175000  0.44798000  0.73214000  1.0
  H  H21  1  0.19823000  0.55201000  0.23214000  1.0
  H  H22  1  0.69819000  0.94798000  0.76786000  1.0
  H  H23  1  0.80178000  0.05203000  0.26786000  1.0
  H  H24  1  0.99296000  0.64358000  0.78230000  1.0
  H  H25  1  0.50704000  0.35642000  0.28230000  1.0
  H  H26  1  0.00702000  0.14357000  0.71770000  1.0
  H  H27  1  0.49297000  0.85643000  0.21770000  1.0
  H  H28  1  0.20957000  0.80728000  0.75602000  1.0
  H  H29  1  0.29043000  0.19272000  0.25601000  1.0
  H  H30  1  0.79041000  0.30726000  0.74399000  1.0
  H  H31  1  0.70958000  0.69273000  0.24399000  1.0
  H  H32  1  0.40701000  0.82326000  0.84657000  1.0
  H  H33  1  0.09298000  0.17675000  0.34656000  1.0
  H  H34  1  0.59298000  0.32326000  0.65344000  1.0
  H  H35  1  0.90702000  0.67675000  0.15343000  1.0
  H  H36  1  0.10717000  0.89402000  0.85240000  1.0
  H  H37  1  0.39281000  0.10598000  0.35240000  1.0
  H  H38  1  0.89281000  0.39401000  0.64761000  1.0
  H  H39  1  0.60719000  0.60599000  0.14760000  1.0
  H  H40  1  0.99877000  0.55816000  0.88512000  1.0
  H  H41  1  0.50123000  0.44184000  0.38512000  1.0
  H  H42  1  0.00121000  0.05816000  0.61489000  1.0
  H  H43  1  0.49878000  0.94183000  0.11488000  1.0
  H  H44  1  0.40873000  0.15385000  0.91737000  1.0
  H  H45  1  0.09129000  0.84615000  0.41736000  1.0
  H  H46  1  0.59127000  0.65385000  0.58263000  1.0
  H  H47  1  0.90874000  0.34615000  0.08263000  1.0
  H  H48  1  0.11999000  0.19192000  0.90901000  1.0
  H  H49  1  0.38002000  0.80808000  0.40901000  1.0
  H  H50  1  0.88000000  0.69193000  0.59099000  1.0
  H  H51  1  0.62000000  0.30808000  0.09099000  1.0
  H  H52  1  0.11544000  0.75786000  0.95606000  1.0
  H  H53  1  0.38457000  0.24215000  0.45606000  1.0
  H  H54  1  0.88458000  0.25785000  0.54394000  1.0
  H  H55  1  0.61543000  0.74214000  0.04394000  1.0
  H  H56  1  0.40014000  0.73331000  0.94370000  1.0
  H  H57  1  0.09987000  0.26670000  0.44370000  1.0
  H  H58  1  0.59989000  0.23331000  0.55630000  1.0
  H  H59  1  0.90013000  0.76670000  0.05630000  1.0
  C  C60  1  0.33147000  0.41245000  0.87252000  1.0
  C  C61  1  0.16854000  0.58756000  0.37252000  1.0
  C  C62  1  0.66851000  0.91245000  0.62748000  1.0
  C  C63  1  0.83148000  0.08755000  0.12748000  1.0
  C  C64  1  0.29155000  0.33519000  0.81494000  1.0
  C  C65  1  0.20846000  0.66480000  0.31494000  1.0
  C  C66  1  0.70843000  0.83520000  0.68506000  1.0
  C  C67  1  0.79156000  0.16481000  0.18506000  1.0
  C  C68  1  0.33340000  0.50349000  0.77359000  1.0
  C  C69  1  0.16659000  0.49650000  0.27359000  1.0
  C  C70  1  0.66657000  0.00349000  0.72641000  1.0
  C  C71  1  0.83342000  0.99652000  0.22641000  1.0
  C  C72  1  0.17947000  0.68702000  0.78602000  1.0
  C  C73  1  0.32053000  0.31297000  0.28602000  1.0
  C  C74  1  0.82051000  0.18701000  0.71399000  1.0
  C  C75  1  0.67948000  0.81298000  0.21398000  1.0
  C  C76  1  0.22508000  0.76703000  0.84333000  1.0
  C  C77  1  0.27492000  0.23296000  0.34333000  1.0
  C  C78  1  0.77491000  0.26704000  0.65667000  1.0
  C  C79  1  0.72509000  0.73297000  0.15667000  1.0
  C  C80  1  0.18608000  0.60042000  0.88530000  1.0
  C  C81  1  0.31392000  0.39958000  0.38529000  1.0
  C  C82  1  0.81391000  0.10042000  0.61471000  1.0
  C  C83  1  0.68608000  0.89957000  0.11470000  1.0
  N  N84  1  0.27925000  0.26191000  0.91469000  1.0
  N  N85  1  0.22076000  0.73810000  0.41469000  1.0
  N  N86  1  0.72078000  0.76190000  0.58531000  1.0
  N  N87  1  0.77922000  0.23809000  0.08531000  1.0
  N  N88  1  0.24072000  0.65978000  0.94182000  1.0
  N  N89  1  0.25929000  0.34023000  0.44182000  1.0
  N  N90  1  0.75927000  0.15978000  0.55819000  1.0
  N  N91  1  0.74074000  0.84023000  0.05818000  1.0
  Cl  Cl92  1  0.25571000  0.08254000  0.02481000  1.0
  Cl  Cl93  1  0.24431000  0.91747000  0.52481000  1.0
  Cl  Cl94  1  0.74432000  0.58254000  0.47519000  1.0
  Cl  Cl95  1  0.75571000  0.41747000  0.97519000  1.0
  Cl  Cl96  1  0.24655000  0.55262000  0.07139000  1.0
  Cl  Cl97  1  0.25346000  0.44739000  0.57139000  1.0
  Cl  Cl98  1  0.75346000  0.05261000  0.42861000  1.0
  Cl  Cl99  1  0.74654000  0.94738000  0.92861000  1.0
