# generated using pymatgen
data_CdH11C6NCl2O
_symmetry_space_group_name_H-M   'P 1'
_cell_length_a   6.60467000
_cell_length_b   10.02330000
_cell_length_c   14.85130000
_cell_angle_alpha   90.00060000
_cell_angle_beta   90.00020000
_cell_angle_gamma   108.29200000
_symmetry_Int_Tables_number   1
_chemical_formula_structural   CdH11C6NCl2O
_chemical_formula_sum   'Cd4 H44 C24 N4 Cl8 O4'
_cell_volume   933.48480858
_cell_formula_units_Z   4
loop_
 _symmetry_equiv_pos_site_id
 _symmetry_equiv_pos_as_xyz
  1  'x, y, z'
loop_
 _atom_site_type_symbol
 _atom_site_label
 _atom_site_symmetry_multiplicity
 _atom_site_fract_x
 _atom_site_fract_y
 _atom_site_fract_z
 _atom_site_occupancy
  Cd  Cd0  1  0.55772000  0.78290000  0.25057000  1.0
  Cd  Cd1  1  0.94229000  0.21710000  0.75057000  1.0
  Cd  Cd2  1  0.44229000  0.21710000  0.74943000  1.0
  Cd  Cd3  1  0.05772000  0.78290000  0.24943000  1.0
  H  H4  1  0.71266000  0.01403000  0.10704000  1.0
  H  H5  1  0.78734000  0.98597000  0.60704000  1.0
  H  H6  1  0.28732000  0.98596000  0.89296000  1.0
  H  H7  1  0.21268000  0.01404000  0.39296000  1.0
  H  H8  1  0.16872000  0.10311000  0.17711000  1.0
  H  H9  1  0.33127000  0.89689000  0.67711000  1.0
  H  H10  1  0.83126000  0.89688000  0.82289000  1.0
  H  H11  1  0.66874000  0.10312000  0.32289000  1.0
  H  H12  1  0.25894000  0.14960000  0.06554000  1.0
  H  H13  1  0.24106000  0.85040000  0.56554000  1.0
  H  H14  1  0.74104000  0.85040000  0.93447000  1.0
  H  H15  1  0.75896000  0.14961000  0.43447000  1.0
  H  H16  1  0.30158000  0.35299000  0.17967000  1.0
  H  H17  1  0.19841000  0.64701000  0.67967000  1.0
  H  H18  1  0.69840000  0.64701000  0.82033000  1.0
  H  H19  1  0.80161000  0.35299000  0.32033000  1.0
  H  H20  1  0.50885000  0.30377000  0.22953000  1.0
  H  H21  1  0.99115000  0.69623000  0.72953000  1.0
  H  H22  1  0.49114000  0.69623000  0.77047000  1.0
  H  H23  1  0.00887000  0.30378000  0.27047000  1.0
  H  H24  1  0.48741000  0.39267000  0.03291000  1.0
  H  H25  1  0.01258000  0.60733000  0.53291000  1.0
  H  H26  1  0.51256000  0.60732000  0.96709000  1.0
  H  H27  1  0.98745000  0.39269000  0.46709000  1.0
  H  H28  1  0.63449000  0.50183000  0.11918000  1.0
  H  H29  1  0.86551000  0.49817000  0.61918000  1.0
  H  H30  1  0.36550000  0.49816000  0.88081000  1.0
  H  H31  1  0.13451000  0.50184000  0.38082000  1.0
  H  H32  1  0.87105000  0.35093000  0.13239000  1.0
  H  H33  1  0.62894000  0.64906000  0.63239000  1.0
  H  H34  1  0.12892000  0.64906000  0.86761000  1.0
  H  H35  1  0.37109000  0.35095000  0.36762000  1.0
  H  H36  1  0.86771000  0.41645000  0.02240000  1.0
  H  H37  1  0.63228000  0.58354000  0.52239000  1.0
  H  H38  1  0.13226000  0.58354000  0.97760000  1.0
  H  H39  1  0.36774000  0.41646000  0.47761000  1.0
  H  H40  1  0.59304000  0.18646000  0.97846000  1.0
  H  H41  1  0.90696000  0.81353000  0.47845000  1.0
  H  H42  1  0.40695000  0.81353000  0.02154000  1.0
  H  H43  1  0.09305000  0.18647000  0.52154000  1.0
  H  H44  1  0.85133000  0.17933000  0.00221000  1.0
  H  H45  1  0.64866000  0.82067000  0.50221000  1.0
  H  H46  1  0.14865000  0.82067000  0.99779000  1.0
  H  H47  1  0.35135000  0.17933000  0.49780000  1.0
  C  C48  1  0.44846000  0.05683000  0.14514000  1.0
  C  C49  1  0.05154000  0.94317000  0.64513000  1.0
  C  C50  1  0.55152000  0.94316000  0.85486000  1.0
  C  C51  1  0.94848000  0.05684000  0.35486000  1.0
  C  C52  1  0.31128000  0.15052000  0.13613000  1.0
  C  C53  1  0.18872000  0.84947000  0.63613000  1.0
  C  C54  1  0.68871000  0.84948000  0.86387000  1.0
  C  C55  1  0.81129000  0.15053000  0.36387000  1.0
  C  C56  1  0.42466000  0.30331000  0.16543000  1.0
  C  C57  1  0.07533000  0.69669000  0.66543000  1.0
  C  C58  1  0.57533000  0.69669000  0.83457000  1.0
  C  C59  1  0.92468000  0.30331000  0.33457000  1.0
  C  C60  1  0.57749000  0.39246000  0.09537000  1.0
  C  C61  1  0.92250000  0.60753000  0.59537000  1.0
  C  C62  1  0.42249000  0.60753000  0.90462000  1.0
  C  C63  1  0.07751000  0.39247000  0.40463000  1.0
  C  C64  1  0.76946000  0.34445000  0.07278000  1.0
  C  C65  1  0.73053000  0.65554000  0.57277000  1.0
  C  C66  1  0.23051000  0.65554000  0.92722000  1.0
  C  C67  1  0.26949000  0.34446000  0.42723000  1.0
  C  C68  1  0.71067000  0.19714000  0.03268000  1.0
  C  C69  1  0.78932000  0.80285000  0.53268000  1.0
  C  C70  1  0.28931000  0.80285000  0.96732000  1.0
  C  C71  1  0.21069000  0.19715000  0.46733000  1.0
  N  N72  1  0.62847000  0.08366000  0.09838000  1.0
  N  N73  1  0.87152000  0.91634000  0.59838000  1.0
  N  N74  1  0.37151000  0.91634000  0.90162000  1.0
  N  N75  1  0.12849000  0.08367000  0.40162000  1.0
  Cl  Cl76  1  0.22455000  0.61174000  0.17631000  1.0
  Cl  Cl77  1  0.27545000  0.38826000  0.67631000  1.0
  Cl  Cl78  1  0.77545000  0.38826000  0.82369000  1.0
  Cl  Cl79  1  0.72455000  0.61175000  0.32369000  1.0
  Cl  Cl80  1  0.82498000  0.81898000  0.11105000  1.0
  Cl  Cl81  1  0.67502000  0.18102000  0.61105000  1.0
  Cl  Cl82  1  0.17501000  0.18102000  0.88895000  1.0
  Cl  Cl83  1  0.32499000  0.81899000  0.38895000  1.0
  O  O84  1  0.39505000  0.95335000  0.20012000  1.0
  O  O85  1  0.10496000  0.04665000  0.70012000  1.0
  O  O86  1  0.60495000  0.04665000  0.79988000  1.0
  O  O87  1  0.89505000  0.95335000  0.29988000  1.0
