# generated using pymatgen
data_CuH8(C3N)5
_symmetry_space_group_name_H-M   'P 1'
_cell_length_a   7.98673000
_cell_length_b   8.81920000
_cell_length_c   17.80570000
_cell_angle_alpha   76.45800000
_cell_angle_beta   89.99960000
_cell_angle_gamma   89.99980000
_symmetry_Int_Tables_number   1
_chemical_formula_structural   CuH8(C3N)5
_chemical_formula_sum   'Cu4 H32 C60 N20'
_cell_volume   1219.30458952
_cell_formula_units_Z   4
loop_
 _symmetry_equiv_pos_site_id
 _symmetry_equiv_pos_as_xyz
  1  'x, y, z'
loop_
 _atom_site_type_symbol
 _atom_site_label
 _atom_site_symmetry_multiplicity
 _atom_site_fract_x
 _atom_site_fract_y
 _atom_site_fract_z
 _atom_site_occupancy
  Cu  Cu0  1  0.02910000  0.83974000  0.81010000  1.0
  Cu  Cu1  1  0.52910000  0.66027000  0.68990000  1.0
  Cu  Cu2  1  0.97091000  0.16026000  0.18990000  1.0
  Cu  Cu3  1  0.47091000  0.33973000  0.31010000  1.0
  H  H4  1  0.08850000  0.55277000  0.95348000  1.0
  H  H5  1  0.58851000  0.94724000  0.54652000  1.0
  H  H6  1  0.91149000  0.44723000  0.04652000  1.0
  H  H7  1  0.41149000  0.05276000  0.45348000  1.0
  H  H8  1  0.19508000  0.52072000  0.08866000  1.0
  H  H9  1  0.69508000  0.97928000  0.41134000  1.0
  H  H10  1  0.80492000  0.47928000  0.91134000  1.0
  H  H11  1  0.30491000  0.02072000  0.58866000  1.0
  H  H12  1  0.30366000  0.75797000  0.12902000  1.0
  H  H13  1  0.80366000  0.74204000  0.37098000  1.0
  H  H14  1  0.69634000  0.24203000  0.87098000  1.0
  H  H15  1  0.19634000  0.25796000  0.62902000  1.0
  H  H16  1  0.54318000  0.16249000  0.16603000  1.0
  H  H17  1  0.04318000  0.33751000  0.33397000  1.0
  H  H18  1  0.45681000  0.83751000  0.83397000  1.0
  H  H19  1  0.95682000  0.66249000  0.66603000  1.0
  H  H20  1  0.50198000  0.42140000  0.07259000  1.0
  H  H21  1  0.00197000  0.07861000  0.42741000  1.0
  H  H22  1  0.49802000  0.57861000  0.92741000  1.0
  H  H23  1  0.99802000  0.92140000  0.57259000  1.0
  H  H24  1  0.23701000  0.45624000  0.86306000  1.0
  H  H25  1  0.73701000  0.04377000  0.63694000  1.0
  H  H26  1  0.76299000  0.54376000  0.13694000  1.0
  H  H27  1  0.26299000  0.95623000  0.36306000  1.0
  H  H28  1  0.08907000  0.45013000  0.73973000  1.0
  H  H29  1  0.58907000  0.04988000  0.76027000  1.0
  H  H30  1  0.91094000  0.54987000  0.26027000  1.0
  H  H31  1  0.41093000  0.95012000  0.23972000  1.0
  H  H32  1  0.98643000  0.19609000  0.71893000  1.0
  H  H33  1  0.48643000  0.30392000  0.78107000  1.0
  H  H34  1  0.01358000  0.80391000  0.28107000  1.0
  H  H35  1  0.51357000  0.69608000  0.21893000  1.0
  C  C36  1  0.12751000  0.65356000  0.97451000  1.0
  C  C37  1  0.62751000  0.84644000  0.52549000  1.0
  C  C38  1  0.87249000  0.34644000  0.02549000  1.0
  C  C39  1  0.37248000  0.15356000  0.47451000  1.0
  C  C40  1  0.19085000  0.63583000  0.04946000  1.0
  C  C41  1  0.69085000  0.86418000  0.45054000  1.0
  C  C42  1  0.80916000  0.36417000  0.95054000  1.0
  C  C43  1  0.30915000  0.13583000  0.54946000  1.0
  C  C44  1  0.25036000  0.76597000  0.07201000  1.0
  C  C45  1  0.75036000  0.73403000  0.42799000  1.0
  C  C46  1  0.74965000  0.23403000  0.92799000  1.0
  C  C47  1  0.24964000  0.26597000  0.57201000  1.0
  C  C48  1  0.24307000  0.91193000  0.01932000  1.0
  C  C49  1  0.74306000  0.58807000  0.48068000  1.0
  C  C50  1  0.75693000  0.08807000  0.98068000  1.0
  C  C51  1  0.25693000  0.41193000  0.51932000  1.0
  C  C52  1  0.31448000  0.05235000  0.03551000  1.0
  C  C53  1  0.81448000  0.44766000  0.46449000  1.0
  C  C54  1  0.68552000  0.94766000  0.96449000  1.0
  C  C55  1  0.18552000  0.55234000  0.53551000  1.0
  C  C56  1  0.46946000  0.17023000  0.11362000  1.0
  C  C57  1  0.96946000  0.32977000  0.38638000  1.0
  C  C58  1  0.53054000  0.82977000  0.88638000  1.0
  C  C59  1  0.03054000  0.67023000  0.61362000  1.0
  C  C60  1  0.44731000  0.31536000  0.06122000  1.0
  C  C61  1  0.94731000  0.18464000  0.43878000  1.0
  C  C62  1  0.55269000  0.68464000  0.93878000  1.0
  C  C63  1  0.05269000  0.81536000  0.56122000  1.0
  C  C64  1  0.29680000  0.19761000  0.98142000  1.0
  C  C65  1  0.79680000  0.30240000  0.51858000  1.0
  C  C66  1  0.70320000  0.80240000  0.01858000  1.0
  C  C67  1  0.20320000  0.69760000  0.48142000  1.0
  C  C68  1  0.21042000  0.20683000  0.90860000  1.0
  C  C69  1  0.71042000  0.29318000  0.59140000  1.0
  C  C70  1  0.78958000  0.79317000  0.09140000  1.0
  C  C71  1  0.28959000  0.70682000  0.40860000  1.0
  C  C72  1  0.18871000  0.34739000  0.85280000  1.0
  C  C73  1  0.68871000  0.15262000  0.64720000  1.0
  C  C74  1  0.81129000  0.65261000  0.14720000  1.0
  C  C75  1  0.31129000  0.84738000  0.35280000  1.0
  C  C76  1  0.10675000  0.34432000  0.78454000  1.0
  C  C77  1  0.60676000  0.15569000  0.71546000  1.0
  C  C78  1  0.89324000  0.65568000  0.21546000  1.0
  C  C79  1  0.39324000  0.84431000  0.28454000  1.0
  C  C80  1  0.05053000  0.20164000  0.77230000  1.0
  C  C81  1  0.55053000  0.29837000  0.72770000  1.0
  C  C82  1  0.94948000  0.79836000  0.22770000  1.0
  C  C83  1  0.44947000  0.70163000  0.27230000  1.0
  C  C84  1  0.14865000  0.06836000  0.89160000  1.0
  C  C85  1  0.64865000  0.43165000  0.60840000  1.0
  C  C86  1  0.85136000  0.93164000  0.10840000  1.0
  C  C87  1  0.35135000  0.56835000  0.39160000  1.0
  C  C88  1  0.16734000  0.92029000  0.94677000  1.0
  C  C89  1  0.66734000  0.57971000  0.55323000  1.0
  C  C90  1  0.83266000  0.07971000  0.05323000  1.0
  C  C91  1  0.33266000  0.42029000  0.44677000  1.0
  C  C92  1  0.83196000  0.76215000  0.77728000  1.0
  C  C93  1  0.33197000  0.73784000  0.72272000  1.0
  C  C94  1  0.16803000  0.23784000  0.22272000  1.0
  C  C95  1  0.66804000  0.26214000  0.27728000  1.0
  N  N96  1  0.11216000  0.79182000  0.92444000  1.0
  N  N97  1  0.61216000  0.70818000  0.57556000  1.0
  N  N98  1  0.88784000  0.20818000  0.07556000  1.0
  N  N99  1  0.38784000  0.29182000  0.42444000  1.0
  N  N100  1  0.07138000  0.06555000  0.82385000  1.0
  N  N101  1  0.57138000  0.43445000  0.67615000  1.0
  N  N102  1  0.92862000  0.93445000  0.17615000  1.0
  N  N103  1  0.42862000  0.56555000  0.32385000  1.0
  N  N104  1  0.40353000  0.04000000  0.10119000  1.0
  N  N105  1  0.90354000  0.46001000  0.39880000  1.0
  N  N106  1  0.59646000  0.96000000  0.89881000  1.0
  N  N107  1  0.09647000  0.54000000  0.60120000  1.0
  N  N108  1  0.36290000  0.32930000  0.99564000  1.0
  N  N109  1  0.86290000  0.17070000  0.50436000  1.0
  N  N110  1  0.63710000  0.67070000  0.00436000  1.0
  N  N111  1  0.13710000  0.82930000  0.49564000  1.0
  N  N112  1  0.72013000  0.70932000  0.74830000  1.0
  N  N113  1  0.22012000  0.79068000  0.75171000  1.0
  N  N114  1  0.27988000  0.29068000  0.25171000  1.0
  N  N115  1  0.77988000  0.20931000  0.24829000  1.0
