# generated using pymatgen
data_Co2H18C24N2O13
_symmetry_space_group_name_H-M   'P 1'
_cell_length_a   10.13610000
_cell_length_b   17.90550000
_cell_length_c   18.08040000
_cell_angle_alpha   89.99180000
_cell_angle_beta   86.18260000
_cell_angle_gamma   89.99780000
_symmetry_Int_Tables_number   1
_chemical_formula_structural   Co2H18C24N2O13
_chemical_formula_sum   'Co4 H36 C48 N4 O26'
_cell_volume   3274.16625076
_cell_formula_units_Z   2
loop_
 _symmetry_equiv_pos_site_id
 _symmetry_equiv_pos_as_xyz
  1  'x, y, z'
loop_
 _atom_site_type_symbol
 _atom_site_label
 _atom_site_symmetry_multiplicity
 _atom_site_fract_x
 _atom_site_fract_y
 _atom_site_fract_z
 _atom_site_occupancy
  Co  Co0  1  0.49705000  0.30468000  0.63718000  1.0
  Co  Co1  1  0.71624000  0.26035000  0.50212000  1.0
  Co  Co2  1  0.50291000  0.80471000  0.36295000  1.0
  Co  Co3  1  0.28382000  0.76033000  0.49780000  1.0
  H  H4  1  0.32593000  0.99048000  0.77236000  1.0
  H  H5  1  0.16061000  0.85857000  0.08680000  1.0
  H  H6  1  0.99817000  0.84041000  0.78692000  1.0
  H  H7  1  0.88860000  0.83234000  0.91566000  1.0
  H  H8  1  0.23692000  0.92683000  0.00277000  1.0
  H  H9  1  0.34248000  0.93680000  0.87758000  1.0
  H  H10  1  0.41150000  0.08767000  0.69809000  1.0
  H  H11  1  0.56003000  0.03764000  0.47549000  1.0
  H  H12  1  0.38085000  0.86352000  0.61039000  1.0
  H  H13  1  0.81274000  0.84544000  0.16875000  1.0
  H  H14  1  0.95158000  0.79217000  0.38220000  1.0
  H  H15  1  0.23316000  0.83980000  0.20003000  1.0
  H  H16  1  0.88290000  0.14537000  0.50339000  1.0
  H  H17  1  0.84317000  0.16388000  0.42377000  1.0
  H  H18  1  0.93361000  0.33279000  0.46421000  1.0
  H  H19  1  0.84333000  0.35532000  0.39970000  1.0
  H  H20  1  0.72081000  0.26568000  0.34080000  1.0
  H  H21  1  0.60627000  0.21000000  0.36961000  1.0
  H  H22  1  0.67410000  0.49054000  0.22763000  1.0
  H  H23  1  0.83937000  0.35856000  0.91317000  1.0
  H  H24  1  0.00177000  0.34038000  0.21310000  1.0
  H  H25  1  0.11135000  0.33226000  0.08436000  1.0
  H  H26  1  0.76309000  0.42684000  0.99721000  1.0
  H  H27  1  0.65753000  0.43688000  0.12240000  1.0
  H  H28  1  0.58849000  0.58773000  0.30188000  1.0
  H  H29  1  0.44000000  0.53766000  0.52449000  1.0
  H  H30  1  0.61925000  0.36357000  0.38963000  1.0
  H  H31  1  0.18729000  0.34540000  0.83128000  1.0
  H  H32  1  0.04849000  0.29214000  0.61781000  1.0
  H  H33  1  0.76688000  0.33978000  0.79997000  1.0
  H  H34  1  0.11686000  0.64550000  0.49663000  1.0
  H  H35  1  0.15677000  0.66390000  0.57625000  1.0
  H  H36  1  0.06652000  0.83287000  0.53578000  1.0
  H  H37  1  0.15676000  0.85537000  0.60029000  1.0
  H  H38  1  0.27925000  0.76566000  0.65917000  1.0
  H  H39  1  0.39377000  0.70996000  0.63041000  1.0
  C  C40  1  0.17582000  0.89029000  0.82341000  1.0
  C  C41  1  0.04870000  0.85948000  0.83479000  1.0
  C  C42  1  0.98852000  0.85430000  0.90581000  1.0
  C  C43  1  0.05542000  0.87713000  0.96742000  1.0
  C  C44  1  0.18295000  0.90728000  0.95622000  1.0
  C  C45  1  0.24230000  0.91439000  0.88478000  1.0
  C  C46  1  0.23422000  0.89509000  0.74583000  1.0
  C  C47  1  0.98227000  0.86758000  0.04203000  1.0
  C  C48  1  0.38642000  0.97244000  0.66267000  1.0
  C  C49  1  0.42899000  0.04647000  0.65399000  1.0
  C  C50  1  0.49454000  0.06953000  0.58734000  1.0
  C  C51  1  0.51271000  0.01950000  0.52824000  1.0
  C  C52  1  0.46848000  0.94590000  0.53690000  1.0
  C  C53  1  0.40940000  0.92157000  0.60467000  1.0
  C  C54  1  0.54124000  0.14881000  0.57967000  1.0
  C  C55  1  0.48005000  0.89344000  0.47323000  1.0
  C  C56  1  0.02602000  0.84383000  0.17502000  1.0
  C  C57  1  0.89447000  0.83703000  0.20373000  1.0
  C  C58  1  0.86968000  0.81864000  0.27865000  1.0
  C  C59  1  0.97351000  0.80705000  0.32436000  1.0
  C  C60  1  0.10424000  0.81499000  0.29580000  1.0
  C  C61  1  0.13033000  0.83368000  0.22129000  1.0
  C  C62  1  0.73126000  0.81110000  0.31149000  1.0
  C  C63  1  0.21555000  0.80356000  0.34487000  1.0
  C  C64  1  0.82417000  0.39032000  0.17658000  1.0
  C  C65  1  0.95126000  0.35945000  0.16522000  1.0
  C  C66  1  0.01143000  0.35424000  0.09419000  1.0
  C  C67  1  0.94455000  0.37709000  0.03257000  1.0
  C  C68  1  0.81705000  0.40729000  0.04377000  1.0
  C  C69  1  0.75770000  0.41443000  0.11521000  1.0
  C  C70  1  0.76580000  0.39514000  0.25416000  1.0
  C  C71  1  0.01772000  0.36753000  0.95796000  1.0
  C  C72  1  0.61362000  0.47249000  0.33732000  1.0
  C  C73  1  0.57102000  0.54653000  0.34597000  1.0
  C  C74  1  0.50548000  0.56956000  0.41263000  1.0
  C  C75  1  0.48733000  0.51952000  0.47174000  1.0
  C  C76  1  0.53161000  0.44593000  0.46311000  1.0
  C  C77  1  0.59068000  0.42162000  0.39533000  1.0
  C  C78  1  0.45872000  0.64882000  0.42030000  1.0
  C  C79  1  0.52002000  0.39344000  0.52678000  1.0
  C  C80  1  0.97398000  0.34380000  0.82498000  1.0
  C  C81  1  0.10553000  0.33701000  0.79629000  1.0
  C  C82  1  0.13024000  0.31863000  0.72138000  1.0
  C  C83  1  0.02645000  0.30702000  0.67565000  1.0
  C  C84  1  0.89571000  0.31494000  0.70419000  1.0
  C  C85  1  0.86969000  0.33366000  0.77869000  1.0
  C  C86  1  0.26864000  0.31108000  0.68854000  1.0
  C  C87  1  0.78441000  0.30352000  0.65512000  1.0
  N  N88  1  0.32023000  0.95225000  0.73113000  1.0
  N  N89  1  0.06175000  0.85980000  0.10004000  1.0
  N  N90  1  0.67981000  0.45231000  0.26886000  1.0
  N  N91  1  0.93823000  0.35976000  0.89995000  1.0
  O  O92  1  0.20188000  0.84901000  0.69780000  1.0
  O  O93  1  0.86015000  0.86541000  0.04791000  1.0
  O  O94  1  0.50105000  0.19320000  0.63105000  1.0
  O  O95  1  0.61754000  0.16445000  0.52259000  1.0
  O  O96  1  0.52509000  0.91439000  0.41004000  1.0
  O  O97  1  0.44418000  0.82414000  0.48309000  1.0
  O  O98  1  0.63257000  0.82028000  0.27122000  1.0
  O  O99  1  0.71089000  0.79600000  0.38017000  1.0
  O  O100  1  0.18511000  0.77641000  0.40907000  1.0
  O  O101  1  0.33149000  0.82103000  0.31910000  1.0
  O  O102  1  0.88826000  0.18416000  0.46554000  1.0
  O  O103  1  0.84474000  0.34839000  0.45375000  1.0
  O  O104  1  0.69474000  0.22732000  0.37828000  1.0
  O  O105  1  0.79814000  0.34905000  0.30220000  1.0
  O  O106  1  0.13982000  0.36532000  0.95211000  1.0
  O  O107  1  0.49885000  0.69326000  0.36895000  1.0
  O  O108  1  0.38239000  0.66441000  0.47738000  1.0
  O  O109  1  0.47490000  0.41437000  0.58996000  1.0
  O  O110  1  0.55594000  0.32416000  0.51689000  1.0
  O  O111  1  0.36727000  0.32023000  0.72886000  1.0
  O  O112  1  0.28904000  0.29598000  0.61988000  1.0
  O  O113  1  0.81482000  0.27640000  0.59092000  1.0
  O  O114  1  0.66850000  0.32099000  0.68093000  1.0
  O  O115  1  0.11181000  0.68429000  0.53447000  1.0
  O  O116  1  0.15541000  0.84841000  0.54624000  1.0
  O  O117  1  0.30529000  0.72727000  0.62173000  1.0
