# generated using pymatgen
data_AgH7C9N3O4
_symmetry_space_group_name_H-M   'P 1'
_cell_length_a   6.05028000
_cell_length_b   7.04134000
_cell_length_c   12.73060000
_cell_angle_alpha   91.56290000
_cell_angle_beta   96.57290000
_cell_angle_gamma   101.45200000
_symmetry_Int_Tables_number   1
_chemical_formula_structural   AgH7C9N3O4
_chemical_formula_sum   'Ag2 H14 C18 N6 O8'
_cell_volume   527.36191042
_cell_formula_units_Z   2
loop_
 _symmetry_equiv_pos_site_id
 _symmetry_equiv_pos_as_xyz
  1  'x, y, z'
loop_
 _atom_site_type_symbol
 _atom_site_label
 _atom_site_symmetry_multiplicity
 _atom_site_fract_x
 _atom_site_fract_y
 _atom_site_fract_z
 _atom_site_occupancy
  Ag  Ag0  1  0.23450000  0.06958000  0.54942000  1.0
  Ag  Ag1  1  0.76548000  0.93042000  0.45058000  1.0
  H  H2  1  0.19336000  0.36934000  0.37547000  1.0
  H  H3  1  0.80663000  0.63066000  0.62453000  1.0
  H  H4  1  0.32191000  0.41582000  0.70462000  1.0
  H  H5  1  0.67807000  0.58419000  0.29537000  1.0
  H  H6  1  0.34519000  0.77939000  0.70126000  1.0
  H  H7  1  0.65480000  0.22062000  0.29873000  1.0
  H  H8  1  0.26766000  0.25758000  0.92266000  1.0
  H  H9  1  0.73237000  0.74243000  0.07734000  1.0
  H  H10  1  0.22934000  0.89680000  0.34759000  1.0
  H  H11  1  0.77065000  0.10321000  0.65240000  1.0
  H  H12  1  0.21782000  0.67058000  0.28387000  1.0
  H  H13  1  0.78218000  0.32943000  0.71612000  1.0
  H  H14  1  0.04444000  0.60200000  0.85278000  1.0
  H  H15  1  0.95560000  0.39801000  0.14723000  1.0
  C  C16  1  0.25238000  0.66792000  0.44478000  1.0
  C  C17  1  0.74761000  0.33209000  0.55521000  1.0
  C  C18  1  0.23098000  0.46279000  0.44791000  1.0
  C  C19  1  0.76898000  0.53721000  0.55209000  1.0
  C  C20  1  0.29838000  0.48919000  0.63137000  1.0
  C  C21  1  0.70163000  0.51082000  0.36862000  1.0
  C  C22  1  0.31111000  0.68673000  0.62893000  1.0
  C  C23  1  0.68884000  0.31328000  0.37106000  1.0
  C  C24  1  0.15104000  0.14478000  0.95731000  1.0
  C  C25  1  0.84898000  0.85520000  0.04268000  1.0
  C  C26  1  0.02961000  0.98679000  0.89190000  1.0
  C  C27  1  0.97039000  0.01319000  0.10811000  1.0
  C  C28  1  0.87868000  0.84031000  0.93571000  1.0
  C  C29  1  0.12134000  0.15967000  0.06429000  1.0
  C  C30  1  0.04884000  0.98727000  0.77431000  1.0
  C  C31  1  0.95114000  0.01272000  0.22570000  1.0
  C  C32  1  0.75085000  0.66048000  0.87358000  1.0
  C  C33  1  0.24916000  0.33952000  0.12644000  1.0
  N  N34  1  0.24536000  0.75425000  0.35246000  1.0
  N  N35  1  0.75462000  0.24575000  0.64753000  1.0
  N  N36  1  0.28315000  0.77615000  0.53721000  1.0
  N  N37  1  0.71684000  0.22386000  0.46278000  1.0
  N  N38  1  0.25209000  0.37822000  0.53920000  1.0
  N  N39  1  0.74789000  0.62178000  0.46079000  1.0
  O  O40  1  0.22774000  0.08736000  0.74586000  1.0
  O  O41  1  0.77223000  0.91260000  0.25414000  1.0
  O  O42  1  0.87788000  0.89167000  0.71371000  1.0
  O  O43  1  0.12218000  0.10836000  0.28631000  1.0
  O  O44  1  0.88324000  0.54106000  0.83708000  1.0
  O  O45  1  0.11680000  0.45895000  0.16293000  1.0
  O  O46  1  0.54527000  0.60586000  0.86300000  1.0
  O  O47  1  0.45479000  0.39412000  0.13699000  1.0
