# generated using pymatgen
data_Co3H43C72N6O13
_symmetry_space_group_name_H-M   'P 1'
_cell_length_a   15.82880000
_cell_length_b   15.84030000
_cell_length_c   15.84090000
_cell_angle_alpha   102.37200000
_cell_angle_beta   102.36700000
_cell_angle_gamma   102.36700000
_symmetry_Int_Tables_number   1
_chemical_formula_structural   Co3H43C72N6O13
_chemical_formula_sum   'Co6 H86 C144 N12 O26'
_cell_volume   3646.08768450
_cell_formula_units_Z   2
loop_
 _symmetry_equiv_pos_site_id
 _symmetry_equiv_pos_as_xyz
  1  'x, y, z'
loop_
 _atom_site_type_symbol
 _atom_site_label
 _atom_site_symmetry_multiplicity
 _atom_site_fract_x
 _atom_site_fract_y
 _atom_site_fract_z
 _atom_site_occupancy
  Co  Co0  1  0.79355000  0.65065000  0.78549000  1.0
  Co  Co1  1  0.64819000  0.78458000  0.79548000  1.0
  Co  Co2  1  0.78724000  0.79168000  0.64919000  1.0
  Co  Co3  1  0.21275000  0.35078000  0.20842000  1.0
  Co  Co4  1  0.20642000  0.21442000  0.34944000  1.0
  Co  Co5  1  0.35178000  0.20449000  0.21555000  1.0
  H  H6  1  0.67683000  0.68016000  0.67890000  1.0
  H  H7  1  0.32312000  0.32112000  0.31988000  1.0
  H  H8  1  0.85115000  0.67326000  0.04871000  1.0
  H  H9  1  0.67444000  0.04881000  0.85124000  1.0
  H  H10  1  0.04922000  0.85234000  0.67420000  1.0
  H  H11  1  0.95080000  0.32584000  0.14764000  1.0
  H  H12  1  0.14885000  0.95125000  0.32671000  1.0
  H  H13  1  0.32554000  0.14877000  0.95120000  1.0
  H  H14  1  0.78045000  0.74621000  0.29700000  1.0
  H  H15  1  0.74663000  0.29702000  0.78020000  1.0
  H  H16  1  0.29738000  0.78091000  0.74605000  1.0
  H  H17  1  0.70265000  0.25396000  0.21907000  1.0
  H  H18  1  0.21957000  0.70296000  0.25378000  1.0
  H  H19  1  0.25336000  0.21980000  0.70299000  1.0
  H  H20  1  0.69495000  0.84370000  0.23315000  1.0
  H  H21  1  0.84425000  0.23323000  0.69471000  1.0
  H  H22  1  0.23358000  0.69514000  0.84334000  1.0
  H  H23  1  0.76645000  0.15666000  0.30483000  1.0
  H  H24  1  0.30506000  0.76682000  0.15628000  1.0
  H  H25  1  0.15576000  0.30531000  0.76677000  1.0
  H  H26  1  0.68694000  0.85361000  0.07572000  1.0
  H  H27  1  0.85411000  0.07570000  0.68661000  1.0
  H  H28  1  0.07598000  0.68694000  0.85330000  1.0
  H  H29  1  0.92405000  0.14671000  0.31300000  1.0
  H  H30  1  0.31307000  0.92425000  0.14637000  1.0
  H  H31  1  0.14589000  0.31343000  0.92429000  1.0
  H  H32  1  0.96288000  0.65953000  0.12688000  1.0
  H  H33  1  0.66001000  0.12683000  0.96252000  1.0
  H  H34  1  0.12748000  0.96366000  0.65935000  1.0
  H  H35  1  0.87253000  0.34067000  0.03634000  1.0
  H  H36  1  0.03711000  0.87310000  0.34044000  1.0
  H  H37  1  0.34000000  0.03748000  0.87320000  1.0
  H  H38  1  0.08440000  0.44765000  0.24173000  1.0
  H  H39  1  0.44653000  0.24109000  0.08299000  1.0
  H  H40  1  0.24392000  0.08534000  0.44783000  1.0
  H  H41  1  0.75607000  0.55216000  0.91466000  1.0
  H  H42  1  0.91562000  0.75827000  0.55234000  1.0
  H  H43  1  0.55346000  0.91701000  0.75891000  1.0
  H  H44  1  0.24074000  0.45808000  0.06609000  1.0
  H  H45  1  0.45905000  0.06657000  0.24024000  1.0
  H  H46  1  0.06842000  0.24186000  0.45866000  1.0
  H  H47  1  0.93156000  0.54133000  0.75813000  1.0
  H  H48  1  0.75928000  0.93393000  0.54193000  1.0
  H  H49  1  0.54099000  0.75976000  0.93343000  1.0
  H  H50  1  0.17193000  0.57056000  0.00549000  1.0
  H  H51  1  0.57136000  0.00598000  0.17142000  1.0
  H  H52  1  0.00637000  0.17190000  0.56961000  1.0
  H  H53  1  0.99365000  0.43041000  0.82810000  1.0
  H  H54  1  0.82808000  0.99452000  0.42944000  1.0
  H  H55  1  0.42869000  0.82857000  0.99405000  1.0
  H  H56  1  0.05414000  0.62116000  0.06728000  1.0
  H  H57  1  0.62181000  0.06787000  0.05360000  1.0
  H  H58  1  0.06763000  0.05372000  0.61972000  1.0
  H  H59  1  0.93241000  0.38030000  0.94629000  1.0
  H  H60  1  0.94585000  0.93272000  0.37882000  1.0
  H  H61  1  0.37823000  0.94640000  0.93217000  1.0
  H  H62  1  0.99487000  0.48118000  0.29440000  1.0
  H  H63  1  0.48140000  0.29427000  0.99421000  1.0
  H  H64  1  0.29557000  0.99448000  0.48117000  1.0
  H  H65  1  0.70442000  0.51882000  0.00546000  1.0
  H  H66  1  0.00517000  0.70560000  0.51882000  1.0
  H  H67  1  0.51861000  0.00580000  0.70576000  1.0
  H  H68  1  0.82080000  0.62853000  0.43038000  1.0
  H  H69  1  0.62833000  0.42975000  0.81970000  1.0
  H  H70  1  0.43053000  0.82039000  0.62971000  1.0
  H  H71  1  0.56944000  0.37030000  0.17957000  1.0
  H  H72  1  0.17922000  0.56959000  0.37143000  1.0
  H  H73  1  0.37166000  0.18029000  0.57029000  1.0
  H  H74  1  0.83447000  0.44339000  0.59221000  1.0
  H  H75  1  0.44318000  0.59158000  0.83425000  1.0
  H  H76  1  0.59358000  0.83333000  0.44556000  1.0
  H  H77  1  0.40638000  0.55446000  0.16662000  1.0
  H  H78  1  0.16557000  0.40779000  0.55659000  1.0
  H  H79  1  0.55682000  0.16578000  0.40846000  1.0
  H  H80  1  0.89294000  0.35019000  0.48079000  1.0
  H  H81  1  0.35008000  0.48010000  0.89282000  1.0
  H  H82  1  0.48280000  0.89192000  0.35172000  1.0
  H  H83  1  0.51714000  0.64827000  0.10799000  1.0
  H  H84  1  0.10712000  0.51923000  0.64979000  1.0
  H  H85  1  0.64993000  0.10721000  0.51994000  1.0
  H  H86  1  0.92050000  0.39971000  0.35020000  1.0
  H  H87  1  0.39995000  0.34964000  0.92027000  1.0
  H  H88  1  0.35185000  0.91994000  0.40048000  1.0
  H  H89  1  0.64809000  0.59952000  0.07998000  1.0
  H  H90  1  0.07954000  0.64980000  0.60025000  1.0
  H  H91  1  0.60005000  0.07974000  0.65039000  1.0
  C  C92  1  0.76111000  0.76099000  0.95685000  1.0
  C  C93  1  0.76111000  0.95624000  0.76017000  1.0
  C  C94  1  0.95715000  0.76121000  0.76111000  1.0
  C  C95  1  0.04287000  0.23892000  0.23879000  1.0
  C  C96  1  0.23885000  0.04312000  0.23901000  1.0
  C  C97  1  0.23887000  0.23986000  0.04380000  1.0
  C  C98  1  0.76959000  0.76376000  0.05367000  1.0
  C  C99  1  0.76457000  0.05368000  0.76944000  1.0
  C  C100  1  0.05412000  0.77021000  0.76413000  1.0
  C  C101  1  0.94590000  0.23590000  0.22975000  1.0
  C  C102  1  0.23041000  0.94629000  0.23621000  1.0
  C  C103  1  0.23542000  0.23059000  0.94634000  1.0
  C  C104  1  0.81931000  0.71166000  0.09144000  1.0
  C  C105  1  0.71275000  0.09160000  0.81939000  1.0
  C  C106  1  0.09192000  0.82026000  0.71230000  1.0
  C  C107  1  0.90809000  0.28773000  0.17972000  1.0
  C  C108  1  0.18069000  0.90853000  0.28831000  1.0
  C  C109  1  0.28723000  0.18062000  0.90841000  1.0
  C  C110  1  0.82512000  0.70557000  0.17929000  1.0
  C  C111  1  0.70647000  0.17941000  0.82512000  1.0
  C  C112  1  0.17974000  0.82593000  0.70598000  1.0
  C  C113  1  0.82027000  0.29405000  0.17406000  1.0
  C  C114  1  0.17489000  0.82068000  0.29440000  1.0
  C  C115  1  0.29352000  0.17487000  0.82060000  1.0
  C  C116  1  0.77866000  0.75293000  0.22969000  1.0
  C  C117  1  0.75366000  0.22981000  0.77857000  1.0
  C  C118  1  0.23010000  0.77922000  0.75301000  1.0
  C  C119  1  0.76992000  0.24700000  0.22076000  1.0
  C  C120  1  0.22136000  0.77028000  0.24705000  1.0
  C  C121  1  0.24635000  0.22144000  0.77020000  1.0
  C  C122  1  0.73018000  0.80669000  0.19299000  1.0
  C  C123  1  0.80739000  0.19310000  0.73007000  1.0
  C  C124  1  0.19341000  0.73057000  0.80662000  1.0
  C  C125  1  0.80661000  0.19339000  0.26940000  1.0
  C  C126  1  0.26983000  0.80698000  0.19330000  1.0
  C  C127  1  0.19261000  0.26994000  0.80689000  1.0
  C  C128  1  0.72533000  0.81261000  0.10538000  1.0
  C  C129  1  0.81330000  0.10546000  0.72519000  1.0
  C  C130  1  0.10577000  0.72566000  0.81262000  1.0
  C  C131  1  0.89426000  0.18739000  0.27430000  1.0
  C  C132  1  0.27468000  0.89460000  0.18737000  1.0
  C  C133  1  0.18669000  0.27483000  0.89453000  1.0
  C  C134  1  0.87646000  0.64657000  0.21422000  1.0
  C  C135  1  0.64720000  0.21415000  0.87616000  1.0
  C  C136  1  0.21467000  0.87703000  0.64685000  1.0
  C  C137  1  0.78533000  0.35317000  0.12296000  1.0
  C  C138  1  0.12355000  0.78577000  0.35339000  1.0
  C  C139  1  0.35280000  0.12383000  0.78587000  1.0
  C  C140  1  0.94441000  0.62625000  0.17617000  1.0
  C  C141  1  0.62672000  0.17610000  0.94401000  1.0
  C  C142  1  0.17680000  0.94494000  0.62618000  1.0
  C  C143  1  0.82321000  0.37383000  0.05505000  1.0
  C  C144  1  0.05560000  0.82382000  0.37373000  1.0
  C  C145  1  0.37328000  0.05599000  0.82393000  1.0
  C  C146  1  0.98807000  0.56452000  0.20229000  1.0
  C  C147  1  0.56486000  0.20227000  0.98746000  1.0
  C  C148  1  0.20324000  0.98826000  0.56433000  1.0
  C  C149  1  0.79676000  0.43567000  0.01172000  1.0
  C  C150  1  0.01195000  0.79771000  0.43546000  1.0
  C  C151  1  0.43515000  0.01254000  0.79775000  1.0
  C  C152  1  0.05783000  0.53910000  0.16129000  1.0
  C  C153  1  0.53930000  0.16147000  0.05714000  1.0
  C  C154  1  0.16262000  0.05813000  0.53867000  1.0
  C  C155  1  0.83739000  0.46133000  0.94185000  1.0
  C  C156  1  0.94218000  0.83871000  0.46088000  1.0
  C  C157  1  0.46071000  0.94287000  0.83855000  1.0
  C  C158  1  0.10079000  0.47734000  0.18953000  1.0
  C  C159  1  0.47711000  0.18952000  0.09966000  1.0
  C  C160  1  0.19152000  0.10146000  0.47737000  1.0
  C  C161  1  0.80849000  0.52262000  0.89852000  1.0
  C  C162  1  0.89924000  0.81047000  0.52266000  1.0
  C  C163  1  0.52288000  0.90034000  0.81049000  1.0
  C  C164  1  0.18890000  0.48267000  0.09087000  1.0
  C  C165  1  0.48324000  0.09114000  0.18811000  1.0
  C  C166  1  0.09280000  0.18964000  0.48280000  1.0
  C  C167  1  0.90719000  0.51720000  0.81036000  1.0
  C  C168  1  0.81113000  0.90915000  0.51732000  1.0
  C  C169  1  0.51679000  0.81189000  0.90888000  1.0
  C  C170  1  0.15039000  0.54468000  0.05816000  1.0
  C  C171  1  0.54532000  0.05851000  0.14976000  1.0
  C  C172  1  0.05933000  0.15059000  0.54405000  1.0
  C  C173  1  0.94068000  0.45596000  0.84941000  1.0
  C  C174  1  0.84962000  0.94184000  0.45531000  1.0
  C  C175  1  0.45472000  0.85023000  0.94152000  1.0
  C  C176  1  0.08435000  0.57293000  0.09312000  1.0
  C  C177  1  0.57342000  0.09350000  0.08374000  1.0
  C  C178  1  0.09403000  0.08433000  0.57202000  1.0
  C  C179  1  0.90599000  0.42799000  0.91567000  1.0
  C  C180  1  0.91566000  0.90688000  0.42706000  1.0
  C  C181  1  0.42661000  0.91627000  0.90653000  1.0
  C  C182  1  0.96227000  0.52778000  0.26882000  1.0
  C  C183  1  0.52804000  0.26870000  0.96165000  1.0
  C  C184  1  0.26981000  0.96215000  0.52784000  1.0
  C  C185  1  0.73018000  0.47215000  0.03781000  1.0
  C  C186  1  0.03775000  0.73118000  0.47221000  1.0
  C  C187  1  0.47197000  0.03835000  0.73133000  1.0
  C  C188  1  0.89659000  0.55401000  0.30687000  1.0
  C  C189  1  0.55424000  0.30655000  0.89592000  1.0
  C  C190  1  0.30768000  0.89652000  0.55445000  1.0
  C  C191  1  0.69229000  0.44555000  0.10344000  1.0
  C  C192  1  0.10343000  0.69312000  0.44596000  1.0
  C  C193  1  0.44576000  0.10407000  0.69347000  1.0
  C  C194  1  0.87478000  0.51953000  0.38186000  1.0
  C  C195  1  0.51954000  0.38133000  0.87405000  1.0
  C  C196  1  0.38283000  0.87437000  0.52046000  1.0
  C  C197  1  0.61714000  0.47953000  0.12556000  1.0
  C  C198  1  0.12525000  0.61813000  0.48043000  1.0
  C  C199  1  0.48046000  0.12595000  0.61870000  1.0
  C  C200  1  0.83811000  0.56839000  0.44228000  1.0
  C  C201  1  0.56824000  0.44169000  0.83721000  1.0
  C  C202  1  0.44285000  0.83753000  0.56965000  1.0
  C  C203  1  0.55711000  0.43036000  0.16242000  1.0
  C  C204  1  0.16191000  0.55771000  0.43157000  1.0
  C  C205  1  0.43175000  0.16278000  0.55834000  1.0
  C  C206  1  0.82542000  0.54205000  0.51857000  1.0
  C  C207  1  0.54180000  0.51796000  0.82482000  1.0
  C  C208  1  0.51925000  0.82449000  0.54371000  1.0
  C  C209  1  0.48071000  0.45630000  0.17546000  1.0
  C  C210  1  0.17460000  0.48142000  0.45793000  1.0
  C  C211  1  0.45818000  0.17518000  0.48208000  1.0
  C  C212  1  0.84547000  0.46330000  0.53283000  1.0
  C  C213  1  0.46303000  0.53213000  0.84506000  1.0
  C  C214  1  0.53404000  0.84445000  0.46509000  1.0
  C  C215  1  0.46593000  0.53493000  0.15549000  1.0
  C  C216  1  0.15457000  0.46716000  0.53668000  1.0
  C  C217  1  0.53697000  0.15496000  0.46791000  1.0
  C  C218  1  0.87846000  0.41232000  0.47115000  1.0
  C  C219  1  0.41217000  0.47047000  0.87814000  1.0
  C  C220  1  0.47273000  0.87755000  0.41375000  1.0
  C  C221  1  0.52722000  0.58625000  0.12238000  1.0
  C  C222  1  0.12158000  0.52885000  0.58766000  1.0
  C  C223  1  0.58783000  0.12188000  0.52957000  1.0
  C  C224  1  0.89413000  0.44056000  0.39701000  1.0
  C  C225  1  0.44063000  0.39641000  0.89373000  1.0
  C  C226  1  0.39842000  0.89350000  0.44157000  1.0
  C  C227  1  0.60152000  0.55841000  0.10642000  1.0
  C  C228  1  0.10591000  0.60299000  0.55940000  1.0
  C  C229  1  0.55937000  0.10628000  0.60362000  1.0
  C  C230  1  0.79575000  0.60104000  0.58739000  1.0
  C  C231  1  0.60058000  0.58738000  0.79566000  1.0
  C  C232  1  0.58782000  0.79434000  0.60271000  1.0
  C  C233  1  0.41215000  0.39731000  0.20567000  1.0
  C  C234  1  0.20424000  0.41257000  0.39896000  1.0
  C  C235  1  0.39938000  0.20434000  0.41269000  1.0
  N  N236  1  0.16370000  0.44953000  0.15563000  1.0
  N  N237  1  0.44961000  0.15560000  0.16259000  1.0
  N  N238  1  0.15792000  0.16468000  0.44996000  1.0
  N  N239  1  0.84206000  0.55004000  0.83530000  1.0
  N  N240  1  0.83632000  0.84439000  0.55047000  1.0
  N  N241  1  0.55039000  0.83743000  0.84442000  1.0
  N  N242  1  0.85401000  0.61273000  0.27977000  1.0
  N  N243  1  0.61314000  0.27954000  0.85356000  1.0
  N  N244  1  0.28024000  0.85428000  0.61321000  1.0
  N  N245  1  0.71974000  0.38681000  0.14568000  1.0
  N  N246  1  0.14600000  0.72022000  0.38724000  1.0
  N  N247  1  0.38685000  0.14644000  0.72048000  1.0
  O  O248  1  0.72427000  0.72714000  0.72571000  1.0
  O  O249  1  0.27567000  0.27428000  0.27295000  1.0
  O  O250  1  0.79662000  0.70722000  0.91434000  1.0
  O  O251  1  0.70524000  0.91402000  0.79404000  1.0
  O  O252  1  0.91471000  0.79672000  0.70692000  1.0
  O  O253  1  0.08530000  0.29313000  0.20328000  1.0
  O  O254  1  0.20337000  0.08562000  0.29281000  1.0
  O  O255  1  0.29472000  0.20599000  0.08602000  1.0
  O  O256  1  0.71706000  0.81029000  0.92360000  1.0
  O  O257  1  0.81103000  0.92382000  0.71682000  1.0
  O  O258  1  0.92364000  0.71720000  0.80998000  1.0
  O  O259  1  0.07639000  0.19006000  0.28280000  1.0
  O  O260  1  0.28288000  0.07641000  0.18971000  1.0
  O  O261  1  0.18893000  0.28322000  0.07618000  1.0
  O  O262  1  0.77107000  0.66716000  0.56647000  1.0
  O  O263  1  0.66718000  0.56788000  0.77102000  1.0
  O  O264  1  0.56660000  0.76883000  0.66827000  1.0
  O  O265  1  0.43339000  0.33179000  0.23123000  1.0
  O  O266  1  0.22895000  0.43353000  0.33287000  1.0
  O  O267  1  0.33276000  0.22894000  0.43217000  1.0
  O  O268  1  0.80044000  0.58220000  0.66242000  1.0
  O  O269  1  0.58022000  0.66185000  0.80092000  1.0
  O  O270  1  0.66286000  0.79935000  0.58357000  1.0
  O  O271  1  0.33712000  0.41647000  0.20064000  1.0
  O  O272  1  0.19953000  0.33753000  0.41777000  1.0
  O  O273  1  0.41974000  0.19911000  0.33822000  1.0
