# generated using pymatgen
data_CoH8C8(N3O2)2
_symmetry_space_group_name_H-M   'P 1'
_cell_length_a   4.83536000
_cell_length_b   8.43572000
_cell_length_c   11.97600000
_cell_angle_alpha   88.64100000
_cell_angle_beta   89.99970000
_cell_angle_gamma   89.99940000
_symmetry_Int_Tables_number   1
_chemical_formula_structural   CoH8C8(N3O2)2
_chemical_formula_sum   'Co2 H16 C16 N12 O8'
_cell_volume   488.36055673
_cell_formula_units_Z   2
loop_
 _symmetry_equiv_pos_site_id
 _symmetry_equiv_pos_as_xyz
  1  'x, y, z'
loop_
 _atom_site_type_symbol
 _atom_site_label
 _atom_site_symmetry_multiplicity
 _atom_site_fract_x
 _atom_site_fract_y
 _atom_site_fract_z
 _atom_site_occupancy
  Co  Co0  1  0.50000000  0.50000000  0.00000000  1.0
  Co  Co1  1  0.00000000  0.00000000  0.50000000  1.0
  H  H2  1  0.54489000  0.31761000  0.49255000  1.0
  H  H3  1  0.04488000  0.18239000  0.00745000  1.0
  H  H4  1  0.45511000  0.68239000  0.50745000  1.0
  H  H5  1  0.95512000  0.81761000  0.99255000  1.0
  H  H6  1  0.26948000  0.24577000  0.68056000  1.0
  H  H7  1  0.76948000  0.25423000  0.81944000  1.0
  H  H8  1  0.73052000  0.75423000  0.31944000  1.0
  H  H9  1  0.23052000  0.74577000  0.18056000  1.0
  H  H10  1  0.08830000  0.67995000  0.68706000  1.0
  H  H11  1  0.58831000  0.82005000  0.81294000  1.0
  H  H12  1  0.91169000  0.32005000  0.31294000  1.0
  H  H13  1  0.41169000  0.17995000  0.18706000  1.0
  H  H14  1  0.34505000  0.54077000  0.73243000  1.0
  H  H15  1  0.84505000  0.95923000  0.76757000  1.0
  H  H16  1  0.65495000  0.45923000  0.26757000  1.0
  H  H17  1  0.15495000  0.04077000  0.23243000  1.0
  C  C18  1  0.71824000  0.33636000  0.54830000  1.0
  C  C19  1  0.21824000  0.16364000  0.95170000  1.0
  C  C20  1  0.28176000  0.66364000  0.45170000  1.0
  C  C21  1  0.78176000  0.83636000  0.04830000  1.0
  C  C22  1  0.08528000  0.29589000  0.64279000  1.0
  C  C23  1  0.58528000  0.20411000  0.85721000  1.0
  C  C24  1  0.91472000  0.70411000  0.35721000  1.0
  C  C25  1  0.41472000  0.79590000  0.14279000  1.0
  C  C26  1  0.12188000  0.56359000  0.72827000  1.0
  C  C27  1  0.62189000  0.93641000  0.77173000  1.0
  C  C28  1  0.87812000  0.43641000  0.27173000  1.0
  C  C29  1  0.37811000  0.06359000  0.22827000  1.0
  C  C30  1  0.00143000  0.56963000  0.84660000  1.0
  C  C31  1  0.50143000  0.93037000  0.65340000  1.0
  C  C32  1  0.99857000  0.43037000  0.15340000  1.0
  C  C33  1  0.49857000  0.06963000  0.34660000  1.0
  N  N34  1  0.99540000  0.44453000  0.65930000  1.0
  N  N35  1  0.49540000  0.05547000  0.84070000  1.0
  N  N36  1  0.00460000  0.55547000  0.34070000  1.0
  N  N37  1  0.50460000  0.94453000  0.15930000  1.0
  N  N38  1  0.75980000  0.47240000  0.59987000  1.0
  N  N39  1  0.25980000  0.02760000  0.90013000  1.0
  N  N40  1  0.24020000  0.52761000  0.40013000  1.0
  N  N41  1  0.74020000  0.97239000  0.09987000  1.0
  N  N42  1  0.91439000  0.22351000  0.57259000  1.0
  N  N43  1  0.41438000  0.27649000  0.92741000  1.0
  N  N44  1  0.08561000  0.77649000  0.42741000  1.0
  N  N45  1  0.58562000  0.72351000  0.07259000  1.0
  O  O46  1  0.16571000  0.60824000  0.92382000  1.0
  O  O47  1  0.66569000  0.89176000  0.57617000  1.0
  O  O48  1  0.83428000  0.39176000  0.07618000  1.0
  O  O49  1  0.33431000  0.10825000  0.42383000  1.0
  O  O50  1  0.74412000  0.54360000  0.85705000  1.0
  O  O51  1  0.24412000  0.95642000  0.64297000  1.0
  O  O52  1  0.25588000  0.45641000  0.14295000  1.0
  O  O53  1  0.75588000  0.04358000  0.35703000  1.0
