# generated using pymatgen
data_SrCo2H16C12(NO4)4
_symmetry_space_group_name_H-M   'P 1'
_cell_length_a   8.97445000
_cell_length_b   9.04602000
_cell_length_c   15.43510000
_cell_angle_alpha   89.99960000
_cell_angle_beta   89.99980000
_cell_angle_gamma   91.23240000
_symmetry_Int_Tables_number   1
_chemical_formula_structural   SrCo2H16C12(NO4)4
_chemical_formula_sum   'Sr2 Co4 H32 C24 N8 O32'
_cell_volume   1252.77870106
_cell_formula_units_Z   2
loop_
 _symmetry_equiv_pos_site_id
 _symmetry_equiv_pos_as_xyz
  1  'x, y, z'
loop_
 _atom_site_type_symbol
 _atom_site_label
 _atom_site_symmetry_multiplicity
 _atom_site_fract_x
 _atom_site_fract_y
 _atom_site_fract_z
 _atom_site_occupancy
  Sr  Sr0  1  0.00613000  0.00300000  0.47777000  1.0
  Sr  Sr1  1  0.99387000  0.99701000  0.97778000  1.0
  Co  Co2  1  0.50684000  0.99350000  0.71834000  1.0
  Co  Co3  1  0.49316000  0.00650000  0.21834000  1.0
  Co  Co4  1  0.98073000  0.50263000  0.23960000  1.0
  Co  Co5  1  0.01926000  0.49738000  0.73960000  1.0
  H  H6  1  0.62565000  0.09611000  0.89993000  1.0
  H  H7  1  0.37436000  0.90388000  0.39993000  1.0
  H  H8  1  0.44812000  0.09704000  0.95197000  1.0
  H  H9  1  0.55188000  0.90296000  0.45197000  1.0
  H  H10  1  0.56010000  0.83564000  0.94183000  1.0
  H  H11  1  0.43990000  0.16436000  0.44183000  1.0
  H  H12  1  0.38474000  0.84867000  0.88776000  1.0
  H  H13  1  0.61526000  0.15133000  0.38776000  1.0
  H  H14  1  0.83609000  0.60823000  0.06596000  1.0
  H  H15  1  0.16390000  0.39176000  0.56596000  1.0
  H  H16  1  0.82921000  0.42995000  0.01540000  1.0
  H  H17  1  0.17079000  0.57005000  0.51540000  1.0
  H  H18  1  0.09006000  0.38387000  0.06273000  1.0
  H  H19  1  0.90994000  0.61613000  0.56273000  1.0
  H  H20  1  0.09102000  0.55595000  0.00623000  1.0
  H  H21  1  0.90897000  0.44405000  0.50623000  1.0
  H  H22  1  0.48120000  0.22153000  0.80305000  1.0
  H  H23  1  0.51880000  0.77847000  0.30305000  1.0
  H  H24  1  0.32921000  0.11479000  0.81735000  1.0
  H  H25  1  0.67080000  0.88521000  0.31735000  1.0
  H  H26  1  0.53994000  0.74906000  0.78336000  1.0
  H  H27  1  0.46007000  0.25094000  0.28336000  1.0
  H  H28  1  0.68620000  0.85795000  0.80886000  1.0
  H  H29  1  0.31380000  0.14206000  0.30886000  1.0
  H  H30  1  0.85036000  0.31515000  0.14994000  1.0
  H  H31  1  0.14964000  0.68484000  0.64993000  1.0
  H  H32  1  0.73521000  0.45292000  0.17245000  1.0
  H  H33  1  0.26478000  0.54707000  0.67245000  1.0
  H  H34  1  0.09791000  0.68512000  0.13919000  1.0
  H  H35  1  0.90209000  0.31489000  0.63919000  1.0
  H  H36  1  0.21084000  0.54483000  0.15667000  1.0
  H  H37  1  0.78916000  0.45517000  0.65667000  1.0
  C  C38  1  0.30700000  0.08450000  0.60224000  1.0
  C  C39  1  0.69300000  0.91551000  0.10225000  1.0
  C  C40  1  0.24490000  0.94092000  0.64403000  1.0
  C  C41  1  0.75510000  0.05908000  0.14403000  1.0
  C  C42  1  0.70729000  0.91572000  0.59913000  1.0
  C  C43  1  0.29272000  0.08427000  0.09913000  1.0
  C  C44  1  0.77122000  0.05285000  0.64726000  1.0
  C  C45  1  0.22879000  0.94715000  0.14726000  1.0
  C  C46  1  0.93065000  0.76383000  0.31187000  1.0
  C  C47  1  0.06934000  0.23617000  0.81187000  1.0
  C  C48  1  0.07523000  0.70706000  0.35358000  1.0
  C  C49  1  0.92476000  0.29294000  0.85358000  1.0
  C  C50  1  0.91124000  0.30009000  0.36004000  1.0
  C  C51  1  0.08876000  0.69991000  0.86004000  1.0
  C  C52  1  0.05006000  0.24640000  0.31120000  1.0
  C  C53  1  0.94995000  0.75360000  0.81119000  1.0
  C  C54  1  0.50943000  0.05631000  0.89558000  1.0
  C  C55  1  0.49057000  0.94369000  0.39559000  1.0
  C  C56  1  0.50095000  0.88914000  0.88836000  1.0
  C  C57  1  0.49905000  0.11086000  0.38836000  1.0
  C  C58  1  0.87940000  0.49562000  0.06821000  1.0
  C  C59  1  0.12060000  0.50438000  0.56822000  1.0
  C  C60  1  0.04825000  0.49711000  0.06348000  1.0
  C  C61  1  0.95175000  0.50289000  0.56348000  1.0
  N  N62  1  0.44498000  0.11514000  0.81394000  1.0
  N  N63  1  0.55502000  0.88486000  0.31394000  1.0
  N  N64  1  0.57053000  0.85297000  0.80371000  1.0
  N  N65  1  0.42947000  0.14702000  0.30371000  1.0
  N  N66  1  0.84146000  0.42930000  0.15383000  1.0
  N  N67  1  0.15854000  0.57070000  0.65382000  1.0
  N  N68  1  0.10248000  0.57058000  0.14417000  1.0
  N  N69  1  0.89751000  0.42943000  0.64417000  1.0
  O  O70  1  0.13163000  0.87760000  0.61321000  1.0
  O  O71  1  0.86838000  0.12240000  0.11321000  1.0
  O  O72  1  0.23771000  0.14286000  0.54130000  1.0
  O  O73  1  0.76229000  0.85714000  0.04130000  1.0
  O  O74  1  0.43120000  0.13220000  0.63461000  1.0
  O  O75  1  0.56880000  0.86780000  0.13461000  1.0
  O  O76  1  0.31858000  0.89363000  0.70994000  1.0
  O  O77  1  0.68142000  0.10637000  0.20994000  1.0
  O  O78  1  0.69575000  0.09429000  0.71370000  1.0
  O  O79  1  0.30425000  0.90571000  0.21370000  1.0
  O  O80  1  0.57954000  0.86886000  0.62719000  1.0
  O  O81  1  0.42046000  0.13114000  0.12719000  1.0
  O  O82  1  0.77709000  0.86131000  0.53730000  1.0
  O  O83  1  0.22292000  0.13869000  0.03730000  1.0
  O  O84  1  0.88750000  0.11576000  0.61991000  1.0
  O  O85  1  0.11251000  0.88423000  0.11991000  1.0
  O  O86  1  0.12049000  0.58383000  0.32248000  1.0
  O  O87  1  0.87950000  0.41617000  0.82247000  1.0
  O  O88  1  0.87845000  0.68459000  0.24880000  1.0
  O  O89  1  0.12155000  0.31541000  0.74880000  1.0
  O  O90  1  0.87248000  0.87838000  0.34043000  1.0
  O  O91  1  0.12753000  0.12162000  0.84044000  1.0
  O  O92  1  0.13702000  0.77846000  0.41338000  1.0
  O  O93  1  0.86296000  0.22152000  0.91338000  1.0
  O  O94  1  0.11853000  0.13708000  0.33907000  1.0
  O  O95  1  0.88147000  0.86293000  0.83907000  1.0
  O  O96  1  0.86130000  0.22770000  0.42304000  1.0
  O  O97  1  0.13870000  0.77231000  0.92304000  1.0
  O  O98  1  0.08686000  0.32204000  0.24349000  1.0
  O  O99  1  0.91314000  0.67796000  0.74349000  1.0
  O  O100  1  0.85796000  0.42165000  0.33133000  1.0
  O  O101  1  0.14203000  0.57834000  0.83133000  1.0
