# generated using pymatgen
data_AlH12C33(ClO2)3
_symmetry_space_group_name_H-M   'P 1'
_cell_length_a   3.96801000
_cell_length_b   20.44120000
_cell_length_c   20.48110000
_cell_angle_alpha   60.07960000
_cell_angle_beta   87.04930000
_cell_angle_gamma   86.99620000
_symmetry_Int_Tables_number   1
_chemical_formula_structural   AlH12C33(ClO2)3
_chemical_formula_sum   'Al1 H12 C33 Cl3 O6'
_cell_volume   1437.23424325
_cell_formula_units_Z   1
loop_
 _symmetry_equiv_pos_site_id
 _symmetry_equiv_pos_as_xyz
  1  'x, y, z'
loop_
 _atom_site_type_symbol
 _atom_site_label
 _atom_site_symmetry_multiplicity
 _atom_site_fract_x
 _atom_site_fract_y
 _atom_site_fract_z
 _atom_site_occupancy
  Al  Al0  1  0.03353000  0.49950000  0.49997000  1.0
  H  H1  1  0.82442000  0.30763000  0.70672000  1.0
  H  H2  1  0.80422000  0.23503000  0.84761000  1.0
  H  H3  1  0.22995000  0.70861000  0.30797000  1.0
  H  H4  1  0.22820000  0.84972000  0.23602000  1.0
  H  H5  1  0.27133000  0.30910000  0.48455000  1.0
  H  H6  1  0.28581000  0.23713000  0.41530000  1.0
  H  H7  1  0.78398000  0.70731000  0.48346000  1.0
  H  H8  1  0.76156000  0.84844000  0.41500000  1.0
  H  H9  1  0.19519000  0.48390000  0.70935000  1.0
  H  H10  1  0.19617000  0.41497000  0.85023000  1.0
  H  H11  1  0.87384000  0.48046000  0.30732000  1.0
  H  H12  1  0.86743000  0.41222000  0.23451000  1.0
  C  C13  1  0.51896000  0.44194000  0.61612000  1.0
  C  C14  1  0.56201000  0.44087000  0.44205000  1.0
  C  C15  1  0.51807000  0.61586000  0.44146000  1.0
  C  C16  1  0.68276000  0.32980000  0.73884000  1.0
  C  C17  1  0.67252000  0.28965000  0.81703000  1.0
  C  C18  1  0.35036000  0.73987000  0.33013000  1.0
  C  C19  1  0.34832000  0.81821000  0.29034000  1.0
  C  C20  1  0.40681000  0.33022000  0.43052000  1.0
  C  C21  1  0.41394000  0.29041000  0.39195000  1.0
  C  C22  1  0.65773000  0.73919000  0.42994000  1.0
  C  C23  1  0.64610000  0.81751000  0.39184000  1.0
  C  C24  1  0.33216000  0.43001000  0.74028000  1.0
  C  C25  1  0.33157000  0.39158000  0.81849000  1.0
  C  C26  1  0.74138000  0.42782000  0.32971000  1.0
  C  C27  1  0.73895000  0.38975000  0.28944000  1.0
  C  C28  1  0.51053000  0.39988000  0.69986000  1.0
  C  C29  1  0.49964000  0.32045000  0.85803000  1.0
  C  C30  1  0.49736000  0.28067000  0.93766000  1.0
  C  C31  1  0.49950000  0.24634000  0.00633000  1.0
  C  C32  1  0.50610000  0.20680000  0.08566000  1.0
  C  C33  1  0.50797000  0.69976000  0.39976000  1.0
  C  C34  1  0.49432000  0.85821000  0.32094000  1.0
  C  C35  1  0.49180000  0.93796000  0.28099000  1.0
  C  C36  1  0.49476000  0.00677000  0.24659000  1.0
  C  C37  1  0.50330000  0.08616000  0.20667000  1.0
  C  C38  1  0.57195000  0.39889000  0.40003000  1.0
  C  C39  1  0.57632000  0.32023000  0.32021000  1.0
  C  C40  1  0.57039000  0.28108000  0.27967000  1.0
  C  C41  1  0.55758000  0.24689000  0.24525000  1.0
  C  C42  1  0.53856000  0.20709000  0.20589000  1.0
  C  C43  1  0.49143000  0.12720000  0.12712000  1.0
  C  C44  1  0.52656000  0.12740000  0.24476000  1.0
  C  C45  1  0.52968000  0.24547000  0.12633000  1.0
  Cl  Cl46  1  0.54166000  0.07930000  0.34107000  1.0
  Cl  Cl47  1  0.54877000  0.34187000  0.07765000  1.0
  Cl  Cl48  1  0.45811000  0.07897000  0.07942000  1.0
  O  O49  1  0.29582000  0.58233000  0.42685000  1.0
  O  O50  1  0.27948000  0.48998000  0.58295000  1.0
  O  O51  1  0.32151000  0.42668000  0.49082000  1.0
  O  O52  1  0.74926000  0.58242000  0.48951000  1.0
  O  O53  1  0.79175000  0.48825000  0.42710000  1.0
  O  O54  1  0.76649000  0.42720000  0.58258000  1.0
