# generated using pymatgen
data_Cu3P2H10C12(NO6)2
_symmetry_space_group_name_H-M   'P 1'
_cell_length_a   6.00525000
_cell_length_b   8.32858000
_cell_length_c   9.24806000
_cell_angle_alpha   83.51510000
_cell_angle_beta   72.95590000
_cell_angle_gamma   72.79390000
_symmetry_Int_Tables_number   1
_chemical_formula_structural   Cu3P2H10C12(NO6)2
_chemical_formula_sum   'Cu3 P2 H10 C12 N2 O12'
_cell_volume   422.26297905
_cell_formula_units_Z   1
loop_
 _symmetry_equiv_pos_site_id
 _symmetry_equiv_pos_as_xyz
  1  'x, y, z'
loop_
 _atom_site_type_symbol
 _atom_site_label
 _atom_site_symmetry_multiplicity
 _atom_site_fract_x
 _atom_site_fract_y
 _atom_site_fract_z
 _atom_site_occupancy
  Cu  Cu0  1  0.50000000  0.00000000  0.00000000  1.0
  Cu  Cu1  1  0.60593000  0.42876000  0.13410000  1.0
  Cu  Cu2  1  0.39407000  0.57124000  0.86590000  1.0
  P  P3  1  0.14454000  0.33594000  0.15515000  1.0
  P  P4  1  0.85546000  0.66406000  0.84485000  1.0
  H  H5  1  0.98354000  0.15215000  0.44361000  1.0
  H  H6  1  0.01646000  0.84785000  0.55639000  1.0
  H  H7  1  0.14131000  0.08966000  0.67361000  1.0
  H  H8  1  0.85869000  0.91035000  0.32639000  1.0
  H  H9  1  0.66821000  0.35745000  0.44912000  1.0
  H  H10  1  0.33179000  0.64255000  0.55088000  1.0
  H  H11  1  0.23532000  0.77894000  0.11073000  1.0
  H  H12  1  0.76468000  0.22107000  0.88927000  1.0
  H  H13  1  0.05479000  0.84169000  0.00269000  1.0
  H  H14  1  0.94521000  0.15831000  0.99731000  1.0
  C  C15  1  0.24600000  0.28437000  0.32642000  1.0
  C  C16  1  0.75400000  0.71563000  0.67358000  1.0
  C  C17  1  0.13479000  0.19531000  0.44932000  1.0
  C  C18  1  0.86521000  0.80469000  0.55068000  1.0
  C  C19  1  0.22154000  0.16066000  0.57628000  1.0
  C  C20  1  0.77846000  0.83934000  0.42372000  1.0
  C  C21  1  0.41506000  0.21990000  0.57945000  1.0
  C  C22  1  0.58493000  0.78010000  0.42055000  1.0
  C  C23  1  0.51802000  0.30806000  0.45280000  1.0
  C  C24  1  0.48198000  0.69194000  0.54720000  1.0
  C  C25  1  0.51577000  0.18474000  0.71458000  1.0
  C  C26  1  0.48422000  0.81527000  0.28542000  1.0
  N  N27  1  0.43808000  0.33572000  0.32853000  1.0
  N  N28  1  0.56192000  0.66428000  0.67147000  1.0
  O  O29  1  0.18207000  0.17083000  0.08195000  1.0
  O  O30  1  0.81794000  0.82917000  0.91805000  1.0
  O  O31  1  0.31251000  0.44492000  0.06470000  1.0
  O  O32  1  0.68749000  0.55508000  0.93530000  1.0
  O  O33  1  0.87867000  0.43859000  0.20261000  1.0
  O  O34  1  0.12133000  0.56141000  0.79739000  1.0
  O  O35  1  0.65172000  0.26771000  0.72960000  1.0
  O  O36  1  0.34827000  0.73230000  0.27040000  1.0
  O  O37  1  0.45021000  0.06615000  0.80165000  1.0
  O  O38  1  0.54979000  0.93385000  0.19835000  1.0
  O  O39  1  0.22523000  0.81140000  0.00543000  1.0
  O  O40  1  0.77477000  0.18860000  0.99457000  1.0
