# generated using pymatgen
data_AlH3C15(SO4)3
_symmetry_space_group_name_H-M   'P 1'
_cell_length_a   4.02714000
_cell_length_b   20.10865000
_cell_length_c   20.10870000
_cell_angle_alpha   59.99975324
_cell_angle_beta   90.00010000
_cell_angle_gamma   89.99910000
_symmetry_Int_Tables_number   1
_chemical_formula_structural   AlH3C15(SO4)3
_chemical_formula_sum   'Al2 H6 C30 S6 O24'
_cell_volume   1410.24052183
_cell_formula_units_Z   2
loop_
 _symmetry_equiv_pos_site_id
 _symmetry_equiv_pos_as_xyz
  1  'x, y, z'
loop_
 _atom_site_type_symbol
 _atom_site_label
 _atom_site_symmetry_multiplicity
 _atom_site_fract_x
 _atom_site_fract_y
 _atom_site_fract_z
 _atom_site_occupancy
  Al  Al0  1  0.99654000  0.50000000  0.00000000  1.0
  Al  Al1  1  0.99654000  0.16667000  0.66667000  1.0
  H  H2  1  0.74008000  0.18871000  0.31446000  1.0
  H  H3  1  0.74002000  0.47796000  0.35223000  1.0
  H  H4  1  0.74006000  0.49684000  0.68871000  1.0
  H  H5  1  0.74005000  0.16982000  0.97796000  1.0
  H  H6  1  0.74007000  0.81445000  0.99683000  1.0
  H  H7  1  0.74003000  0.85223000  0.66980000  1.0
  C  C8  1  0.49602000  0.61661000  0.94453000  1.0
  C  C9  1  0.49604000  0.43886000  0.11661000  1.0
  C  C10  1  0.49603000  0.44454000  0.93885000  1.0
  C  C11  1  0.49605000  0.22781000  0.55006000  1.0
  C  C12  1  0.49603000  0.22212000  0.72782000  1.0
  C  C13  1  0.49605000  0.05006000  0.72213000  1.0
  C  C14  1  0.50892000  0.31769000  0.25133000  1.0
  C  C15  1  0.50888000  0.34898000  0.41534000  1.0
  C  C16  1  0.49816000  0.39648000  0.20207000  1.0
  C  C17  1  0.49820000  0.27019000  0.46460000  1.0
  C  C18  1  0.50735000  0.36602000  0.33737000  1.0
  C  C19  1  0.50738000  0.30064000  0.32931000  1.0
  C  C20  1  0.50886000  0.43098000  0.81769000  1.0
  C  C21  1  0.50885000  0.23568000  0.84898000  1.0
  C  C22  1  0.49814000  0.40145000  0.89648000  1.0
  C  C23  1  0.49817000  0.26520000  0.77020000  1.0
  C  C24  1  0.50733000  0.29661000  0.86603000  1.0
  C  C25  1  0.50734000  0.37005000  0.80065000  1.0
  C  C26  1  0.50886000  0.75133000  0.93098000  1.0
  C  C27  1  0.50887000  0.91534000  0.73568000  1.0
  C  C28  1  0.49814000  0.70207000  0.90145000  1.0
  C  C29  1  0.49818000  0.96460000  0.76521000  1.0
  C  C30  1  0.50734000  0.83737000  0.79661000  1.0
  C  C31  1  0.50735000  0.82931000  0.87004000  1.0
  C  C32  1  0.49240000  0.26172000  0.22345000  1.0
  C  C33  1  0.49226000  0.40495000  0.44321000  1.0
  C  C34  1  0.49231000  0.51483000  0.76172000  1.0
  C  C35  1  0.49228000  0.15183000  0.90495000  1.0
  C  C36  1  0.49230000  0.72345000  0.01483000  1.0
  C  C37  1  0.49228000  0.94323000  0.65182000  1.0
  S  S38  1  0.48435000  0.44886000  0.24885000  1.0
  S  S39  1  0.48447000  0.21780000  0.41783000  1.0
  S  S40  1  0.48436000  0.30229000  0.94887000  1.0
  S  S41  1  0.48441000  0.36437000  0.71780000  1.0
  S  S42  1  0.48436000  0.74885000  0.80228000  1.0
  S  S43  1  0.48442000  0.91783000  0.86436000  1.0
  O  O44  1  0.25970000  0.42866000  0.98642000  1.0
  O  O45  1  0.25969000  0.58493000  0.92864000  1.0
  O  O46  1  0.25970000  0.48643000  0.08492000  1.0
  O  O47  1  0.73253000  0.49105000  0.92594000  1.0
  O  O48  1  0.73254000  0.42595000  0.08301000  1.0
  O  O49  1  0.73253000  0.58301000  0.99104000  1.0
  O  O50  1  0.25972000  0.08175000  0.73800000  1.0
  O  O51  1  0.25971000  0.18025000  0.58174000  1.0
  O  O52  1  0.25969000  0.23801000  0.68025000  1.0
  O  O53  1  0.73255000  0.08367000  0.67561000  1.0
  O  O54  1  0.73253000  0.17561000  0.74072000  1.0
  O  O55  1  0.73253000  0.24072000  0.58367000  1.0
  O  O56  1  0.61623000  0.19013000  0.27191000  1.0
  O  O57  1  0.36712000  0.27604000  0.16276000  1.0
  O  O58  1  0.61610000  0.47654000  0.39476000  1.0
  O  O59  1  0.36686000  0.39063000  0.50389000  1.0
  O  O60  1  0.61616000  0.53796000  0.69012000  1.0
  O  O61  1  0.36694000  0.56119000  0.77603000  1.0
  O  O62  1  0.61615000  0.12870000  0.97654000  1.0
  O  O63  1  0.36691000  0.10547000  0.89064000  1.0
  O  O64  1  0.61616000  0.77191000  0.03796000  1.0
  O  O65  1  0.36692000  0.66278000  0.06119000  1.0
  O  O66  1  0.61613000  0.89477000  0.62869000  1.0
  O  O67  1  0.36691000  0.00390000  0.60547000  1.0
