# generated using pymatgen
data_NiH32C20(N3O4)2
_symmetry_space_group_name_H-M   'P 1'
_cell_length_a   7.97737000
_cell_length_b   8.15620000
_cell_length_c   10.06026964
_cell_angle_alpha   97.17080362
_cell_angle_beta   109.96902168
_cell_angle_gamma   102.80280000
_symmetry_Int_Tables_number   1
_chemical_formula_structural   NiH32C20(N3O4)2
_chemical_formula_sum   'Ni1 H32 C20 N6 O8'
_cell_volume   585.38965128
_cell_formula_units_Z   1
loop_
 _symmetry_equiv_pos_site_id
 _symmetry_equiv_pos_as_xyz
  1  'x, y, z'
loop_
 _atom_site_type_symbol
 _atom_site_label
 _atom_site_symmetry_multiplicity
 _atom_site_fract_x
 _atom_site_fract_y
 _atom_site_fract_z
 _atom_site_occupancy
  Ni  Ni0  1  0.46644000  0.49939000  0.47667000  1.0
  H  H1  1  0.10854000  0.62378000  0.93084000  1.0
  H  H2  1  0.92847000  0.38239000  0.09028000  1.0
  H  H3  1  0.86646000  0.86669000  0.48231000  1.0
  H  H4  1  0.10532000  0.12691000  0.50577000  1.0
  H  H5  1  0.91140000  0.71234000  0.59129000  1.0
  H  H6  1  0.06150000  0.28013000  0.39641000  1.0
  H  H7  1  0.86915000  0.41908000  0.47580000  1.0
  H  H8  1  0.10119000  0.57352000  0.51131000  1.0
  H  H9  1  0.76435000  0.35633000  0.28261000  1.0
  H  H10  1  0.20350000  0.63691000  0.70423000  1.0
  H  H11  1  0.56749000  0.62554000  0.19626000  1.0
  H  H12  1  0.41813000  0.37166000  0.77896000  1.0
  H  H13  1  0.73653000  0.55287000  0.14621000  1.0
  H  H14  1  0.26175000  0.44696000  0.84469000  1.0
  H  H15  1  0.76158000  0.92461000  0.27221000  1.0
  H  H16  1  0.22587000  0.07250000  0.71757000  1.0
  H  H17  1  0.95412000  0.86093000  0.25620000  1.0
  H  H18  1  0.04196000  0.13862000  0.74868000  1.0
  H  H19  1  0.79870000  0.77967000  0.99156000  1.0
  H  H20  1  0.22074000  0.22548000  0.00891000  1.0
  H  H21  1  0.58167000  0.78461000  0.99987000  1.0
  H  H22  1  0.43139000  0.22370000  0.98637000  1.0
  H  H23  1  0.67325000  0.97366000  0.58188000  1.0
  H  H24  1  0.32206000  0.02280000  0.43423000  1.0
  H  H25  1  0.74476000  0.85756000  0.71752000  1.0
  H  H26  1  0.24847000  0.12099000  0.28586000  1.0
  H  H27  1  0.64810000  0.18090000  0.49910000  1.0
  H  H28  1  0.34629000  0.84503000  0.53328000  1.0
  H  H29  1  0.56059000  0.11719000  0.30510000  1.0
  H  H30  1  0.44869000  0.86858000  0.72379000  1.0
  H  H31  1  0.78106000  0.17167000  0.88234000  1.0
  H  H32  1  0.25765000  0.84673000  0.11932000  1.0
  C  C33  1  0.00524000  0.52176000  0.94465000  1.0
  C  C34  1  0.02954000  0.48541000  0.07519000  1.0
  C  C35  1  0.83598000  0.43776000  0.80928000  1.0
  C  C36  1  0.20360000  0.57068000  0.20526000  1.0
  C  C37  1  0.81472000  0.73239000  0.48951000  1.0
  C  C38  1  0.15798000  0.26129000  0.49890000  1.0
  C  C39  1  0.76354000  0.43901000  0.37792000  1.0
  C  C40  1  0.20684000  0.55531000  0.60964000  1.0
  C  C41  1  0.71854000  0.64778000  0.22424000  1.0
  C  C42  1  0.26969000  0.34970000  0.76260000  1.0
  C  C43  1  0.75893000  0.03009000  0.03386000  1.0
  C  C44  1  0.26547000  0.97833000  0.96585000  1.0
  C  C45  1  0.80116000  0.82934000  0.21060000  1.0
  C  C46  1  0.19423000  0.16991000  0.78375000  1.0
  C  C47  1  0.73329000  0.84579000  0.05283000  1.0
  C  C48  1  0.28021000  0.15952000  0.94228000  1.0
  C  C49  1  0.63652000  0.84802000  0.61049000  1.0
  C  C50  1  0.35262000  0.14374000  0.39723000  1.0
  C  C51  1  0.54602000  0.19395000  0.39657000  1.0
  C  C52  1  0.44755000  0.80459000  0.62011000  1.0
  N  N53  1  0.63843000  0.71114000  0.50644000  1.0
  N  N54  1  0.33821000  0.28427000  0.48993000  1.0
  N  N55  1  0.58868000  0.37428000  0.39255000  1.0
  N  N56  1  0.38557000  0.61989000  0.59998000  1.0
  N  N57  1  0.81186000  0.61637000  0.36852000  1.0
  N  N58  1  0.16015000  0.37748000  0.62035000  1.0
  O  O59  1  0.80521000  0.52685000  0.71498000  1.0
  O  O60  1  0.23329000  0.47292000  0.29736000  1.0
  O  O61  1  0.80014000  0.05427000  0.92019000  1.0
  O  O62  1  0.24053000  0.95961000  0.08796000  1.0
  O  O63  1  0.73583000  0.14320000  0.11503000  1.0
  O  O64  1  0.28215000  0.86223000  0.88416000  1.0
  O  O65  1  0.73282000  0.28590000  0.79597000  1.0
  O  O66  1  0.30834000  0.71748000  0.21843000  1.0
