# generated using pymatgen
data_HgH8C11N3Cl3O
_symmetry_space_group_name_H-M   'P 1'
_cell_length_a   3.96822000
_cell_length_b   11.74117734
_cell_length_c   15.32360000
_cell_angle_alpha   70.28818778
_cell_angle_beta   84.33170000
_cell_angle_gamma   81.35715727
_symmetry_Int_Tables_number   1
_chemical_formula_structural   HgH8C11N3Cl3O
_chemical_formula_sum   'Hg2 H16 C22 N6 Cl6 O2'
_cell_volume   663.59419103
_cell_formula_units_Z   2
loop_
 _symmetry_equiv_pos_site_id
 _symmetry_equiv_pos_as_xyz
  1  'x, y, z'
loop_
 _atom_site_type_symbol
 _atom_site_label
 _atom_site_symmetry_multiplicity
 _atom_site_fract_x
 _atom_site_fract_y
 _atom_site_fract_z
 _atom_site_occupancy
  Hg  Hg0  1  0.72427000  0.16727000  0.48021000  1.0
  Hg  Hg1  1  0.27572000  0.83272000  0.51979000  1.0
  H  H2  1  0.22733000  0.66382000  0.34880000  1.0
  H  H3  1  0.77267000  0.33619000  0.65120000  1.0
  H  H4  1  0.30878000  0.44428000  0.45866000  1.0
  H  H5  1  0.69121000  0.55572000  0.54134000  1.0
  H  H6  1  0.97878000  0.34610000  0.26245000  1.0
  H  H7  1  0.02121000  0.65389000  0.73755000  1.0
  H  H8  1  0.69378000  0.92099000  0.00130000  1.0
  H  H9  1  0.30623000  0.07902000  0.99871000  1.0
  H  H10  1  0.29041000  0.96306000  0.74409000  1.0
  H  H11  1  0.70956000  0.03695000  0.25591000  1.0
  H  H12  1  0.53187000  0.74348000  0.80546000  1.0
  H  H13  1  0.46812000  0.25652000  0.19454000  1.0
  H  H14  1  0.35085000  0.61242000  0.96105000  1.0
  H  H15  1  0.64915000  0.38759000  0.03895000  1.0
  H  H16  1  0.70871000  0.73793000  0.11249000  1.0
  H  H17  1  0.29129000  0.26206000  0.88751000  1.0
  C  C18  1  0.39724000  0.59272000  0.32987000  1.0
  C  C19  1  0.60276000  0.40728000  0.67012000  1.0
  C  C20  1  0.44086000  0.47273000  0.39024000  1.0
  C  C21  1  0.55913000  0.52727000  0.60975000  1.0
  C  C22  1  0.81249000  0.41702000  0.28234000  1.0
  C  C23  1  0.18750000  0.58297000  0.71766000  1.0
  C  C24  1  0.77081000  0.53802000  0.22265000  1.0
  C  C25  1  0.22918000  0.46198000  0.77735000  1.0
  C  C26  1  0.97237000  0.57316000  0.13093000  1.0
  C  C27  1  0.02765000  0.42684000  0.86907000  1.0
  C  C28  1  0.01121000  0.75867000  0.99130000  1.0
  C  C29  1  0.98882000  0.24133000  0.00870000  1.0
  C  C30  1  0.87917000  0.88253000  0.95826000  1.0
  C  C31  1  0.12084000  0.11747000  0.04174000  1.0
  C  C32  1  0.97914000  0.95362000  0.86958000  1.0
  C  C33  1  0.02085000  0.04639000  0.13042000  1.0
  C  C34  1  0.21298000  0.90540000  0.81300000  1.0
  C  C35  1  0.78701000  0.09461000  0.18700000  1.0
  C  C36  1  0.34439000  0.78255000  0.84769000  1.0
  C  C37  1  0.65561000  0.21745000  0.15230000  1.0
  C  C38  1  0.24618000  0.70783000  0.93579000  1.0
  C  C39  1  0.75382000  0.29218000  0.06421000  1.0
  N  N40  1  0.56126000  0.62477000  0.24637000  1.0
  N  N41  1  0.43875000  0.37523000  0.75363000  1.0
  N  N42  1  0.64693000  0.38574000  0.36571000  1.0
  N  N43  1  0.35306000  0.61425000  0.63429000  1.0
  N  N44  1  0.88807000  0.69187000  0.07977000  1.0
  N  N45  1  0.11195000  0.30812000  0.92023000  1.0
  Cl  Cl46  1  0.18266000  0.10121000  0.38607000  1.0
  Cl  Cl47  1  0.81733000  0.89879000  0.61393000  1.0
  Cl  Cl48  1  0.27112000  0.20946000  0.58524000  1.0
  Cl  Cl49  1  0.72887000  0.79053000  0.41476000  1.0
  Cl  Cl50  1  0.80024000  0.10520000  0.82792000  1.0
  Cl  Cl51  1  0.19977000  0.89480000  0.17208000  1.0
  O  O52  1  0.19212000  0.49814000  0.11056000  1.0
  O  O53  1  0.80788000  0.50186000  0.88944000  1.0
