# generated using pymatgen
data_Cd2H23C34(N3O5)2
_symmetry_space_group_name_H-M   'P 1'
_cell_length_a   9.85420000
_cell_length_b   16.45400000
_cell_length_c   21.96320000
_cell_angle_alpha   89.99520000
_cell_angle_beta   88.48250000
_cell_angle_gamma   89.99910000
_symmetry_Int_Tables_number   1
_chemical_formula_structural   Cd2H23C34(N3O5)2
_chemical_formula_sum   'Cd8 H92 C136 N24 O40'
_cell_volume   3559.88639721
_cell_formula_units_Z   4
loop_
 _symmetry_equiv_pos_site_id
 _symmetry_equiv_pos_as_xyz
  1  'x, y, z'
loop_
 _atom_site_type_symbol
 _atom_site_label
 _atom_site_symmetry_multiplicity
 _atom_site_fract_x
 _atom_site_fract_y
 _atom_site_fract_z
 _atom_site_occupancy
  Cd  Cd0  1  0.67996000  0.90967000  0.24697000  1.0
  Cd  Cd1  1  0.32003000  0.40967000  0.25301000  1.0
  Cd  Cd2  1  0.32011000  0.09033000  0.75302000  1.0
  Cd  Cd3  1  0.67996000  0.59033000  0.74700000  1.0
  Cd  Cd4  1  0.33915000  0.99550000  0.20930000  1.0
  Cd  Cd5  1  0.66082000  0.49549000  0.29072000  1.0
  Cd  Cd6  1  0.66087000  0.00449000  0.79068000  1.0
  Cd  Cd7  1  0.33914000  0.50449000  0.70932000  1.0
  H  H8  1  0.96838000  0.13867000  0.26961000  1.0
  H  H9  1  0.03169000  0.63859000  0.23041000  1.0
  H  H10  1  0.03166000  0.86142000  0.73042000  1.0
  H  H11  1  0.96832000  0.36138000  0.76960000  1.0
  H  H12  1  0.66813000  0.06333000  0.34673000  1.0
  H  H13  1  0.33191000  0.56335000  0.15325000  1.0
  H  H14  1  0.33191000  0.93667000  0.65327000  1.0
  H  H15  1  0.66805000  0.43668000  0.84673000  1.0
  H  H16  1  0.01195000  0.90543000  0.35529000  1.0
  H  H17  1  0.98805000  0.40540000  0.14469000  1.0
  H  H18  1  0.98804000  0.09460000  0.64468000  1.0
  H  H19  1  0.01186000  0.59459000  0.85528000  1.0
  H  H20  1  0.65093000  0.11115000  0.66189000  1.0
  H  H21  1  0.34908000  0.61121000  0.83813000  1.0
  H  H22  1  0.34907000  0.88882000  0.33812000  1.0
  H  H23  1  0.65089000  0.38879000  0.16187000  1.0
  H  H24  1  0.66493000  0.08782000  0.45735000  1.0
  H  H25  1  0.33514000  0.58784000  0.04264000  1.0
  H  H26  1  0.33512000  0.91217000  0.54265000  1.0
  H  H27  1  0.66488000  0.41217000  0.95735000  1.0
  H  H28  1  0.07870000  0.30265000  0.23973000  1.0
  H  H29  1  0.92137000  0.80265000  0.26026000  1.0
  H  H30  1  0.92135000  0.69731000  0.76028000  1.0
  H  H31  1  0.07859000  0.19735000  0.73975000  1.0
  H  H32  1  0.84554000  0.29624000  0.20102000  1.0
  H  H33  1  0.15446000  0.79629000  0.29902000  1.0
  H  H34  1  0.15449000  0.70376000  0.79898000  1.0
  H  H35  1  0.84552000  0.20371000  0.70097000  1.0
  H  H36  1  0.99494000  0.97080000  0.45610000  1.0
  H  H37  1  0.00501000  0.47081000  0.04390000  1.0
  H  H38  1  0.00512000  0.02919000  0.54389000  1.0
  H  H39  1  0.99503000  0.52920000  0.95610000  1.0
  H  H40  1  0.94646000  0.20497000  0.36974000  1.0
  H  H41  1  0.05347000  0.70495000  0.13028000  1.0
  H  H42  1  0.05352000  0.79505000  0.63029000  1.0
  H  H43  1  0.94649000  0.29504000  0.86974000  1.0
  H  H44  1  0.65588000  0.10188000  0.54975000  1.0
  H  H45  1  0.34412000  0.60190000  0.95026000  1.0
  H  H46  1  0.34412000  0.89811000  0.45026000  1.0
  H  H47  1  0.65587000  0.39812000  0.04973000  1.0
  H  H48  1  0.19644000  0.10394000  0.12048000  1.0
  H  H49  1  0.80363000  0.60392000  0.37953000  1.0
  H  H50  1  0.80362000  0.89610000  0.87947000  1.0
  H  H51  1  0.19637000  0.39608000  0.62049000  1.0
  H  H52  1  0.69564000  0.86236000  0.68041000  1.0
  H  H53  1  0.30442000  0.36242000  0.81958000  1.0
  H  H54  1  0.30443000  0.13762000  0.31959000  1.0
  H  H55  1  0.69559000  0.63759000  0.18041000  1.0
  H  H56  1  0.69598000  0.84077000  0.57062000  1.0
  H  H57  1  0.30407000  0.34080000  0.92937000  1.0
  H  H58  1  0.30411000  0.15922000  0.42937000  1.0
  H  H59  1  0.69591000  0.65921000  0.07062000  1.0
  H  H60  1  0.67362000  0.81376000  0.37139000  1.0
  H  H61  1  0.32623000  0.31378000  0.12862000  1.0
  H  H62  1  0.32633000  0.18624000  0.62860000  1.0
  H  H63  1  0.67372000  0.68624000  0.87139000  1.0
  H  H64  1  0.96436000  0.09645000  0.08262000  1.0
  H  H65  1  0.03569000  0.59643000  0.41737000  1.0
  H  H66  1  0.03564000  0.90355000  0.91737000  1.0
  H  H67  1  0.96434000  0.40354000  0.58260000  1.0
  H  H68  1  0.67810000  0.82670000  0.48244000  1.0
  H  H69  1  0.32175000  0.32673000  0.01756000  1.0
  H  H70  1  0.32184000  0.17328000  0.51755000  1.0
  H  H71  1  0.67824000  0.67328000  0.98244000  1.0
  H  H72  1  0.03506000  0.23861000  0.46869000  1.0
  H  H73  1  0.96494000  0.73863000  0.03132000  1.0
  H  H74  1  0.96489000  0.76142000  0.53132000  1.0
  H  H75  1  0.03508000  0.26142000  0.96869000  1.0
  H  H76  1  0.93615000  0.21524000  0.53613000  1.0
  H  H77  1  0.06381000  0.71524000  0.96388000  1.0
  H  H78  1  0.06377000  0.78481000  0.46387000  1.0
  H  H79  1  0.93619000  0.28479000  0.03614000  1.0
  H  H80  1  0.85407000  0.23137000  0.46515000  1.0
  H  H81  1  0.14593000  0.73137000  0.03484000  1.0
  H  H82  1  0.14589000  0.76864000  0.53484000  1.0
  H  H83  1  0.85408000  0.26864000  0.96517000  1.0
  H  H84  1  0.76625000  0.13073000  0.03766000  1.0
  H  H85  1  0.23375000  0.63071000  0.46235000  1.0
  H  H86  1  0.23377000  0.86930000  0.96234000  1.0
  H  H87  1  0.76626000  0.36930000  0.53764000  1.0
  H  H88  1  0.60566000  0.14409000  0.07733000  1.0
  H  H89  1  0.39437000  0.64407000  0.42270000  1.0
  H  H90  1  0.39435000  0.85591000  0.92266000  1.0
  H  H91  1  0.60564000  0.35594000  0.57729000  1.0
  H  H92  1  0.72818000  0.07525000  0.10708000  1.0
  H  H93  1  0.27188000  0.57524000  0.39295000  1.0
  H  H94  1  0.27182000  0.92472000  0.89290000  1.0
  H  H95  1  0.72814000  0.42476000  0.60706000  1.0
  H  H96  1  0.99455000  0.87723000  0.06036000  1.0
  H  H97  1  0.00550000  0.37719000  0.43965000  1.0
  H  H98  1  0.00544000  0.12278000  0.93960000  1.0
  H  H99  1  0.99444000  0.62276000  0.56036000  1.0
  C  C100  1  0.99417000  0.01780000  0.30519000  1.0
  C  C101  1  0.00585000  0.51776000  0.19481000  1.0
  C  C102  1  0.00583000  0.98223000  0.69480000  1.0
  C  C103  1  0.99410000  0.48222000  0.80520000  1.0
  C  C104  1  0.07400000  0.93914000  0.15495000  1.0
  C  C105  1  0.92606000  0.43918000  0.34508000  1.0
  C  C106  1  0.92606000  0.06080000  0.84505000  1.0
  C  C107  1  0.07394000  0.56085000  0.65495000  1.0
  C  C108  1  0.00130000  0.97838000  0.24500000  1.0
  C  C109  1  0.99873000  0.47837000  0.25500000  1.0
  C  C110  1  0.99873000  0.02162000  0.75498000  1.0
  C  C111  1  0.00123000  0.52163000  0.74501000  1.0
  C  C112  1  0.29067000  0.20358000  0.20600000  1.0
  C  C113  1  0.70934000  0.70357000  0.29399000  1.0
  C  C114  1  0.70934000  0.79641000  0.79400000  1.0
  C  C115  1  0.29065000  0.29642000  0.70601000  1.0
  C  C116  1  0.49352000  0.16044000  0.22627000  1.0
  C  C117  1  0.50646000  0.66046000  0.27373000  1.0
  C  C118  1  0.50647000  0.83954000  0.77375000  1.0
  C  C119  1  0.49352000  0.33955000  0.72626000  1.0
  C  C120  1  0.97720000  0.10207000  0.31042000  1.0
  C  C121  1  0.02283000  0.60203000  0.18958000  1.0
  C  C122  1  0.02281000  0.89796000  0.68959000  1.0
  C  C123  1  0.97716000  0.39795000  0.81042000  1.0
  C  C124  1  0.60628000  0.10003000  0.23021000  1.0
  C  C125  1  0.39367000  0.60006000  0.26978000  1.0
  C  C126  1  0.39373000  0.89997000  0.76979000  1.0
  C  C127  1  0.60629000  0.39994000  0.73024000  1.0
  C  C128  1  0.17176000  0.93078000  0.10270000  1.0
  C  C129  1  0.82827000  0.43077000  0.39732000  1.0
  C  C130  1  0.82826000  0.06922000  0.89728000  1.0
  C  C131  1  0.17172000  0.56921000  0.60271000  1.0
  C  C132  1  0.67364000  0.96973000  0.54846000  1.0
  C  C133  1  0.32637000  0.46976000  0.95154000  1.0
  C  C134  1  0.32639000  0.03026000  0.45154000  1.0
  C  C135  1  0.67363000  0.53025000  0.04845000  1.0
  C  C136  1  0.67147000  0.95941000  0.48154000  1.0
  C  C137  1  0.32851000  0.45943000  0.01846000  1.0
  C  C138  1  0.32854000  0.04058000  0.51846000  1.0
  C  C139  1  0.67149000  0.54058000  0.98154000  1.0
  C  C140  1  0.66687000  0.01227000  0.37844000  1.0
  C  C141  1  0.33314000  0.51229000  0.12155000  1.0
  C  C142  1  0.33316000  0.98773000  0.62156000  1.0
  C  C143  1  0.66684000  0.48773000  0.87844000  1.0
  C  C144  1  0.99947000  0.97109000  0.35843000  1.0
  C  C145  1  0.00053000  0.47106000  0.14157000  1.0
  C  C146  1  0.00052000  0.02894000  0.64156000  1.0
  C  C147  1  0.99942000  0.52893000  0.85843000  1.0
  C  C148  1  0.97060000  0.09191000  0.41976000  1.0
  C  C149  1  0.02938000  0.59191000  0.08025000  1.0
  C  C150  1  0.02940000  0.90810000  0.58025000  1.0
  C  C151  1  0.97059000  0.40810000  0.91976000  1.0
  C  C152  1  0.66208000  0.05236000  0.63947000  1.0
  C  C153  1  0.33795000  0.55241000  0.86054000  1.0
  C  C154  1  0.33793000  0.94762000  0.36054000  1.0
  C  C155  1  0.66204000  0.44760000  0.13946000  1.0
  C  C156  1  0.66640000  0.02537000  0.44109000  1.0
  C  C157  1  0.33361000  0.52539000  0.05890000  1.0
  C  C158  1  0.33363000  0.97462000  0.55891000  1.0
  C  C159  1  0.66638000  0.47462000  0.94109000  1.0
  C  C160  1  0.15512000  0.20330000  0.18326000  1.0
  C  C161  1  0.84491000  0.70329000  0.31673000  1.0
  C  C162  1  0.84491000  0.79668000  0.81673000  1.0
  C  C163  1  0.15507000  0.29670000  0.68328000  1.0
  C  C164  1  0.05452000  0.25895000  0.20443000  1.0
  C  C165  1  0.94552000  0.75894000  0.29556000  1.0
  C  C166  1  0.94550000  0.74104000  0.79557000  1.0
  C  C167  1  0.05446000  0.24106000  0.70444000  1.0
  C  C168  1  0.92444000  0.25599000  0.18287000  1.0
  C  C169  1  0.07559000  0.75600000  0.31714000  1.0
  C  C170  1  0.07559000  0.74400000  0.81713000  1.0
  C  C171  1  0.92440000  0.24399000  0.68285000  1.0
  C  C172  1  0.98932000  0.00751000  0.41512000  1.0
  C  C173  1  0.01066000  0.50751000  0.08488000  1.0
  C  C174  1  0.01069000  0.99250000  0.58488000  1.0
  C  C175  1  0.98932000  0.49250000  0.91512000  1.0
  C  C176  1  0.96449000  0.13975000  0.36724000  1.0
  C  C177  1  0.03549000  0.63974000  0.13277000  1.0
  C  C178  1  0.03550000  0.86026000  0.63278000  1.0
  C  C179  1  0.96448000  0.36026000  0.86724000  1.0
  C  C180  1  0.66363000  0.04635000  0.57633000  1.0
  C  C181  1  0.33639000  0.54638000  0.92367000  1.0
  C  C182  1  0.33638000  0.95364000  0.42367000  1.0
  C  C183  1  0.66360000  0.45363000  0.07632000  1.0
  C  C184  1  0.11899000  0.14518000  0.13873000  1.0
  C  C185  1  0.88105000  0.64517000  0.36126000  1.0
  C  C186  1  0.88104000  0.85483000  0.86124000  1.0
  C  C187  1  0.11894000  0.35482000  0.63875000  1.0
  C  C188  1  0.68483000  0.91435000  0.65020000  1.0
  C  C189  1  0.31521000  0.41440000  0.84980000  1.0
  C  C190  1  0.31522000  0.08563000  0.34980000  1.0
  C  C191  1  0.68479000  0.58560000  0.15020000  1.0
  C  C192  1  0.88961000  0.19702000  0.13883000  1.0
  C  C193  1  0.11044000  0.69702000  0.36117000  1.0
  C  C194  1  0.11041000  0.80296000  0.86118000  1.0
  C  C195  1  0.88956000  0.30297000  0.63881000  1.0
  C  C196  1  0.68551000  0.90269000  0.58753000  1.0
  C  C197  1  0.31452000  0.40272000  0.91247000  1.0
  C  C198  1  0.31454000  0.09730000  0.41247000  1.0
  C  C199  1  0.68547000  0.59729000  0.08753000  1.0
  C  C200  1  0.67258000  0.87370000  0.39228000  1.0
  C  C201  1  0.32733000  0.37372000  0.10772000  1.0
  C  C202  1  0.32741000  0.12630000  0.60771000  1.0
  C  C203  1  0.67263000  0.62630000  0.89228000  1.0
  C  C204  1  0.98875000  0.14128000  0.11708000  1.0
  C  C205  1  0.01129000  0.64126000  0.38291000  1.0
  C  C206  1  0.01127000  0.85872000  0.88291000  1.0
  C  C207  1  0.98871000  0.35872000  0.61707000  1.0
  C  C208  1  0.67442000  0.88172000  0.45505000  1.0
  C  C209  1  0.32549000  0.38174000  0.04496000  1.0
  C  C210  1  0.32556000  0.11827000  0.54495000  1.0
  C  C211  1  0.67449000  0.61826000  0.95504000  1.0
  C  C212  1  0.48032000  0.24328000  0.24544000  1.0
  C  C213  1  0.51969000  0.74329000  0.25455000  1.0
  C  C214  1  0.51968000  0.75671000  0.75456000  1.0
  C  C215  1  0.48035000  0.25672000  0.74541000  1.0
  C  C216  1  0.57839000  0.30023000  0.27459000  1.0
  C  C217  1  0.42160000  0.80024000  0.22541000  1.0
  C  C218  1  0.42161000  0.69975000  0.72541000  1.0
  C  C219  1  0.57843000  0.19981000  0.77459000  1.0
  C  C220  1  0.93808000  0.91613000  0.16275000  1.0
  C  C221  1  0.06199000  0.41620000  0.33729000  1.0
  C  C222  1  0.06199000  0.08379000  0.83725000  1.0
  C  C223  1  0.93802000  0.58384000  0.66274000  1.0
  C  C224  1  0.94477000  0.20670000  0.48676000  1.0
  C  C225  1  0.05522000  0.70671000  0.01325000  1.0
  C  C226  1  0.05519000  0.79332000  0.51324000  1.0
  C  C227  1  0.94478000  0.29332000  0.98677000  1.0
  C  C228  1  0.84271000  0.87513000  0.12240000  1.0
  C  C229  1  0.15733000  0.37512000  0.37761000  1.0
  C  C230  1  0.15732000  0.12485000  0.87758000  1.0
  C  C231  1  0.84265000  0.62485000  0.62240000  1.0
  C  C232  1  0.71409000  0.13272000  0.08254000  1.0
  C  C233  1  0.28594000  0.63270000  0.41748000  1.0
  C  C234  1  0.28591000  0.86727000  0.91746000  1.0
  C  C235  1  0.71407000  0.36730000  0.58251000  1.0
  N  N236  1  0.37521000  0.13785000  0.20124000  1.0
  N  N237  1  0.62477000  0.63785000  0.29877000  1.0
  N  N238  1  0.62479000  0.86213000  0.79878000  1.0
  N  N239  1  0.37518000  0.36216000  0.70125000  1.0
  N  N240  1  0.11173000  0.97769000  0.20711000  1.0
  N  N241  1  0.88829000  0.47769000  0.29290000  1.0
  N  N242  1  0.88830000  0.02229000  0.79288000  1.0
  N  N243  1  0.11168000  0.52231000  0.70712000  1.0
  N  N244  1  0.35288000  0.26836000  0.23312000  1.0
  N  N245  1  0.64712000  0.76836000  0.26687000  1.0
  N  N246  1  0.64712000  0.73163000  0.76688000  1.0
  N  N247  1  0.35292000  0.23163000  0.73309000  1.0
  N  N248  1  0.66959000  0.93739000  0.35392000  1.0
  N  N249  1  0.33038000  0.43741000  0.14607000  1.0
  N  N250  1  0.33043000  0.06261000  0.64607000  1.0
  N  N251  1  0.66958000  0.56262000  0.85393000  1.0
  N  N252  1  0.67175000  0.98768000  0.67650000  1.0
  N  N253  1  0.32827000  0.48774000  0.82350000  1.0
  N  N254  1  0.32827000  0.01230000  0.32350000  1.0
  N  N255  1  0.67172000  0.51227000  0.17650000  1.0
  N  N256  1  0.89496000  0.94044000  0.21990000  1.0
  N  N257  1  0.10509000  0.44047000  0.28013000  1.0
  N  N258  1  0.10509000  0.05952000  0.78010000  1.0
  N  N259  1  0.89489000  0.55955000  0.71989000  1.0
  O  O260  1  0.72339000  0.12093000  0.24237000  1.0
  O  O261  1  0.27657000  0.62098000  0.25763000  1.0
  O  O262  1  0.27663000  0.87908000  0.75761000  1.0
  O  O263  1  0.72339000  0.37900000  0.74241000  1.0
  O  O264  1  0.29083000  0.95824000  0.10815000  1.0
  O  O265  1  0.70918000  0.45818000  0.39185000  1.0
  O  O266  1  0.70918000  0.04179000  0.89182000  1.0
  O  O267  1  0.29078000  0.54174000  0.60817000  1.0
  O  O268  1  0.55261000  0.37649000  0.26374000  1.0
  O  O269  1  0.44734000  0.87650000  0.23629000  1.0
  O  O270  1  0.44742000  0.62349000  0.73626000  1.0
  O  O271  1  0.55281000  0.12354000  0.76372000  1.0
  O  O272  1  0.72557000  0.85731000  0.14112000  1.0
  O  O273  1  0.27445000  0.35727000  0.35888000  1.0
  O  O274  1  0.27445000  0.14270000  0.85885000  1.0
  O  O275  1  0.72551000  0.64269000  0.64112000  1.0
  O  O276  1  0.76193000  0.19981000  0.11914000  1.0
  O  O277  1  0.23812000  0.69979000  0.38086000  1.0
  O  O278  1  0.23807000  0.80017000  0.88088000  1.0
  O  O279  1  0.76189000  0.30020000  0.61912000  1.0
  O  O280  1  0.67244000  0.27386000  0.30518000  1.0
  O  O281  1  0.32758000  0.77387000  0.19480000  1.0
  O  O282  1  0.32754000  0.72611000  0.69483000  1.0
  O  O283  1  0.67233000  0.22624000  0.80525000  1.0
  O  O284  1  0.12770000  0.89742000  0.05398000  1.0
  O  O285  1  0.87235000  0.39742000  0.44604000  1.0
  O  O286  1  0.87231000  0.10261000  0.94599000  1.0
  O  O287  1  0.12766000  0.60256000  0.55398000  1.0
  O  O288  1  0.88663000  0.85878000  0.06669000  1.0
  O  O289  1  0.11340000  0.35872000  0.43332000  1.0
  O  O290  1  0.11339000  0.14122000  0.93329000  1.0
  O  O291  1  0.88655000  0.64120000  0.56668000  1.0
  O  O292  1  0.95657000  0.12069000  0.47793000  1.0
  O  O293  1  0.04339000  0.62070000  0.02208000  1.0
  O  O294  1  0.04341000  0.87933000  0.52208000  1.0
  O  O295  1  0.95657000  0.37933000  0.97793000  1.0
  O  O296  1  0.56871000  0.02550000  0.21949000  1.0
  O  O297  1  0.43122000  0.52552000  0.28051000  1.0
  O  O298  1  0.43130000  0.97449000  0.78054000  1.0
  O  O299  1  0.56875000  0.47449000  0.71954000  1.0
