# generated using pymatgen
data_CdH11C16IN2O
_symmetry_space_group_name_H-M   'P 1'
_cell_length_a   8.67047000
_cell_length_b   9.02061000
_cell_length_c   10.16350000
_cell_angle_alpha   78.64140000
_cell_angle_beta   77.90860000
_cell_angle_gamma   77.54370000
_symmetry_Int_Tables_number   1
_chemical_formula_structural   CdH11C16IN2O
_chemical_formula_sum   'Cd2 H22 C32 I2 N4 O2'
_cell_volume   749.33553522
_cell_formula_units_Z   2
loop_
 _symmetry_equiv_pos_site_id
 _symmetry_equiv_pos_as_xyz
  1  'x, y, z'
loop_
 _atom_site_type_symbol
 _atom_site_label
 _atom_site_symmetry_multiplicity
 _atom_site_fract_x
 _atom_site_fract_y
 _atom_site_fract_z
 _atom_site_occupancy
  Cd  Cd0  1  0.58640000  0.06956000  0.32526000  1.0
  Cd  Cd1  1  0.41360000  0.93045000  0.67474000  1.0
  H  H2  1  0.75714000  0.94582000  0.77233000  1.0
  H  H3  1  0.24286000  0.05418000  0.22767000  1.0
  H  H4  1  0.97348000  0.06062000  0.81392000  1.0
  H  H5  1  0.02653000  0.93937000  0.18607000  1.0
  H  H6  1  0.09368000  0.25707000  0.64055000  1.0
  H  H7  1  0.90633000  0.74293000  0.35945000  1.0
  H  H8  1  0.09326000  0.42528000  0.40599000  1.0
  H  H9  1  0.90673000  0.57473000  0.59401000  1.0
  H  H10  1  0.99192000  0.48901000  0.18608000  1.0
  H  H11  1  0.00808000  0.51100000  0.81393000  1.0
  H  H12  1  0.75624000  0.23650000  0.08781000  1.0
  H  H13  1  0.24376000  0.76350000  0.91219000  1.0
  H  H14  1  0.77502000  0.57946000  0.06264000  1.0
  H  H15  1  0.22499000  0.42054000  0.93736000  1.0
  H  H16  1  0.71739000  0.26191000  0.88148000  1.0
  H  H17  1  0.28261000  0.73809000  0.11852000  1.0
  H  H18  1  0.60705000  0.32691000  0.66785000  1.0
  H  H19  1  0.39294000  0.67309000  0.33215000  1.0
  H  H20  1  0.51131000  0.60552000  0.57694000  1.0
  H  H21  1  0.48869000  0.39448000  0.42306000  1.0
  H  H22  1  0.62747000  0.74796000  0.90181000  1.0
  H  H23  1  0.37253000  0.25203000  0.09820000  1.0
  C  C24  1  0.75618000  0.06575000  0.56761000  1.0
  C  C25  1  0.24382000  0.93425000  0.43239000  1.0
  C  C26  1  0.81081000  0.02851000  0.69222000  1.0
  C  C27  1  0.18919000  0.97149000  0.30778000  1.0
  C  C28  1  0.93257000  0.09551000  0.71601000  1.0
  C  C29  1  0.06743000  0.90449000  0.28399000  1.0
  C  C30  1  0.00078000  0.20519000  0.61939000  1.0
  C  C31  1  0.99922000  0.79480000  0.38061000  1.0
  C  C32  1  0.94892000  0.24903000  0.49220000  1.0
  C  C33  1  0.05108000  0.75097000  0.50781000  1.0
  C  C34  1  0.83083000  0.17596000  0.46375000  1.0
  C  C35  1  0.16917000  0.82404000  0.53625000  1.0
  C  C36  1  0.00521000  0.36473000  0.38820000  1.0
  C  C37  1  0.99479000  0.63527000  0.61180000  1.0
  C  C38  1  0.94999000  0.40005000  0.26630000  1.0
  C  C39  1  0.05000000  0.59995000  0.73370000  1.0
  C  C40  1  0.84143000  0.31498000  0.24234000  1.0
  C  C41  1  0.15857000  0.68502000  0.75766000  1.0
  C  C42  1  0.78495000  0.33886000  0.11301000  1.0
  C  C43  1  0.21505000  0.66114000  0.88699000  1.0
  C  C44  1  0.75623000  0.47595000  0.03181000  1.0
  C  C45  1  0.24377000  0.52405000  0.96819000  1.0
  C  C46  1  0.68897000  0.50071000  0.90760000  1.0
  C  C47  1  0.31103000  0.49928000  0.09240000  1.0
  C  C48  1  0.67714000  0.38206000  0.84103000  1.0
  C  C49  1  0.32286000  0.61794000  0.15897000  1.0
  C  C50  1  0.61457000  0.41815000  0.72095000  1.0
  C  C51  1  0.38543000  0.58186000  0.27905000  1.0
  C  C52  1  0.56190000  0.57161000  0.67041000  1.0
  C  C53  1  0.43810000  0.42839000  0.32959000  1.0
  C  C54  1  0.62862000  0.65188000  0.85040000  1.0
  C  C55  1  0.37138000  0.34812000  0.14960000  1.0
  I  I56  1  0.69285000  0.90468000  0.11449000  1.0
  I  I57  1  0.30715000  0.09532000  0.88551000  1.0
  N  N58  1  0.78500000  0.20703000  0.34012000  1.0
  N  N59  1  0.21500000  0.79297000  0.65988000  1.0
  N  N60  1  0.56593000  0.68629000  0.73607000  1.0
  N  N61  1  0.43407000  0.31371000  0.26393000  1.0
  O  O62  1  0.64161000  0.00624000  0.54112000  1.0
  O  O63  1  0.35839000  0.99376000  0.45888000  1.0
