# generated using pymatgen
data_TbH8C12(NO3)3
_symmetry_space_group_name_H-M   'P 1'
_cell_length_a   10.15200000
_cell_length_b   11.31640000
_cell_length_c   17.41880000
_cell_angle_alpha   90.00010000
_cell_angle_beta   90.00010000
_cell_angle_gamma   70.19400000
_symmetry_Int_Tables_number   1
_chemical_formula_structural   TbH8C12(NO3)3
_chemical_formula_sum   'Tb4 H32 C48 N12 O36'
_cell_volume   1882.76600221
_cell_formula_units_Z   4
loop_
 _symmetry_equiv_pos_site_id
 _symmetry_equiv_pos_as_xyz
  1  'x, y, z'
loop_
 _atom_site_type_symbol
 _atom_site_label
 _atom_site_symmetry_multiplicity
 _atom_site_fract_x
 _atom_site_fract_y
 _atom_site_fract_z
 _atom_site_occupancy
  Tb  Tb0  1  0.98492000  0.18291000  0.49317000  1.0
  Tb  Tb1  1  0.01508000  0.31709000  0.99317000  1.0
  Tb  Tb2  1  0.01508000  0.81709000  0.50683000  1.0
  Tb  Tb3  1  0.98492000  0.68291000  0.00683000  1.0
  H  H4  1  0.10662000  0.29245000  0.18025000  1.0
  H  H5  1  0.89338000  0.20755000  0.68025000  1.0
  H  H6  1  0.89338000  0.70755000  0.81975000  1.0
  H  H7  1  0.10662000  0.79245000  0.31975000  1.0
  H  H8  1  0.89596000  0.65484000  0.28451000  1.0
  H  H9  1  0.10404000  0.84516000  0.78451000  1.0
  H  H10  1  0.10404000  0.34516000  0.71549000  1.0
  H  H11  1  0.89596000  0.15484000  0.21549000  1.0
  H  H12  1  0.15818000  0.20352000  0.31379000  1.0
  H  H13  1  0.84182000  0.29648000  0.81379000  1.0
  H  H14  1  0.84182000  0.79648000  0.68621000  1.0
  H  H15  1  0.15819000  0.70352000  0.18621000  1.0
  H  H16  1  0.95102000  0.54921000  0.41301000  1.0
  H  H17  1  0.04898000  0.95079000  0.91301000  1.0
  H  H18  1  0.04898000  0.45079000  0.58699000  1.0
  H  H19  1  0.95103000  0.04921000  0.08699000  1.0
  H  H20  1  0.57295000  0.94401000  0.61356000  1.0
  H  H21  1  0.42705000  0.55599000  0.11356000  1.0
  H  H22  1  0.42705000  0.05599000  0.38645000  1.0
  H  H23  1  0.57295000  0.44401000  0.88644000  1.0
  H  H24  1  0.52437000  0.29607000  0.50125000  1.0
  H  H25  1  0.47563000  0.20393000  0.00125000  1.0
  H  H26  1  0.47563000  0.70393000  0.49875000  1.0
  H  H27  1  0.52437000  0.79607000  0.99875000  1.0
  H  H28  1  0.30851000  0.02170000  0.63226000  1.0
  H  H29  1  0.69148000  0.47830000  0.13226000  1.0
  H  H30  1  0.69149000  0.97829000  0.36774000  1.0
  H  H31  1  0.30851000  0.52170000  0.86774000  1.0
  H  H32  1  0.26482000  0.35615000  0.52098000  1.0
  H  H33  1  0.73518000  0.14386000  0.02098000  1.0
  H  H34  1  0.73518000  0.64385000  0.47902000  1.0
  H  H35  1  0.26482000  0.85615000  0.97902000  1.0
  C  C36  1  0.96633000  0.54171000  0.14423000  1.0
  C  C37  1  0.03367000  0.95829000  0.64423000  1.0
  C  C38  1  0.03367000  0.45829000  0.85577000  1.0
  C  C39  1  0.96633000  0.04171000  0.35577000  1.0
  C  C40  1  0.99369000  0.48163000  0.22154000  1.0
  C  C41  1  0.00632000  0.01837000  0.72154000  1.0
  C  C42  1  0.00632000  0.51837000  0.77846000  1.0
  C  C43  1  0.99369000  0.98163000  0.27846000  1.0
  C  C44  1  0.06914000  0.35322000  0.22978000  1.0
  C  C45  1  0.93087000  0.14678000  0.72978000  1.0
  C  C46  1  0.93087000  0.64677000  0.77022000  1.0
  C  C47  1  0.06914000  0.85323000  0.27022000  1.0
  C  C48  1  0.95105000  0.55412000  0.28792000  1.0
  C  C49  1  0.04895000  0.94589000  0.78792000  1.0
  C  C50  1  0.04895000  0.44588000  0.71208000  1.0
  C  C51  1  0.95105000  0.05412000  0.21208000  1.0
  C  C52  1  0.09930000  0.30144000  0.30214000  1.0
  C  C53  1  0.90069000  0.19856000  0.80214000  1.0
  C  C54  1  0.90070000  0.69856000  0.69786000  1.0
  C  C55  1  0.09931000  0.80144000  0.19786000  1.0
  C  C56  1  0.98031000  0.49850000  0.35935000  1.0
  C  C57  1  0.01970000  0.00150000  0.85935000  1.0
  C  C58  1  0.01970000  0.50150000  0.64065000  1.0
  C  C59  1  0.98031000  0.99850000  0.14065000  1.0
  C  C60  1  0.72268000  0.06948000  0.53665000  1.0
  C  C61  1  0.27732000  0.43052000  0.03665000  1.0
  C  C62  1  0.27732000  0.93052000  0.46335000  1.0
  C  C63  1  0.72268000  0.56948000  0.96335000  1.0
  C  C64  1  0.56912000  0.11398000  0.55548000  1.0
  C  C65  1  0.43088000  0.38603000  0.05548000  1.0
  C  C66  1  0.43088000  0.88602000  0.44452000  1.0
  C  C67  1  0.56912000  0.61397000  0.94452000  1.0
  C  C68  1  0.50813000  0.03688000  0.59396000  1.0
  C  C69  1  0.49186000  0.46312000  0.09396000  1.0
  C  C70  1  0.49187000  0.96312000  0.40604000  1.0
  C  C71  1  0.50813000  0.53688000  0.90604000  1.0
  C  C72  1  0.48180000  0.23221000  0.53078000  1.0
  C  C73  1  0.51819000  0.26779000  0.03078000  1.0
  C  C74  1  0.51819000  0.76779000  0.46923000  1.0
  C  C75  1  0.48181000  0.73221000  0.96922000  1.0
  C  C76  1  0.36491000  0.07624000  0.60455000  1.0
  C  C77  1  0.63509000  0.42376000  0.10455000  1.0
  C  C78  1  0.63510000  0.92375000  0.39545000  1.0
  C  C79  1  0.36490000  0.57624000  0.89545000  1.0
  C  C80  1  0.33877000  0.26807000  0.54127000  1.0
  C  C81  1  0.66123000  0.23193000  0.04127000  1.0
  C  C82  1  0.66123000  0.73192000  0.45873000  1.0
  C  C83  1  0.33878000  0.76807000  0.95873000  1.0
  N  N84  1  0.05340000  0.37371000  0.36581000  1.0
  N  N85  1  0.94660000  0.12629000  0.86581000  1.0
  N  N86  1  0.94660000  0.62629000  0.63419000  1.0
  N  N87  1  0.05340000  0.87371000  0.13419000  1.0
  N  N88  1  0.28162000  0.18963000  0.57666000  1.0
  N  N89  1  0.71838000  0.31037000  0.07666000  1.0
  N  N90  1  0.71838000  0.81037000  0.42334000  1.0
  N  N91  1  0.28162000  0.68963000  0.92334000  1.0
  N  N92  1  0.76731000  0.41195000  0.54140000  1.0
  N  N93  1  0.23269000  0.08805000  0.04140000  1.0
  N  N94  1  0.23269000  0.58805000  0.45860000  1.0
  N  N95  1  0.76732000  0.91195000  0.95860000  1.0
  O  O96  1  0.08230000  0.32324000  0.43458000  1.0
  O  O97  1  0.91770000  0.17676000  0.93458000  1.0
  O  O98  1  0.91770000  0.67676000  0.56542000  1.0
  O  O99  1  0.08230000  0.82324000  0.06542000  1.0
  O  O100  1  0.97996000  0.47278000  0.08475000  1.0
  O  O101  1  0.02004000  0.02721000  0.58475000  1.0
  O  O102  1  0.02004000  0.52721000  0.91524000  1.0
  O  O103  1  0.97995000  0.97279000  0.41525000  1.0
  O  O104  1  0.93497000  0.66018000  0.13900000  1.0
  O  O105  1  0.06504000  0.83982000  0.63900000  1.0
  O  O106  1  0.06504000  0.33982000  0.86100000  1.0
  O  O107  1  0.93496000  0.16018000  0.36100000  1.0
  O  O108  1  0.76976000  0.15117000  0.50967000  1.0
  O  O109  1  0.23024000  0.34883000  0.00967000  1.0
  O  O110  1  0.23024000  0.84883000  0.49032000  1.0
  O  O111  1  0.76976000  0.65116000  0.99032000  1.0
  O  O112  1  0.79092000  0.95330000  0.54724000  1.0
  O  O113  1  0.20908000  0.54669000  0.04723000  1.0
  O  O114  1  0.20908000  0.04670000  0.45276000  1.0
  O  O115  1  0.79093000  0.45330000  0.95276000  1.0
  O  O116  1  0.14487000  0.22335000  0.58411000  1.0
  O  O117  1  0.85513000  0.27665000  0.08411000  1.0
  O  O118  1  0.85513000  0.77665000  0.41589000  1.0
  O  O119  1  0.14487000  0.72335000  0.91589000  1.0
  O  O120  1  0.78875000  0.38801000  0.46973000  1.0
  O  O121  1  0.21125000  0.11199000  0.96972000  1.0
  O  O122  1  0.21125000  0.61199000  0.53028000  1.0
  O  O123  1  0.78875000  0.88801000  0.03027000  1.0
  O  O124  1  0.85540000  0.33493000  0.58770000  1.0
  O  O125  1  0.14460000  0.16507000  0.08770000  1.0
  O  O126  1  0.14460000  0.66507000  0.41230000  1.0
  O  O127  1  0.85540000  0.83494000  0.91230000  1.0
  O  O128  1  0.67045000  0.50290000  0.56592000  1.0
  O  O129  1  0.32954000  0.99710000  0.06591000  1.0
  O  O130  1  0.32954000  0.49710000  0.43409000  1.0
  O  O131  1  0.67045000  0.00291000  0.93409000  1.0
