# generated using pymatgen
data_AgH13C6N2O5
_symmetry_space_group_name_H-M   'P 1'
_cell_length_a   10.40590000
_cell_length_b   10.91810000
_cell_length_c   10.91810000
_cell_angle_alpha   68.59860000
_cell_angle_beta   66.36660000
_cell_angle_gamma   66.36680000
_symmetry_Int_Tables_number   1
_chemical_formula_structural   AgH13C6N2O5
_chemical_formula_sum   'Ag4 H52 C24 N8 O20'
_cell_volume   1009.80757597
_cell_formula_units_Z   4
loop_
 _symmetry_equiv_pos_site_id
 _symmetry_equiv_pos_as_xyz
  1  'x, y, z'
loop_
 _atom_site_type_symbol
 _atom_site_label
 _atom_site_symmetry_multiplicity
 _atom_site_fract_x
 _atom_site_fract_y
 _atom_site_fract_z
 _atom_site_occupancy
  Ag  Ag0  1  0.17553000  0.01438000  0.89512000  1.0
  Ag  Ag1  1  0.32447000  0.10488000  0.98562000  1.0
  Ag  Ag2  1  0.82447000  0.98562000  0.10488000  1.0
  Ag  Ag3  1  0.67553000  0.89512000  0.01438000  1.0
  H  H4  1  0.73576000  0.77435000  0.79440000  1.0
  H  H5  1  0.76424000  0.20560000  0.22565000  1.0
  H  H6  1  0.26424000  0.22565000  0.20560000  1.0
  H  H7  1  0.23576000  0.79440000  0.77435000  1.0
  H  H8  1  0.67005000  0.77759000  0.66581000  1.0
  H  H9  1  0.82995000  0.33419000  0.22241000  1.0
  H  H10  1  0.32995000  0.22241000  0.33419000  1.0
  H  H11  1  0.17005000  0.66581000  0.77759000  1.0
  H  H12  1  0.54553000  0.59898000  0.83315000  1.0
  H  H13  1  0.95447000  0.16685000  0.40102000  1.0
  H  H14  1  0.45447000  0.40102000  0.16685000  1.0
  H  H15  1  0.04553000  0.83315000  0.59898000  1.0
  H  H16  1  0.60935000  0.59649000  0.96291000  1.0
  H  H17  1  0.89065000  0.03709000  0.40351000  1.0
  H  H18  1  0.39065000  0.40351000  0.03709000  1.0
  H  H19  1  0.10935000  0.96291000  0.59649000  1.0
  H  H20  1  0.83799000  0.27989000  0.86828000  1.0
  H  H21  1  0.66201000  0.13172000  0.72011000  1.0
  H  H22  1  0.16201000  0.72011000  0.13172000  1.0
  H  H23  1  0.33799000  0.86828000  0.27989000  1.0
  H  H24  1  0.64711000  0.35841000  0.87719000  1.0
  H  H25  1  0.85289000  0.12281000  0.64159000  1.0
  H  H26  1  0.35289000  0.64159000  0.12281000  1.0
  H  H27  1  0.14711000  0.87719000  0.35841000  1.0
  H  H28  1  0.71333000  0.36185000  0.00478000  1.0
  H  H29  1  0.78668000  0.99522000  0.63815000  1.0
  H  H30  1  0.28667000  0.63815000  0.99522000  1.0
  H  H31  1  0.21333000  0.00478000  0.36185000  1.0
  H  H32  1  0.83312000  0.59686000  0.59642000  1.0
  H  H33  1  0.66688000  0.40358000  0.40314000  1.0
  H  H34  1  0.16688000  0.40314000  0.40358000  1.0
  H  H35  1  0.33312000  0.59642000  0.59686000  1.0
  H  H36  1  0.70226000  0.50385000  0.64918000  1.0
  H  H37  1  0.79774000  0.35083000  0.49614000  1.0
  H  H38  1  0.29774000  0.49614000  0.35082000  1.0
  H  H39  1  0.20226000  0.64917000  0.50386000  1.0
  H  H40  1  0.89192000  0.41137000  0.63656000  1.0
  H  H41  1  0.60808000  0.36344000  0.58863000  1.0
  H  H42  1  0.10808000  0.58863000  0.36344000  1.0
  H  H43  1  0.39192000  0.63656000  0.41137000  1.0
  H  H44  1  0.87278000  0.50978000  0.93653000  1.0
  H  H45  1  0.62722000  0.06347000  0.49022000  1.0
  H  H46  1  0.12722000  0.49022000  0.06347000  1.0
  H  H47  1  0.37278000  0.93653000  0.50978000  1.0
  H  H48  1  0.92923000  0.59853000  0.75906000  1.0
  H  H49  1  0.57077000  0.24094000  0.40147000  1.0
  H  H50  1  0.07077000  0.40147000  0.24094000  1.0
  H  H51  1  0.42923000  0.75906000  0.59853000  1.0
  H  H52  1  0.99254000  0.41328000  0.80920000  1.0
  H  H53  1  0.50747000  0.19080000  0.58672000  1.0
  H  H54  1  0.00746000  0.58672000  0.19080000  1.0
  H  H55  1  0.49254000  0.80920000  0.41328000  1.0
  C  C56  1  0.50323000  0.86627000  0.82822000  1.0
  C  C57  1  0.99677000  0.17178000  0.13373000  1.0
  C  C58  1  0.49677000  0.13373000  0.17178000  1.0
  C  C59  1  0.00323000  0.82822000  0.86627000  1.0
  C  C60  1  0.64723000  0.75845000  0.77767000  1.0
  C  C61  1  0.85277000  0.22233000  0.24155000  1.0
  C  C62  1  0.35277000  0.24155000  0.22233000  1.0
  C  C63  1  0.14723000  0.77767000  0.75845000  1.0
  C  C64  1  0.63343000  0.61434000  0.85166000  1.0
  C  C65  1  0.86657000  0.14834000  0.38566000  1.0
  C  C66  1  0.36657000  0.38566000  0.14834000  1.0
  C  C67  1  0.13343000  0.85166000  0.61434000  1.0
  C  C68  1  0.73955000  0.36460000  0.89650000  1.0
  C  C69  1  0.76045000  0.10351000  0.63540000  1.0
  C  C70  1  0.26045000  0.63540000  0.10351000  1.0
  C  C71  1  0.23955000  0.89649000  0.36460000  1.0
  C  C72  1  0.80206000  0.50348000  0.66091000  1.0
  C  C73  1  0.69794000  0.33909000  0.49652000  1.0
  C  C74  1  0.19794000  0.49652000  0.33909000  1.0
  C  C75  1  0.30206000  0.66091000  0.50348000  1.0
  C  C76  1  0.90098000  0.50568000  0.82969000  1.0
  C  C77  1  0.59902000  0.17031000  0.49432000  1.0
  C  C78  1  0.09902000  0.49432000  0.17031000  1.0
  C  C79  1  0.40098000  0.82969000  0.50568000  1.0
  N  N80  1  0.11702000  0.18278000  0.60075000  1.0
  N  N81  1  0.38298000  0.39925000  0.81722000  1.0
  N  N82  1  0.88298000  0.81722000  0.39925000  1.0
  N  N83  1  0.61702000  0.60075000  0.18278000  1.0
  N  N84  1  0.77031000  0.49820000  0.80892000  1.0
  N  N85  1  0.72969000  0.19108000  0.50180000  1.0
  N  N86  1  0.22968000  0.50180000  0.19108000  1.0
  N  N87  1  0.27031000  0.80892000  0.49820000  1.0
  O  O88  1  0.03608000  0.14384000  0.72245000  1.0
  O  O89  1  0.46392000  0.27755000  0.85616000  1.0
  O  O90  1  0.96392000  0.85616000  0.27755000  1.0
  O  O91  1  0.53608000  0.72245000  0.14383000  1.0
  O  O92  1  0.05811000  0.24358000  0.50345000  1.0
  O  O93  1  0.44189000  0.49655000  0.75642000  1.0
  O  O94  1  0.94189000  0.75642000  0.49655000  1.0
  O  O95  1  0.55811000  0.50345000  0.24358000  1.0
  O  O96  1  0.25238000  0.16057000  0.57723000  1.0
  O  O97  1  0.24762000  0.42277000  0.83943000  1.0
  O  O98  1  0.74762000  0.83943000  0.42277000  1.0
  O  O99  1  0.75238000  0.57723000  0.16057000  1.0
  O  O100  1  0.38575000  0.85203000  0.83345000  1.0
  O  O101  1  0.11425000  0.16655000  0.14797000  1.0
  O  O102  1  0.61425000  0.14797000  0.16655000  1.0
  O  O103  1  0.88575000  0.83345000  0.85203000  1.0
  O  O104  1  0.98745000  0.14114000  0.03618000  1.0
  O  O105  1  0.51254000  0.96382000  0.85886000  1.0
  O  O106  1  0.01254000  0.85886000  0.96382000  1.0
  O  O107  1  0.48745000  0.03618000  0.14114000  1.0
