# generated using pymatgen
data_KNaB2H26C18(SN3)6
_symmetry_space_group_name_H-M   'P 1'
_cell_length_a   10.47350000
_cell_length_b   10.55840000
_cell_length_c   10.50970000
_cell_angle_alpha   95.94410000
_cell_angle_beta   92.86960000
_cell_angle_gamma   118.06500000
_symmetry_Int_Tables_number   1
_chemical_formula_structural   KNaB2H26C18(SN3)6
_chemical_formula_sum   'K1 Na1 B2 H26 C18 S6 N18'
_cell_volume   1013.54517968
_cell_formula_units_Z   1
loop_
 _symmetry_equiv_pos_site_id
 _symmetry_equiv_pos_as_xyz
  1  'x, y, z'
loop_
 _atom_site_type_symbol
 _atom_site_label
 _atom_site_symmetry_multiplicity
 _atom_site_fract_x
 _atom_site_fract_y
 _atom_site_fract_z
 _atom_site_occupancy
  K  K0  1  0.50000000  0.50000000  0.50001000  1.0
  Na  Na1  1  0.50000000  0.00000000  1.00000000  1.0
  B  B2  1  0.49926000  0.75466000  0.75413000  1.0
  B  B3  1  0.50075000  0.24534000  0.24587000  1.0
  H  H4  1  0.49826000  0.67042000  0.66979000  1.0
  H  H5  1  0.50175000  0.32958000  0.33021000  1.0
  H  H6  1  0.69094000  0.83475000  0.17894000  1.0
  H  H7  1  0.30906000  0.16525000  0.82107000  1.0
  H  H8  1  0.68235000  0.48497000  0.04110000  1.0
  H  H9  1  0.31764000  0.51502000  0.95890000  1.0
  H  H10  1  0.72482000  0.60631000  0.18912000  1.0
  H  H11  1  0.27517000  0.39368000  0.81088000  1.0
  H  H12  1  0.85625000  0.64237000  0.07606000  1.0
  H  H13  1  0.14374000  0.35762000  0.92394000  1.0
  H  H14  1  0.09835000  0.74776000  0.92532000  1.0
  H  H15  1  0.90165000  0.25224000  0.07468000  1.0
  H  H16  1  0.93337000  0.38630000  0.74963000  1.0
  H  H17  1  0.06662000  0.61370000  0.25037000  1.0
  H  H18  1  0.88360000  0.52516000  0.79539000  1.0
  H  H19  1  0.11640000  0.47484000  0.20461000  1.0
  H  H20  1  0.91742000  0.49181000  0.63361000  1.0
  H  H21  1  0.08258000  0.50819000  0.36638000  1.0
  H  H22  1  0.65488000  0.24150000  0.75057000  1.0
  H  H23  1  0.34512000  0.75850000  0.24943000  1.0
  H  H24  1  0.69403000  0.10678000  0.41240000  1.0
  H  H25  1  0.30596000  0.89322000  0.58759000  1.0
  H  H26  1  0.70194000  0.26221000  0.50834000  1.0
  H  H27  1  0.29806000  0.73779000  0.49165000  1.0
  H  H28  1  0.85390000  0.22703000  0.51930000  1.0
  H  H29  1  0.14610000  0.77297000  0.48070000  1.0
  C  C30  1  0.62626000  0.64588000  0.89386000  1.0
  C  C31  1  0.37375000  0.35412000  0.10615000  1.0
  C  C32  1  0.66201000  0.79008000  0.07738000  1.0
  C  C33  1  0.33799000  0.20992000  0.92262000  1.0
  C  C34  1  0.73969000  0.59849000  0.08674000  1.0
  C  C35  1  0.26030000  0.40150000  0.91326000  1.0
  C  C36  1  0.21543000  0.59306000  0.71025000  1.0
  C  C37  1  0.78457000  0.40694000  0.28975000  1.0
  C  C38  1  0.16161000  0.71591000  0.86386000  1.0
  C  C39  1  0.83840000  0.28409000  0.13613000  1.0
  C  C40  1  0.95003000  0.49443000  0.73531000  1.0
  C  C41  1  0.04997000  0.50557000  0.26469000  1.0
  C  C42  1  0.62832000  0.94224000  0.59771000  1.0
  C  C43  1  0.37168000  0.05776000  0.40229000  1.0
  C  C44  1  0.63824000  0.13279000  0.72022000  1.0
  C  C45  1  0.36176000  0.86721000  0.27977000  1.0
  C  C46  1  0.73446000  0.17740000  0.50540000  1.0
  C  C47  1  0.26553000  0.82260000  0.49460000  1.0
  S  S48  1  0.61994000  0.51051000  0.79020000  1.0
  S  S49  1  0.38006000  0.48949000  0.20981000  1.0
  S  S50  1  0.19313000  0.46476000  0.58984000  1.0
  S  S51  1  0.80688000  0.53524000  0.41016000  1.0
  S  S52  1  0.64180000  0.84025000  0.47142000  1.0
  S  S53  1  0.35820000  0.15974000  0.52858000  1.0
  N  N54  1  0.57975000  0.74517000  0.87738000  1.0
  N  N55  1  0.42025000  0.25483000  0.12262000  1.0
  N  N56  1  0.60250000  0.83406000  0.99192000  1.0
  N  N57  1  0.39751000  0.16594000  0.00808000  1.0
  N  N58  1  0.68017000  0.67728000  0.02288000  1.0
  N  N59  1  0.31982000  0.32272000  0.97712000  1.0
  N  N60  1  0.33845000  0.70936000  0.77489000  1.0
  N  N61  1  0.66155000  0.29064000  0.22511000  1.0
  N  N62  1  0.30382000  0.78475000  0.86982000  1.0
  N  N63  1  0.69618000  0.21525000  0.13018000  1.0
  N  N64  1  0.10236000  0.59910000  0.76919000  1.0
  N  N65  1  0.89765000  0.40091000  0.23081000  1.0
  N  N66  1  0.57422000  0.90672000  0.71284000  1.0
  N  N67  1  0.42578000  0.09328000  0.28716000  1.0
  N  N68  1  0.58137000  0.02587000  0.78798000  1.0
  N  N69  1  0.41863000  0.97413000  0.21202000  1.0
  N  N70  1  0.67016000  0.08888000  0.60496000  1.0
  N  N71  1  0.32984000  0.91111000  0.39504000  1.0
