# generated using pymatgen
data_CuH6C12N5O4
_symmetry_space_group_name_H-M   'P 1'
_cell_length_a   4.77728000
_cell_length_b   10.78950000
_cell_length_c   34.00510000
_cell_angle_alpha   89.99990000
_cell_angle_beta   89.99590000
_cell_angle_gamma   96.01990000
_symmetry_Int_Tables_number   1
_chemical_formula_structural   CuH6C12N5O4
_chemical_formula_sum   'Cu4 H24 C48 N20 O16'
_cell_volume   1743.10897717
_cell_formula_units_Z   4
loop_
 _symmetry_equiv_pos_site_id
 _symmetry_equiv_pos_as_xyz
  1  'x, y, z'
loop_
 _atom_site_type_symbol
 _atom_site_label
 _atom_site_symmetry_multiplicity
 _atom_site_fract_x
 _atom_site_fract_y
 _atom_site_fract_z
 _atom_site_occupancy
  Cu  Cu0  1  0.17131000  0.13096000  0.80329000  1.0
  Cu  Cu1  1  0.82867000  0.36906000  0.30329000  1.0
  Cu  Cu2  1  0.82876000  0.86906000  0.19671000  1.0
  Cu  Cu3  1  0.17129000  0.63092000  0.69671000  1.0
  H  H4  1  0.01420000  0.05179000  0.71685000  1.0
  H  H5  1  0.98590000  0.44813000  0.21684000  1.0
  H  H6  1  0.98590000  0.94821000  0.28316000  1.0
  H  H7  1  0.01413000  0.55187000  0.78317000  1.0
  H  H8  1  0.22153000  0.13620000  0.65255000  1.0
  H  H9  1  0.77884000  0.36368000  0.15254000  1.0
  H  H10  1  0.77856000  0.86377000  0.34745000  1.0
  H  H11  1  0.22137000  0.63631000  0.84746000  1.0
  H  H12  1  0.76358000  0.24901000  0.93243000  1.0
  H  H13  1  0.23588000  0.25101000  0.43246000  1.0
  H  H14  1  0.23620000  0.75101000  0.06755000  1.0
  H  H15  1  0.76403000  0.74894000  0.56754000  1.0
  H  H16  1  0.00790000  0.28462000  0.86704000  1.0
  H  H17  1  0.99161000  0.21543000  0.36707000  1.0
  H  H18  1  0.99183000  0.71540000  0.13295000  1.0
  H  H19  1  0.00846000  0.78454000  0.63292000  1.0
  H  H20  1  0.11393000  0.91069000  0.85580000  1.0
  H  H21  1  0.88645000  0.58944000  0.35579000  1.0
  H  H22  1  0.88624000  0.08935000  0.14422000  1.0
  H  H23  1  0.11338000  0.41053000  0.64421000  1.0
  H  H24  1  0.86660000  0.85780000  0.91973000  1.0
  H  H25  1  0.13368000  0.64228000  0.41972000  1.0
  H  H26  1  0.13354000  0.14225000  0.08029000  1.0
  H  H27  1  0.86613000  0.35769000  0.58029000  1.0
  C  C28  1  0.46766000  0.36076000  0.78810000  1.0
  C  C29  1  0.53215000  0.13927000  0.28810000  1.0
  C  C30  1  0.53237000  0.63929000  0.21190000  1.0
  C  C31  1  0.46786000  0.86069000  0.71189000  1.0
  C  C32  1  0.41414000  0.29950000  0.74853000  1.0
  C  C33  1  0.58574000  0.20048000  0.24853000  1.0
  C  C34  1  0.58589000  0.70052000  0.25147000  1.0
  C  C35  1  0.41427000  0.79951000  0.75146000  1.0
  C  C36  1  0.16401000  0.13518000  0.71549000  1.0
  C  C37  1  0.83612000  0.36474000  0.21549000  1.0
  C  C38  1  0.83607000  0.86481000  0.28451000  1.0
  C  C39  1  0.16393000  0.63527000  0.78451000  1.0
  C  C40  1  0.27741000  0.18399000  0.68017000  1.0
  C  C41  1  0.72275000  0.31594000  0.18017000  1.0
  C  C42  1  0.72267000  0.81602000  0.31983000  1.0
  C  C43  1  0.27739000  0.68404000  0.81983000  1.0
  C  C44  1  0.52257000  0.34643000  0.71269000  1.0
  C  C45  1  0.47745000  0.15353000  0.21269000  1.0
  C  C46  1  0.47748000  0.65359000  0.28731000  1.0
  C  C47  1  0.52256000  0.84649000  0.78730000  1.0
  C  C48  1  0.70876000  0.46809000  0.70879000  1.0
  C  C49  1  0.29120000  0.03189000  0.20877000  1.0
  C  C50  1  0.29127000  0.53192000  0.29121000  1.0
  C  C51  1  0.70884000  0.96812000  0.79121000  1.0
  C  C52  1  0.83820000  0.17190000  0.91626000  1.0
  C  C53  1  0.16152000  0.32813000  0.41627000  1.0
  C  C54  1  0.16173000  0.82812000  0.08373000  1.0
  C  C55  1  0.83835000  0.67182000  0.58373000  1.0
  C  C56  1  0.97249000  0.19238000  0.88029000  1.0
  C  C57  1  0.02724000  0.30769000  0.38030000  1.0
  C  C58  1  0.02739000  0.80764000  0.11971000  1.0
  C  C59  1  0.97274000  0.69226000  0.61969000  1.0
  C  C60  1  0.03223000  0.98212000  0.87383000  1.0
  C  C61  1  0.96801000  0.51801000  0.37383000  1.0
  C  C62  1  0.96790000  0.01792000  0.12618000  1.0
  C  C63  1  0.03190000  0.48197000  0.62617000  1.0
  C  C64  1  0.89653000  0.95361000  0.90930000  1.0
  C  C65  1  0.10369000  0.54645000  0.40930000  1.0
  C  C66  1  0.10358000  0.04643000  0.09070000  1.0
  C  C67  1  0.89614000  0.45349000  0.59070000  1.0
  C  C68  1  0.79412000  0.04986000  0.93096000  1.0
  C  C69  1  0.20598000  0.45020000  0.43095000  1.0
  C  C70  1  0.20594000  0.95016000  0.06905000  1.0
  C  C71  1  0.79377000  0.54975000  0.56906000  1.0
  C  C72  1  0.63879000  0.02334000  0.96786000  1.0
  C  C73  1  0.36125000  0.47670000  0.46785000  1.0
  C  C74  1  0.36137000  0.97672000  0.03216000  1.0
  C  C75  1  0.63850000  0.52323000  0.53216000  1.0
  N  N76  1  0.23798000  0.19358000  0.74910000  1.0
  N  N77  1  0.76194000  0.30637000  0.24910000  1.0
  N  N78  1  0.76207000  0.80644000  0.25090000  1.0
  N  N79  1  0.23805000  0.69361000  0.75090000  1.0
  N  N80  1  0.45590000  0.28783000  0.67847000  1.0
  N  N81  1  0.54428000  0.21213000  0.17846000  1.0
  N  N82  1  0.54419000  0.71219000  0.32153000  1.0
  N  N83  1  0.45585000  0.78788000  0.82153000  1.0
  N  N84  1  0.06473000  0.09883000  0.85932000  1.0
  N  N85  1  0.93536000  0.40130000  0.35931000  1.0
  N  N86  1  0.93530000  0.90120000  0.14069000  1.0
  N  N87  1  0.06455000  0.59867000  0.64069000  1.0
  N  N88  1  0.58558000  0.12129000  0.99057000  1.0
  N  N89  1  0.41394000  0.37875000  0.49059000  1.0
  N  N90  1  0.41466000  0.87877000  0.00946000  1.0
  N  N91  1  0.58573000  0.62119000  0.50943000  1.0
  N  N92  1  0.55625000  0.90254000  0.97663000  1.0
  N  N93  1  0.44421000  0.59748000  0.47660000  1.0
  N  N94  1  0.44400000  0.09752000  0.02339000  1.0
  N  N95  1  0.55545000  0.40246000  0.52342000  1.0
  O  O96  1  0.34343000  0.30072000  0.81734000  1.0
  O  O97  1  0.65630000  0.19936000  0.31735000  1.0
  O  O98  1  0.65667000  0.69931000  0.18265000  1.0
  O  O99  1  0.34360000  0.80063000  0.68264000  1.0
  O  O100  1  0.61399000  0.46271000  0.79064000  1.0
  O  O101  1  0.38586000  0.03731000  0.29066000  1.0
  O  O102  1  0.38604000  0.53734000  0.20936000  1.0
  O  O103  1  0.61415000  0.96265000  0.70933000  1.0
  O  O104  1  0.59978000  0.56363000  0.69849000  1.0
  O  O105  1  0.40013000  0.93634000  0.19848000  1.0
  O  O106  1  0.40026000  0.43638000  0.30150000  1.0
  O  O107  1  0.59988000  0.06364000  0.80151000  1.0
  O  O108  1  0.97416000  0.46327000  0.71293000  1.0
  O  O109  1  0.02579000  0.03675000  0.21289000  1.0
  O  O110  1  0.02585000  0.53672000  0.28707000  1.0
  O  O111  1  0.97429000  0.96328000  0.78710000  1.0
