# generated using pymatgen
data_BiH13C10(NO4)2
_symmetry_space_group_name_H-M   'P 1'
_cell_length_a   6.87303000
_cell_length_b   8.96765901
_cell_length_c   13.02780000
_cell_angle_alpha   105.48112785
_cell_angle_beta   90.01570000
_cell_angle_gamma   112.50416568
_symmetry_Int_Tables_number   1
_chemical_formula_structural   BiH13C10(NO4)2
_chemical_formula_sum   'Bi2 H26 C20 N4 O16'
_cell_volume   710.16140812
_cell_formula_units_Z   2
loop_
 _symmetry_equiv_pos_site_id
 _symmetry_equiv_pos_as_xyz
  1  'x, y, z'
loop_
 _atom_site_type_symbol
 _atom_site_label
 _atom_site_symmetry_multiplicity
 _atom_site_fract_x
 _atom_site_fract_y
 _atom_site_fract_z
 _atom_site_occupancy
  Bi  Bi0  1  0.83855000  0.95409000  0.99296000  1.0
  Bi  Bi1  1  0.11514000  0.95371000  0.49281000  1.0
  H  H2  1  0.06006000  0.34421000  0.94439000  1.0
  H  H3  1  0.28505000  0.34393000  0.44398000  1.0
  H  H4  1  0.77149000  0.41765000  0.21187000  1.0
  H  H5  1  0.64595000  0.41700000  0.71171000  1.0
  H  H6  1  0.96637000  0.33809000  0.22085000  1.0
  H  H7  1  0.37169000  0.33765000  0.72072000  1.0
  H  H8  1  0.48104000  0.54948000  0.11463000  1.0
  H  H9  1  0.06825000  0.54902000  0.61441000  1.0
  H  H10  1  0.36520000  0.63203000  0.03440000  1.0
  H  H11  1  0.26631000  0.63148000  0.53410000  1.0
  H  H12  1  0.38377000  0.16913000  0.11729000  1.0
  H  H13  1  0.78475000  0.16793000  0.61686000  1.0
  H  H14  1  0.54607000  0.24441000  0.02113000  1.0
  H  H15  1  0.69761000  0.24330000  0.52075000  1.0
  H  H16  1  0.75324000  0.79360000  0.27484000  1.0
  H  H17  1  0.03998000  0.79316000  0.77464000  1.0
  H  H18  1  0.86628000  0.71071000  0.16177000  1.0
  H  H19  1  0.84419000  0.71086000  0.66156000  1.0
  H  H20  1  0.52111000  0.13749000  0.26240000  1.0
  H  H21  1  0.61643000  0.13664000  0.76213000  1.0
  H  H22  1  0.77224000  0.12906000  0.27183000  1.0
  H  H23  1  0.35711000  0.12865000  0.77177000  1.0
  H  H24  1  0.37141000  0.85498000  0.12900000  1.0
  H  H25  1  0.48308000  0.85402000  0.62886000  1.0
  H  H26  1  0.46829000  0.85418000  0.25403000  1.0
  H  H27  1  0.38545000  0.85353000  0.75392000  1.0
  C  C28  1  0.84205000  0.33320000  0.16511000  1.0
  C  C29  1  0.49096000  0.33259000  0.66495000  1.0
  C  C30  1  0.95456000  0.40818000  0.07985000  1.0
  C  C31  1  0.45351000  0.40774000  0.57973000  1.0
  C  C32  1  0.51682000  0.63481000  0.06368000  1.0
  C  C33  1  0.11761000  0.63438000  0.56349000  1.0
  C  C34  1  0.60732000  0.56254000  0.96419000  1.0
  C  C35  1  0.95460000  0.56219000  0.46409000  1.0
  C  C36  1  0.49986000  0.14679000  0.06358000  1.0
  C  C37  1  0.64624000  0.14574000  0.56324000  1.0
  C  C38  1  0.38511000  0.98124000  0.97624000  1.0
  C  C39  1  0.59512000  0.98001000  0.47601000  1.0
  C  C40  1  0.81613000  0.81340000  0.19973000  1.0
  C  C41  1  0.99711000  0.81325000  0.69958000  1.0
  C  C42  1  0.01872000  0.97334000  0.22582000  1.0
  C  C43  1  0.95502000  0.97354000  0.72581000  1.0
  C  C44  1  0.62830000  0.08648000  0.21705000  1.0
  C  C45  1  0.45812000  0.08584000  0.71687000  1.0
  C  C46  1  0.51690000  0.89593000  0.18243000  1.0
  C  C47  1  0.37873000  0.89529000  0.68229000  1.0
  N  N48  1  0.68804000  0.15715000  0.12486000  1.0
  N  N49  1  0.46882000  0.15648000  0.62468000  1.0
  N  N50  1  0.65009000  0.80974000  0.12523000  1.0
  N  N51  1  0.15937000  0.80934000  0.62507000  1.0
  O  O52  1  0.98425000  0.29201000  0.99780000  1.0
  O  O53  1  0.30828000  0.29157000  0.49741000  1.0
  O  O54  1  0.02231000  0.55754000  0.08530000  1.0
  O  O55  1  0.53469000  0.55714000  0.58536000  1.0
  O  O56  1  0.75029000  0.66788000  0.92417000  1.0
  O  O57  1  0.91713000  0.66763000  0.42402000  1.0
  O  O58  1  0.53104000  0.40647000  0.92468000  1.0
  O  O59  1  0.87444000  0.40611000  0.42468000  1.0
  O  O60  1  0.48330000  0.88531000  0.93807000  1.0
  O  O61  1  0.40102000  0.88424000  0.43785000  1.0
  O  O62  1  0.19895000  0.94773000  0.94025000  1.0
  O  O63  1  0.74758000  0.94612000  0.44009000  1.0
  O  O64  1  0.05700000  0.06581000  0.16194000  1.0
  O  O65  1  0.00912000  0.06594000  0.66189000  1.0
  O  O66  1  0.14593000  0.00473000  0.30581000  1.0
  O  O67  1  0.85976000  0.00531000  0.80593000  1.0
