# generated using pymatgen
data_ZnH16C18(NO)8
_symmetry_space_group_name_H-M   'P 1'
_cell_length_a   7.43907000
_cell_length_b   11.47980000
_cell_length_c   13.61100000
_cell_angle_alpha   65.22800000
_cell_angle_beta   88.84800000
_cell_angle_gamma   89.99190000
_symmetry_Int_Tables_number   1
_chemical_formula_structural   ZnH16C18(NO)8
_chemical_formula_sum   'Zn2 H32 C36 N16 O16'
_cell_volume   1055.15082291
_cell_formula_units_Z   2
loop_
 _symmetry_equiv_pos_site_id
 _symmetry_equiv_pos_as_xyz
  1  'x, y, z'
loop_
 _atom_site_type_symbol
 _atom_site_label
 _atom_site_symmetry_multiplicity
 _atom_site_fract_x
 _atom_site_fract_y
 _atom_site_fract_z
 _atom_site_occupancy
  Zn  Zn0  1  0.50000000  0.00000000  0.50000000  1.0
  Zn  Zn1  1  0.00000000  0.50000000  0.50000000  1.0
  H  H2  1  0.54769000  0.93255000  0.73310000  1.0
  H  H3  1  0.95299000  0.66550000  0.26765000  1.0
  H  H4  1  0.45232000  0.06745000  0.26690000  1.0
  H  H5  1  0.04701000  0.33449000  0.73235000  1.0
  H  H6  1  0.65169000  0.74449000  0.89909000  1.0
  H  H7  1  0.84876000  0.64325000  0.10139000  1.0
  H  H8  1  0.34831000  0.25551000  0.10091000  1.0
  H  H9  1  0.15124000  0.35675000  0.89861000  1.0
  H  H10  1  0.48885000  0.70907000  0.56394000  1.0
  H  H11  1  0.01104000  0.27360000  0.43582000  1.0
  H  H12  1  0.51115000  0.29093000  0.43606000  1.0
  H  H13  1  0.98896000  0.72640000  0.56418000  1.0
  H  H14  1  0.57638000  0.51078000  0.72298000  1.0
  H  H15  1  0.92333000  0.23425000  0.27646000  1.0
  H  H16  1  0.42361000  0.48922000  0.27702000  1.0
  H  H17  1  0.07667000  0.76575000  0.72354000  1.0
  H  H18  1  0.82296000  0.05618000  0.16808000  1.0
  H  H19  1  0.67675000  0.22336000  0.83152000  1.0
  H  H20  1  0.17704000  0.94381000  0.83192000  1.0
  H  H21  1  0.32325000  0.77664000  0.16848000  1.0
  H  H22  1  0.81366000  0.84237000  0.16201000  1.0
  H  H23  1  0.68640000  0.00349000  0.83760000  1.0
  H  H24  1  0.18633000  0.15763000  0.83799000  1.0
  H  H25  1  0.31360000  0.99651000  0.16240000  1.0
  H  H26  1  0.61210000  0.84874000  0.39741000  1.0
  H  H27  1  0.88765000  0.24623000  0.60241000  1.0
  H  H28  1  0.38790000  0.15126000  0.60259000  1.0
  H  H29  1  0.11235000  0.75377000  0.39759000  1.0
  H  H30  1  0.78723000  0.92554000  0.40099000  1.0
  H  H31  1  0.71248000  0.32652000  0.59894000  1.0
  H  H32  1  0.21277000  0.07446000  0.59901000  1.0
  H  H33  1  0.28752000  0.67348000  0.40106000  1.0
  C  C34  1  0.56063000  0.83725000  0.73488000  1.0
  C  C35  1  0.93986000  0.57216000  0.26559000  1.0
  C  C36  1  0.43937000  0.16275000  0.26512000  1.0
  C  C37  1  0.06014000  0.42784000  0.73441000  1.0
  C  C38  1  0.61481000  0.73281000  0.82660000  1.0
  C  C39  1  0.88554000  0.55934000  0.17374000  1.0
  C  C40  1  0.38519000  0.26719000  0.17340000  1.0
  C  C41  1  0.11446000  0.44067000  0.82626000  1.0
  C  C42  1  0.52539000  0.71280000  0.63956000  1.0
  C  C43  1  0.97462000  0.35274000  0.36036000  1.0
  C  C44  1  0.47461000  0.28720000  0.36044000  1.0
  C  C45  1  0.02538000  0.64726000  0.63964000  1.0
  C  C46  1  0.57450000  0.60252000  0.72838000  1.0
  C  C47  1  0.92538000  0.33122000  0.27136000  1.0
  C  C48  1  0.42550000  0.39748000  0.27162000  1.0
  C  C49  1  0.07462000  0.66878000  0.72864000  1.0
  C  C50  1  0.62362000  0.61254000  0.82309000  1.0
  C  C51  1  0.87645000  0.43579000  0.17693000  1.0
  C  C52  1  0.37639000  0.38746000  0.17691000  1.0
  C  C53  1  0.12355000  0.56421000  0.82307000  1.0
  C  C54  1  0.68772000  0.49905000  0.91701000  1.0
  C  C55  1  0.81218000  0.41631000  0.08283000  1.0
  C  C56  1  0.31228000  0.50095000  0.08299000  1.0
  C  C57  1  0.18782000  0.58369000  0.91717000  1.0
  C  C58  1  0.74981000  0.28637000  0.99974000  1.0
  C  C59  1  0.25019000  0.71363000  0.00025000  1.0
  C  C60  1  0.74969000  0.15747000  0.99980000  1.0
  C  C61  1  0.25031000  0.84253000  0.00020000  1.0
  C  C62  1  0.79026000  0.04824000  0.09349000  1.0
  C  C63  1  0.70933000  0.14128000  0.90611000  1.0
  C  C64  1  0.20974000  0.95176000  0.90651000  1.0
  C  C65  1  0.29067000  0.85872000  0.09389000  1.0
  C  C66  1  0.78640000  0.92902000  0.08929000  1.0
  C  C67  1  0.71342000  0.01787000  0.91035000  1.0
  C  C68  1  0.21360000  0.07098000  0.91072000  1.0
  C  C69  1  0.28658000  0.98213000  0.08965000  1.0
  N  N70  1  0.52092000  0.82860000  0.64203000  1.0
  N  N71  1  0.97935000  0.47083000  0.35819000  1.0
  N  N72  1  0.47908000  0.17140000  0.35797000  1.0
  N  N73  1  0.02065000  0.52917000  0.64181000  1.0
  N  N74  1  0.68217000  0.38408000  0.91333000  1.0
  N  N75  1  0.81758000  0.29785000  0.08624000  1.0
  N  N76  1  0.31782000  0.61592000  0.08667000  1.0
  N  N77  1  0.18242000  0.70215000  0.91376000  1.0
  N  N78  1  0.74999000  0.52011000  0.00002000  1.0
  N  N79  1  0.25001000  0.47989000  0.99998000  1.0
  N  N80  1  0.74996000  0.91205000  0.99982000  1.0
  N  N81  1  0.25004000  0.08795000  0.00018000  1.0
  N  N82  1  0.13133000  0.96315000  0.41123000  1.0
  N  N83  1  0.36862000  0.37429000  0.58872000  1.0
  N  N84  1  0.86867000  0.03685000  0.58877000  1.0
  N  N85  1  0.63138000  0.62571000  0.41128000  1.0
  O  O86  1  0.65428000  0.92878000  0.40138000  1.0
  O  O87  1  0.84544000  0.33027000  0.59828000  1.0
  O  O88  1  0.34572000  0.07122000  0.59862000  1.0
  O  O89  1  0.15456000  0.66973000  0.40172000  1.0
  O  O90  1  0.27840000  0.90724000  0.45137000  1.0
  O  O91  1  0.22163000  0.35828000  0.54855000  1.0
  O  O92  1  0.72160000  0.09276000  0.54863000  1.0
  O  O93  1  0.77838000  0.64172000  0.45145000  1.0
  O  O94  1  0.09757000  0.07329000  0.40128000  1.0
  O  O95  1  0.40247000  0.47460000  0.59855000  1.0
  O  O96  1  0.90243000  0.92671000  0.59872000  1.0
  O  O97  1  0.59754000  0.52540000  0.40145000  1.0
  O  O98  1  0.01920000  0.90023000  0.38106000  1.0
  O  O99  1  0.48071000  0.28131000  0.61905000  1.0
  O  O100  1  0.98080000  0.09977000  0.61894000  1.0
  O  O101  1  0.51929000  0.71869000  0.38095000  1.0
