# generated using pymatgen
data_AlH3C8N2O9
_symmetry_space_group_name_H-M   'P 1'
_cell_length_a   7.00607000
_cell_length_b   10.82940000
_cell_length_c   17.98900000
_cell_angle_alpha   89.99840000
_cell_angle_beta   89.09280000
_cell_angle_gamma   89.21520000
_symmetry_Int_Tables_number   1
_chemical_formula_structural   AlH3C8N2O9
_chemical_formula_sum   'Al4 H12 C32 N8 O36'
_cell_volume   1364.55390877
_cell_formula_units_Z   4
loop_
 _symmetry_equiv_pos_site_id
 _symmetry_equiv_pos_as_xyz
  1  'x, y, z'
loop_
 _atom_site_type_symbol
 _atom_site_label
 _atom_site_symmetry_multiplicity
 _atom_site_fract_x
 _atom_site_fract_y
 _atom_site_fract_z
 _atom_site_occupancy
  Al  Al0  1  0.00809000  0.99710000  0.50105000  1.0
  Al  Al1  1  0.50798000  0.00247000  0.49987000  1.0
  Al  Al2  1  0.99193000  0.49746000  0.00082000  1.0
  Al  Al3  1  0.49176000  0.50272000  0.99986000  1.0
  H  H4  1  0.26458000  0.83789000  0.48567000  1.0
  H  H5  1  0.76015000  0.16280000  0.48932000  1.0
  H  H6  1  0.23618000  0.65983000  0.98082000  1.0
  H  H7  1  0.74011000  0.33562000  0.00122000  1.0
  H  H8  1  0.44779000  0.72296000  0.82152000  1.0
  H  H9  1  0.05228000  0.77635000  0.67833000  1.0
  H  H10  1  0.94385000  0.31406000  0.19341000  1.0
  H  H11  1  0.55498000  0.19030000  0.30874000  1.0
  H  H12  1  0.55178000  0.31354000  0.80832000  1.0
  H  H13  1  0.94884000  0.18166000  0.69375000  1.0
  H  H14  1  0.44301000  0.68958000  0.19487000  1.0
  H  H15  1  0.05705000  0.81232000  0.30455000  1.0
  C  C16  1  0.76424000  0.86729000  0.39581000  1.0
  C  C17  1  0.75345000  0.86561000  0.60366000  1.0
  C  C18  1  0.24741000  0.13005000  0.60531000  1.0
  C  C19  1  0.25999000  0.13411000  0.39674000  1.0
  C  C20  1  0.73616000  0.63375000  0.10394000  1.0
  C  C21  1  0.74603000  0.63341000  0.89623000  1.0
  C  C22  1  0.25289000  0.36529000  0.89684000  1.0
  C  C23  1  0.23931000  0.37012000  0.10545000  1.0
  C  C24  1  0.74945000  0.80203000  0.67765000  1.0
  C  C25  1  0.75051000  0.69742000  0.82240000  1.0
  C  C26  1  0.58136000  0.78503000  0.71909000  1.0
  C  C27  1  0.91871000  0.71450000  0.78093000  1.0
  C  C28  1  0.57985000  0.73498000  0.79000000  1.0
  C  C29  1  0.92032000  0.76451000  0.71000000  1.0
  C  C30  1  0.25239000  0.19622000  0.32242000  1.0
  C  C31  1  0.24656000  0.30813000  0.17976000  1.0
  C  C32  1  0.08199000  0.23057000  0.28825000  1.0
  C  C33  1  0.41696000  0.27379000  0.21391000  1.0
  C  C34  1  0.07701000  0.28554000  0.21876000  1.0
  C  C35  1  0.42185000  0.21881000  0.28339000  1.0
  C  C36  1  0.25104000  0.19185000  0.67968000  1.0
  C  C37  1  0.24959000  0.30336000  0.82245000  1.0
  C  C38  1  0.41915000  0.22852000  0.71360000  1.0
  C  C39  1  0.08150000  0.26683000  0.78845000  1.0
  C  C40  1  0.42039000  0.28334000  0.78317000  1.0
  C  C41  1  0.08021000  0.21184000  0.71894000  1.0
  C  C42  1  0.75557000  0.80592000  0.32137000  1.0
  C  C43  1  0.74477000  0.69519000  0.17840000  1.0
  C  C44  1  0.58415000  0.77202000  0.28866000  1.0
  C  C45  1  0.91612000  0.72924000  0.21101000  1.0
  C  C46  1  0.57680000  0.71770000  0.21906000  1.0
  C  C47  1  0.92328000  0.78372000  0.28060000  1.0
  N  N48  1  0.39408000  0.81541000  0.68748000  1.0
  N  N49  1  0.10530000  0.68301000  0.81281000  1.0
  N  N50  1  0.89672000  0.20435000  0.32412000  1.0
  N  N51  1  0.60244000  0.29929000  0.17798000  1.0
  N  N52  1  0.60657000  0.20511000  0.67775000  1.0
  N  N53  1  0.89417000  0.29113000  0.82416000  1.0
  N  N54  1  0.39920000  0.79794000  0.32583000  1.0
  N  N55  1  0.10199000  0.70476000  0.17417000  1.0
  O  O56  1  0.92809000  0.89220000  0.42040000  1.0
  O  O57  1  0.59246000  0.89884000  0.57857000  1.0
  O  O58  1  0.40834000  0.11390000  0.57263000  1.0
  O  O59  1  0.10007000  0.11323000  0.42845000  1.0
  O  O60  1  0.08523000  0.09990000  0.58146000  1.0
  O  O61  1  0.42509000  0.10850000  0.42099000  1.0
  O  O62  1  0.60336000  0.88836000  0.42748000  1.0
  O  O63  1  0.91626000  0.88197000  0.57344000  1.0
  O  O64  1  0.26053000  0.92469000  0.49935000  1.0
  O  O65  1  0.75811000  0.07487000  0.49989000  1.0
  O  O66  1  0.89687000  0.61318000  0.07211000  1.0
  O  O67  1  0.58288000  0.61684000  0.92628000  1.0
  O  O68  1  0.41542000  0.39471000  0.92084000  1.0
  O  O69  1  0.07471000  0.39555000  0.08080000  1.0
  O  O70  1  0.09133000  0.38234000  0.92902000  1.0
  O  O71  1  0.39911000  0.39116000  0.07384000  1.0
  O  O72  1  0.57245000  0.60843000  0.07952000  1.0
  O  O73  1  0.90695000  0.59993000  0.92137000  1.0
  O  O74  1  0.23950000  0.57527000  0.99889000  1.0
  O  O75  1  0.74180000  0.42524000  0.00092000  1.0
  O  O76  1  0.31168000  0.91023000  0.71004000  1.0
  O  O77  1  0.32906000  0.73924000  0.64374000  1.0
  O  O78  1  0.16947000  0.75754000  0.85802000  1.0
  O  O79  1  0.18791000  0.58868000  0.78989000  1.0
  O  O80  1  0.82371000  0.10519000  0.30655000  1.0
  O  O81  1  0.82380000  0.28371000  0.36531000  1.0
  O  O82  1  0.67503000  0.21920000  0.13732000  1.0
  O  O83  1  0.67586000  0.39851000  0.19524000  1.0
  O  O84  1  0.68400000  0.10500000  0.69330000  1.0
  O  O85  1  0.67660000  0.28736000  0.63905000  1.0
  O  O86  1  0.82396000  0.20997000  0.86373000  1.0
  O  O87  1  0.81695000  0.39092000  0.80781000  1.0
  O  O88  1  0.33174000  0.71880000  0.36769000  1.0
  O  O89  1  0.32017000  0.89647000  0.30819000  1.0
  O  O90  1  0.18054000  0.60548000  0.19089000  1.0
  O  O91  1  0.17101000  0.78622000  0.13467000  1.0
