# generated using pymatgen
data_Cu3H12C12(N7O4)2
_symmetry_space_group_name_H-M   'P 1'
_cell_length_a   6.43479000
_cell_length_b   8.80030000
_cell_length_c   10.65780000
_cell_angle_alpha   108.67900000
_cell_angle_beta   93.92270000
_cell_angle_gamma   109.03900000
_symmetry_Int_Tables_number   1
_chemical_formula_structural   Cu3H12C12(N7O4)2
_chemical_formula_sum   'Cu3 H12 C12 N14 O8'
_cell_volume   530.29768388
_cell_formula_units_Z   1
loop_
 _symmetry_equiv_pos_site_id
 _symmetry_equiv_pos_as_xyz
  1  'x, y, z'
loop_
 _atom_site_type_symbol
 _atom_site_label
 _atom_site_symmetry_multiplicity
 _atom_site_fract_x
 _atom_site_fract_y
 _atom_site_fract_z
 _atom_site_occupancy
  Cu  Cu0  1  0.50049000  0.50079000  0.49990000  1.0
  Cu  Cu1  1  0.42749000  0.80298000  0.45506000  1.0
  Cu  Cu2  1  0.57217000  0.19659000  0.54512000  1.0
  H  H3  1  0.25571000  0.60034000  0.03011000  1.0
  H  H4  1  0.74450000  0.39974000  0.96946000  1.0
  H  H5  1  0.10089000  0.41948000  0.78385000  1.0
  H  H6  1  0.89930000  0.58041000  0.21587000  1.0
  H  H7  1  0.12551000  0.98016000  0.84097000  1.0
  H  H8  1  0.87461000  0.01985000  0.15916000  1.0
  H  H9  1  0.28031000  0.14335000  0.08982000  1.0
  H  H10  1  0.72003000  0.85702000  0.91024000  1.0
  H  H11  1  0.86286000  0.88031000  0.58439000  1.0
  H  H12  1  0.13719000  0.11925000  0.41572000  1.0
  H  H13  1  0.85174000  0.81069000  0.42897000  1.0
  H  H14  1  0.14805000  0.18886000  0.57103000  1.0
  C  C15  1  0.34879000  0.48506000  0.22898000  1.0
  C  C16  1  0.65170000  0.51544000  0.77083000  1.0
  C  C17  1  0.27087000  0.38407000  0.08097000  1.0
  C  C18  1  0.72941000  0.61620000  0.91888000  1.0
  C  C19  1  0.22668000  0.46329000  0.99289000  1.0
  C  C20  1  0.77346000  0.53678000  0.00684000  1.0
  C  C21  1  0.14471000  0.36784000  0.85732000  1.0
  C  C22  1  0.85536000  0.63208000  0.14245000  1.0
  C  C23  1  0.15606000  0.11666000  0.89031000  1.0
  C  C24  1  0.84402000  0.88338000  0.10972000  1.0
  C  C25  1  0.23926000  0.20911000  0.02653000  1.0
  C  C26  1  0.76101000  0.79114000  0.97346000  1.0
  N  N27  1  0.27589000  0.62011000  0.52562000  1.0
  N  N28  1  0.72083000  0.37868000  0.47359000  1.0
  N  N29  1  0.21285000  0.65512000  0.63259000  1.0
  N  N30  1  0.78633000  0.34471000  0.36737000  1.0
  N  N31  1  0.14648000  0.68431000  0.73270000  1.0
  N  N32  1  0.85445000  0.31618000  0.26788000  1.0
  N  N33  1  0.46489000  0.00336000  0.61990000  1.0
  N  N34  1  0.53525000  0.99618000  0.38057000  1.0
  N  N35  1  0.54603000  0.02560000  0.73378000  1.0
  N  N36  1  0.45407000  0.97428000  0.26676000  1.0
  N  N37  1  0.61854000  0.05101000  0.84438000  1.0
  N  N38  1  0.38167000  0.94941000  0.15628000  1.0
  N  N39  1  0.10578000  0.19546000  0.80759000  1.0
  N  N40  1  0.89409000  0.80441000  0.19235000  1.0
  O  O41  1  0.77527000  0.78112000  0.50131000  1.0
  O  O42  1  0.22481000  0.21841000  0.49880000  1.0
  O  O43  1  0.34914000  0.63813000  0.26842000  1.0
  O  O44  1  0.65079000  0.36218000  0.73139000  1.0
  O  O45  1  0.40828000  0.41084000  0.30150000  1.0
  O  O46  1  0.59283000  0.58993000  0.69833000  1.0
  O  O47  1  0.01767000  0.10615000  0.67953000  1.0
  O  O48  1  0.98185000  0.89352000  0.32048000  1.0
