# generated using pymatgen
data_LiH4C4IO5
_symmetry_space_group_name_H-M   'P 1'
_cell_length_a   6.60984000
_cell_length_b   7.49810000
_cell_length_c   15.25800000
_cell_angle_alpha   100.77400000
_cell_angle_beta   89.99970000
_cell_angle_gamma   89.99890000
_symmetry_Int_Tables_number   1
_chemical_formula_structural   LiH4C4IO5
_chemical_formula_sum   'Li4 H16 C16 I4 O20'
_cell_volume   742.87516703
_cell_formula_units_Z   4
loop_
 _symmetry_equiv_pos_site_id
 _symmetry_equiv_pos_as_xyz
  1  'x, y, z'
loop_
 _atom_site_type_symbol
 _atom_site_label
 _atom_site_symmetry_multiplicity
 _atom_site_fract_x
 _atom_site_fract_y
 _atom_site_fract_z
 _atom_site_occupancy
  Li  Li0  1  0.96400000  0.68135000  0.53694000  1.0
  Li  Li1  1  0.46401000  0.81865000  0.96306000  1.0
  Li  Li2  1  0.03599000  0.31865000  0.46306000  1.0
  Li  Li3  1  0.53599000  0.18135000  0.03694000  1.0
  H  H4  1  0.08239000  0.42991000  0.30164000  1.0
  H  H5  1  0.58238000  0.07009000  0.19836000  1.0
  H  H6  1  0.91760000  0.57010000  0.69835000  1.0
  H  H7  1  0.41758000  0.92990000  0.80164000  1.0
  H  H8  1  0.09446000  0.30814000  0.06682000  1.0
  H  H9  1  0.59448000  0.19187000  0.43319000  1.0
  H  H10  1  0.90554000  0.69187000  0.93318000  1.0
  H  H11  1  0.40552000  0.80812000  0.56682000  1.0
  H  H12  1  0.68326000  0.82853000  0.46501000  1.0
  H  H13  1  0.18327000  0.67147000  0.03499000  1.0
  H  H14  1  0.31676000  0.17148000  0.53499000  1.0
  H  H15  1  0.81675000  0.32852000  0.96501000  1.0
  H  H16  1  0.80250000  0.98078000  0.52840000  1.0
  H  H17  1  0.30253000  0.51922000  0.97161000  1.0
  H  H18  1  0.19750000  0.01923000  0.47161000  1.0
  H  H19  1  0.69751000  0.48078000  0.02840000  1.0
  C  C20  1  0.31980000  0.61667000  0.42241000  1.0
  C  C21  1  0.81980000  0.88332000  0.07759000  1.0
  C  C22  1  0.68021000  0.38332000  0.57759000  1.0
  C  C23  1  0.18021000  0.11668000  0.92241000  1.0
  C  C24  1  0.37317000  0.53588000  0.32652000  1.0
  C  C25  1  0.87317000  0.96411000  0.17348000  1.0
  C  C26  1  0.62684000  0.46411000  0.67348000  1.0
  C  C27  1  0.12682000  0.03589000  0.82652000  1.0
  C  C28  1  0.23099000  0.44490000  0.27274000  1.0
  C  C29  1  0.73100000  0.05510000  0.22727000  1.0
  C  C30  1  0.76901000  0.55510000  0.72726000  1.0
  C  C31  1  0.26898000  0.94489000  0.77274000  1.0
  C  C32  1  0.25072000  0.36629000  0.17705000  1.0
  C  C33  1  0.75073000  0.13370000  0.32295000  1.0
  C  C34  1  0.74927000  0.63371000  0.82295000  1.0
  C  C35  1  0.24925000  0.86629000  0.67705000  1.0
  I  I36  1  0.66160000  0.59539000  0.28247000  1.0
  I  I37  1  0.16161000  0.90459000  0.21753000  1.0
  I  I38  1  0.33840000  0.40458000  0.71753000  1.0
  I  I39  1  0.83838000  0.09543000  0.78248000  1.0
  O  O40  1  0.42059000  0.75233000  0.46247000  1.0
  O  O41  1  0.92061000  0.74767000  0.03753000  1.0
  O  O42  1  0.57940000  0.24766000  0.53753000  1.0
  O  O43  1  0.07941000  0.25233000  0.96247000  1.0
  O  O44  1  0.17191000  0.54606000  0.45636000  1.0
  O  O45  1  0.67190000  0.95392000  0.04365000  1.0
  O  O46  1  0.82810000  0.45394000  0.54364000  1.0
  O  O47  1  0.32811000  0.04607000  0.95635000  1.0
  O  O48  1  0.07540000  0.35683000  0.13427000  1.0
  O  O49  1  0.57542000  0.14319000  0.36573000  1.0
  O  O50  1  0.92459000  0.64319000  0.86572000  1.0
  O  O51  1  0.42457000  0.85680000  0.63427000  1.0
  O  O52  1  0.41378000  0.31335000  0.14147000  1.0
  O  O53  1  0.91380000  0.18663000  0.35852000  1.0
  O  O54  1  0.58622000  0.68663000  0.85852000  1.0
  O  O55  1  0.08618000  0.81338000  0.64147000  1.0
  O  O56  1  0.81925000  0.86346000  0.48909000  1.0
  O  O57  1  0.31927000  0.63655000  0.01092000  1.0
  O  O58  1  0.18076000  0.13656000  0.51092000  1.0
  O  O59  1  0.68076000  0.36345000  0.98910000  1.0
