# generated using pymatgen
data_MnH7C10N3O5
_symmetry_space_group_name_H-M   'P 1'
_cell_length_a   7.48655000
_cell_length_b   9.21517000
_cell_length_c   9.57517000
_cell_angle_alpha   64.92300000
_cell_angle_beta   79.86480000
_cell_angle_gamma   80.17630000
_symmetry_Int_Tables_number   1
_chemical_formula_structural   MnH7C10N3O5
_chemical_formula_sum   'Mn2 H14 C20 N6 O10'
_cell_volume   585.55844761
_cell_formula_units_Z   2
loop_
 _symmetry_equiv_pos_site_id
 _symmetry_equiv_pos_as_xyz
  1  'x, y, z'
loop_
 _atom_site_type_symbol
 _atom_site_label
 _atom_site_symmetry_multiplicity
 _atom_site_fract_x
 _atom_site_fract_y
 _atom_site_fract_z
 _atom_site_occupancy
  Mn  Mn0  1  0.51480000  0.44672000  0.88967000  1.0
  Mn  Mn1  1  0.01614000  0.89403000  0.45321000  1.0
  H  H2  1  0.85315000  0.49446000  0.23884000  1.0
  H  H3  1  0.37105000  0.24009000  0.49557000  1.0
  H  H4  1  0.01793000  0.24444000  0.22888000  1.0
  H  H5  1  0.52881000  0.23526000  0.24736000  1.0
  H  H6  1  0.88296000  0.98633000  0.70282000  1.0
  H  H7  1  0.33897000  0.71091000  0.99734000  1.0
  H  H8  1  0.69932000  0.22337000  0.73168000  1.0
  H  H9  1  0.16373000  0.73707000  0.23488000  1.0
  H  H10  1  0.68511000  0.70207000  0.26992000  1.0
  H  H11  1  0.18600000  0.26010000  0.69390000  1.0
  H  H12  1  0.45274000  0.13514000  0.04589000  1.0
  H  H13  1  0.95314000  0.04541000  0.15285000  1.0
  H  H14  1  0.27348000  0.21658000  0.96016000  1.0
  H  H15  1  0.76550000  0.97283000  0.24412000  1.0
  C  C16  1  0.26751000  0.70055000  0.68453000  1.0
  C  C17  1  0.77710000  0.69550000  0.69376000  1.0
  C  C18  1  0.41143000  0.66526000  0.57350000  1.0
  C  C19  1  0.91990000  0.57547000  0.66715000  1.0
  C  C20  1  0.40831000  0.91731000  0.30484000  1.0
  C  C21  1  0.92302000  0.29621000  0.91503000  1.0
  C  C22  1  0.46880000  0.75824000  0.41919000  1.0
  C  C23  1  0.97811000  0.41512000  0.75606000  1.0
  C  C24  1  0.85293000  0.38528000  0.34589000  1.0
  C  C25  1  0.35821000  0.34827000  0.38870000  1.0
  C  C26  1  0.94660000  0.24562000  0.33781000  1.0
  C  C27  1  0.44785000  0.34428000  0.25044000  1.0
  C  C28  1  0.86996000  0.10110000  0.60337000  1.0
  C  C29  1  0.34165000  0.61064000  0.11077000  1.0
  C  C30  1  0.77033000  0.23470000  0.61859000  1.0
  C  C31  1  0.24602000  0.62497000  0.24257000  1.0
  C  C32  1  0.75581000  0.38259000  0.48751000  1.0
  C  C33  1  0.25146000  0.49037000  0.38554000  1.0
  C  C34  1  0.63730000  0.51860000  0.49907000  1.0
  C  C35  1  0.13897000  0.49930000  0.52100000  1.0
  N  N36  1  0.51924000  0.51927000  0.62310000  1.0
  N  N37  1  0.02410000  0.62729000  0.52424000  1.0
  N  N38  1  0.61305000  0.66487000  0.37701000  1.0
  N  N39  1  0.11739000  0.37225000  0.66177000  1.0
  N  N40  1  0.95112000  0.10104000  0.46319000  1.0
  N  N41  1  0.43793000  0.47184000  0.11307000  1.0
  O  O42  1  0.27171000  0.60943000  0.82717000  1.0
  O  O43  1  0.78058000  0.83902000  0.58369000  1.0
  O  O44  1  0.14129000  0.81830000  0.63700000  1.0
  O  O45  1  0.65784000  0.65963000  0.80989000  1.0
  O  O46  1  0.23854000  0.97142000  0.30748000  1.0
  O  O47  1  0.75868000  0.30742000  0.97413000  1.0
  O  O48  1  0.53142000  0.99226000  0.20068000  1.0
  O  O49  1  0.04567000  0.18523000  0.98182000  1.0
  O  O50  1  0.40634000  0.22501000  0.95020000  1.0
  O  O51  1  0.89937000  0.95688000  0.24852000  1.0
