# generated using pymatgen
data_SnH8C14(NO2)2
_symmetry_space_group_name_H-M   'P 1'
_cell_length_a   8.89795000
_cell_length_b   9.57003000
_cell_length_c   16.40700000
_cell_angle_alpha   90.00000000
_cell_angle_beta   90.00000000
_cell_angle_gamma   113.59000000
_symmetry_Int_Tables_number   1
_chemical_formula_structural   SnH8C14(NO2)2
_chemical_formula_sum   'Sn4 H32 C56 N8 O16'
_cell_volume   1280.36255144
_cell_formula_units_Z   4
loop_
 _symmetry_equiv_pos_site_id
 _symmetry_equiv_pos_as_xyz
  1  'x, y, z'
loop_
 _atom_site_type_symbol
 _atom_site_label
 _atom_site_symmetry_multiplicity
 _atom_site_fract_x
 _atom_site_fract_y
 _atom_site_fract_z
 _atom_site_occupancy
  Sn  Sn0  1  0.94589000  0.89207000  0.61863000  1.0
  Sn  Sn1  1  0.55411000  0.10794000  0.11864000  1.0
  Sn  Sn2  1  0.05411000  0.10793000  0.38137000  1.0
  Sn  Sn3  1  0.44589000  0.89206000  0.88136000  1.0
  H  H4  1  0.86287000  0.27784000  0.58714000  1.0
  H  H5  1  0.63714000  0.72217000  0.08714000  1.0
  H  H6  1  0.13714000  0.72217000  0.41286000  1.0
  H  H7  1  0.36286000  0.27783000  0.91286000  1.0
  H  H8  1  0.62487000  0.34042000  0.33187000  1.0
  H  H9  1  0.87513000  0.65959000  0.83187000  1.0
  H  H10  1  0.37513000  0.65958000  0.66813000  1.0
  H  H11  1  0.12488000  0.34042000  0.16813000  1.0
  H  H12  1  0.92124000  0.52621000  0.65778000  1.0
  H  H13  1  0.57876000  0.47380000  0.15778000  1.0
  H  H14  1  0.07876000  0.47380000  0.34222000  1.0
  H  H15  1  0.42123000  0.52620000  0.84222000  1.0
  H  H16  1  0.74643000  0.24364000  0.44434000  1.0
  H  H17  1  0.75358000  0.75637000  0.94434000  1.0
  H  H18  1  0.25358000  0.75637000  0.55566000  1.0
  H  H19  1  0.24643000  0.24363000  0.05566000  1.0
  H  H20  1  0.68143000  0.02492000  0.52553000  1.0
  H  H21  1  0.81858000  0.97509000  0.02553000  1.0
  H  H22  1  0.31858000  0.97508000  0.47447000  1.0
  H  H23  1  0.18142000  0.02491000  0.97447000  1.0
  H  H24  1  0.49512000  0.78131000  0.30154000  1.0
  H  H25  1  0.00488000  0.21869000  0.80154000  1.0
  H  H26  1  0.50488000  0.21869000  0.69846000  1.0
  H  H27  1  0.99511000  0.78130000  0.19846000  1.0
  H  H28  1  0.54334000  0.00580000  0.38887000  1.0
  H  H29  1  0.95666000  0.99420000  0.88887000  1.0
  H  H30  1  0.45666000  0.99420000  0.61113000  1.0
  H  H31  1  0.04334000  0.00580000  0.11113000  1.0
  H  H32  1  0.52454000  0.53163000  0.28186000  1.0
  H  H33  1  0.97547000  0.46837000  0.78186000  1.0
  H  H34  1  0.47546000  0.46837000  0.71814000  1.0
  H  H35  1  0.02454000  0.53163000  0.21814000  1.0
  C  C36  1  0.69213000  0.82201000  0.75342000  1.0
  C  C37  1  0.80789000  0.17799000  0.25344000  1.0
  C  C38  1  0.30787000  0.17799000  0.24658000  1.0
  C  C39  1  0.19210000  0.82200000  0.74656000  1.0
  C  C40  1  0.68497000  0.69977000  0.46555000  1.0
  C  C41  1  0.81503000  0.30023000  0.96555000  1.0
  C  C42  1  0.31503000  0.30023000  0.53445000  1.0
  C  C43  1  0.18497000  0.69976000  0.03445000  1.0
  C  C44  1  0.74135000  0.58726000  0.49540000  1.0
  C  C45  1  0.75865000  0.41274000  0.99540000  1.0
  C  C46  1  0.25866000  0.41274000  0.50460000  1.0
  C  C47  1  0.24135000  0.58725000  0.00460000  1.0
  C  C48  1  0.69524000  0.97581000  0.72059000  1.0
  C  C49  1  0.80479000  0.02419000  0.22060000  1.0
  C  C50  1  0.30476000  0.02419000  0.27941000  1.0
  C  C51  1  0.19521000  0.97581000  0.77940000  1.0
  C  C52  1  0.83070000  0.36444000  0.55779000  1.0
  C  C53  1  0.66930000  0.63557000  0.05779000  1.0
  C  C54  1  0.16930000  0.63557000  0.44221000  1.0
  C  C55  1  0.33070000  0.36443000  0.94221000  1.0
  C  C56  1  0.63835000  0.43917000  0.36900000  1.0
  C  C57  1  0.86165000  0.56083000  0.86900000  1.0
  C  C58  1  0.36165000  0.56083000  0.63100000  1.0
  C  C59  1  0.13836000  0.43917000  0.13100000  1.0
  C  C60  1  0.85962000  0.50162000  0.59893000  1.0
  C  C61  1  0.64038000  0.49838000  0.09893000  1.0
  C  C62  1  0.14038000  0.49838000  0.40107000  1.0
  C  C63  1  0.35961000  0.50161000  0.90107000  1.0
  C  C64  1  0.71433000  0.45548000  0.44736000  1.0
  C  C65  1  0.78567000  0.54452000  0.94736000  1.0
  C  C66  1  0.28567000  0.54452000  0.55264000  1.0
  C  C67  1  0.21433000  0.45548000  0.05264000  1.0
  C  C68  1  0.76286000  0.34397000  0.48068000  1.0
  C  C69  1  0.73714000  0.65604000  0.98068000  1.0
  C  C70  1  0.23714000  0.65604000  0.51932000  1.0
  C  C71  1  0.26286000  0.34396000  0.01932000  1.0
  C  C72  1  0.60754000  0.67854000  0.38778000  1.0
  C  C73  1  0.89246000  0.32146000  0.88778000  1.0
  C  C74  1  0.39247000  0.32146000  0.61222000  1.0
  C  C75  1  0.10753000  0.67854000  0.11222000  1.0
  C  C76  1  0.65835000  0.92799000  0.48513000  1.0
  C  C77  1  0.84165000  0.07202000  0.98513000  1.0
  C  C78  1  0.34165000  0.07201000  0.51487000  1.0
  C  C79  1  0.15834000  0.92798000  0.01487000  1.0
  C  C80  1  0.55514000  0.79148000  0.36052000  1.0
  C  C81  1  0.94486000  0.20852000  0.86052000  1.0
  C  C82  1  0.44486000  0.20852000  0.63948000  1.0
  C  C83  1  0.05514000  0.79147000  0.13948000  1.0
  C  C84  1  0.58186000  0.91703000  0.40918000  1.0
  C  C85  1  0.91814000  0.08297000  0.90918000  1.0
  C  C86  1  0.41814000  0.08297000  0.59082000  1.0
  C  C87  1  0.08186000  0.91703000  0.09082000  1.0
  C  C88  1  0.58598000  0.54615000  0.34068000  1.0
  C  C89  1  0.91402000  0.45385000  0.84068000  1.0
  C  C90  1  0.41402000  0.45385000  0.65932000  1.0
  C  C91  1  0.08598000  0.54615000  0.15932000  1.0
  N  N92  1  0.81900000  0.61092000  0.56855000  1.0
  N  N93  1  0.68100000  0.38908000  0.06855000  1.0
  N  N94  1  0.18100000  0.38908000  0.43145000  1.0
  N  N95  1  0.31899000  0.61091000  0.93145000  1.0
  N  N96  1  0.70728000  0.82233000  0.51317000  1.0
  N  N97  1  0.79272000  0.17767000  0.01317000  1.0
  N  N98  1  0.29272000  0.17767000  0.48683000  1.0
  N  N99  1  0.20728000  0.82233000  0.98683000  1.0
  O  O100  1  0.78089000  0.76413000  0.71697000  1.0
  O  O101  1  0.71911000  0.23588000  0.21698000  1.0
  O  O102  1  0.21912000  0.23587000  0.28303000  1.0
  O  O103  1  0.28088000  0.76412000  0.78302000  1.0
  O  O104  1  0.79370000  0.03634000  0.66185000  1.0
  O  O105  1  0.70630000  0.96367000  0.16184000  1.0
  O  O106  1  0.20630000  0.96366000  0.33816000  1.0
  O  O107  1  0.29369000  0.03633000  0.83816000  1.0
  O  O108  1  0.60407000  0.76106000  0.81401000  1.0
  O  O109  1  0.89592000  0.23891000  0.31402000  1.0
  O  O110  1  0.39593000  0.23893000  0.18599000  1.0
  O  O111  1  0.10408000  0.76109000  0.68598000  1.0
  O  O112  1  0.60137000  0.02829000  0.75395000  1.0
  O  O113  1  0.89862000  0.97171000  0.25395000  1.0
  O  O114  1  0.39862000  0.97170000  0.24605000  1.0
  O  O115  1  0.10138000  0.02830000  0.74605000  1.0
