# generated using pymatgen
data_MnH18C27N4O5
_symmetry_space_group_name_H-M   'P 1'
_cell_length_a   10.16360000
_cell_length_b   11.35080000
_cell_length_c   11.90800000
_cell_angle_alpha   116.84700000
_cell_angle_beta   105.90600000
_cell_angle_gamma   100.44200000
_symmetry_Int_Tables_number   1
_chemical_formula_structural   MnH18C27N4O5
_chemical_formula_sum   'Mn2 H36 C54 N8 O10'
_cell_volume   1101.78155570
_cell_formula_units_Z   2
loop_
 _symmetry_equiv_pos_site_id
 _symmetry_equiv_pos_as_xyz
  1  'x, y, z'
loop_
 _atom_site_type_symbol
 _atom_site_label
 _atom_site_symmetry_multiplicity
 _atom_site_fract_x
 _atom_site_fract_y
 _atom_site_fract_z
 _atom_site_occupancy
  Mn  Mn0  1  0.61554000  0.15834000  0.22192000  1.0
  Mn  Mn1  1  0.38447000  0.84167000  0.77808000  1.0
  H  H2  1  0.94129000  0.35163000  0.29880000  1.0
  H  H3  1  0.05872000  0.64838000  0.70120000  1.0
  H  H4  1  0.06808000  0.59791000  0.35644000  1.0
  H  H5  1  0.93192000  0.40209000  0.64356000  1.0
  H  H6  1  0.93110000  0.76183000  0.38626000  1.0
  H  H7  1  0.06890000  0.23818000  0.61375000  1.0
  H  H8  1  0.52680000  0.94985000  0.40155000  1.0
  H  H9  1  0.47320000  0.05015000  0.59845000  1.0
  H  H10  1  0.24733000  0.53031000  0.37353000  1.0
  H  H11  1  0.75266000  0.46969000  0.62647000  1.0
  H  H12  1  0.15155000  0.27692000  0.30837000  1.0
  H  H13  1  0.84845000  0.72307000  0.69162000  1.0
  H  H14  1  0.30685000  0.12854000  0.25109000  1.0
  H  H15  1  0.69315000  0.87146000  0.74890000  1.0
  H  H16  1  0.54335000  0.37457000  0.05485000  1.0
  H  H17  1  0.45666000  0.62543000  0.94515000  1.0
  H  H18  1  0.64389000  0.60016000  0.06884000  1.0
  H  H19  1  0.35613000  0.39985000  0.93117000  1.0
  H  H20  1  0.82571000  0.62216000  0.96752000  1.0
  H  H21  1  0.17432000  0.37785000  0.03249000  1.0
  H  H22  1  0.91185000  0.42373000  0.86613000  1.0
  H  H23  1  0.08816000  0.57627000  0.13387000  1.0
  H  H24  1  0.79621000  0.17518000  0.65911000  1.0
  H  H25  1  0.20379000  0.82481000  0.34089000  1.0
  H  H26  1  0.95409000  0.03985000  0.58502000  1.0
  H  H27  1  0.04590000  0.96014000  0.41498000  1.0
  H  H28  1  0.08592000  0.03997000  0.95969000  1.0
  H  H29  1  0.91409000  0.96003000  0.04031000  1.0
  H  H30  1  0.92152000  0.16965000  0.03185000  1.0
  H  H31  1  0.07848000  0.83035000  0.96815000  1.0
  H  H32  1  0.74354000  0.88723000  0.37426000  1.0
  H  H33  1  0.25646000  0.11277000  0.62574000  1.0
  H  H34  1  0.64958000  0.21583000  0.49904000  1.0
  H  H35  1  0.35041000  0.78416000  0.50096000  1.0
  H  H36  1  0.75546000  0.14431000  0.42996000  1.0
  H  H37  1  0.24453000  0.85568000  0.57004000  1.0
  C  C38  1  0.88686000  0.42887000  0.31638000  1.0
  C  C39  1  0.11315000  0.57115000  0.68363000  1.0
  C  C40  1  0.95564000  0.56416000  0.34523000  1.0
  C  C41  1  0.04436000  0.43585000  0.65477000  1.0
  C  C42  1  0.88000000  0.65630000  0.36367000  1.0
  C  C43  1  0.12000000  0.34370000  0.63633000  1.0
  C  C44  1  0.73676000  0.61279000  0.35458000  1.0
  C  C45  1  0.26324000  0.38721000  0.64543000  1.0
  C  C46  1  0.64518000  0.69511000  0.36941000  1.0
  C  C47  1  0.35482000  0.30489000  0.63060000  1.0
  C  C48  1  0.54312000  0.85588000  0.39625000  1.0
  C  C49  1  0.45687000  0.14412000  0.60376000  1.0
  C  C50  1  0.51039000  0.65315000  0.37577000  1.0
  C  C51  1  0.48961000  0.34685000  0.62423000  1.0
  C  C52  1  0.44835000  0.51545000  0.35083000  1.0
  C  C53  1  0.55164000  0.48455000  0.64918000  1.0
  C  C54  1  0.30999000  0.46134000  0.34721000  1.0
  C  C55  1  0.69001000  0.53866000  0.65279000  1.0
  C  C56  1  0.25783000  0.32263000  0.31214000  1.0
  C  C57  1  0.74217000  0.67737000  0.68786000  1.0
  C  C58  1  0.34429000  0.23901000  0.28124000  1.0
  C  C59  1  0.65570000  0.76098000  0.71875000  1.0
  C  C60  1  0.53049000  0.42480000  0.32181000  1.0
  C  C61  1  0.46951000  0.57520000  0.67819000  1.0
  C  C62  1  0.67667000  0.47515000  0.32902000  1.0
  C  C63  1  0.32333000  0.52486000  0.67100000  1.0
  C  C64  1  0.58794000  0.13859000  0.93893000  1.0
  C  C65  1  0.41205000  0.86141000  0.06106000  1.0
  C  C66  1  0.67076000  0.27329000  0.95497000  1.0
  C  C67  1  0.32924000  0.72670000  0.04503000  1.0
  C  C68  1  0.62524000  0.38759000  0.01451000  1.0
  C  C69  1  0.37477000  0.61241000  0.98549000  1.0
  C  C70  1  0.68048000  0.51292000  0.02073000  1.0
  C  C71  1  0.31954000  0.48708000  0.97928000  1.0
  C  C72  1  0.78172000  0.52518000  0.96430000  1.0
  C  C73  1  0.21829000  0.47483000  0.03571000  1.0
  C  C74  1  0.82909000  0.41310000  0.90631000  1.0
  C  C75  1  0.17092000  0.58690000  0.09369000  1.0
  C  C76  1  0.77805000  0.28750000  0.90314000  1.0
  C  C77  1  0.22195000  0.71249000  0.09686000  1.0
  C  C78  1  0.84961000  0.18388000  0.85121000  1.0
  C  C79  1  0.15039000  0.81612000  0.14878000  1.0
  C  C80  1  0.85851000  0.14393000  0.72422000  1.0
  C  C81  1  0.14149000  0.85607000  0.27578000  1.0
  C  C82  1  0.94778000  0.06922000  0.68343000  1.0
  C  C83  1  0.05221000  0.93078000  0.31656000  1.0
  C  C84  1  0.03292000  0.03342000  0.76875000  1.0
  C  C85  1  0.96708000  0.96657000  0.23124000  1.0
  C  C86  1  0.01946000  0.06723000  0.89294000  1.0
  C  C87  1  0.98054000  0.93277000  0.10705000  1.0
  C  C88  1  0.92792000  0.14042000  0.93319000  1.0
  C  C89  1  0.07208000  0.85958000  0.06681000  1.0
  C  C90  1  0.13891000  0.96562000  0.72673000  1.0
  C  C91  1  0.86109000  0.03436000  0.27326000  1.0
  N  N92  1  0.75212000  0.38597000  0.30899000  1.0
  N  N93  1  0.24789000  0.61404000  0.69103000  1.0
  N  N94  1  0.47655000  0.28897000  0.28667000  1.0
  N  N95  1  0.52345000  0.71102000  0.71332000  1.0
  N  N96  1  0.66239000  0.82390000  0.38127000  1.0
  N  N97  1  0.33760000  0.17610000  0.61873000  1.0
  N  N98  1  0.44990000  0.75691000  0.39599000  1.0
  N  N99  1  0.55010000  0.24309000  0.60401000  1.0
  O  O100  1  0.54536000  0.14869000  0.03280000  1.0
  O  O101  1  0.45462000  0.85130000  0.96720000  1.0
  O  O102  1  0.55367000  0.02238000  0.82651000  1.0
  O  O103  1  0.44632000  0.97761000  0.17347000  1.0
  O  O104  1  0.70792000  0.21715000  0.44403000  1.0
  O  O105  1  0.29208000  0.78286000  0.55598000  1.0
  O  O106  1  0.19515000  0.90740000  0.78722000  1.0
  O  O107  1  0.80484000  0.09259000  0.21278000  1.0
  O  O108  1  0.16630000  0.97034000  0.62936000  1.0
  O  O109  1  0.83370000  0.02965000  0.37063000  1.0
