# generated using pymatgen
data_Cu2H9C8I2N3
_symmetry_space_group_name_H-M   'P 1'
_cell_length_a   7.54069000
_cell_length_b   7.65232000
_cell_length_c   11.17370000
_cell_angle_alpha   104.48300000
_cell_angle_beta   104.27300000
_cell_angle_gamma   95.89830000
_symmetry_Int_Tables_number   1
_chemical_formula_structural   Cu2H9C8I2N3
_chemical_formula_sum   'Cu4 H18 C16 I4 N6'
_cell_volume   595.64453773
_cell_formula_units_Z   2
loop_
 _symmetry_equiv_pos_site_id
 _symmetry_equiv_pos_as_xyz
  1  'x, y, z'
loop_
 _atom_site_type_symbol
 _atom_site_label
 _atom_site_symmetry_multiplicity
 _atom_site_fract_x
 _atom_site_fract_y
 _atom_site_fract_z
 _atom_site_occupancy
  Cu  Cu0  1  0.37225000  0.71106000  0.29239000  1.0
  Cu  Cu1  1  0.62775000  0.28894000  0.70761000  1.0
  Cu  Cu2  1  0.49038000  0.07930000  0.41051000  1.0
  Cu  Cu3  1  0.50962000  0.92071000  0.58949000  1.0
  H  H4  1  0.41649000  0.81988000  0.78215000  1.0
  H  H5  1  0.58352000  0.18012000  0.21785000  1.0
  H  H6  1  0.19909000  0.89321000  0.76696000  1.0
  H  H7  1  0.80092000  0.10679000  0.23305000  1.0
  H  H8  1  0.28360000  0.53168000  0.82143000  1.0
  H  H9  1  0.71639000  0.46830000  0.17855000  1.0
  H  H10  1  0.25068000  0.72533000  0.93507000  1.0
  H  H11  1  0.74933000  0.27465000  0.06492000  1.0
  H  H12  1  0.07484000  0.30853000  0.18573000  1.0
  H  H13  1  0.92517000  0.69147000  0.81428000  1.0
  H  H14  1  0.03639000  0.52307000  0.16182000  1.0
  H  H15  1  0.96360000  0.47693000  0.83817000  1.0
  H  H16  1  0.41913000  0.22916000  0.89585000  1.0
  H  H17  1  0.58087000  0.77083000  0.10415000  1.0
  H  H18  1  0.17516000  0.20253000  0.88246000  1.0
  H  H19  1  0.82484000  0.79748000  0.11754000  1.0
  H  H20  1  0.32229000  0.10584000  0.98980000  1.0
  H  H21  1  0.67769000  0.89416000  0.01020000  1.0
  C  C22  1  0.07023000  0.50752000  0.35344000  1.0
  C  C23  1  0.92976000  0.49249000  0.64656000  1.0
  C  C24  1  0.96723000  0.45768000  0.43379000  1.0
  C  C25  1  0.03277000  0.54233000  0.56621000  1.0
  C  C26  1  0.20014000  0.67170000  0.61331000  1.0
  C  C27  1  0.79987000  0.32831000  0.38668000  1.0
  C  C28  1  0.26573000  0.77051000  0.75346000  1.0
  C  C29  1  0.73428000  0.22949000  0.24655000  1.0
  C  C30  1  0.20953000  0.64852000  0.83241000  1.0
  C  C31  1  0.79048000  0.35147000  0.16759000  1.0
  C  C32  1  0.99979000  0.42284000  0.21098000  1.0
  C  C33  1  0.00022000  0.57717000  0.78903000  1.0
  C  C34  1  0.34570000  0.38760000  0.05309000  1.0
  C  C35  1  0.65430000  0.61241000  0.94692000  1.0
  C  C36  1  0.31512000  0.22283000  0.94911000  1.0
  C  C37  1  0.68488000  0.77717000  0.05089000  1.0
  I  I38  1  0.77766000  0.03847000  0.80934000  1.0
  I  I39  1  0.22233000  0.96152000  0.19066000  1.0
  I  I40  1  0.72077000  0.83022000  0.42694000  1.0
  I  I41  1  0.27923000  0.16979000  0.57306000  1.0
  N  N42  1  0.22884000  0.62800000  0.40336000  1.0
  N  N43  1  0.77117000  0.37202000  0.59663000  1.0
  N  N44  1  0.29572000  0.70866000  0.53437000  1.0
  N  N45  1  0.70427000  0.29134000  0.46563000  1.0
  N  N46  1  0.36847000  0.51790000  0.13957000  1.0
  N  N47  1  0.63153000  0.48208000  0.86042000  1.0
