# generated using pymatgen
data_ZnH28C30SNO7
_symmetry_space_group_name_H-M   'P 1'
_cell_length_a   12.90930000
_cell_length_b   12.90920000
_cell_length_c   21.06060000
_cell_angle_alpha   100.39200000
_cell_angle_beta   100.39200000
_cell_angle_gamma   104.77000000
_symmetry_Int_Tables_number   1
_chemical_formula_structural   ZnH28C30SNO7
_chemical_formula_sum   'Zn4 H112 C120 S4 N4 O28'
_cell_volume   3242.15610284
_cell_formula_units_Z   4
loop_
 _symmetry_equiv_pos_site_id
 _symmetry_equiv_pos_as_xyz
  1  'x, y, z'
loop_
 _atom_site_type_symbol
 _atom_site_label
 _atom_site_symmetry_multiplicity
 _atom_site_fract_x
 _atom_site_fract_y
 _atom_site_fract_z
 _atom_site_occupancy
  Zn  Zn0  1  0.46145000  0.92238000  0.43500000  1.0
  Zn  Zn1  1  0.07762000  0.53856000  0.06500000  1.0
  Zn  Zn2  1  0.53856000  0.07762000  0.56500000  1.0
  Zn  Zn3  1  0.92238000  0.46145000  0.93500000  1.0
  H  H4  1  0.76480000  0.92667000  0.66305000  1.0
  H  H5  1  0.07333000  0.23521000  0.83695000  1.0
  H  H6  1  0.23520000  0.07333000  0.33695000  1.0
  H  H7  1  0.92667000  0.76480000  0.16305000  1.0
  H  H8  1  0.65833000  0.70273000  0.47048000  1.0
  H  H9  1  0.29727000  0.34167000  0.02952000  1.0
  H  H10  1  0.34167000  0.29726000  0.52952000  1.0
  H  H11  1  0.70274000  0.65833000  0.97049000  1.0
  H  H12  1  0.89557000  0.82283000  0.70072000  1.0
  H  H13  1  0.17717000  0.10443000  0.79928000  1.0
  H  H14  1  0.10442000  0.17717000  0.29928000  1.0
  H  H15  1  0.82283000  0.89558000  0.20072000  1.0
  H  H16  1  0.79005000  0.60014000  0.50668000  1.0
  H  H17  1  0.39986000  0.20995000  0.99332000  1.0
  H  H18  1  0.20994000  0.39985000  0.49332000  1.0
  H  H19  1  0.60015000  0.79006000  0.00668000  1.0
  H  H20  1  0.16264000  0.68172000  0.46097000  1.0
  H  H21  1  0.31828000  0.83736000  0.03903000  1.0
  H  H22  1  0.83736000  0.31828000  0.53903000  1.0
  H  H23  1  0.68172000  0.16264000  0.96097000  1.0
  H  H24  1  0.00917000  0.58494000  0.50537000  1.0
  H  H25  1  0.41506000  0.99083000  0.99463000  1.0
  H  H26  1  0.99083000  0.41506000  0.49463000  1.0
  H  H27  1  0.58494000  0.00917000  0.00537000  1.0
  H  H28  1  0.36938000  0.61219000  0.00678000  1.0
  H  H29  1  0.38781000  0.63062000  0.49322000  1.0
  H  H30  1  0.63062000  0.38781000  0.99322000  1.0
  H  H31  1  0.61219000  0.36938000  0.50678000  1.0
  H  H32  1  0.54924000  0.60142000  0.16757000  1.0
  H  H33  1  0.39858000  0.45076000  0.33243000  1.0
  H  H34  1  0.45076000  0.39858000  0.83243000  1.0
  H  H35  1  0.60142000  0.54924000  0.66757000  1.0
  H  H36  1  0.28145000  0.93721000  0.64209000  1.0
  H  H37  1  0.06279000  0.71855000  0.85791000  1.0
  H  H38  1  0.71855000  0.06279000  0.35791000  1.0
  H  H39  1  0.93721000  0.28145000  0.14209000  1.0
  H  H40  1  0.56334000  0.76888000  0.37270000  1.0
  H  H41  1  0.23112000  0.43666000  0.12730000  1.0
  H  H42  1  0.43666000  0.23113000  0.62731000  1.0
  H  H43  1  0.76888000  0.56334000  0.87270000  1.0
  H  H44  1  0.32441000  0.82883000  0.18174000  1.0
  H  H45  1  0.17117000  0.67559000  0.31826000  1.0
  H  H46  1  0.67559000  0.17116000  0.81826000  1.0
  H  H47  1  0.82884000  0.32441000  0.68174000  1.0
  H  H48  1  0.37687000  0.70310000  0.10346000  1.0
  H  H49  1  0.29690000  0.62312000  0.39654000  1.0
  H  H50  1  0.62313000  0.29690000  0.89654000  1.0
  H  H51  1  0.70310000  0.37688000  0.60346000  1.0
  H  H52  1  0.33437000  0.91770000  0.29963000  1.0
  H  H53  1  0.08230000  0.66563000  0.20037000  1.0
  H  H54  1  0.66563000  0.08230000  0.70037000  1.0
  H  H55  1  0.91770000  0.33437000  0.79963000  1.0
  H  H56  1  0.12901000  0.83902000  0.68796000  1.0
  H  H57  1  0.16099000  0.87099000  0.81204000  1.0
  H  H58  1  0.87099000  0.16099000  0.31204000  1.0
  H  H59  1  0.83901000  0.12901000  0.18796000  1.0
  H  H60  1  0.56485000  0.67489000  0.25986000  1.0
  H  H61  1  0.32511000  0.43515000  0.24014000  1.0
  H  H62  1  0.43515000  0.32511000  0.74014000  1.0
  H  H63  1  0.67489000  0.56485000  0.75986000  1.0
  H  H64  1  0.34277000  0.66263000  0.90701000  1.0
  H  H65  1  0.33737000  0.65723000  0.59299000  1.0
  H  H66  1  0.65723000  0.33737000  0.09299000  1.0
  H  H67  1  0.66263000  0.34277000  0.40701000  1.0
  H  H68  1  0.23415000  0.54619000  0.90939000  1.0
  H  H69  1  0.45381000  0.76585000  0.59061000  1.0
  H  H70  1  0.76585000  0.45381000  0.09061000  1.0
  H  H71  1  0.54619000  0.23415000  0.40940000  1.0
  H  H72  1  0.19098000  0.62089000  0.80886000  1.0
  H  H73  1  0.37911000  0.80902000  0.69114000  1.0
  H  H74  1  0.80902000  0.37911000  0.19114000  1.0
  H  H75  1  0.62089000  0.19098000  0.30886000  1.0
  H  H76  1  0.30808000  0.59585000  0.78468000  1.0
  H  H77  1  0.40415000  0.69192000  0.71532000  1.0
  H  H78  1  0.69192000  0.40415000  0.21532000  1.0
  H  H79  1  0.59585000  0.30808000  0.28468000  1.0
  H  H80  1  0.06421000  0.34966000  0.68048000  1.0
  H  H81  1  0.65034000  0.93579000  0.81952000  1.0
  H  H82  1  0.93579000  0.65034000  0.31952000  1.0
  H  H83  1  0.34966000  0.06420000  0.18048000  1.0
  H  H84  1  0.05195000  0.48376000  0.70297000  1.0
  H  H85  1  0.51624000  0.94805000  0.79703000  1.0
  H  H86  1  0.94805000  0.51624000  0.29703000  1.0
  H  H87  1  0.48376000  0.05195000  0.20297000  1.0
  H  H88  1  0.11245000  0.41884000  0.80213000  1.0
  H  H89  1  0.58116000  0.88755000  0.69787000  1.0
  H  H90  1  0.88755000  0.58116000  0.19787000  1.0
  H  H91  1  0.41884000  0.11245000  0.30213000  1.0
  H  H92  1  0.22612000  0.39284000  0.77445000  1.0
  H  H93  1  0.60716000  0.77388000  0.72556000  1.0
  H  H94  1  0.77389000  0.60716000  0.22555000  1.0
  H  H95  1  0.39284000  0.22612000  0.27445000  1.0
  H  H96  1  0.22300000  0.56563000  0.67195000  1.0
  H  H97  1  0.43436000  0.77700000  0.82805000  1.0
  H  H98  1  0.77700000  0.43436000  0.32805000  1.0
  H  H99  1  0.56563000  0.22300000  0.17195000  1.0
  H  H100  1  0.13247000  0.45983000  0.60604000  1.0
  H  H101  1  0.54017000  0.86753000  0.89396000  1.0
  H  H102  1  0.86753000  0.54017000  0.39396000  1.0
  H  H103  1  0.45983000  0.13247000  0.10604000  1.0
  H  H104  1  0.33738000  0.44297000  0.70004000  1.0
  H  H105  1  0.55703000  0.66262000  0.79996000  1.0
  H  H106  1  0.66262000  0.55703000  0.29996000  1.0
  H  H107  1  0.44297000  0.33738000  0.20004000  1.0
  H  H108  1  0.32171000  0.44436000  0.61515000  1.0
  H  H109  1  0.55564000  0.67829000  0.88485000  1.0
  H  H110  1  0.67829000  0.55564000  0.38485000  1.0
  H  H111  1  0.44436000  0.32171000  0.11515000  1.0
  H  H112  1  0.24205000  0.32942000  0.63866000  1.0
  H  H113  1  0.67058000  0.75795000  0.86134000  1.0
  H  H114  1  0.75796000  0.67058000  0.36134000  1.0
  H  H115  1  0.32942000  0.24204000  0.13866000  1.0
  C  C116  1  0.62643000  0.88345000  0.54219000  1.0
  C  C117  1  0.11655000  0.37357000  0.95781000  1.0
  C  C118  1  0.37357000  0.11655000  0.45781000  1.0
  C  C119  1  0.88345000  0.62643000  0.04219000  1.0
  C  C120  1  0.70484000  0.82127000  0.56448000  1.0
  C  C121  1  0.17873000  0.29516000  0.93551000  1.0
  C  C122  1  0.29516000  0.17873000  0.43551000  1.0
  C  C123  1  0.82127000  0.70484000  0.06449000  1.0
  C  C124  1  0.77109000  0.85505000  0.62943000  1.0
  C  C125  1  0.14495000  0.22891000  0.87057000  1.0
  C  C126  1  0.22890000  0.14495000  0.37057000  1.0
  C  C127  1  0.85505000  0.77110000  0.12943000  1.0
  C  C128  1  0.71156000  0.72925000  0.52040000  1.0
  C  C129  1  0.27075000  0.28844000  0.97960000  1.0
  C  C130  1  0.28844000  0.27075000  0.47960000  1.0
  C  C131  1  0.72925000  0.71156000  0.02040000  1.0
  C  C132  1  0.84393000  0.79811000  0.65032000  1.0
  C  C133  1  0.20189000  0.15607000  0.84968000  1.0
  C  C134  1  0.15607000  0.20189000  0.34968000  1.0
  C  C135  1  0.79811000  0.84393000  0.15033000  1.0
  C  C136  1  0.78456000  0.67204000  0.54048000  1.0
  C  C137  1  0.32796000  0.21544000  0.95952000  1.0
  C  C138  1  0.21544000  0.32796000  0.45951000  1.0
  C  C139  1  0.67204000  0.78457000  0.04049000  1.0
  C  C140  1  0.32536000  0.87320000  0.52347000  1.0
  C  C141  1  0.12680000  0.67464000  0.97652000  1.0
  C  C142  1  0.67464000  0.12680000  0.47653000  1.0
  C  C143  1  0.87320000  0.32536000  0.02347000  1.0
  C  C144  1  0.44220000  0.74160000  0.20968000  1.0
  C  C145  1  0.25840000  0.55780000  0.29032000  1.0
  C  C146  1  0.55780000  0.25840000  0.79032000  1.0
  C  C147  1  0.74160000  0.44219000  0.70968000  1.0
  C  C148  1  0.15432000  0.71644000  0.51022000  1.0
  C  C149  1  0.28356000  0.84568000  0.98978000  1.0
  C  C150  1  0.84568000  0.28356000  0.48978000  1.0
  C  C151  1  0.71644000  0.15432000  0.01022000  1.0
  C  C152  1  0.23053000  0.81556000  0.54888000  1.0
  C  C153  1  0.18444000  0.76947000  0.95112000  1.0
  C  C154  1  0.76947000  0.18444000  0.45112000  1.0
  C  C155  1  0.81556000  0.23053000  0.04888000  1.0
  C  C156  1  0.06093000  0.70700000  0.59898000  1.0
  C  C157  1  0.29300000  0.93907000  0.90102000  1.0
  C  C158  1  0.93907000  0.29300000  0.40102000  1.0
  C  C159  1  0.70700000  0.06093000  0.09898000  1.0
  C  C160  1  0.06874000  0.66192000  0.53514000  1.0
  C  C161  1  0.33808000  0.93126000  0.96486000  1.0
  C  C162  1  0.93126000  0.33808000  0.46486000  1.0
  C  C163  1  0.66192000  0.06874000  0.03514000  1.0
  C  C164  1  0.42694000  0.56394000  0.00338000  1.0
  C  C165  1  0.43606000  0.57306000  0.49662000  1.0
  C  C166  1  0.57306000  0.43606000  0.99662000  1.0
  C  C167  1  0.56394000  0.42694000  0.50338000  1.0
  C  C168  1  0.49317000  0.61576000  0.12714000  1.0
  C  C169  1  0.38424000  0.50683000  0.37286000  1.0
  C  C170  1  0.50683000  0.38424000  0.87286000  1.0
  C  C171  1  0.61575000  0.49317000  0.62714000  1.0
  C  C172  1  0.22094000  0.86035000  0.61264000  1.0
  C  C173  1  0.13965000  0.77906000  0.88736000  1.0
  C  C174  1  0.77906000  0.13965000  0.38736000  1.0
  C  C175  1  0.86035000  0.22094000  0.11264000  1.0
  C  C176  1  0.51169000  0.77913000  0.32865000  1.0
  C  C177  1  0.22087000  0.48831000  0.17136000  1.0
  C  C178  1  0.48831000  0.22088000  0.67136000  1.0
  C  C179  1  0.77913000  0.51169000  0.82864000  1.0
  C  C180  1  0.43292000  0.50821000  0.94187000  1.0
  C  C181  1  0.49179000  0.56708000  0.55813000  1.0
  C  C182  1  0.56708000  0.49179000  0.05813000  1.0
  C  C183  1  0.50821000  0.43292000  0.44187000  1.0
  C  C184  1  0.37844000  0.81318000  0.22267000  1.0
  C  C185  1  0.18682000  0.62156000  0.27733000  1.0
  C  C186  1  0.62156000  0.18682000  0.77733000  1.0
  C  C187  1  0.81318000  0.37844000  0.72267000  1.0
  C  C188  1  0.43416000  0.68596000  0.14215000  1.0
  C  C189  1  0.31404000  0.56584000  0.35785000  1.0
  C  C190  1  0.56584000  0.31404000  0.85785000  1.0
  C  C191  1  0.68596000  0.43416000  0.64215000  1.0
  C  C192  1  0.38313000  0.86244000  0.28768000  1.0
  C  C193  1  0.13755000  0.61687000  0.21232000  1.0
  C  C194  1  0.61687000  0.13756000  0.71232000  1.0
  C  C195  1  0.86245000  0.38313000  0.78768000  1.0
  C  C196  1  0.49350000  0.55719000  0.06234000  1.0
  C  C197  1  0.44281000  0.50651000  0.43766000  1.0
  C  C198  1  0.50650000  0.44281000  0.93766000  1.0
  C  C199  1  0.55719000  0.49350000  0.56234000  1.0
  C  C200  1  0.13609000  0.80603000  0.63808000  1.0
  C  C201  1  0.19397000  0.86390000  0.86192000  1.0
  C  C202  1  0.86390000  0.19397000  0.36192000  1.0
  C  C203  1  0.80603000  0.13610000  0.13808000  1.0
  C  C204  1  0.84989000  0.70706000  0.60542000  1.0
  C  C205  1  0.29294000  0.15011000  0.89458000  1.0
  C  C206  1  0.15011000  0.29293000  0.39457000  1.0
  C  C207  1  0.70706000  0.84989000  0.10543000  1.0
  C  C208  1  0.51144000  0.72726000  0.26537000  1.0
  C  C209  1  0.27274000  0.48856000  0.23463000  1.0
  C  C210  1  0.48856000  0.27274000  0.73463000  1.0
  C  C211  1  0.72726000  0.51144000  0.76537000  1.0
  C  C212  1  0.29641000  0.57611000  0.88204000  1.0
  C  C213  1  0.42389000  0.70359000  0.61796000  1.0
  C  C214  1  0.70359000  0.42389000  0.11796000  1.0
  C  C215  1  0.57611000  0.29641000  0.38204000  1.0
  C  C216  1  0.24290000  0.56529000  0.80993000  1.0
  C  C217  1  0.43471000  0.75710000  0.69007000  1.0
  C  C218  1  0.75710000  0.43471000  0.19007000  1.0
  C  C219  1  0.56529000  0.24290000  0.30993000  1.0
  C  C220  1  0.11219000  0.43694000  0.70216000  1.0
  C  C221  1  0.56306000  0.88781000  0.79784000  1.0
  C  C222  1  0.88781000  0.56306000  0.29784000  1.0
  C  C223  1  0.43694000  0.11219000  0.20216000  1.0
  C  C224  1  0.17325000  0.44765000  0.77365000  1.0
  C  C225  1  0.55235000  0.82675000  0.72635000  1.0
  C  C226  1  0.82675000  0.55235000  0.22635000  1.0
  C  C227  1  0.44765000  0.17325000  0.27365000  1.0
  C  C228  1  0.18569000  0.47543000  0.65609000  1.0
  C  C229  1  0.52457000  0.81431000  0.84392000  1.0
  C  C230  1  0.81431000  0.52457000  0.34391000  1.0
  C  C231  1  0.47543000  0.18569000  0.15609000  1.0
  C  C232  1  0.27648000  0.41989000  0.65215000  1.0
  C  C233  1  0.58011000  0.72352000  0.84785000  1.0
  C  C234  1  0.72352000  0.58011000  0.34785000  1.0
  C  C235  1  0.41989000  0.27648000  0.15215000  1.0
  S  S236  1  0.94938000  0.63964000  0.63006000  1.0
  S  S237  1  0.36037000  0.05063000  0.86994000  1.0
  S  S238  1  0.05063000  0.36037000  0.36994000  1.0
  S  S239  1  0.63963000  0.94937000  0.13006000  1.0
  N  N240  1  0.44751000  0.84502000  0.34016000  1.0
  N  N241  1  0.15498000  0.55249000  0.15984000  1.0
  N  N242  1  0.55249000  0.15499000  0.65984000  1.0
  N  N243  1  0.84501000  0.44751000  0.84016000  1.0
  O  O244  1  0.56360000  0.84465000  0.48415000  1.0
  O  O245  1  0.15535000  0.43640000  0.01585000  1.0
  O  O246  1  0.43640000  0.15535000  0.51585000  1.0
  O  O247  1  0.84465000  0.56360000  0.98415000  1.0
  O  O248  1  0.62887000  0.96983000  0.58344000  1.0
  O  O249  1  0.03017000  0.37113000  0.91656000  1.0
  O  O250  1  0.37113000  0.03018000  0.41656000  1.0
  O  O251  1  0.96983000  0.62888000  0.08344000  1.0
  O  O252  1  0.33112000  0.83154000  0.46498000  1.0
  O  O253  1  0.16846000  0.66888000  0.03502000  1.0
  O  O254  1  0.66888000  0.16846000  0.53502000  1.0
  O  O255  1  0.83154000  0.33112000  0.96498000  1.0
  O  O256  1  0.90902000  0.52500000  0.59323000  1.0
  O  O257  1  0.47500000  0.09099000  0.90678000  1.0
  O  O258  1  0.09099000  0.47500000  0.40677000  1.0
  O  O259  1  0.52500000  0.90901000  0.09323000  1.0
  O  O260  1  0.37097000  0.51005000  0.88263000  1.0
  O  O261  1  0.48995000  0.62903000  0.61736000  1.0
  O  O262  1  0.62903000  0.48995000  0.11736000  1.0
  O  O263  1  0.51005000  0.37097000  0.38264000  1.0
  O  O264  1  0.98297000  0.66809000  0.70217000  1.0
  O  O265  1  0.33192000  0.01704000  0.79783000  1.0
  O  O266  1  0.01704000  0.33192000  0.29783000  1.0
  O  O267  1  0.66809000  0.98297000  0.20217000  1.0
  O  O268  1  0.39387000  0.95898000  0.56331000  1.0
  O  O269  1  0.04102000  0.60614000  0.93669000  1.0
  O  O270  1  0.60614000  0.04102000  0.43669000  1.0
  O  O271  1  0.95898000  0.39387000  0.06331000  1.0
