# generated using pymatgen
data_KH8PtC5N(ClO)2
_symmetry_space_group_name_H-M   'P 1'
_cell_length_a   7.67515000
_cell_length_b   8.90041000
_cell_length_c   14.22220000
_cell_angle_alpha   90.00010000
_cell_angle_beta   90.00050000
_cell_angle_gamma   90.00000000
_symmetry_Int_Tables_number   1
_chemical_formula_structural   KH8PtC5N(ClO)2
_chemical_formula_sum   'K4 H32 Pt4 C20 N4 Cl8 O8'
_cell_volume   971.54666768
_cell_formula_units_Z   4
loop_
 _symmetry_equiv_pos_site_id
 _symmetry_equiv_pos_as_xyz
  1  'x, y, z'
loop_
 _atom_site_type_symbol
 _atom_site_label
 _atom_site_symmetry_multiplicity
 _atom_site_fract_x
 _atom_site_fract_y
 _atom_site_fract_z
 _atom_site_occupancy
  K  K0  1  0.50000000  0.49999000  0.50000000  1.0
  K  K1  1  0.00000000  0.49999000  0.50000000  1.0
  K  K2  1  0.00000000  0.00000000  0.50000000  1.0
  K  K3  1  0.50000000  0.00001000  0.50000000  1.0
  H  H4  1  0.55779000  0.81759000  0.75329000  1.0
  H  H5  1  0.44222000  0.18241000  0.75330000  1.0
  H  H6  1  0.55778000  0.18241000  0.24670000  1.0
  H  H7  1  0.44222000  0.81759000  0.24670000  1.0
  H  H8  1  0.94591000  0.88438000  0.75992000  1.0
  H  H9  1  0.05409000  0.11562000  0.75992000  1.0
  H  H10  1  0.94591000  0.11562000  0.24008000  1.0
  H  H11  1  0.05409000  0.88438000  0.24008000  1.0
  H  H12  1  0.77100000  0.00882000  0.78592000  1.0
  H  H13  1  0.22900000  0.99118000  0.78593000  1.0
  H  H14  1  0.77100000  0.99118000  0.21408000  1.0
  H  H15  1  0.22900000  0.00882000  0.21408000  1.0
  H  H16  1  0.72228000  0.88119000  0.93906000  1.0
  H  H17  1  0.27772000  0.11880000  0.93907000  1.0
  H  H18  1  0.72228000  0.11880000  0.06093000  1.0
  H  H19  1  0.27771000  0.88120000  0.06094000  1.0
  H  H20  1  0.95387000  0.88524000  0.93037000  1.0
  H  H21  1  0.04614000  0.11476000  0.93037000  1.0
  H  H22  1  0.95386000  0.11476000  0.06963000  1.0
  H  H23  1  0.04613000  0.88524000  0.06963000  1.0
  H  H24  1  0.96383000  0.63456000  0.86250000  1.0
  H  H25  1  0.03618000  0.36544000  0.86250000  1.0
  H  H26  1  0.96382000  0.36544000  0.13751000  1.0
  H  H27  1  0.03618000  0.63456000  0.13751000  1.0
  H  H28  1  0.80335000  0.61223000  0.95299000  1.0
  H  H29  1  0.19665000  0.38777000  0.95300000  1.0
  H  H30  1  0.80335000  0.38776000  0.04700000  1.0
  H  H31  1  0.19665000  0.61224000  0.04701000  1.0
  H  H32  1  0.58163000  0.63631000  0.84762000  1.0
  H  H33  1  0.41837000  0.36368000  0.84762000  1.0
  H  H34  1  0.58163000  0.36368000  0.15238000  1.0
  H  H35  1  0.41837000  0.63631000  0.15238000  1.0
  Pt  Pt36  1  0.72699000  0.45170000  0.73601000  1.0
  Pt  Pt37  1  0.27302000  0.54830000  0.73601000  1.0
  Pt  Pt38  1  0.72698000  0.54830000  0.26399000  1.0
  Pt  Pt39  1  0.27301000  0.45171000  0.26399000  1.0
  C  C40  1  0.73486000  0.74178000  0.65054000  1.0
  C  C41  1  0.26515000  0.25822000  0.65054000  1.0
  C  C42  1  0.73485000  0.25822000  0.34946000  1.0
  C  C43  1  0.26515000  0.74178000  0.34946000  1.0
  C  C44  1  0.69367000  0.77785000  0.75185000  1.0
  C  C45  1  0.30634000  0.22215000  0.75185000  1.0
  C  C46  1  0.69366000  0.22215000  0.24815000  1.0
  C  C47  1  0.30634000  0.77785000  0.24815000  1.0
  C  C48  1  0.81869000  0.89366000  0.79472000  1.0
  C  C49  1  0.18132000  0.10633000  0.79473000  1.0
  C  C50  1  0.81868000  0.10634000  0.20528000  1.0
  C  C51  1  0.18131000  0.89366000  0.20528000  1.0
  C  C52  1  0.83467000  0.84346000  0.89725000  1.0
  C  C53  1  0.16533000  0.15654000  0.89725000  1.0
  C  C54  1  0.83466000  0.15653000  0.10275000  1.0
  C  C55  1  0.16533000  0.84346000  0.10275000  1.0
  C  C56  1  0.83694000  0.67301000  0.88858000  1.0
  C  C57  1  0.16306000  0.32698000  0.88858000  1.0
  C  C58  1  0.83694000  0.32698000  0.11142000  1.0
  C  C59  1  0.16306000  0.67302000  0.11142000  1.0
  N  N60  1  0.70198000  0.64132000  0.81500000  1.0
  N  N61  1  0.29803000  0.35868000  0.81500000  1.0
  N  N62  1  0.70197000  0.35867000  0.18500000  1.0
  N  N63  1  0.29803000  0.64133000  0.18500000  1.0
  Cl  Cl64  1  0.75107000  0.25221000  0.63128000  1.0
  Cl  Cl65  1  0.24893000  0.74779000  0.63128000  1.0
  Cl  Cl66  1  0.75107000  0.74779000  0.36872000  1.0
  Cl  Cl67  1  0.24893000  0.25222000  0.36872000  1.0
  Cl  Cl68  1  0.69692000  0.29662000  0.86481000  1.0
  Cl  Cl69  1  0.30309000  0.70338000  0.86481000  1.0
  Cl  Cl70  1  0.69691000  0.70337000  0.13519000  1.0
  Cl  Cl71  1  0.30308000  0.29663000  0.13519000  1.0
  O  O72  1  0.75254000  0.59965000  0.62725000  1.0
  O  O73  1  0.24747000  0.40035000  0.62725000  1.0
  O  O74  1  0.75253000  0.40035000  0.37275000  1.0
  O  O75  1  0.24746000  0.59966000  0.37275000  1.0
  O  O76  1  0.74883000  0.84415000  0.59159000  1.0
  O  O77  1  0.25117000  0.15586000  0.59160000  1.0
  O  O78  1  0.74883000  0.15586000  0.40841000  1.0
  O  O79  1  0.25117000  0.84416000  0.40840000  1.0
