# generated using pymatgen
data_HgH8C12Br2N4O
_symmetry_space_group_name_H-M   'P 1'
_cell_length_a   5.46549000
_cell_length_b   16.33680000
_cell_length_c   16.48600000
_cell_angle_alpha   90.00000000
_cell_angle_beta   93.19960000
_cell_angle_gamma   90.00000000
_symmetry_Int_Tables_number   1
_chemical_formula_structural   HgH8C12Br2N4O
_chemical_formula_sum   'Hg4 H32 C48 Br8 N16 O4'
_cell_volume   1469.71749995
_cell_formula_units_Z   4
loop_
 _symmetry_equiv_pos_site_id
 _symmetry_equiv_pos_as_xyz
  1  'x, y, z'
loop_
 _atom_site_type_symbol
 _atom_site_label
 _atom_site_symmetry_multiplicity
 _atom_site_fract_x
 _atom_site_fract_y
 _atom_site_fract_z
 _atom_site_occupancy
  Hg  Hg0  1  0.87229000  0.19454000  0.86503000  1.0
  Hg  Hg1  1  0.62771000  0.69454000  0.63497000  1.0
  Hg  Hg2  1  0.12771000  0.80545000  0.13497000  1.0
  Hg  Hg3  1  0.37229000  0.30546000  0.36503000  1.0
  H  H4  1  0.72148000  0.30959000  0.02664000  1.0
  H  H5  1  0.77852000  0.80959000  0.47336000  1.0
  H  H6  1  0.27852000  0.69041000  0.97336000  1.0
  H  H7  1  0.22148000  0.19041000  0.52664000  1.0
  H  H8  1  0.06393000  0.45011000  0.96369000  1.0
  H  H9  1  0.43608000  0.95011000  0.53631000  1.0
  H  H10  1  0.93608000  0.54989000  0.03631000  1.0
  H  H11  1  0.56393000  0.04989000  0.46369000  1.0
  H  H12  1  0.05121000  0.38454000  0.82788000  1.0
  H  H13  1  0.44879000  0.88454000  0.67212000  1.0
  H  H14  1  0.94879000  0.61546000  0.17212000  1.0
  H  H15  1  0.55121000  0.11546000  0.32788000  1.0
  H  H16  1  0.39166000  0.28846000  0.79507000  1.0
  H  H17  1  0.10834000  0.78846000  0.70493000  1.0
  H  H18  1  0.60834000  0.71154000  0.20493000  1.0
  H  H19  1  0.89166000  0.21154000  0.29507000  1.0
  H  H20  1  0.92604000  0.36265000  0.24243000  1.0
  H  H21  1  0.57396000  0.86265000  0.25757000  1.0
  H  H22  1  0.07396000  0.63735000  0.75757000  1.0
  H  H23  1  0.42604000  0.13735000  0.74243000  1.0
  H  H24  1  0.58445000  0.58833000  0.31449000  1.0
  H  H25  1  0.91555000  0.08832000  0.18551000  1.0
  H  H26  1  0.41555000  0.41167000  0.68551000  1.0
  H  H27  1  0.08445000  0.91168000  0.81449000  1.0
  H  H28  1  0.90783000  0.59787000  0.42856000  1.0
  H  H29  1  0.59217000  0.09787000  0.07144000  1.0
  H  H30  1  0.09217000  0.40213000  0.57144000  1.0
  H  H31  1  0.40783000  0.90213000  0.92856000  1.0
  H  H32  1  0.22224000  0.48605000  0.44433000  1.0
  H  H33  1  0.27776000  0.98605000  0.05567000  1.0
  H  H34  1  0.77775000  0.51395000  0.55567000  1.0
  H  H35  1  0.72225000  0.01395000  0.94433000  1.0
  C  C36  1  0.57242000  0.32905000  0.98410000  1.0
  C  C37  1  0.92758000  0.82905000  0.51590000  1.0
  C  C38  1  0.42758000  0.67095000  0.01590000  1.0
  C  C39  1  0.07242000  0.17095000  0.48410000  1.0
  C  C40  1  0.39672000  0.38629000  0.00620000  1.0
  C  C41  1  0.10328000  0.88629000  0.49380000  1.0
  C  C42  1  0.60328000  0.61371000  0.99380000  1.0
  C  C43  1  0.89672000  0.11371000  0.50620000  1.0
  C  C44  1  0.20473000  0.40616000  0.94945000  1.0
  C  C45  1  0.29527000  0.90617000  0.55055000  1.0
  C  C46  1  0.79527000  0.59384000  0.05055000  1.0
  C  C47  1  0.70473000  0.09384000  0.44945000  1.0
  C  C48  1  0.19794000  0.37030000  0.87314000  1.0
  C  C49  1  0.30206000  0.87030000  0.62686000  1.0
  C  C50  1  0.80206000  0.62970000  0.12686000  1.0
  C  C51  1  0.69794000  0.12970000  0.37314000  1.0
  C  C52  1  0.38473000  0.31616000  0.85514000  1.0
  C  C53  1  0.11527000  0.81616000  0.64486000  1.0
  C  C54  1  0.61527000  0.68384000  0.14486000  1.0
  C  C55  1  0.88473000  0.18384000  0.35514000  1.0
  C  C56  1  0.40994000  0.42703000  0.08434000  1.0
  C  C57  1  0.09006000  0.92703000  0.41566000  1.0
  C  C58  1  0.59006000  0.57297000  0.91566000  1.0
  C  C59  1  0.90994000  0.07297000  0.58434000  1.0
  C  C60  1  0.55679000  0.46764000  0.20065000  1.0
  C  C61  1  0.94322000  0.96764000  0.29934000  1.0
  C  C62  1  0.44321000  0.53236000  0.79935000  1.0
  C  C63  1  0.05679000  0.03236000  0.70066000  1.0
  C  C64  1  0.91385000  0.41518000  0.28295000  1.0
  C  C65  1  0.58615000  0.91518000  0.21705000  1.0
  C  C66  1  0.08615000  0.58482000  0.71705000  1.0
  C  C67  1  0.41385000  0.08483000  0.78295000  1.0
  C  C68  1  0.73155000  0.47474000  0.26954000  1.0
  C  C69  1  0.76846000  0.97474000  0.23046000  1.0
  C  C70  1  0.26845000  0.52526000  0.73046000  1.0
  C  C71  1  0.23154000  0.02526000  0.76954000  1.0
  C  C72  1  0.72505000  0.54132000  0.32331000  1.0
  C  C73  1  0.77495000  0.04132000  0.17669000  1.0
  C  C74  1  0.27495000  0.45868000  0.67669000  1.0
  C  C75  1  0.22504000  0.95868000  0.82331000  1.0
  C  C76  1  0.90343000  0.54635000  0.38658000  1.0
  C  C77  1  0.59658000  0.04635000  0.11342000  1.0
  C  C78  1  0.09658000  0.45365000  0.61342000  1.0
  C  C79  1  0.40343000  0.95365000  0.88658000  1.0
  C  C80  1  0.07867000  0.48445000  0.39556000  1.0
  C  C81  1  0.42133000  0.98445000  0.10444000  1.0
  C  C82  1  0.92133000  0.51555000  0.60444000  1.0
  C  C83  1  0.57867000  0.01555000  0.89556000  1.0
  Br  Br84  1  0.84793000  0.24537000  0.71852000  1.0
  Br  Br85  1  0.65207000  0.74537000  0.78148000  1.0
  Br  Br86  1  0.15206000  0.75463000  0.28148000  1.0
  Br  Br87  1  0.34794000  0.25463000  0.21852000  1.0
  Br  Br88  1  0.08569000  0.15744000  0.99961000  1.0
  Br  Br89  1  0.41431000  0.65744000  0.50039000  1.0
  Br  Br90  1  0.91431000  0.84255000  0.00039000  1.0
  Br  Br91  1  0.58569000  0.34256000  0.49961000  1.0
  N  N92  1  0.56555000  0.29579000  0.90979000  1.0
  N  N93  1  0.93445000  0.79579000  0.59020000  1.0
  N  N94  1  0.43445000  0.70421000  0.09021000  1.0
  N  N95  1  0.06555000  0.20421000  0.40980000  1.0
  N  N96  1  0.24884000  0.47743000  0.11303000  1.0
  N  N97  1  0.25116000  0.97743000  0.38697000  1.0
  N  N98  1  0.75116000  0.52257000  0.88697000  1.0
  N  N99  1  0.74884000  0.02257000  0.61303000  1.0
  N  N100  1  0.34369000  0.50369000  0.18823000  1.0
  N  N101  1  0.15631000  0.00369000  0.31177000  1.0
  N  N102  1  0.65631000  0.49631000  0.81177000  1.0
  N  N103  1  0.84369000  0.99631000  0.68823000  1.0
  N  N104  1  0.08092000  0.42004000  0.34502000  1.0
  N  N105  1  0.41908000  0.92004000  0.15498000  1.0
  N  N106  1  0.91908000  0.57996000  0.65498000  1.0
  N  N107  1  0.58092000  0.07996000  0.84502000  1.0
  O  O108  1  0.61152000  0.41836000  0.13661000  1.0
  O  O109  1  0.88849000  0.91836000  0.36339000  1.0
  O  O110  1  0.38848000  0.58164000  0.86339000  1.0
  O  O111  1  0.11151000  0.08164000  0.63661000  1.0
