# generated using pymatgen
data_LaP3H17C12O13
_symmetry_space_group_name_H-M   'P 1'
_cell_length_a   9.89159000
_cell_length_b   11.00080000
_cell_length_c   11.73360000
_cell_angle_alpha   77.78300000
_cell_angle_beta   80.93240000
_cell_angle_gamma   87.04170000
_symmetry_Int_Tables_number   1
_chemical_formula_structural   LaP3H17C12O13
_chemical_formula_sum   'La2 P6 H34 C24 O26'
_cell_volume   1232.06579949
_cell_formula_units_Z   2
loop_
 _symmetry_equiv_pos_site_id
 _symmetry_equiv_pos_as_xyz
  1  'x, y, z'
loop_
 _atom_site_type_symbol
 _atom_site_label
 _atom_site_symmetry_multiplicity
 _atom_site_fract_x
 _atom_site_fract_y
 _atom_site_fract_z
 _atom_site_occupancy
  La  La0  1  0.98964000  0.78147000  0.34629000  1.0
  La  La1  1  0.01036000  0.21853000  0.65370000  1.0
  P  P2  1  0.23161000  0.61176000  0.27092000  1.0
  P  P3  1  0.76839000  0.38824000  0.72909000  1.0
  P  P4  1  0.12272000  0.86170000  0.58521000  1.0
  P  P5  1  0.87728000  0.13830000  0.41478000  1.0
  P  P6  1  0.84397000  0.92232000  0.13040000  1.0
  P  P7  1  0.15602000  0.07767000  0.86959000  1.0
  H  H8  1  0.33858000  0.50369000  0.15073000  1.0
  H  H9  1  0.66144000  0.49631000  0.84928000  1.0
  H  H10  1  0.55935000  0.70532000  0.16375000  1.0
  H  H11  1  0.44068000  0.29466000  0.83629000  1.0
  H  H12  1  0.04409000  0.96233000  0.73206000  1.0
  H  H13  1  0.95591000  0.03767000  0.26794000  1.0
  H  H14  1  0.27108000  0.94432000  0.28534000  1.0
  H  H15  1  0.72891000  0.05568000  0.71464000  1.0
  H  H16  1  0.92743000  0.94008000  0.94146000  1.0
  H  H17  1  0.07256000  0.05991000  0.05853000  1.0
  H  H18  1  0.71365000  0.13405000  0.26122000  1.0
  H  H19  1  0.28634000  0.86594000  0.73878000  1.0
  H  H20  1  0.84081000  0.54985000  0.51474000  1.0
  H  H21  1  0.15920000  0.45015000  0.48526000  1.0
  H  H22  1  0.74132000  0.60522000  0.42207000  1.0
  H  H23  1  0.25868000  0.39477000  0.57794000  1.0
  H  H24  1  0.39477000  0.74806000  0.30162000  1.0
  H  H25  1  0.60522000  0.25195000  0.69840000  1.0
  H  H26  1  0.30174000  0.64467000  0.52365000  1.0
  H  H27  1  0.69825000  0.35534000  0.47636000  1.0
  H  H28  1  0.61482000  0.47813000  0.30075000  1.0
  H  H29  1  0.38518000  0.52188000  0.69926000  1.0
  H  H30  1  0.17211000  0.04597000  0.43431000  1.0
  H  H31  1  0.82790000  0.95403000  0.56568000  1.0
  H  H32  1  0.33230000  0.17565000  0.46761000  1.0
  H  H33  1  0.66771000  0.82434000  0.53239000  1.0
  H  H34  1  0.44034000  0.78768000  0.48879000  1.0
  H  H35  1  0.55967000  0.21231000  0.51121000  1.0
  H  H36  1  0.77455000  0.13500000  0.06866000  1.0
  H  H37  1  0.22545000  0.86501000  0.93134000  1.0
  H  H38  1  0.48650000  0.92968000  0.21723000  1.0
  H  H39  1  0.51350000  0.07033000  0.78277000  1.0
  H  H40  1  0.69997000  0.12351000  0.88866000  1.0
  H  H41  1  0.30002000  0.87650000  0.11133000  1.0
  C  C42  1  0.40499000  0.65091000  0.29054000  1.0
  C  C43  1  0.59500000  0.34910000  0.70947000  1.0
  C  C44  1  0.45379000  0.57182000  0.39854000  1.0
  C  C45  1  0.54620000  0.42819000  0.60148000  1.0
  C  C46  1  0.38955000  0.58220000  0.51161000  1.0
  C  C47  1  0.61044000  0.41780000  0.48841000  1.0
  C  C48  1  0.56462000  0.48852000  0.38785000  1.0
  C  C49  1  0.43537000  0.51148000  0.61217000  1.0
  C  C50  1  0.22792000  0.95666000  0.45389000  1.0
  C  C51  1  0.77209000  0.04333000  0.54610000  1.0
  C  C52  1  0.36990000  0.97866000  0.47442000  1.0
  C  C53  1  0.63012000  0.02133000  0.52557000  1.0
  C  C54  1  0.40506000  0.09782000  0.48266000  1.0
  C  C55  1  0.59495000  0.90217000  0.51733000  1.0
  C  C56  1  0.46650000  0.88148000  0.49185000  1.0
  C  C57  1  0.53351000  0.11851000  0.50815000  1.0
  C  C58  1  0.71686000  0.05346000  0.12199000  1.0
  C  C59  1  0.28314000  0.94654000  0.87800000  1.0
  C  C60  1  0.60392000  0.02775000  0.05868000  1.0
  C  C61  1  0.39608000  0.97226000  0.94131000  1.0
  C  C62  1  0.49055000  0.95981000  0.12185000  1.0
  C  C63  1  0.50945000  0.04020000  0.87814000  1.0
  C  C64  1  0.61283000  0.06763000  0.93645000  1.0
  C  C65  1  0.38717000  0.93237000  0.06354000  1.0
  O  O66  1  0.16698000  0.72366000  0.19583000  1.0
  O  O67  1  0.83302000  0.27634000  0.80417000  1.0
  O  O68  1  0.25693000  0.49362000  0.21083000  1.0
  O  O69  1  0.74308000  0.50638000  0.78918000  1.0
  O  O70  1  0.13704000  0.57621000  0.38868000  1.0
  O  O71  1  0.86296000  0.42378000  0.61132000  1.0
  O  O72  1  0.49025000  0.64097000  0.18219000  1.0
  O  O73  1  0.50976000  0.35904000  0.81782000  1.0
  O  O74  1  0.20377000  0.77933000  0.66969000  1.0
  O  O75  1  0.79623000  0.22066000  0.33030000  1.0
  O  O76  1  0.01478000  0.80088000  0.53652000  1.0
  O  O77  1  0.98522000  0.19912000  0.46347000  1.0
  O  O78  1  0.04831000  0.97366000  0.64356000  1.0
  O  O79  1  0.95170000  0.02635000  0.35643000  1.0
  O  O80  1  0.22492000  0.89195000  0.35755000  1.0
  O  O81  1  0.77508000  0.10805000  0.64244000  1.0
  O  O82  1  0.79793000  0.81136000  0.22909000  1.0
  O  O83  1  0.20206000  0.18864000  0.77091000  1.0
  O  O84  1  0.97941000  0.97178000  0.15649000  1.0
  O  O85  1  0.02058000  0.02821000  0.84350000  1.0
  O  O86  1  0.86961000  0.88085000  0.00835000  1.0
  O  O87  1  0.13038000  0.11915000  0.99165000  1.0
  O  O88  1  0.66393000  0.06893000  0.23721000  1.0
  O  O89  1  0.33607000  0.93106000  0.76279000  1.0
  O  O90  1  0.82071000  0.62595000  0.45391000  1.0
  O  O91  1  0.17930000  0.37404000  0.54609000  1.0
