# generated using pymatgen
data_CuH7C13NO4
_symmetry_space_group_name_H-M   'P 1'
_cell_length_a   6.97121000
_cell_length_b   17.26120000
_cell_length_c   20.42540000
_cell_angle_alpha   90.00010000
_cell_angle_beta   89.99930000
_cell_angle_gamma   89.99930000
_symmetry_Int_Tables_number   1
_chemical_formula_structural   CuH7C13NO4
_chemical_formula_sum   'Cu8 H56 C104 N8 O32'
_cell_volume   2457.81799952
_cell_formula_units_Z   8
loop_
 _symmetry_equiv_pos_site_id
 _symmetry_equiv_pos_as_xyz
  1  'x, y, z'
loop_
 _atom_site_type_symbol
 _atom_site_label
 _atom_site_symmetry_multiplicity
 _atom_site_fract_x
 _atom_site_fract_y
 _atom_site_fract_z
 _atom_site_occupancy
  Cu  Cu0  1  0.84635000  0.59515000  0.50858000  1.0
  Cu  Cu1  1  0.65365000  0.59514000  0.99142000  1.0
  Cu  Cu2  1  0.15372000  0.90485000  0.00858000  1.0
  Cu  Cu3  1  0.34637000  0.90486000  0.49143000  1.0
  Cu  Cu4  1  0.15363000  0.40486000  0.49142000  1.0
  Cu  Cu5  1  0.34633000  0.40484000  0.00858000  1.0
  Cu  Cu6  1  0.84628000  0.09515000  0.99142000  1.0
  Cu  Cu7  1  0.65364000  0.09515000  0.50857000  1.0
  H  H8  1  0.63915000  0.34624000  0.49312000  1.0
  H  H9  1  0.86083000  0.34624000  0.00688000  1.0
  H  H10  1  0.36085000  0.15375000  0.99312000  1.0
  H  H11  1  0.13918000  0.15377000  0.50689000  1.0
  H  H12  1  0.36084000  0.65377000  0.50688000  1.0
  H  H13  1  0.13914000  0.65378000  0.99312000  1.0
  H  H14  1  0.63914000  0.84623000  0.00688000  1.0
  H  H15  1  0.86082000  0.84624000  0.49312000  1.0
  H  H16  1  0.44294000  0.25166000  0.31109000  1.0
  H  H17  1  0.05706000  0.25166000  0.18890000  1.0
  H  H18  1  0.55704000  0.24835000  0.81109000  1.0
  H  H19  1  0.94294000  0.24835000  0.68891000  1.0
  H  H20  1  0.55706000  0.74834000  0.68891000  1.0
  H  H21  1  0.94295000  0.74834000  0.81109000  1.0
  H  H22  1  0.44299000  0.75165000  0.18891000  1.0
  H  H23  1  0.05705000  0.75165000  0.31110000  1.0
  H  H24  1  0.60465000  0.49381000  0.32442000  1.0
  H  H25  1  0.89536000  0.49381000  0.17558000  1.0
  H  H26  1  0.39538000  0.00619000  0.82442000  1.0
  H  H27  1  0.10467000  0.00619000  0.67558000  1.0
  H  H28  1  0.39537000  0.50619000  0.67557000  1.0
  H  H29  1  0.10460000  0.50619000  0.82443000  1.0
  H  H30  1  0.60463000  0.99381000  0.17557000  1.0
  H  H31  1  0.89536000  0.99381000  0.32442000  1.0
  H  H32  1  0.53339000  0.26140000  0.21205000  1.0
  H  H33  1  0.96666000  0.26140000  0.28795000  1.0
  H  H34  1  0.46664000  0.23861000  0.71205000  1.0
  H  H35  1  0.03336000  0.23860000  0.78795000  1.0
  H  H36  1  0.46667000  0.73859000  0.78794000  1.0
  H  H37  1  0.03336000  0.73860000  0.71205000  1.0
  H  H38  1  0.53335000  0.76139000  0.28795000  1.0
  H  H39  1  0.96668000  0.76139000  0.21205000  1.0
  H  H40  1  0.46349000  0.27907000  0.09374000  1.0
  H  H41  1  0.03651000  0.27907000  0.40626000  1.0
  H  H42  1  0.53650000  0.22094000  0.59374000  1.0
  H  H43  1  0.96345000  0.22092000  0.90626000  1.0
  H  H44  1  0.53651000  0.72092000  0.90626000  1.0
  H  H45  1  0.96350000  0.72092000  0.59374000  1.0
  H  H46  1  0.46349000  0.77907000  0.40626000  1.0
  H  H47  1  0.03657000  0.77907000  0.09374000  1.0
  H  H48  1  0.37601000  0.51547000  0.11751000  1.0
  H  H49  1  0.12398000  0.51547000  0.38248000  1.0
  H  H50  1  0.62401000  0.98453000  0.61751000  1.0
  H  H51  1  0.87598000  0.98453000  0.88248000  1.0
  H  H52  1  0.62398000  0.48452000  0.88248000  1.0
  H  H53  1  0.87601000  0.48452000  0.61752000  1.0
  H  H54  1  0.37602000  0.01547000  0.38248000  1.0
  H  H55  1  0.12399000  0.01547000  0.11752000  1.0
  H  H56  1  0.43768000  0.50741000  0.23671000  1.0
  H  H57  1  0.06234000  0.50741000  0.26328000  1.0
  H  H58  1  0.56235000  0.99260000  0.73671000  1.0
  H  H59  1  0.93767000  0.99259000  0.76328000  1.0
  H  H60  1  0.56233000  0.49258000  0.76328000  1.0
  H  H61  1  0.93769000  0.49258000  0.73672000  1.0
  H  H62  1  0.43767000  0.00741000  0.26328000  1.0
  H  H63  1  0.06232000  0.00741000  0.23672000  1.0
  C  C64  1  0.69859000  0.49268000  0.44945000  1.0
  C  C65  1  0.80140000  0.49267000  0.05055000  1.0
  C  C66  1  0.30147000  0.00732000  0.94946000  1.0
  C  C67  1  0.19862000  0.00733000  0.55055000  1.0
  C  C68  1  0.30140000  0.50733000  0.55054000  1.0
  C  C69  1  0.19856000  0.50734000  0.94946000  1.0
  C  C70  1  0.69853000  0.99267000  0.05054000  1.0
  C  C71  1  0.80140000  0.99268000  0.44945000  1.0
  C  C72  1  0.51588000  0.21122000  0.43233000  1.0
  C  C73  1  0.98413000  0.21122000  0.06767000  1.0
  C  C74  1  0.48410000  0.28877000  0.93234000  1.0
  C  C75  1  0.01588000  0.28879000  0.56768000  1.0
  C  C76  1  0.48410000  0.78879000  0.56767000  1.0
  C  C77  1  0.01585000  0.78878000  0.93233000  1.0
  C  C78  1  0.51590000  0.71122000  0.06767000  1.0
  C  C79  1  0.98409000  0.71122000  0.43233000  1.0
  C  C80  1  0.62031000  0.42670000  0.41210000  1.0
  C  C81  1  0.87968000  0.42670000  0.08789000  1.0
  C  C82  1  0.37971000  0.07329000  0.91211000  1.0
  C  C83  1  0.12032000  0.07331000  0.58790000  1.0
  C  C84  1  0.37970000  0.57331000  0.58790000  1.0
  C  C85  1  0.12031000  0.57330000  0.91211000  1.0
  C  C86  1  0.62030000  0.92670000  0.08789000  1.0
  C  C87  1  0.87969000  0.92670000  0.41211000  1.0
  C  C88  1  0.60045000  0.35396000  0.44182000  1.0
  C  C89  1  0.89954000  0.35396000  0.05818000  1.0
  C  C90  1  0.39957000  0.14604000  0.94181000  1.0
  C  C91  1  0.10048000  0.14605000  0.55819000  1.0
  C  C92  1  0.39954000  0.64605000  0.55818000  1.0
  C  C93  1  0.10044000  0.64605000  0.94181000  1.0
  C  C94  1  0.60045000  0.85395000  0.05818000  1.0
  C  C95  1  0.89953000  0.85396000  0.44182000  1.0
  C  C96  1  0.53543000  0.29153000  0.40430000  1.0
  C  C97  1  0.96457000  0.29152000  0.09570000  1.0
  C  C98  1  0.46457000  0.20847000  0.90430000  1.0
  C  C99  1  0.03544000  0.20848000  0.59570000  1.0
  C  C100  1  0.46457000  0.70847000  0.59570000  1.0
  C  C101  1  0.03541000  0.70848000  0.90430000  1.0
  C  C102  1  0.53544000  0.79152000  0.09570000  1.0
  C  C103  1  0.96456000  0.79153000  0.40430000  1.0
  C  C104  1  0.49507000  0.30198000  0.33793000  1.0
  C  C105  1  0.00493000  0.30198000  0.16206000  1.0
  C  C106  1  0.50492000  0.19801000  0.83793000  1.0
  C  C107  1  0.99507000  0.19802000  0.66207000  1.0
  C  C108  1  0.50493000  0.69802000  0.66206000  1.0
  C  C109  1  0.99506000  0.69802000  0.83793000  1.0
  C  C110  1  0.49509000  0.80197000  0.16206000  1.0
  C  C111  1  0.00493000  0.80198000  0.33794000  1.0
  C  C112  1  0.52012000  0.37405000  0.30718000  1.0
  C  C113  1  0.97989000  0.37404000  0.19282000  1.0
  C  C114  1  0.47988000  0.12595000  0.80717000  1.0
  C  C115  1  0.02012000  0.12596000  0.69282000  1.0
  C  C116  1  0.47989000  0.62595000  0.69281000  1.0
  C  C117  1  0.02011000  0.62596000  0.80718000  1.0
  C  C118  1  0.52013000  0.87404000  0.19282000  1.0
  C  C119  1  0.97989000  0.87404000  0.30718000  1.0
  C  C120  1  0.58041000  0.43674000  0.34560000  1.0
  C  C121  1  0.91959000  0.43674000  0.15440000  1.0
  C  C122  1  0.41960000  0.06325000  0.84560000  1.0
  C  C123  1  0.08042000  0.06326000  0.65440000  1.0
  C  C124  1  0.41960000  0.56326000  0.65440000  1.0
  C  C125  1  0.08039000  0.56326000  0.84560000  1.0
  C  C126  1  0.58040000  0.93674000  0.15440000  1.0
  C  C127  1  0.91960000  0.93674000  0.34560000  1.0
  C  C128  1  0.48744000  0.38282000  0.23618000  1.0
  C  C129  1  0.01258000  0.38282000  0.26381000  1.0
  C  C130  1  0.51258000  0.11718000  0.73618000  1.0
  C  C131  1  0.98743000  0.11718000  0.76382000  1.0
  C  C132  1  0.51258000  0.61717000  0.76381000  1.0
  C  C133  1  0.98744000  0.61718000  0.73619000  1.0
  C  C134  1  0.48743000  0.88282000  0.26382000  1.0
  C  C135  1  0.01258000  0.88282000  0.23619000  1.0
  C  C136  1  0.49609000  0.31873000  0.19394000  1.0
  C  C137  1  0.00394000  0.31873000  0.30605000  1.0
  C  C138  1  0.50392000  0.18127000  0.69395000  1.0
  C  C139  1  0.99607000  0.18127000  0.80606000  1.0
  C  C140  1  0.50394000  0.68127000  0.80605000  1.0
  C  C141  1  0.99608000  0.68126000  0.69395000  1.0
  C  C142  1  0.49607000  0.81873000  0.30606000  1.0
  C  C143  1  0.00396000  0.81873000  0.19395000  1.0
  C  C144  1  0.45946000  0.32773000  0.12771000  1.0
  C  C145  1  0.04055000  0.32773000  0.37228000  1.0
  C  C146  1  0.54055000  0.17228000  0.62772000  1.0
  C  C147  1  0.95942000  0.17227000  0.87229000  1.0
  C  C148  1  0.54055000  0.67226000  0.87228000  1.0
  C  C149  1  0.95946000  0.67226000  0.62772000  1.0
  C  C150  1  0.45945000  0.82773000  0.37229000  1.0
  C  C151  1  0.04059000  0.82773000  0.12772000  1.0
  C  C152  1  0.40984000  0.46015000  0.14070000  1.0
  C  C153  1  0.09015000  0.46015000  0.35930000  1.0
  C  C154  1  0.59017000  0.03985000  0.64070000  1.0
  C  C155  1  0.90981000  0.03985000  0.85930000  1.0
  C  C156  1  0.59015000  0.53984000  0.85930000  1.0
  C  C157  1  0.90985000  0.53984000  0.64070000  1.0
  C  C158  1  0.40985000  0.96015000  0.35930000  1.0
  C  C159  1  0.09017000  0.96015000  0.14070000  1.0
  C  C160  1  0.44617000  0.45487000  0.20736000  1.0
  C  C161  1  0.05384000  0.45487000  0.29263000  1.0
  C  C162  1  0.55384000  0.04514000  0.70736000  1.0
  C  C163  1  0.94617000  0.04513000  0.79264000  1.0
  C  C164  1  0.55383000  0.54513000  0.79264000  1.0
  C  C165  1  0.94618000  0.54513000  0.70737000  1.0
  C  C166  1  0.44617000  0.95487000  0.29264000  1.0
  C  C167  1  0.05383000  0.95486000  0.20737000  1.0
  N  N168  1  0.41512000  0.39715000  0.10150000  1.0
  N  N169  1  0.08486000  0.39716000  0.39850000  1.0
  N  N170  1  0.58487000  0.10285000  0.60150000  1.0
  N  N171  1  0.91509000  0.10284000  0.89850000  1.0
  N  N172  1  0.58486000  0.60284000  0.89850000  1.0
  N  N173  1  0.91513000  0.60284000  0.60150000  1.0
  N  N174  1  0.41514000  0.89716000  0.39851000  1.0
  N  N175  1  0.08491000  0.89715000  0.10150000  1.0
  O  O176  1  0.71160000  0.56040000  0.42437000  1.0
  O  O177  1  0.78839000  0.56039000  0.07563000  1.0
  O  O178  1  0.28839000  0.93961000  0.92437000  1.0
  O  O179  1  0.21162000  0.93961000  0.57563000  1.0
  O  O180  1  0.28837000  0.43961000  0.57563000  1.0
  O  O181  1  0.21158000  0.43962000  0.92438000  1.0
  O  O182  1  0.71163000  0.06038000  0.07564000  1.0
  O  O183  1  0.78838000  0.06039000  0.42437000  1.0
  O  O184  1  0.76389000  0.48303000  0.50799000  1.0
  O  O185  1  0.73613000  0.48303000  0.99201000  1.0
  O  O186  1  0.23628000  0.01695000  0.00801000  1.0
  O  O187  1  0.26389000  0.01697000  0.49201000  1.0
  O  O188  1  0.23613000  0.51697000  0.49200000  1.0
  O  O189  1  0.26383000  0.51698000  0.00799000  1.0
  O  O190  1  0.76369000  0.98305000  0.99198000  1.0
  O  O191  1  0.73613000  0.98304000  0.50799000  1.0
  O  O192  1  0.60917000  0.20161000  0.48727000  1.0
  O  O193  1  0.89081000  0.20160000  0.01274000  1.0
  O  O194  1  0.39077000  0.29840000  0.98726000  1.0
  O  O195  1  0.10918000  0.29841000  0.51273000  1.0
  O  O196  1  0.39081000  0.79840000  0.51273000  1.0
  O  O197  1  0.10914000  0.79840000  0.98726000  1.0
  O  O198  1  0.60920000  0.70161000  0.01273000  1.0
  O  O199  1  0.89080000  0.70161000  0.48728000  1.0
  O  O200  1  0.42325000  0.16062000  0.40278000  1.0
  O  O201  1  0.07679000  0.16062000  0.09720000  1.0
  O  O202  1  0.57672000  0.33937000  0.90279000  1.0
  O  O203  1  0.92325000  0.33940000  0.59722000  1.0
  O  O204  1  0.57672000  0.83940000  0.59721000  1.0
  O  O205  1  0.92321000  0.83938000  0.90279000  1.0
  O  O206  1  0.42328000  0.66060000  0.09721000  1.0
  O  O207  1  0.07671000  0.66061000  0.40280000  1.0
