# generated using pymatgen
data_Cu2H11C14Br2N5
_symmetry_space_group_name_H-M   'P 1'
_cell_length_a   7.39286000
_cell_length_b   9.86364000
_cell_length_c   11.33790000
_cell_angle_alpha   71.00640000
_cell_angle_beta   84.16410000
_cell_angle_gamma   71.76010000
_symmetry_Int_Tables_number   1
_chemical_formula_structural   Cu2H11C14Br2N5
_chemical_formula_sum   'Cu4 H22 C28 Br4 N10'
_cell_volume   742.47246000
_cell_formula_units_Z   2
loop_
 _symmetry_equiv_pos_site_id
 _symmetry_equiv_pos_as_xyz
  1  'x, y, z'
loop_
 _atom_site_type_symbol
 _atom_site_label
 _atom_site_symmetry_multiplicity
 _atom_site_fract_x
 _atom_site_fract_y
 _atom_site_fract_z
 _atom_site_occupancy
  Cu  Cu0  1  0.47734000  0.26601000  0.30313000  1.0
  Cu  Cu1  1  0.52265000  0.73399000  0.69686000  1.0
  Cu  Cu2  1  0.27417000  0.10504000  0.46367000  1.0
  Cu  Cu3  1  0.72582000  0.89500000  0.53632000  1.0
  H  H4  1  0.41638000  0.05173000  0.23312000  1.0
  H  H5  1  0.58363000  0.94826000  0.76688000  1.0
  H  H6  1  0.44140000  0.97513000  0.10984000  1.0
  H  H7  1  0.55860000  0.02486000  0.89016000  1.0
  H  H8  1  0.82951000  0.41368000  0.90102000  1.0
  H  H9  1  0.17049000  0.58632000  0.09899000  1.0
  H  H10  1  0.82833000  0.57679000  0.97820000  1.0
  H  H11  1  0.17169000  0.42320000  0.02180000  1.0
  H  H12  1  0.81247000  0.76553000  0.08381000  1.0
  H  H13  1  0.18755000  0.23445000  0.91619000  1.0
  H  H14  1  0.66053000  0.73665000  0.29641000  1.0
  H  H15  1  0.33948000  0.26334000  0.70360000  1.0
  H  H16  1  0.52225000  0.52490000  0.38969000  1.0
  H  H17  1  0.47774000  0.47510000  0.61031000  1.0
  H  H18  1  0.02888000  0.36425000  0.52466000  1.0
  H  H19  1  0.97111000  0.63577000  0.47535000  1.0
  H  H20  1  0.83944000  0.42018000  0.70634000  1.0
  H  H21  1  0.16055000  0.57981000  0.29367000  1.0
  H  H22  1  0.91134000  0.94333000  0.86566000  1.0
  H  H23  1  0.08868000  0.05666000  0.13433000  1.0
  H  H24  1  0.10275000  0.90815000  0.67814000  1.0
  H  H25  1  0.89727000  0.09186000  0.32185000  1.0
  C  C26  1  0.59017000  0.12412000  0.09364000  1.0
  C  C27  1  0.40982000  0.87588000  0.90636000  1.0
  C  C28  1  0.76242000  0.20870000  0.91875000  1.0
  C  C29  1  0.23758000  0.79129000  0.08125000  1.0
  C  C30  1  0.76470000  0.32892000  0.95799000  1.0
  C  C31  1  0.23530000  0.67108000  0.04201000  1.0
  C  C32  1  0.68477000  0.33348000  0.07431000  1.0
  C  C33  1  0.31521000  0.66652000  0.92569000  1.0
  C  C34  1  0.68247000  0.45072000  0.12907000  1.0
  C  C35  1  0.31753000  0.54928000  0.87093000  1.0
  C  C36  1  0.76306000  0.56685000  0.07013000  1.0
  C  C37  1  0.23695000  0.43314000  0.92987000  1.0
  C  C38  1  0.75437000  0.67233000  0.12905000  1.0
  C  C39  1  0.24565000  0.32765000  0.87095000  1.0
  C  C40  1  0.67079000  0.65683000  0.24685000  1.0
  C  C41  1  0.32922000  0.34316000  0.75315000  1.0
  C  C42  1  0.59253000  0.53930000  0.29902000  1.0
  C  C43  1  0.40746000  0.46069000  0.70098000  1.0
  C  C44  1  0.00156000  0.27426000  0.60377000  1.0
  C  C45  1  0.99844000  0.72576000  0.39623000  1.0
  C  C46  1  0.89494000  0.30430000  0.70515000  1.0
  C  C47  1  0.10506000  0.69571000  0.29485000  1.0
  C  C48  1  0.86287000  0.18471000  0.80459000  1.0
  C  C49  1  0.13714000  0.81529000  0.19540000  1.0
  C  C50  1  0.93481000  0.04013000  0.79273000  1.0
  C  C51  1  0.06520000  0.95987000  0.20727000  1.0
  C  C52  1  0.04225000  0.01958000  0.68854000  1.0
  C  C53  1  0.95776000  0.98043000  0.31146000  1.0
  Br  Br54  1  0.13715000  0.30788000  0.27603000  1.0
  Br  Br55  1  0.86285000  0.69212000  0.72394000  1.0
  Br  Br56  1  0.57742000  0.15905000  0.52180000  1.0
  Br  Br57  1  0.42256000  0.84098000  0.47820000  1.0
  N  N58  1  0.60395000  0.22802000  0.14473000  1.0
  N  N59  1  0.39604000  0.77198000  0.85527000  1.0
  N  N60  1  0.67356000  0.10768000  0.98544000  1.0
  N  N61  1  0.32644000  0.89231000  0.01456000  1.0
  N  N62  1  0.48982000  0.03087000  0.15665000  1.0
  N  N63  1  0.51018000  0.96912000  0.84335000  1.0
  N  N64  1  0.59332000  0.44034000  0.24090000  1.0
  N  N65  1  0.40667000  0.55966000  0.75910000  1.0
  N  N66  1  0.08059000  0.13394000  0.59616000  1.0
  N  N67  1  0.91940000  0.86608000  0.40384000  1.0
