# generated using pymatgen
data_Yb2H11C11NO17
_symmetry_space_group_name_H-M   'P 1'
_cell_length_a   8.61981000
_cell_length_b   9.90679000
_cell_length_c   13.39980000
_cell_angle_alpha   84.61520000
_cell_angle_beta   88.08100000
_cell_angle_gamma   79.39370000
_symmetry_Int_Tables_number   1
_chemical_formula_structural   Yb2H11C11NO17
_chemical_formula_sum   'Yb4 H22 C22 N2 O34'
_cell_volume   1119.60423613
_cell_formula_units_Z   2
loop_
 _symmetry_equiv_pos_site_id
 _symmetry_equiv_pos_as_xyz
  1  'x, y, z'
loop_
 _atom_site_type_symbol
 _atom_site_label
 _atom_site_symmetry_multiplicity
 _atom_site_fract_x
 _atom_site_fract_y
 _atom_site_fract_z
 _atom_site_occupancy
  Yb  Yb0  1  0.08594000  0.19413000  0.50088000  1.0
  Yb  Yb1  1  0.47622000  0.23823000  0.91201000  1.0
  Yb  Yb2  1  0.91406000  0.80586000  0.49913000  1.0
  Yb  Yb3  1  0.52377000  0.76179000  0.08799000  1.0
  H  H4  1  0.93000000  0.17894000  0.69220000  1.0
  H  H5  1  0.98650000  0.02099000  0.67020000  1.0
  H  H6  1  0.19398000  0.20488000  0.03614000  1.0
  H  H7  1  0.23160000  0.08300000  0.97077000  1.0
  H  H8  1  0.19383000  0.33726000  0.79995000  1.0
  H  H9  1  0.30154000  0.27083000  0.71231000  1.0
  H  H10  1  0.67469000  0.35937000  0.76310000  1.0
  H  H11  1  0.60440000  0.24679000  0.70640000  1.0
  H  H12  1  0.80620000  0.16610000  0.95562000  1.0
  H  H13  1  0.78090000  0.04321000  0.89245000  1.0
  H  H14  1  0.73211000  0.12576000  0.26030000  1.0
  H  H15  1  0.07001000  0.82105000  0.30780000  1.0
  H  H16  1  0.01350000  0.97900000  0.32980000  1.0
  H  H17  1  0.80602000  0.79512000  0.96386000  1.0
  H  H18  1  0.76841000  0.91701000  0.02923000  1.0
  H  H19  1  0.80617000  0.66275000  0.20005000  1.0
  H  H20  1  0.69846000  0.72918000  0.28770000  1.0
  H  H21  1  0.32531000  0.64064000  0.23690000  1.0
  H  H22  1  0.39561000  0.75322000  0.29360000  1.0
  H  H23  1  0.19380000  0.83390000  0.04438000  1.0
  H  H24  1  0.21909000  0.95680000  0.10755000  1.0
  H  H25  1  0.26789000  0.87424000  0.73970000  1.0
  C  C26  1  0.18430000  0.12342000  0.26873000  1.0
  C  C27  1  0.33946000  0.14111000  0.30924000  1.0
  C  C28  1  0.48121000  0.12730000  0.25356000  1.0
  C  C29  1  0.61946000  0.13764000  0.30118000  1.0
  C  C30  1  0.61380000  0.15958000  0.40259000  1.0
  C  C31  1  0.46734000  0.17304000  0.45252000  1.0
  C  C32  1  0.44761000  0.19704000  0.56136000  1.0
  C  C33  1  0.49266000  0.09707000  0.14585000  1.0
  C  C34  1  0.76579000  0.15619000  0.45417000  1.0
  C  C35  1  0.96695000  0.49325000  0.55445000  1.0
  C  C36  1  0.40846000  0.51931000  0.00038000  1.0
  C  C37  1  0.81570000  0.87658000  0.73127000  1.0
  C  C38  1  0.66054000  0.85888000  0.69076000  1.0
  C  C39  1  0.51878000  0.87270000  0.74644000  1.0
  C  C40  1  0.38054000  0.86236000  0.69883000  1.0
  C  C41  1  0.38619000  0.84041000  0.59741000  1.0
  C  C42  1  0.53266000  0.82696000  0.54748000  1.0
  C  C43  1  0.55239000  0.80295000  0.43864000  1.0
  C  C44  1  0.50734000  0.90294000  0.85414000  1.0
  C  C45  1  0.23420000  0.84379000  0.54583000  1.0
  C  C46  1  0.03305000  0.50672000  0.44556000  1.0
  C  C47  1  0.59153000  0.48070000  0.99962000  1.0
  N  N48  1  0.33549000  0.16403000  0.40614000  1.0
  N  N49  1  0.66451000  0.83596000  0.59387000  1.0
  O  O50  1  0.06941000  0.13103000  0.33252000  1.0
  O  O51  1  0.17752000  0.09701000  0.17897000  1.0
  O  O52  1  0.48141000  0.19897000  0.08099000  1.0
  O  O53  1  0.52397000  0.97116000  0.12885000  1.0
  O  O54  1  0.83917000  0.03697000  0.48573000  1.0
  O  O55  1  0.82216000  0.26432000  0.45638000  1.0
  O  O56  1  0.57122000  0.19568000  0.60874000  1.0
  O  O57  1  0.30561000  0.21591000  0.59659000  1.0
  O  O58  1  0.98740000  0.37342000  0.59926000  1.0
  O  O59  1  0.89771000  0.60307000  0.58968000  1.0
  O  O60  1  0.01434000  0.11506000  0.66227000  1.0
  O  O61  1  0.33476000  0.44271000  0.95734000  1.0
  O  O62  1  0.34915000  0.62489000  0.04472000  1.0
  O  O63  1  0.22083000  0.18420000  0.96679000  1.0
  O  O64  1  0.30333000  0.30823000  0.77953000  1.0
  O  O65  1  0.63977000  0.27114000  0.77376000  1.0
  O  O66  1  0.74071000  0.09655000  0.95035000  1.0
  O  O67  1  0.93059000  0.86896000  0.66748000  1.0
  O  O68  1  0.82248000  0.90299000  0.82103000  1.0
  O  O69  1  0.51859000  0.80105000  0.91902000  1.0
  O  O70  1  0.47604000  0.02886000  0.87114000  1.0
  O  O71  1  0.16083000  0.96302000  0.51426000  1.0
  O  O72  1  0.17785000  0.73566000  0.54363000  1.0
  O  O73  1  0.42877000  0.80432000  0.39126000  1.0
  O  O74  1  0.69439000  0.78408000  0.40341000  1.0
  O  O75  1  0.01262000  0.62656000  0.40075000  1.0
  O  O76  1  0.10229000  0.39691000  0.41033000  1.0
  O  O77  1  0.98566000  0.88493000  0.33773000  1.0
  O  O78  1  0.66524000  0.55731000  0.04266000  1.0
  O  O79  1  0.65085000  0.37513000  0.95528000  1.0
  O  O80  1  0.77917000  0.81580000  0.03320000  1.0
  O  O81  1  0.69666000  0.69178000  0.22047000  1.0
  O  O82  1  0.36023000  0.72887000  0.22624000  1.0
  O  O83  1  0.25928000  0.90346000  0.04965000  1.0
