# generated using pymatgen
data_AlH8C16O5F
_symmetry_space_group_name_H-M   'P 1'
_cell_length_a   6.62389000
_cell_length_b   15.19865112
_cell_length_c   15.31660000
_cell_angle_alpha   88.58310591
_cell_angle_beta   78.46540000
_cell_angle_gamma   77.53820696
_symmetry_Int_Tables_number   1
_chemical_formula_structural   AlH8C16O5F
_chemical_formula_sum   'Al2 H16 C32 O10 F2'
_cell_volume   1474.97575997
_cell_formula_units_Z   2
loop_
 _symmetry_equiv_pos_site_id
 _symmetry_equiv_pos_as_xyz
  1  'x, y, z'
loop_
 _atom_site_type_symbol
 _atom_site_label
 _atom_site_symmetry_multiplicity
 _atom_site_fract_x
 _atom_site_fract_y
 _atom_site_fract_z
 _atom_site_occupancy
  Al  Al0  1  0.99998000  0.50002000  0.49995000  1.0
  Al  Al1  1  0.49999000  0.50000000  0.49994000  1.0
  H  H2  1  0.32988000  0.43844000  0.39845000  1.0
  H  H3  1  0.67007000  0.56158000  0.60143000  1.0
  H  H4  1  0.67048000  0.46260000  0.06203000  1.0
  H  H5  1  0.33060000  0.53632000  0.93790000  1.0
  H  H6  1  0.83071000  0.45737000  0.76844000  1.0
  H  H7  1  0.74052000  0.45886000  0.93161000  1.0
  H  H8  1  0.16853000  0.54325000  0.23146000  1.0
  H  H9  1  0.25854000  0.54190000  0.06829000  1.0
  H  H10  1  0.80729000  0.76910000  0.56078000  1.0
  H  H11  1  0.55008000  0.91281000  0.61212000  1.0
  H  H12  1  0.43801000  0.77370000  0.42400000  1.0
  H  H13  1  0.53852000  0.92080000  0.38109000  1.0
  H  H14  1  0.19268000  0.23096000  0.43931000  1.0
  H  H15  1  0.44997000  0.08726000  0.38808000  1.0
  H  H16  1  0.56197000  0.22636000  0.57608000  1.0
  H  H17  1  0.46155000  0.07927000  0.61910000  1.0
  C  C18  1  0.81810000  0.33788000  0.50642000  1.0
  C  C19  1  0.82943000  0.50580000  0.33954000  1.0
  C  C20  1  0.18189000  0.66216000  0.49357000  1.0
  C  C21  1  0.17047000  0.49422000  0.66038000  1.0
  C  C22  1  0.87192000  0.50576000  0.24017000  1.0
  C  C23  1  0.12802000  0.49424000  0.75975000  1.0
  C  C24  1  0.73663000  0.48404000  0.18828000  1.0
  C  C25  1  0.78467000  0.48156000  0.09592000  1.0
  C  C26  1  0.26375000  0.51557000  0.81164000  1.0
  C  C27  1  0.21588000  0.51784000  0.90400000  1.0
  C  C28  1  0.93927000  0.47398000  0.80703000  1.0
  C  C29  1  0.88918000  0.47554000  0.89943000  1.0
  C  C30  1  0.06028000  0.52637000  0.19288000  1.0
  C  C31  1  0.11037000  0.52480000  0.10049000  1.0
  C  C32  1  0.97403000  0.50165000  0.04931000  1.0
  C  C33  1  0.02605000  0.49817000  0.95060000  1.0
  C  C34  1  0.92384000  0.80822000  0.53253000  1.0
  C  C35  1  0.87089000  0.90259000  0.53785000  1.0
  C  C36  1  0.66704000  0.95122000  0.58213000  1.0
  C  C37  1  0.28021000  0.81072000  0.45430000  1.0
  C  C38  1  0.23153000  0.90530000  0.45474000  1.0
  C  C39  1  0.38198000  0.95688000  0.41426000  1.0
  C  C40  1  0.07618000  0.19184000  0.46760000  1.0
  C  C41  1  0.12915000  0.09745000  0.46230000  1.0
  C  C42  1  0.33301000  0.04884000  0.41804000  1.0
  C  C43  1  0.71979000  0.18933000  0.54580000  1.0
  C  C44  1  0.76847000  0.09478000  0.54539000  1.0
  C  C45  1  0.61806000  0.04319000  0.58591000  1.0
  C  C46  1  0.12741000  0.76271000  0.49249000  1.0
  C  C47  1  0.02558000  0.95216000  0.49815000  1.0
  C  C48  1  0.87262000  0.23734000  0.50760000  1.0
  C  C49  1  0.97444000  0.04790000  0.50197000  1.0
  O  O50  1  0.97170000  0.37791000  0.48780000  1.0
  O  O51  1  0.65458000  0.48935000  0.37970000  1.0
  O  O52  1  0.37696000  0.62389000  0.47827000  1.0
  O  O53  1  0.02592000  0.47910000  0.62279000  1.0
  O  O54  1  0.02828000  0.62213000  0.51214000  1.0
  O  O55  1  0.34535000  0.51065000  0.62020000  1.0
  O  O56  1  0.62302000  0.37614000  0.52164000  1.0
  O  O57  1  0.97398000  0.52093000  0.37711000  1.0
  O  O58  1  0.28821000  0.46027000  0.45973000  1.0
  O  O59  1  0.71176000  0.53975000  0.54017000  1.0
  F  F60  1  0.54952000  0.46293000  0.22642000  1.0
  F  F61  1  0.45112000  0.53640000  0.77351000  1.0
