# generated using pymatgen
data_Gd3H19C30O23
_symmetry_space_group_name_H-M   'P 1'
_cell_length_a   10.12210000
_cell_length_b   12.19900000
_cell_length_c   14.71300000
_cell_angle_alpha   69.16670000
_cell_angle_beta   84.91490000
_cell_angle_gamma   75.65440000
_symmetry_Int_Tables_number   1
_chemical_formula_structural   Gd3H19C30O23
_chemical_formula_sum   'Gd6 H38 C60 O46'
_cell_volume   1645.02788659
_cell_formula_units_Z   2
loop_
 _symmetry_equiv_pos_site_id
 _symmetry_equiv_pos_as_xyz
  1  'x, y, z'
loop_
 _atom_site_type_symbol
 _atom_site_label
 _atom_site_symmetry_multiplicity
 _atom_site_fract_x
 _atom_site_fract_y
 _atom_site_fract_z
 _atom_site_occupancy
  Gd  Gd0  1  0.24733000  0.48475000  0.90155000  1.0
  Gd  Gd1  1  0.75267000  0.51525000  0.09845000  1.0
  Gd  Gd2  1  0.36092000  0.97930000  0.78436000  1.0
  Gd  Gd3  1  0.63908000  0.02070000  0.21563000  1.0
  Gd  Gd4  1  0.49469000  0.28863000  0.54887000  1.0
  Gd  Gd5  1  0.50532000  0.71137000  0.45113000  1.0
  H  H6  1  0.71880000  0.80014000  0.84749000  1.0
  H  H7  1  0.28120000  0.19986000  0.15251000  1.0
  H  H8  1  0.88795000  0.04651000  0.60669000  1.0
  H  H9  1  0.11205000  0.95349000  0.39331000  1.0
  H  H10  1  0.09640000  0.88919000  0.61605000  1.0
  H  H11  1  0.90360000  0.11081000  0.38396000  1.0
  H  H12  1  0.28239000  0.76969000  0.67840000  1.0
  H  H13  1  0.71761000  0.23031000  0.32160000  1.0
  H  H14  1  0.20285000  0.73035000  0.59415000  1.0
  H  H15  1  0.79715000  0.26965000  0.40585000  1.0
  H  H16  1  0.01195000  0.30017000  0.95640000  1.0
  H  H17  1  0.98805000  0.69983000  0.04360000  1.0
  H  H18  1  0.96045000  0.98046000  0.19024000  1.0
  H  H19  1  0.03955000  0.01954000  0.80976000  1.0
  H  H20  1  0.16645000  0.86315000  0.14065000  1.0
  H  H21  1  0.83355000  0.13685000  0.85935000  1.0
  H  H22  1  0.30001000  0.77478000  0.07431000  1.0
  H  H23  1  0.69999000  0.22522000  0.92569000  1.0
  H  H24  1  0.42192000  0.83747000  0.10763000  1.0
  H  H25  1  0.57808000  0.16253000  0.89237000  1.0
  H  H26  1  0.93494000  0.25161000  0.62549000  1.0
  H  H27  1  0.06506000  0.74839000  0.37451000  1.0
  H  H28  1  0.88869000  0.53366000  0.34499000  1.0
  H  H29  1  0.11131000  0.46634000  0.65501000  1.0
  H  H30  1  0.13595000  0.46453000  0.31085000  1.0
  H  H31  1  0.86405000  0.53547000  0.68915000  1.0
  H  H32  1  0.34436000  0.29342000  0.29179000  1.0
  H  H33  1  0.65564000  0.70659000  0.70821000  1.0
  H  H34  1  0.28336000  0.16968000  0.37580000  1.0
  H  H35  1  0.71664000  0.83032000  0.62420000  1.0
  H  H36  1  0.44839000  0.66234000  0.88282000  1.0
  H  H37  1  0.55161000  0.33766000  0.11718000  1.0
  H  H38  1  0.53478000  0.52995000  0.90040000  1.0
  H  H39  1  0.46522000  0.47005000  0.09960000  1.0
  H  H40  1  0.44171000  0.37123000  0.72316000  1.0
  H  H41  1  0.55829000  0.62877000  0.27684000  1.0
  H  H42  1  0.40949000  0.24363000  0.75080000  1.0
  H  H43  1  0.59051000  0.75637000  0.24920000  1.0
  C  C44  1  0.02434000  0.75075000  0.73464000  1.0
  C  C45  1  0.97566000  0.24925000  0.26536000  1.0
  C  C46  1  0.91613000  0.72497000  0.80153000  1.0
  C  C47  1  0.08387000  0.27502000  0.19847000  1.0
  C  C48  1  0.80176000  0.81923000  0.79633000  1.0
  C  C49  1  0.19824000  0.18077000  0.20367000  1.0
  C  C50  1  0.78980000  0.93386000  0.72665000  1.0
  C  C51  1  0.21020000  0.06614000  0.27335000  1.0
  C  C52  1  0.89651000  0.95677000  0.66074000  1.0
  C  C53  1  0.10349000  0.04323000  0.33926000  1.0
  C  C54  1  0.01281000  0.86684000  0.66521000  1.0
  C  C55  1  0.98719000  0.13316000  0.33479000  1.0
  C  C56  1  0.24542000  0.69774000  0.66766000  1.0
  C  C57  1  0.75458000  0.30226000  0.33234000  1.0
  C  C58  1  0.36304000  0.58942000  0.67792000  1.0
  C  C59  1  0.63696000  0.41058000  0.32208000  1.0
  C  C60  1  0.91479000  0.60508000  0.87905000  1.0
  C  C61  1  0.08521000  0.39492000  0.12095000  1.0
  C  C62  1  0.66220000  0.02931000  0.71631000  1.0
  C  C63  1  0.33780000  0.97069000  0.28369000  1.0
  C  C64  1  0.20249000  0.01204000  0.01345000  1.0
  C  C65  1  0.79751000  0.98796000  0.98656000  1.0
  C  C66  1  0.15987000  0.13754000  0.96304000  1.0
  C  C67  1  0.84013000  0.86246000  0.03696000  1.0
  C  C68  1  0.04294000  0.20307000  0.99423000  1.0
  C  C69  1  0.95707000  0.79693000  0.00578000  1.0
  C  C70  1  0.96671000  0.14728000  0.07279000  1.0
  C  C71  1  0.03329000  0.85272000  0.92721000  1.0
  C  C72  1  0.01350000  0.02424000  0.12482000  1.0
  C  C73  1  0.98650000  0.97576000  0.87518000  1.0
  C  C74  1  0.13131000  0.95760000  0.09663000  1.0
  C  C75  1  0.86869000  0.04240000  0.90337000  1.0
  C  C76  1  0.37655000  0.82897000  0.04593000  1.0
  C  C77  1  0.62345000  0.17103000  0.95407000  1.0
  C  C78  1  0.48101000  0.75974000  0.99360000  1.0
  C  C79  1  0.51900000  0.24026000  0.00641000  1.0
  C  C80  1  0.23392000  0.20739000  0.87934000  1.0
  C  C81  1  0.76608000  0.79261000  0.12067000  1.0
  C  C82  1  0.84353000  0.22047000  0.10446000  1.0
  C  C83  1  0.15647000  0.77953000  0.89554000  1.0
  C  C84  1  0.17406000  0.32617000  0.45166000  1.0
  C  C85  1  0.82593000  0.67384000  0.54834000  1.0
  C  C86  1  0.12007000  0.26516000  0.54186000  1.0
  C  C87  1  0.87993000  0.73484000  0.45814000  1.0
  C  C88  1  0.97935000  0.29995000  0.55723000  1.0
  C  C89  1  0.02065000  0.70005000  0.44277000  1.0
  C  C90  1  0.89623000  0.39788000  0.48786000  1.0
  C  C91  1  0.10377000  0.60212000  0.51214000  1.0
  C  C92  1  0.95343000  0.45780000  0.39920000  1.0
  C  C93  1  0.04657000  0.54220000  0.60080000  1.0
  C  C94  1  0.09110000  0.41974000  0.38015000  1.0
  C  C95  1  0.90889000  0.58026000  0.61985000  1.0
  C  C96  1  0.35140000  0.23027000  0.36727000  1.0
  C  C97  1  0.64860000  0.76974000  0.63273000  1.0
  C  C98  1  0.49691000  0.15532000  0.38861000  1.0
  C  C99  1  0.50309000  0.84469000  0.61138000  1.0
  C  C100  1  0.20805000  0.16758000  0.62100000  1.0
  C  C101  1  0.79195000  0.83242000  0.37900000  1.0
  C  C102  1  0.74616000  0.43848000  0.50576000  1.0
  C  C103  1  0.25384000  0.56152000  0.49425000  1.0
  O  O104  1  0.14220000  0.66302000  0.73956000  1.0
  O  O105  1  0.85780000  0.33698000  0.26044000  1.0
  O  O106  1  0.45400000  0.59938000  0.61327000  1.0
  O  O107  1  0.54600000  0.40062000  0.38673000  1.0
  O  O108  1  0.36283000  0.49456000  0.75116000  1.0
  O  O109  1  0.63717000  0.50544000  0.24884000  1.0
  O  O110  1  0.01574000  0.51609000  0.88638000  1.0
  O  O111  1  0.98426000  0.48390000  0.11362000  1.0
  O  O112  1  0.80978000  0.59794000  0.93387000  1.0
  O  O113  1  0.19022000  0.40206000  0.06613000  1.0
  O  O114  1  0.57167000  0.01344000  0.78335000  1.0
  O  O115  1  0.42833000  0.98656000  0.21665000  1.0
  O  O116  1  0.64932000  0.11991000  0.63900000  1.0
  O  O117  1  0.35068000  0.88009000  0.36100000  1.0
  O  O118  1  0.31454000  0.94688000  0.97910000  1.0
  O  O119  1  0.68546000  0.05312000  0.02090000  1.0
  O  O120  1  0.54963000  0.65970000  0.04749000  1.0
  O  O121  1  0.45036000  0.34031000  0.95251000  1.0
  O  O122  1  0.48733000  0.80010000  0.90153000  1.0
  O  O123  1  0.51267000  0.19991000  0.09847000  1.0
  O  O124  1  0.30482000  0.15418000  0.82379000  1.0
  O  O125  1  0.69518000  0.84582000  0.17621000  1.0
  O  O126  1  0.22289000  0.31748000  0.86538000  1.0
  O  O127  1  0.77711000  0.68252000  0.13462000  1.0
  O  O128  1  0.82284000  0.33468000  0.06738000  1.0
  O  O129  1  0.17717000  0.66532000  0.93262000  1.0
  O  O130  1  0.76588000  0.16540000  0.16818000  1.0
  O  O131  1  0.23412000  0.83460000  0.83182000  1.0
  O  O132  1  0.31292000  0.29420000  0.43461000  1.0
  O  O133  1  0.68708000  0.70580000  0.56539000  1.0
  O  O134  1  0.54954000  0.10604000  0.32668000  1.0
  O  O135  1  0.45046000  0.89396000  0.67332000  1.0
  O  O136  1  0.55651000  0.14760000  0.46274000  1.0
  O  O137  1  0.44349000  0.85240000  0.53726000  1.0
  O  O138  1  0.33565000  0.16364000  0.62645000  1.0
  O  O139  1  0.66435000  0.83636000  0.37354000  1.0
  O  O140  1  0.15558000  0.08859000  0.68496000  1.0
  O  O141  1  0.84442000  0.91141000  0.31503000  1.0
  O  O142  1  0.68478000  0.35957000  0.56003000  1.0
  O  O143  1  0.31522000  0.64043000  0.43997000  1.0
  O  O144  1  0.68950000  0.54875000  0.46268000  1.0
  O  O145  1  0.31049000  0.45125000  0.53732000  1.0
  O  O146  1  0.44310000  0.58091000  0.88764000  1.0
  O  O147  1  0.55690000  0.41909000  0.11236000  1.0
  O  O148  1  0.47143000  0.29393000  0.71033000  1.0
  O  O149  1  0.52857000  0.70607000  0.28967000  1.0
