# generated using pymatgen
data_CuH12C10S2(NO3)2
_symmetry_space_group_name_H-M   'P 1'
_cell_length_a   7.43174000
_cell_length_b   8.54902000
_cell_length_c   11.52810000
_cell_angle_alpha   90.00260000
_cell_angle_beta   90.00080000
_cell_angle_gamma   79.60000000
_symmetry_Int_Tables_number   1
_chemical_formula_structural   CuH12C10S2(NO3)2
_chemical_formula_sum   'Cu2 H24 C20 S4 N4 O12'
_cell_volume   720.39468236
_cell_formula_units_Z   2
loop_
 _symmetry_equiv_pos_site_id
 _symmetry_equiv_pos_as_xyz
  1  'x, y, z'
loop_
 _atom_site_type_symbol
 _atom_site_label
 _atom_site_symmetry_multiplicity
 _atom_site_fract_x
 _atom_site_fract_y
 _atom_site_fract_z
 _atom_site_occupancy
  Cu  Cu0  1  0.50000000  0.50000000  0.50000000  1.0
  Cu  Cu1  1  0.00000000  0.00000000  0.00000000  1.0
  H  H2  1  0.76333000  0.35580000  0.36729000  1.0
  H  H3  1  0.73666000  0.14420000  0.86730000  1.0
  H  H4  1  0.23667000  0.64420000  0.63271000  1.0
  H  H5  1  0.26333000  0.85579000  0.13270000  1.0
  H  H6  1  0.88315000  0.69976000  0.09771000  1.0
  H  H7  1  0.61686000  0.80023000  0.59771000  1.0
  H  H8  1  0.11685000  0.30024000  0.90230000  1.0
  H  H9  1  0.38315000  0.19977000  0.40229000  1.0
  H  H10  1  0.80653000  0.17052000  0.22137000  1.0
  H  H11  1  0.69346000  0.32948000  0.72135000  1.0
  H  H12  1  0.19347000  0.82948000  0.77863000  1.0
  H  H13  1  0.30654000  0.67052000  0.27865000  1.0
  H  H14  1  0.96656000  0.33504000  0.52277000  1.0
  H  H15  1  0.53345000  0.16499000  0.02279000  1.0
  H  H16  1  0.03344000  0.66496000  0.47723000  1.0
  H  H17  1  0.46655000  0.83501000  0.97721000  1.0
  H  H18  1  0.01507000  0.15364000  0.44180000  1.0
  H  H19  1  0.48494000  0.34637000  0.94182000  1.0
  H  H20  1  0.98493000  0.84636000  0.55821000  1.0
  H  H21  1  0.51506000  0.65362000  0.05818000  1.0
  H  H22  1  0.87826000  0.16429000  0.56973000  1.0
  H  H23  1  0.62177000  0.33573000  0.06975000  1.0
  H  H24  1  0.12175000  0.83571000  0.43027000  1.0
  H  H25  1  0.37822000  0.66426000  0.93025000  1.0
  C  C26  1  0.75102000  0.77822000  0.26373000  1.0
  C  C27  1  0.74899000  0.72177000  0.76372000  1.0
  C  C28  1  0.24898000  0.22178000  0.73627000  1.0
  C  C29  1  0.25101000  0.27823000  0.23627000  1.0
  C  C30  1  0.83674000  0.79365000  0.15983000  1.0
  C  C31  1  0.66328000  0.70634000  0.65982000  1.0
  C  C32  1  0.16326000  0.20635000  0.84017000  1.0
  C  C33  1  0.33673000  0.29366000  0.34018000  1.0
  C  C34  1  0.70507000  0.63283000  0.31763000  1.0
  C  C35  1  0.79494000  0.86716000  0.81762000  1.0
  C  C36  1  0.29493000  0.36718000  0.68238000  1.0
  C  C37  1  0.20506000  0.13284000  0.18238000  1.0
  C  C38  1  0.79768000  0.04525000  0.22211000  1.0
  C  C39  1  0.70232000  0.45474000  0.72210000  1.0
  C  C40  1  0.20232000  0.95475000  0.77789000  1.0
  C  C41  1  0.29768000  0.54526000  0.27790000  1.0
  C  C42  1  0.90987000  0.23118000  0.49334000  1.0
  C  C43  1  0.59014000  0.26884000  0.99335000  1.0
  C  C44  1  0.09013000  0.76883000  0.50666000  1.0
  C  C45  1  0.40985000  0.73116000  0.00665000  1.0
  S  S46  1  0.70139000  0.95957000  0.33311000  1.0
  S  S47  1  0.79860000  0.54044000  0.83308000  1.0
  S  S48  1  0.29861000  0.04044000  0.66689000  1.0
  S  S49  1  0.20140000  0.45956000  0.16692000  1.0
  N  N50  1  0.86191000  0.94562000  0.13734000  1.0
  N  N51  1  0.63811000  0.55438000  0.63734000  1.0
  N  N52  1  0.13809000  0.05438000  0.86266000  1.0
  N  N53  1  0.36190000  0.44562000  0.36266000  1.0
  O  O54  1  0.60515000  0.66137000  0.40939000  1.0
  O  O55  1  0.89484000  0.83864000  0.90938000  1.0
  O  O56  1  0.39485000  0.33863000  0.59061000  1.0
  O  O57  1  0.10515000  0.16136000  0.09061000  1.0
  O  O58  1  0.74450000  0.27744000  0.42918000  1.0
  O  O59  1  0.75550000  0.22257000  0.92918000  1.0
  O  O60  1  0.25550000  0.72256000  0.57082000  1.0
  O  O61  1  0.24449000  0.77743000  0.07082000  1.0
  O  O62  1  0.76493000  0.49953000  0.27242000  1.0
  O  O63  1  0.73508000  0.00046000  0.77243000  1.0
  O  O64  1  0.23507000  0.50047000  0.72758000  1.0
  O  O65  1  0.26491000  0.99954000  0.22757000  1.0
