# generated using pymatgen
data_ZnH5C9NO5F6
_symmetry_space_group_name_H-M   'P 1'
_cell_length_a   7.17751000
_cell_length_b   8.53194000
_cell_length_c   11.13240000
_cell_angle_alpha   107.04300000
_cell_angle_beta   89.99950000
_cell_angle_gamma   89.99930000
_symmetry_Int_Tables_number   1
_chemical_formula_structural   ZnH5C9NO5F6
_chemical_formula_sum   'Zn2 H10 C18 N2 O10 F12'
_cell_volume   651.78886263
_cell_formula_units_Z   2
loop_
 _symmetry_equiv_pos_site_id
 _symmetry_equiv_pos_as_xyz
  1  'x, y, z'
loop_
 _atom_site_type_symbol
 _atom_site_label
 _atom_site_symmetry_multiplicity
 _atom_site_fract_x
 _atom_site_fract_y
 _atom_site_fract_z
 _atom_site_occupancy
  Zn  Zn0  1  0.00000000  0.50000000  0.50000000  1.0
  Zn  Zn1  1  0.50000000  0.50000000  0.50000000  1.0
  H  H2  1  0.75000000  0.12028000  0.77461000  1.0
  H  H3  1  0.25001000  0.87972000  0.22539000  1.0
  H  H4  1  0.74999000  0.90059000  0.59197000  1.0
  H  H5  1  0.25000000  0.09941000  0.40803000  1.0
  H  H6  1  0.75001000  0.57625000  0.82465000  1.0
  H  H7  1  0.25001000  0.42375000  0.17535000  1.0
  H  H8  1  0.75001000  0.82512000  0.01376000  1.0
  H  H9  1  0.25001000  0.17489000  0.98624000  1.0
  H  H10  1  0.75001000  0.10657000  0.98108000  1.0
  H  H11  1  0.25001000  0.89343000  0.01892000  1.0
  C  C12  1  0.74999000  0.87679000  0.68231000  1.0
  C  C13  1  0.24999000  0.12322000  0.31769000  1.0
  C  C14  1  0.75000000  0.71573000  0.69203000  1.0
  C  C15  1  0.25000000  0.28428000  0.30797000  1.0
  C  C16  1  0.75001000  0.69934000  0.81457000  1.0
  C  C17  1  0.25001000  0.30066000  0.18543000  1.0
  C  C18  1  0.75001000  0.83754000  0.91941000  1.0
  C  C19  1  0.25001000  0.16247000  0.08059000  1.0
  C  C20  1  0.75000000  0.99313000  0.90462000  1.0
  C  C21  1  0.25001000  0.00687000  0.09538000  1.0
  C  C22  1  0.74998000  0.52718000  0.27973000  1.0
  C  C23  1  0.25000000  0.47282000  0.72027000  1.0
  C  C24  1  0.74999000  0.54307000  0.14339000  1.0
  C  C25  1  0.25000000  0.45692000  0.85662000  1.0
  C  C26  1  0.74998000  0.19107000  0.42646000  1.0
  C  C27  1  0.25000000  0.80893000  0.57354000  1.0
  C  C28  1  0.75000000  0.00631000  0.34839000  1.0
  C  C29  1  0.24999000  0.99369000  0.65161000  1.0
  N  N30  1  0.75000000  0.00609000  0.78616000  1.0
  N  N31  1  0.25000000  0.99391000  0.21383000  1.0
  O  O32  1  0.74999000  0.58985000  0.58976000  1.0
  O  O33  1  0.24999000  0.41015000  0.41024000  1.0
  O  O34  1  0.90982000  0.51918000  0.32347000  1.0
  O  O35  1  0.40980000  0.48082000  0.67653000  1.0
  O  O36  1  0.09018000  0.48082000  0.67654000  1.0
  O  O37  1  0.59020000  0.51917000  0.32347000  1.0
  O  O38  1  0.90940000  0.25299000  0.44983000  1.0
  O  O39  1  0.40938000  0.74701000  0.55017000  1.0
  O  O40  1  0.09060000  0.74700000  0.55017000  1.0
  O  O41  1  0.59061000  0.25298000  0.44983000  1.0
  F  F42  1  0.90254000  0.62292000  0.11820000  1.0
  F  F43  1  0.40257000  0.37710000  0.88180000  1.0
  F  F44  1  0.09745000  0.37709000  0.88181000  1.0
  F  F45  1  0.59742000  0.62289000  0.11820000  1.0
  F  F46  1  0.75002000  0.38942000  0.05753000  1.0
  F  F47  1  0.25000000  0.61058000  0.94247000  1.0
  F  F48  1  0.75000000  0.99666000  0.22260000  1.0
  F  F49  1  0.24999000  0.00334000  0.77740000  1.0
  F  F50  1  0.90221000  0.92304000  0.36922000  1.0
  F  F51  1  0.40218000  0.07696000  0.63077000  1.0
  F  F52  1  0.09779000  0.07696000  0.63077000  1.0
  F  F53  1  0.59781000  0.92304000  0.36923000  1.0
