# generated using pymatgen
data_HgH6C6Br2N2O3
_symmetry_space_group_name_H-M   'P 1'
_cell_length_a   6.81727000
_cell_length_b   11.63730000
_cell_length_c   13.69660000
_cell_angle_alpha   89.99980000
_cell_angle_beta   84.92040000
_cell_angle_gamma   89.99920000
_symmetry_Int_Tables_number   1
_chemical_formula_structural   HgH6C6Br2N2O3
_chemical_formula_sum   'Hg4 H24 C24 Br8 N8 O12'
_cell_volume   1082.34699135
_cell_formula_units_Z   4
loop_
 _symmetry_equiv_pos_site_id
 _symmetry_equiv_pos_as_xyz
  1  'x, y, z'
loop_
 _atom_site_type_symbol
 _atom_site_label
 _atom_site_symmetry_multiplicity
 _atom_site_fract_x
 _atom_site_fract_y
 _atom_site_fract_z
 _atom_site_occupancy
  Hg  Hg0  1  0.98937000  0.84502000  0.07825000  1.0
  Hg  Hg1  1  0.51063000  0.34502000  0.92175000  1.0
  Hg  Hg2  1  0.01063000  0.15498000  0.92175000  1.0
  Hg  Hg3  1  0.48936000  0.65497000  0.07825000  1.0
  H  H4  1  0.10836000  0.51941000  0.18173000  1.0
  H  H5  1  0.39163000  0.01943000  0.81827000  1.0
  H  H6  1  0.89164000  0.48059000  0.81828000  1.0
  H  H7  1  0.60838000  0.98058000  0.18173000  1.0
  H  H8  1  0.76204000  0.64565000  0.49232000  1.0
  H  H9  1  0.73798000  0.14565000  0.50768000  1.0
  H  H10  1  0.23796000  0.35435000  0.50769000  1.0
  H  H11  1  0.26205000  0.85435000  0.49232000  1.0
  H  H12  1  0.95622000  0.78247000  0.37830000  1.0
  H  H13  1  0.54380000  0.28248000  0.62169000  1.0
  H  H14  1  0.04378000  0.21753000  0.62171000  1.0
  H  H15  1  0.45622000  0.71752000  0.37830000  1.0
  H  H16  1  0.02522000  0.33148000  0.20499000  1.0
  H  H17  1  0.47476000  0.83150000  0.79501000  1.0
  H  H18  1  0.97476000  0.66852000  0.79501000  1.0
  H  H19  1  0.52524000  0.16850000  0.20499000  1.0
  H  H20  1  0.96578000  0.27821000  0.32674000  1.0
  H  H21  1  0.53420000  0.77823000  0.67326000  1.0
  H  H22  1  0.03420000  0.72178000  0.67326000  1.0
  H  H23  1  0.46580000  0.22178000  0.32674000  1.0
  H  H24  1  0.77603000  0.31248000  0.25211000  1.0
  H  H25  1  0.72394000  0.81249000  0.74789000  1.0
  H  H26  1  0.22396000  0.68752000  0.74789000  1.0
  H  H27  1  0.27605000  0.18751000  0.25211000  1.0
  C  C28  1  0.02617000  0.54082000  0.25073000  1.0
  C  C29  1  0.47384000  0.04084000  0.74927000  1.0
  C  C30  1  0.97383000  0.45918000  0.74928000  1.0
  C  C31  1  0.52617000  0.95916000  0.25073000  1.0
  C  C32  1  0.91940000  0.45959000  0.30767000  1.0
  C  C33  1  0.58060000  0.95960000  0.69232000  1.0
  C  C34  1  0.08058000  0.54041000  0.69233000  1.0
  C  C35  1  0.41944000  0.04040000  0.30768000  1.0
  C  C36  1  0.82438000  0.49952000  0.39695000  1.0
  C  C37  1  0.67563000  0.99953000  0.60305000  1.0
  C  C38  1  0.17561000  0.50047000  0.60306000  1.0
  C  C39  1  0.32440000  0.00047000  0.39695000  1.0
  C  C40  1  0.83689000  0.61512000  0.42387000  1.0
  C  C41  1  0.66313000  0.11513000  0.57613000  1.0
  C  C42  1  0.16312000  0.38488000  0.57614000  1.0
  C  C43  1  0.33689000  0.88487000  0.42386000  1.0
  C  C44  1  0.94291000  0.69120000  0.36344000  1.0
  C  C45  1  0.55710000  0.19121000  0.63655000  1.0
  C  C46  1  0.05709000  0.30880000  0.63656000  1.0
  C  C47  1  0.44292000  0.80879000  0.36344000  1.0
  C  C48  1  0.92257000  0.33852000  0.27092000  1.0
  C  C49  1  0.57741000  0.83854000  0.72908000  1.0
  C  C50  1  0.07741000  0.66148000  0.72908000  1.0
  C  C51  1  0.42259000  0.16147000  0.27092000  1.0
  Br  Br52  1  0.44610000  0.84996000  0.00834000  1.0
  Br  Br53  1  0.05386000  0.34998000  0.99167000  1.0
  Br  Br54  1  0.55385000  0.15003000  0.99166000  1.0
  Br  Br55  1  0.94609000  0.65004000  0.00834000  1.0
  Br  Br56  1  0.00302000  0.04221000  0.14673000  1.0
  Br  Br57  1  0.49699000  0.54222000  0.85327000  1.0
  Br  Br58  1  0.99698000  0.95779000  0.85326000  1.0
  Br  Br59  1  0.50300000  0.45776000  0.14673000  1.0
  N  N60  1  0.04152000  0.65292000  0.27808000  1.0
  N  N61  1  0.45850000  0.15294000  0.72191000  1.0
  N  N62  1  0.95848000  0.34708000  0.72192000  1.0
  N  N63  1  0.54152000  0.84706000  0.27809000  1.0
  N  N64  1  0.71258000  0.42398000  0.46494000  1.0
  N  N65  1  0.78743000  0.92398000  0.53506000  1.0
  N  N66  1  0.28742000  0.57602000  0.53506000  1.0
  N  N67  1  0.21259000  0.07602000  0.46495000  1.0
  O  O68  1  0.15074000  0.72364000  0.22391000  1.0
  O  O69  1  0.34927000  0.22367000  0.77608000  1.0
  O  O70  1  0.84926000  0.27636000  0.77609000  1.0
  O  O71  1  0.65074000  0.77634000  0.22391000  1.0
  O  O72  1  0.67744000  0.45680000  0.55159000  1.0
  O  O73  1  0.82258000  0.95680000  0.44841000  1.0
  O  O74  1  0.32256000  0.54320000  0.44841000  1.0
  O  O75  1  0.17744000  0.04320000  0.55159000  1.0
  O  O76  1  0.65595000  0.32973000  0.43445000  1.0
  O  O77  1  0.84404000  0.82973000  0.56555000  1.0
  O  O78  1  0.34405000  0.67027000  0.56555000  1.0
  O  O79  1  0.15595000  0.17027000  0.43445000  1.0
