# generated using pymatgen
data_ZnH10C12(NO3)2
_symmetry_space_group_name_H-M   'P 1'
_cell_length_a   6.85688000
_cell_length_b   6.85687000
_cell_length_c   13.19210000
_cell_angle_alpha   81.36000000
_cell_angle_beta   81.35950000
_cell_angle_gamma   70.58250000
_symmetry_Int_Tables_number   1
_chemical_formula_structural   ZnH10C12(NO3)2
_chemical_formula_sum   'Zn2 H20 C24 N4 O12'
_cell_volume   574.97680410
_cell_formula_units_Z   2
loop_
 _symmetry_equiv_pos_site_id
 _symmetry_equiv_pos_as_xyz
  1  'x, y, z'
loop_
 _atom_site_type_symbol
 _atom_site_label
 _atom_site_symmetry_multiplicity
 _atom_site_fract_x
 _atom_site_fract_y
 _atom_site_fract_z
 _atom_site_occupancy
  Zn  Zn0  1  0.70614000  0.29387000  0.75000000  1.0
  Zn  Zn1  1  0.29387000  0.70613000  0.25000000  1.0
  H  H2  1  0.41748000  0.82680000  0.47515000  1.0
  H  H3  1  0.17319000  0.58252000  0.02485000  1.0
  H  H4  1  0.58252000  0.17320000  0.52485000  1.0
  H  H5  1  0.82681000  0.41748000  0.97515000  1.0
  H  H6  1  0.22841000  0.19696000  0.41750000  1.0
  H  H7  1  0.80304000  0.77159000  0.08250000  1.0
  H  H8  1  0.77159000  0.80304000  0.58250000  1.0
  H  H9  1  0.19696000  0.22841000  0.91750000  1.0
  H  H10  1  0.92106000  0.38841000  0.53748000  1.0
  H  H11  1  0.61159000  0.07894000  0.96252000  1.0
  H  H12  1  0.07894000  0.61159000  0.46252000  1.0
  H  H13  1  0.38841000  0.92106000  0.03748000  1.0
  H  H14  1  0.37922000  0.25084000  0.70056000  1.0
  H  H15  1  0.74916000  0.62078000  0.79944000  1.0
  H  H16  1  0.62078000  0.74916000  0.29944000  1.0
  H  H17  1  0.25084000  0.37922000  0.20056000  1.0
  H  H18  1  0.48443000  0.01613000  0.75750000  1.0
  H  H19  1  0.98388000  0.51557000  0.74250000  1.0
  H  H20  1  0.51557000  0.98387000  0.24250000  1.0
  H  H21  1  0.01613000  0.48443000  0.25750000  1.0
  C  C22  1  0.35006000  0.60306000  0.64958000  1.0
  C  C23  1  0.39694000  0.64994000  0.85042000  1.0
  C  C24  1  0.64994000  0.39694000  0.35042000  1.0
  C  C25  1  0.60306000  0.35006000  0.14958000  1.0
  C  C26  1  0.24950000  0.83388000  0.62710000  1.0
  C  C27  1  0.16612000  0.75051000  0.87290000  1.0
  C  C28  1  0.75050000  0.16612000  0.37290000  1.0
  C  C29  1  0.83388000  0.24949000  0.12710000  1.0
  C  C30  1  0.09624000  0.96108000  0.69412000  1.0
  C  C31  1  0.03892000  0.90377000  0.80588000  1.0
  C  C32  1  0.90376000  0.03892000  0.30588000  1.0
  C  C33  1  0.96108000  0.09623000  0.19412000  1.0
  C  C34  1  0.29828000  0.92196000  0.52763000  1.0
  C  C35  1  0.07803000  0.70173000  0.97237000  1.0
  C  C36  1  0.70172000  0.07803000  0.47237000  1.0
  C  C37  1  0.92197000  0.29827000  0.02763000  1.0
  C  C38  1  0.18975000  0.12605000  0.49408000  1.0
  C  C39  1  0.87395000  0.81026000  0.00591000  1.0
  C  C40  1  0.81025000  0.87395000  0.50592000  1.0
  C  C41  1  0.12605000  0.18974000  0.99409000  1.0
  C  C42  1  0.02536000  0.23430000  0.56066000  1.0
  C  C43  1  0.76570000  0.97464000  0.93934000  1.0
  C  C44  1  0.97464000  0.76569000  0.43934000  1.0
  C  C45  1  0.23430000  0.02536000  0.06066000  1.0
  N  N46  1  0.98288000  0.15405000  0.65691000  1.0
  N  N47  1  0.84595000  0.01713000  0.84309000  1.0
  N  N48  1  0.01712000  0.84595000  0.34309000  1.0
  N  N49  1  0.15405000  0.98287000  0.15691000  1.0
  O  O50  1  0.54791000  0.53315000  0.63747000  1.0
  O  O51  1  0.46685000  0.45210000  0.86253000  1.0
  O  O52  1  0.45209000  0.46685000  0.36253000  1.0
  O  O53  1  0.53315000  0.54790000  0.13746000  1.0
  O  O54  1  0.22788000  0.49494000  0.67528000  1.0
  O  O55  1  0.50507000  0.77213000  0.82473000  1.0
  O  O56  1  0.77213000  0.50506000  0.32473000  1.0
  O  O57  1  0.49493000  0.22787000  0.17527000  1.0
  O  O58  1  0.51124000  0.13330000  0.71010000  1.0
  O  O59  1  0.86670000  0.48877000  0.78990000  1.0
  O  O60  1  0.48876000  0.86670000  0.28990000  1.0
  O  O61  1  0.13330000  0.51123000  0.21010000  1.0
