# generated using pymatgen
data_ZnH21C17SN3O7
_symmetry_space_group_name_H-M   'P 1'
_cell_length_a   9.30561000
_cell_length_b   9.79094000
_cell_length_c   11.45380000
_cell_angle_alpha   90.00000000
_cell_angle_beta   94.05780000
_cell_angle_gamma   89.99980000
_symmetry_Int_Tables_number   1
_chemical_formula_structural   ZnH21C17SN3O7
_chemical_formula_sum   'Zn2 H42 C34 S2 N6 O14'
_cell_volume   1040.94734900
_cell_formula_units_Z   2
loop_
 _symmetry_equiv_pos_site_id
 _symmetry_equiv_pos_as_xyz
  1  'x, y, z'
loop_
 _atom_site_type_symbol
 _atom_site_label
 _atom_site_symmetry_multiplicity
 _atom_site_fract_x
 _atom_site_fract_y
 _atom_site_fract_z
 _atom_site_occupancy
  Zn  Zn0  1  0.19533000  0.16886000  0.57564000  1.0
  Zn  Zn1  1  0.80467000  0.66886000  0.42436000  1.0
  H  H2  1  0.76110000  0.73773000  0.70557000  1.0
  H  H3  1  0.23889000  0.23773000  0.29443000  1.0
  H  H4  1  0.83280000  0.97697000  0.75036000  1.0
  H  H5  1  0.16720000  0.47697000  0.24964000  1.0
  H  H6  1  0.44872000  0.03651000  0.93196000  1.0
  H  H7  1  0.55129000  0.53650000  0.06805000  1.0
  H  H8  1  0.37476000  0.79677000  0.88719000  1.0
  H  H9  1  0.62524000  0.29676000  0.11282000  1.0
  H  H10  1  0.60246000  0.23543000  0.88338000  1.0
  H  H11  1  0.39755000  0.73542000  0.11662000  1.0
  H  H12  1  0.76218000  0.20909000  0.81034000  1.0
  H  H13  1  0.23783000  0.70909000  0.18966000  1.0
  H  H14  1  0.75763000  0.16812000  0.96086000  1.0
  H  H15  1  0.24238000  0.66812000  0.03914000  1.0
  H  H16  1  0.25643000  0.65447000  0.64422000  1.0
  H  H17  1  0.74357000  0.15447000  0.35579000  1.0
  H  H18  1  0.36330000  0.58454000  0.40499000  1.0
  H  H19  1  0.63670000  0.08454000  0.59501000  1.0
  H  H20  1  0.18726000  0.64203000  0.42615000  1.0
  H  H21  1  0.81274000  0.14202000  0.57385000  1.0
  H  H22  1  0.46725000  0.80295000  0.48942000  1.0
  H  H23  1  0.53276000  0.30295000  0.51059000  1.0
  H  H24  1  0.35322000  0.82915000  0.36487000  1.0
  H  H25  1  0.64678000  0.32915000  0.63513000  1.0
  H  H26  1  0.26326000  0.33831000  0.78478000  1.0
  H  H27  1  0.73674000  0.83831000  0.21522000  1.0
  H  H28  1  0.26296000  0.31234000  0.00033000  1.0
  H  H29  1  0.73704000  0.81234000  0.99967000  1.0
  H  H30  1  0.16919000  0.09587000  0.08455000  1.0
  H  H31  1  0.83080000  0.59588000  0.91545000  1.0
  H  H32  1  0.08607000  0.95247000  0.72826000  1.0
  H  H33  1  0.91392000  0.45247000  0.27173000  1.0
  H  H34  1  0.00063000  0.82732000  0.89865000  1.0
  H  H35  1  0.99936000  0.32732000  0.10134000  1.0
  H  H36  1  0.04104000  0.87931000  0.03863000  1.0
  H  H37  1  0.95895000  0.37932000  0.96137000  1.0
  H  H38  1  0.53990000  0.55260000  0.56973000  1.0
  H  H39  1  0.46010000  0.05260000  0.43027000  1.0
  H  H40  1  0.96804000  0.24974000  0.45013000  1.0
  H  H41  1  0.03196000  0.74975000  0.54987000  1.0
  H  H42  1  0.98812000  0.08601000  0.42691000  1.0
  H  H43  1  0.01188000  0.58601000  0.57309000  1.0
  C  C44  1  0.69279000  0.80287000  0.75569000  1.0
  C  C45  1  0.30721000  0.30287000  0.24430000  1.0
  C  C46  1  0.73284000  0.93713000  0.78146000  1.0
  C  C47  1  0.26716000  0.43713000  0.21853000  1.0
  C  C48  1  0.64676000  0.02352000  0.84551000  1.0
  C  C49  1  0.35325000  0.52352000  0.15449000  1.0
  C  C50  1  0.51686000  0.97155000  0.88181000  1.0
  C  C51  1  0.48315000  0.47154000  0.11819000  1.0
  C  C52  1  0.47469000  0.83724000  0.85703000  1.0
  C  C53  1  0.52531000  0.33724000  0.14298000  1.0
  C  C54  1  0.56352000  0.75312000  0.79496000  1.0
  C  C55  1  0.43648000  0.25312000  0.20504000  1.0
  C  C56  1  0.69425000  0.16644000  0.87596000  1.0
  C  C57  1  0.30575000  0.66643000  0.12403000  1.0
  C  C58  1  0.31146000  0.58694000  0.58510000  1.0
  C  C59  1  0.68854000  0.08694000  0.41490000  1.0
  C  C60  1  0.23154000  0.44973000  0.58345000  1.0
  C  C61  1  0.76846000  0.94973000  0.41655000  1.0
  C  C62  1  0.30006000  0.64851000  0.46139000  1.0
  C  C63  1  0.69995000  0.14851000  0.53862000  1.0
  C  C64  1  0.35372000  0.79487000  0.45652000  1.0
  C  C65  1  0.64628000  0.29486000  0.54348000  1.0
  C  C66  1  0.26881000  0.90010000  0.51920000  1.0
  C  C67  1  0.73120000  0.40010000  0.48080000  1.0
  C  C68  1  0.22008000  0.24672000  0.82285000  1.0
  C  C69  1  0.77992000  0.74672000  0.17715000  1.0
  C  C70  1  0.21928000  0.23094000  0.94359000  1.0
  C  C71  1  0.78071000  0.73095000  0.05641000  1.0
  C  C72  1  0.16563000  0.11177000  0.99010000  1.0
  C  C73  1  0.83437000  0.61177000  0.00990000  1.0
  C  C74  1  0.11315000  0.00767000  0.91367000  1.0
  C  C75  1  0.88684000  0.50767000  0.08633000  1.0
  C  C76  1  0.11847000  0.03072000  0.79270000  1.0
  C  C77  1  0.88153000  0.53072000  0.20730000  1.0
  S  S78  1  0.51406000  0.58083000  0.76441000  1.0
  S  S79  1  0.48593000  0.08082000  0.23560000  1.0
  N  N80  1  0.17018000  0.14694000  0.74952000  1.0
  N  N81  1  0.82982000  0.64694000  0.25048000  1.0
  N  N82  1  0.06553000  0.88471000  0.95394000  1.0
  N  N83  1  0.93447000  0.38472000  0.04605000  1.0
  N  N84  1  0.46166000  0.57551000  0.62733000  1.0
  N  N85  1  0.53834000  0.07551000  0.37268000  1.0
  O  O86  1  0.64561000  0.50116000  0.77974000  1.0
  O  O87  1  0.35439000  0.00116000  0.22026000  1.0
  O  O88  1  0.39184000  0.54957000  0.83163000  1.0
  O  O89  1  0.60816000  0.04956000  0.16838000  1.0
  O  O90  1  0.30618000  0.34163000  0.56806000  1.0
  O  O91  1  0.69382000  0.84163000  0.43194000  1.0
  O  O92  1  0.09804000  0.44897000  0.59593000  1.0
  O  O93  1  0.90196000  0.94896000  0.40407000  1.0
  O  O94  1  0.32404000  0.02241000  0.52218000  1.0
  O  O95  1  0.67597000  0.52240000  0.47782000  1.0
  O  O96  1  0.15269000  0.87370000  0.56406000  1.0
  O  O97  1  0.84731000  0.37370000  0.43594000  1.0
  O  O98  1  0.04183000  0.17511000  0.44655000  1.0
  O  O99  1  0.95818000  0.67511000  0.55345000  1.0
