# generated using pymatgen
data_Cu3H50C46(NO3)4
_symmetry_space_group_name_H-M   'P 1'
_cell_length_a   9.69557000
_cell_length_b   10.95930000
_cell_length_c   11.99830000
_cell_angle_alpha   81.07600000
_cell_angle_beta   69.28280000
_cell_angle_gamma   76.24020000
_symmetry_Int_Tables_number   1
_chemical_formula_structural   Cu3H50C46(NO3)4
_chemical_formula_sum   'Cu3 H50 C46 N4 O12'
_cell_volume   1154.69888554
_cell_formula_units_Z   1
loop_
 _symmetry_equiv_pos_site_id
 _symmetry_equiv_pos_as_xyz
  1  'x, y, z'
loop_
 _atom_site_type_symbol
 _atom_site_label
 _atom_site_symmetry_multiplicity
 _atom_site_fract_x
 _atom_site_fract_y
 _atom_site_fract_z
 _atom_site_occupancy
  Cu  Cu0  1  0.45181000  0.40968000  0.97697000  1.0
  Cu  Cu1  1  0.54820000  0.59032000  0.02303000  1.0
  Cu  Cu2  1  0.49999000  0.00000000  0.00000000  1.0
  H  H3  1  0.69276000  0.17311000  0.00641000  1.0
  H  H4  1  0.30724000  0.82688000  0.99359000  1.0
  H  H5  1  0.24736000  0.59273000  0.71413000  1.0
  H  H6  1  0.75266000  0.40726000  0.28586000  1.0
  H  H7  1  0.19313000  0.72183000  0.53831000  1.0
  H  H8  1  0.80688000  0.27816000  0.46170000  1.0
  H  H9  1  0.36824000  0.01995000  0.60368000  1.0
  H  H10  1  0.63177000  0.98005000  0.39633000  1.0
  H  H11  1  0.42083000  0.89271000  0.77737000  1.0
  H  H12  1  0.57918000  0.10728000  0.22264000  1.0
  H  H13  1  0.13306000  0.96572000  0.45425000  1.0
  H  H14  1  0.86694000  0.03427000  0.54576000  1.0
  H  H15  1  0.27485000  0.05004000  0.44063000  1.0
  H  H16  1  0.72515000  0.94996000  0.55938000  1.0
  H  H17  1  0.32147000  0.91120000  0.36638000  1.0
  H  H18  1  0.67854000  0.08879000  0.63362000  1.0
  H  H19  1  0.81714000  0.26223000  0.67836000  1.0
  H  H20  1  0.18286000  0.73777000  0.32164000  1.0
  H  H21  1  0.05482000  0.20601000  0.50960000  1.0
  H  H22  1  0.94518000  0.79400000  0.49039000  1.0
  H  H23  1  0.21789000  0.51044000  0.57412000  1.0
  H  H24  1  0.78212000  0.48956000  0.42586000  1.0
  H  H25  1  0.97941000  0.56666000  0.74428000  1.0
  H  H26  1  0.02061000  0.43334000  0.25571000  1.0
  H  H27  1  0.37186000  0.23760000  0.45879000  1.0
  H  H28  1  0.62813000  0.76240000  0.54120000  1.0
  H  H29  1  0.36122000  0.39769000  0.40453000  1.0
  H  H30  1  0.63879000  0.60230000  0.59546000  1.0
  H  H31  1  0.28094000  0.29842000  0.35175000  1.0
  H  H32  1  0.71907000  0.70158000  0.64824000  1.0
  H  H33  1  0.12328000  0.12447000  0.89738000  1.0
  H  H34  1  0.87671000  0.87553000  0.10262000  1.0
  H  H35  1  0.96270000  0.20151000  0.00724000  1.0
  H  H36  1  0.03729000  0.79850000  0.99275000  1.0
  H  H37  1  0.00613000  0.26087000  0.85467000  1.0
  H  H38  1  0.99386000  0.73913000  0.14532000  1.0
  H  H39  1  0.06906000  0.95629000  0.76481000  1.0
  H  H40  1  0.93093000  0.04371000  0.23518000  1.0
  H  H41  1  0.79381000  0.75977000  0.85304000  1.0
  H  H42  1  0.20617000  0.24023000  0.14697000  1.0
  H  H43  1  0.90076000  0.81745000  0.70859000  1.0
  H  H44  1  0.09923000  0.18255000  0.29142000  1.0
  H  H45  1  0.70095000  0.86839000  0.76536000  1.0
  H  H46  1  0.29904000  0.13161000  0.23464000  1.0
  H  H47  1  0.29943000  0.35198000  0.77675000  1.0
  H  H48  1  0.70057000  0.64805000  0.22324000  1.0
  H  H49  1  0.36384000  0.21804000  0.68862000  1.0
  H  H50  1  0.63609000  0.78196000  0.31140000  1.0
  H  H51  1  0.49274000  0.30686000  0.69553000  1.0
  H  H52  1  0.50726000  0.69311000  0.30445000  1.0
  C  C53  1  0.38339000  0.64913000  0.85340000  1.0
  C  C54  1  0.61663000  0.35087000  0.14661000  1.0
  C  C55  1  0.33824000  0.73303000  0.75642000  1.0
  C  C56  1  0.66177000  0.26696000  0.24358000  1.0
  C  C57  1  0.27260000  0.68688000  0.68876000  1.0
  C  C58  1  0.72742000  0.31312000  0.31125000  1.0
  C  C59  1  0.24356000  0.75917000  0.59061000  1.0
  C  C60  1  0.75644000  0.24083000  0.40939000  1.0
  C  C61  1  0.27921000  0.87958000  0.55698000  1.0
  C  C62  1  0.72080000  0.12042000  0.44303000  1.0
  C  C63  1  0.34169000  0.92592000  0.62694000  1.0
  C  C64  1  0.65831000  0.07408000  0.37307000  1.0
  C  C65  1  0.37098000  0.85421000  0.72573000  1.0
  C  C66  1  0.62903000  0.14578000  0.27428000  1.0
  C  C67  1  0.25060000  0.95573000  0.44941000  1.0
  C  C68  1  0.74941000  0.04427000  0.55060000  1.0
  C  C69  1  0.74133000  0.45025000  0.82284000  1.0
  C  C70  1  0.25869000  0.54976000  0.17716000  1.0
  C  C71  1  0.88322000  0.41864000  0.72078000  1.0
  C  C72  1  0.11679000  0.58136000  0.27921000  1.0
  C  C73  1  0.90526000  0.31685000  0.65425000  1.0
  C  C74  1  0.09475000  0.68315000  0.34575000  1.0
  C  C75  1  0.03869000  0.28547000  0.56069000  1.0
  C  C76  1  0.96130000  0.71453000  0.43930000  1.0
  C  C77  1  0.15323000  0.35472000  0.53052000  1.0
  C  C78  1  0.84677000  0.64528000  0.46946000  1.0
  C  C79  1  0.12949000  0.45615000  0.59761000  1.0
  C  C80  1  0.87052000  0.54385000  0.40237000  1.0
  C  C81  1  0.99686000  0.48819000  0.69184000  1.0
  C  C82  1  0.00316000  0.51183000  0.30815000  1.0
  C  C83  1  0.29862000  0.32081000  0.43111000  1.0
  C  C84  1  0.70139000  0.67919000  0.56887000  1.0
  C  C85  1  0.41637000  0.18780000  0.85332000  1.0
  C  C86  1  0.58360000  0.81221000  0.14669000  1.0
  C  C87  1  0.00631000  0.17452000  0.91496000  1.0
  C  C88  1  0.99368000  0.82548000  0.08503000  1.0
  C  C89  1  0.91603000  0.09200000  0.89607000  1.0
  C  C90  1  0.08396000  0.90800000  0.10392000  1.0
  C  C91  1  0.95692000  0.99322000  0.82286000  1.0
  C  C92  1  0.04307000  0.00679000  0.17714000  1.0
  C  C93  1  0.82459000  0.94964000  0.84092000  1.0
  C  C94  1  0.17539000  0.05036000  0.15908000  1.0
  C  C95  1  0.80429000  0.84304000  0.78891000  1.0
  C  C96  1  0.19570000  0.15696000  0.21109000  1.0
  C  C97  1  0.38984000  0.27053000  0.74679000  1.0
  C  C98  1  0.61013000  0.72947000  0.25323000  1.0
  N  N99  1  0.70888000  0.01921000  0.92061000  1.0
  N  N100  1  0.29112000  0.98078000  0.07939000  1.0
  N  N101  1  0.76610000  0.10350000  0.95367000  1.0
  N  N102  1  0.23388000  0.89651000  0.04634000  1.0
  O  O103  1  0.40299000  0.23565000  0.94691000  1.0
  O  O104  1  0.59696000  0.76437000  0.05311000  1.0
  O  O105  1  0.45513000  0.06792000  0.84411000  1.0
  O  O106  1  0.54485000  0.93210000  0.15591000  1.0
  O  O107  1  0.36560000  0.53583000  0.86763000  1.0
  O  O108  1  0.63444000  0.46415000  0.13237000  1.0
  O  O109  1  0.64343000  0.38257000  0.84195000  1.0
  O  O110  1  0.35660000  0.61741000  0.15807000  1.0
  O  O111  1  0.27085000  0.45905000  0.11681000  1.0
  O  O112  1  0.72917000  0.54097000  0.88317000  1.0
  O  O113  1  0.55873000  0.30282000  0.08672000  1.0
  O  O114  1  0.44126000  0.69717000  0.91330000  1.0
