# generated using pymatgen
data_NiH13C19S2(NO)4
_symmetry_space_group_name_H-M   'P 1'
_cell_length_a   7.08931000
_cell_length_b   11.05550000
_cell_length_c   12.99130000
_cell_angle_alpha   85.65120000
_cell_angle_beta   77.67120000
_cell_angle_gamma   79.94770000
_symmetry_Int_Tables_number   1
_chemical_formula_structural   NiH13C19S2(NO)4
_chemical_formula_sum   'Ni2 H26 C38 S4 N8 O8'
_cell_volume   978.66561461
_cell_formula_units_Z   2
loop_
 _symmetry_equiv_pos_site_id
 _symmetry_equiv_pos_as_xyz
  1  'x, y, z'
loop_
 _atom_site_type_symbol
 _atom_site_label
 _atom_site_symmetry_multiplicity
 _atom_site_fract_x
 _atom_site_fract_y
 _atom_site_fract_z
 _atom_site_occupancy
  Ni  Ni0  1  0.00000000  0.00000000  0.00000000  1.0
  Ni  Ni1  1  0.00000000  0.50000000  0.00000000  1.0
  H  H2  1  0.17103000  0.03127000  0.76310000  1.0
  H  H3  1  0.82896000  0.96871000  0.23689000  1.0
  H  H4  1  0.03356000  0.08410000  0.59937000  1.0
  H  H5  1  0.96644000  0.91589000  0.40063000  1.0
  H  H6  1  0.47691000  0.01440000  0.78337000  1.0
  H  H7  1  0.52309000  0.98560000  0.21664000  1.0
  H  H8  1  0.63784000  0.96109000  0.93718000  1.0
  H  H9  1  0.36216000  0.03891000  0.06283000  1.0
  H  H10  1  0.86070000  0.35353000  0.21072000  1.0
  H  H11  1  0.13930000  0.64647000  0.78928000  1.0
  H  H12  1  0.01070000  0.24632000  0.35779000  1.0
  H  H13  1  0.98930000  0.75368000  0.64221000  1.0
  H  H14  1  0.54595000  0.37694000  0.20778000  1.0
  H  H15  1  0.45405000  0.62306000  0.79222000  1.0
  H  H16  1  0.37603000  0.47697000  0.06674000  1.0
  H  H17  1  0.62397000  0.52302000  0.93326000  1.0
  H  H18  1  0.40114000  0.13090000  0.54075000  1.0
  H  H19  1  0.59886000  0.86910000  0.45925000  1.0
  H  H20  1  0.64421000  0.19259000  0.41862000  1.0
  H  H21  1  0.35579000  0.80741000  0.58138000  1.0
  H  H22  1  0.84882000  0.52567000  0.43842000  1.0
  H  H23  1  0.15118000  0.47434000  0.56157000  1.0
  H  H24  1  0.60564000  0.61332000  0.33041000  1.0
  H  H25  1  0.39437000  0.38669000  0.66958000  1.0
  H  H26  1  0.99005000  0.33094000  0.73425000  1.0
  H  H27  1  0.00994000  0.66908000  0.26575000  1.0
  C  C28  1  0.20445000  0.22785000  0.91444000  1.0
  C  C29  1  0.79554000  0.77215000  0.08556000  1.0
  C  C30  1  0.77441000  0.28070000  0.03535000  1.0
  C  C31  1  0.22559000  0.71930000  0.96465000  1.0
  C  C32  1  0.01824000  0.02821000  0.76373000  1.0
  C  C33  1  0.98176000  0.97178000  0.23627000  1.0
  C  C34  1  0.94199000  0.05760000  0.67315000  1.0
  C  C35  1  0.05801000  0.94239000  0.32685000  1.0
  C  C36  1  0.74290000  0.05598000  0.67981000  1.0
  C  C37  1  0.25710000  0.94402000  0.32019000  1.0
  C  C38  1  0.63121000  0.01893000  0.77518000  1.0
  C  C39  1  0.36879000  0.98107000  0.22482000  1.0
  C  C40  1  0.71949000  0.99040000  0.86143000  1.0
  C  C41  1  0.28051000  0.00960000  0.13857000  1.0
  C  C42  1  0.65085000  0.09714000  0.58797000  1.0
  C  C43  1  0.34916000  0.90286000  0.41203000  1.0
  C  C44  1  0.01270000  0.35597000  0.21255000  1.0
  C  C45  1  0.98730000  0.64403000  0.78746000  1.0
  C  C46  1  0.09609000  0.29621000  0.29420000  1.0
  C  C47  1  0.90391000  0.70380000  0.70580000  1.0
  C  C48  1  0.29263000  0.30114000  0.29241000  1.0
  C  C49  1  0.70737000  0.69887000  0.70759000  1.0
  C  C50  1  0.39493000  0.36811000  0.21053000  1.0
  C  C51  1  0.60508000  0.63189000  0.78947000  1.0
  C  C52  1  0.30081000  0.42440000  0.13202000  1.0
  C  C53  1  0.69919000  0.57560000  0.86798000  1.0
  C  C54  1  0.39179000  0.23597000  0.37534000  1.0
  C  C55  1  0.60821000  0.76403000  0.62466000  1.0
  C  C56  1  0.69626000  0.51416000  0.46529000  1.0
  C  C57  1  0.30375000  0.48584000  0.53469000  1.0
  C  C58  1  0.63901000  0.44905000  0.56137000  1.0
  C  C59  1  0.36100000  0.55095000  0.43861000  1.0
  C  C60  1  0.55950000  0.56433000  0.40514000  1.0
  C  C61  1  0.44050000  0.43568000  0.59485000  1.0
  C  C62  1  0.77679000  0.40026000  0.62506000  1.0
  C  C63  1  0.22322000  0.59975000  0.37493000  1.0
  C  C64  1  0.89075000  0.36153000  0.68232000  1.0
  C  C65  1  0.10925000  0.63848000  0.31768000  1.0
  S  S66  1  0.26477000  0.36317000  0.88161000  1.0
  S  S67  1  0.73522000  0.63683000  0.11839000  1.0
  S  S68  1  0.70396000  0.14798000  0.06257000  1.0
  S  S69  1  0.29604000  0.85201000  0.93744000  1.0
  N  N70  1  0.16083000  0.12937000  0.93823000  1.0
  N  N71  1  0.83917000  0.87063000  0.06177000  1.0
  N  N72  1  0.82194000  0.37893000  0.01888000  1.0
  N  N73  1  0.17806000  0.62106000  0.98112000  1.0
  N  N74  1  0.90800000  0.99845000  0.85705000  1.0
  N  N75  1  0.09201000  0.00154000  0.14296000  1.0
  N  N76  1  0.11340000  0.41791000  0.13192000  1.0
  N  N77  1  0.88660000  0.58209000  0.86809000  1.0
  O  O78  1  0.74857000  0.13079000  0.50227000  1.0
  O  O79  1  0.25143000  0.86921000  0.49774000  1.0
  O  O80  1  0.46053000  0.09691000  0.60625000  1.0
  O  O81  1  0.53946000  0.90309000  0.39376000  1.0
  O  O82  1  0.58041000  0.23968000  0.35871000  1.0
  O  O83  1  0.41959000  0.76033000  0.64129000  1.0
  O  O84  1  0.29988000  0.18169000  0.45285000  1.0
  O  O85  1  0.70012000  0.81831000  0.54715000  1.0
