# generated using pymatgen
data_CdH8C6N2O7
_symmetry_space_group_name_H-M   'P 1'
_cell_length_a   5.65972000
_cell_length_b   10.88890000
_cell_length_c   15.29540000
_cell_angle_alpha   90.00020000
_cell_angle_beta   89.99980000
_cell_angle_gamma   89.99930000
_symmetry_Int_Tables_number   1
_chemical_formula_structural   CdH8C6N2O7
_chemical_formula_sum   'Cd4 H32 C24 N8 O28'
_cell_volume   942.62682470
_cell_formula_units_Z   4
loop_
 _symmetry_equiv_pos_site_id
 _symmetry_equiv_pos_as_xyz
  1  'x, y, z'
loop_
 _atom_site_type_symbol
 _atom_site_label
 _atom_site_symmetry_multiplicity
 _atom_site_fract_x
 _atom_site_fract_y
 _atom_site_fract_z
 _atom_site_occupancy
  Cd  Cd0  1  0.44726000  0.90685000  0.64885000  1.0
  Cd  Cd1  1  0.05274000  0.09315000  0.14885000  1.0
  Cd  Cd2  1  0.55275000  0.40684000  0.85115000  1.0
  Cd  Cd3  1  0.94726000  0.59316000  0.35115000  1.0
  H  H4  1  0.76874000  0.10229000  0.59343000  1.0
  H  H5  1  0.73127000  0.89771000  0.09343000  1.0
  H  H6  1  0.23126000  0.60229000  0.90657000  1.0
  H  H7  1  0.26874000  0.39771000  0.40657000  1.0
  H  H8  1  0.91063000  0.05450000  0.67793000  1.0
  H  H9  1  0.58937000  0.94549000  0.17793000  1.0
  H  H10  1  0.08937000  0.55451000  0.82207000  1.0
  H  H11  1  0.41063000  0.44550000  0.32207000  1.0
  H  H12  1  0.73132000  0.72439000  0.57308000  1.0
  H  H13  1  0.76867000  0.27562000  0.07308000  1.0
  H  H14  1  0.26868000  0.22439000  0.92692000  1.0
  H  H15  1  0.23132000  0.77561000  0.42692000  1.0
  H  H16  1  0.85860000  0.84924000  0.55105000  1.0
  H  H17  1  0.64141000  0.15076000  0.05105000  1.0
  H  H18  1  0.14140000  0.34924000  0.94895000  1.0
  H  H19  1  0.35859000  0.65076000  0.44896000  1.0
  H  H20  1  0.14780000  0.67192000  0.66118000  1.0
  H  H21  1  0.35220000  0.32808000  0.16118000  1.0
  H  H22  1  0.85220000  0.17191000  0.83883000  1.0
  H  H23  1  0.64780000  0.82808000  0.33882000  1.0
  H  H24  1  0.29870000  0.67595000  0.74766000  1.0
  H  H25  1  0.20130000  0.32405000  0.24767000  1.0
  H  H26  1  0.70130000  0.17595000  0.75234000  1.0
  H  H27  1  0.79871000  0.82405000  0.25234000  1.0
  H  H28  1  0.96766000  0.78046000  0.93842000  1.0
  H  H29  1  0.53234000  0.21954000  0.43841000  1.0
  H  H30  1  0.03235000  0.28046000  0.56159000  1.0
  H  H31  1  0.46765000  0.71954000  0.06158000  1.0
  H  H32  1  0.87400000  0.78692000  0.77606000  1.0
  H  H33  1  0.62600000  0.21307000  0.27605000  1.0
  H  H34  1  0.12602000  0.28692000  0.72395000  1.0
  H  H35  1  0.37400000  0.71308000  0.22394000  1.0
  C  C36  1  0.22800000  0.02715000  0.81704000  1.0
  C  C37  1  0.27200000  0.97285000  0.31704000  1.0
  C  C38  1  0.77201000  0.52715000  0.68296000  1.0
  C  C39  1  0.72799000  0.47286000  0.18296000  1.0
  C  C40  1  0.43434000  0.95291000  0.85245000  1.0
  C  C41  1  0.06566000  0.04709000  0.35245000  1.0
  C  C42  1  0.56566000  0.45291000  0.64755000  1.0
  C  C43  1  0.93433000  0.54709000  0.14755000  1.0
  C  C44  1  0.48038000  0.94217000  0.94245000  1.0
  C  C45  1  0.01961000  0.05783000  0.44245000  1.0
  C  C46  1  0.51963000  0.44217000  0.55755000  1.0
  C  C47  1  0.98037000  0.55784000  0.05755000  1.0
  C  C48  1  0.81167000  0.82704000  0.91353000  1.0
  C  C49  1  0.68832000  0.17296000  0.41353000  1.0
  C  C50  1  0.18834000  0.32704000  0.58647000  1.0
  C  C51  1  0.31167000  0.67296000  0.08647000  1.0
  C  C52  1  0.76234000  0.83240000  0.82429000  1.0
  C  C53  1  0.73766000  0.16760000  0.32429000  1.0
  C  C54  1  0.23768000  0.33240000  0.67571000  1.0
  C  C55  1  0.26233000  0.66760000  0.17571000  1.0
  C  C56  1  0.32161000  0.99184000  0.01311000  1.0
  C  C57  1  0.17839000  0.00817000  0.51311000  1.0
  C  C58  1  0.67839000  0.49183000  0.48689000  1.0
  C  C59  1  0.82159000  0.50816000  0.98689000  1.0
  N  N60  1  0.57507000  0.89496000  0.79515000  1.0
  N  N61  1  0.92492000  0.10504000  0.29515000  1.0
  N  N62  1  0.42493000  0.39495000  0.70485000  1.0
  N  N63  1  0.07507000  0.60504000  0.20485000  1.0
  N  N64  1  0.66932000  0.88011000  0.97219000  1.0
  N  N65  1  0.83067000  0.11989000  0.47219000  1.0
  N  N66  1  0.33069000  0.38011000  0.52781000  1.0
  N  N67  1  0.16931000  0.61989000  0.02781000  1.0
  O  O68  1  0.75262000  0.08084000  0.65657000  1.0
  O  O69  1  0.74738000  0.91916000  0.15658000  1.0
  O  O70  1  0.24738000  0.58084000  0.84342000  1.0
  O  O71  1  0.25263000  0.41916000  0.34343000  1.0
  O  O72  1  0.69855000  0.81110000  0.55897000  1.0
  O  O73  1  0.80146000  0.18890000  0.05898000  1.0
  O  O74  1  0.30146000  0.31110000  0.94102000  1.0
  O  O75  1  0.19855000  0.68890000  0.44103000  1.0
  O  O76  1  0.29370000  0.70764000  0.68707000  1.0
  O  O77  1  0.20630000  0.29236000  0.18707000  1.0
  O  O78  1  0.70630000  0.20763000  0.81294000  1.0
  O  O79  1  0.79371000  0.79237000  0.31294000  1.0
  O  O80  1  0.17725000  0.01467000  0.73623000  1.0
  O  O81  1  0.32275000  0.98533000  0.23624000  1.0
  O  O82  1  0.82275000  0.51467000  0.76376000  1.0
  O  O83  1  0.67724000  0.48534000  0.26376000  1.0
  O  O84  1  0.11956000  0.09483000  0.87066000  1.0
  O  O85  1  0.38044000  0.90517000  0.37066000  1.0
  O  O86  1  0.88044000  0.59483000  0.62933000  1.0
  O  O87  1  0.61956000  0.40517000  0.12934000  1.0
  O  O88  1  0.37840000  0.09349000  0.04911000  1.0
  O  O89  1  0.12160000  0.90652000  0.54911000  1.0
  O  O90  1  0.62162000  0.59348000  0.45090000  1.0
  O  O91  1  0.87839000  0.40652000  0.95089000  1.0
  O  O92  1  0.15210000  0.92601000  0.03757000  1.0
  O  O93  1  0.34789000  0.07401000  0.53757000  1.0
  O  O94  1  0.84790000  0.42600000  0.46243000  1.0
  O  O95  1  0.65208000  0.57399000  0.96243000  1.0
