# generated using pymatgen
data_Zn2H23C35N5O9
_symmetry_space_group_name_H-M   'P 1'
_cell_length_a   13.63060000
_cell_length_b   15.67930000
_cell_length_c   15.89990000
_cell_angle_alpha   89.99970000
_cell_angle_beta   90.00000000
_cell_angle_gamma   109.34900000
_symmetry_Int_Tables_number   1
_chemical_formula_structural   Zn2H23C35N5O9
_chemical_formula_sum   'Zn8 H92 C140 N20 O36'
_cell_volume   3206.16745455
_cell_formula_units_Z   4
loop_
 _symmetry_equiv_pos_site_id
 _symmetry_equiv_pos_as_xyz
  1  'x, y, z'
loop_
 _atom_site_type_symbol
 _atom_site_label
 _atom_site_symmetry_multiplicity
 _atom_site_fract_x
 _atom_site_fract_y
 _atom_site_fract_z
 _atom_site_occupancy
  Zn  Zn0  1  0.05110000  0.67302000  0.69893000  1.0
  Zn  Zn1  1  0.94890000  0.82698000  0.69893000  1.0
  Zn  Zn2  1  0.94889000  0.32698000  0.30107000  1.0
  Zn  Zn3  1  0.05110000  0.17302000  0.30107000  1.0
  Zn  Zn4  1  0.17084000  0.90360000  0.78844000  1.0
  Zn  Zn5  1  0.82916000  0.59639000  0.78844000  1.0
  Zn  Zn6  1  0.82916000  0.09640000  0.21156000  1.0
  Zn  Zn7  1  0.17083000  0.40360000  0.21156000  1.0
  H  H8  1  0.12879000  0.82909000  0.64792000  1.0
  H  H9  1  0.87121000  0.67091000  0.64792000  1.0
  H  H10  1  0.87121000  0.17091000  0.35208000  1.0
  H  H11  1  0.12878000  0.32909000  0.35208000  1.0
  H  H12  1  0.09295000  0.59007000  0.45132000  1.0
  H  H13  1  0.90704000  0.90993000  0.45132000  1.0
  H  H14  1  0.90705000  0.40993000  0.54868000  1.0
  H  H15  1  0.09295000  0.09007000  0.54868000  1.0
  H  H16  1  0.15187000  0.83837000  0.24343000  1.0
  H  H17  1  0.84813000  0.66163000  0.24343000  1.0
  H  H18  1  0.84813000  0.16163000  0.75657000  1.0
  H  H19  1  0.15187000  0.33836000  0.75657000  1.0
  H  H20  1  0.17172000  0.87313000  0.39766000  1.0
  H  H21  1  0.82827000  0.62686000  0.39766000  1.0
  H  H22  1  0.82827000  0.12686000  0.60234000  1.0
  H  H23  1  0.17172000  0.37314000  0.60234000  1.0
  H  H24  1  0.94013000  0.56903000  0.20539000  1.0
  H  H25  1  0.05987000  0.93097000  0.20539000  1.0
  H  H26  1  0.05987000  0.43097000  0.79461000  1.0
  H  H27  1  0.94013000  0.06903000  0.79461000  1.0
  H  H28  1  0.15102000  0.74247000  0.96987000  1.0
  H  H29  1  0.84899000  0.75752000  0.96987000  1.0
  H  H30  1  0.84898000  0.25753000  0.03013000  1.0
  H  H31  1  0.15102000  0.24248000  0.03013000  1.0
  H  H32  1  0.21864000  0.77201000  0.11568000  1.0
  H  H33  1  0.78136000  0.72800000  0.11568000  1.0
  H  H34  1  0.78136000  0.22799000  0.88432000  1.0
  H  H35  1  0.21864000  0.27200000  0.88432000  1.0
  H  H36  1  0.20933000  0.70927000  0.84772000  1.0
  H  H37  1  0.79067000  0.79073000  0.84771000  1.0
  H  H38  1  0.79067000  0.29073000  0.15228000  1.0
  H  H39  1  0.20933000  0.20928000  0.15229000  1.0
  H  H40  1  0.38051000  0.68829000  0.87498000  1.0
  H  H41  1  0.61950000  0.81171000  0.87498000  1.0
  H  H42  1  0.61949000  0.31171000  0.12502000  1.0
  H  H43  1  0.38051000  0.18830000  0.12502000  1.0
  H  H44  1  0.35365000  0.56368000  0.62954000  1.0
  H  H45  1  0.64636000  0.93632000  0.62954000  1.0
  H  H46  1  0.64635000  0.43632000  0.37046000  1.0
  H  H47  1  0.35365000  0.06369000  0.37047000  1.0
  H  H48  1  0.18292000  0.59017000  0.61375000  1.0
  H  H49  1  0.81709000  0.90983000  0.61374000  1.0
  H  H50  1  0.81708000  0.40983000  0.38625000  1.0
  H  H51  1  0.18292000  0.09018000  0.38626000  1.0
  H  H52  1  0.48056000  0.59966000  0.90149000  1.0
  H  H53  1  0.51945000  0.90034000  0.90149000  1.0
  H  H54  1  0.51944000  0.40034000  0.09850000  1.0
  H  H55  1  0.48055000  0.09967000  0.09851000  1.0
  H  H56  1  0.65402000  0.58235000  0.90819000  1.0
  H  H57  1  0.34599000  0.91765000  0.90819000  1.0
  H  H58  1  0.34598000  0.41765000  0.09181000  1.0
  H  H59  1  0.65401000  0.08235000  0.09181000  1.0
  H  H60  1  0.69607000  0.61340000  0.64989000  1.0
  H  H61  1  0.30393000  0.88660000  0.64990000  1.0
  H  H62  1  0.30393000  0.38661000  0.35011000  1.0
  H  H63  1  0.69607000  0.11339000  0.35011000  1.0
  H  H64  1  0.52043000  0.62600000  0.62977000  1.0
  H  H65  1  0.47957000  0.87401000  0.62977000  1.0
  H  H66  1  0.47957000  0.37401000  0.37023000  1.0
  H  H67  1  0.52043000  0.12600000  0.37023000  1.0
  H  H68  1  0.35305000  0.82670000  0.33536000  1.0
  H  H69  1  0.64694000  0.67330000  0.33536000  1.0
  H  H70  1  0.64695000  0.17331000  0.66464000  1.0
  H  H71  1  0.35305000  0.32670000  0.66465000  1.0
  H  H72  1  0.36725000  0.83901000  0.48980000  1.0
  H  H73  1  0.63275000  0.66099000  0.48980000  1.0
  H  H74  1  0.63276000  0.16100000  0.51020000  1.0
  H  H75  1  0.36724000  0.33901000  0.51021000  1.0
  H  H76  1  0.68903000  0.91891000  0.48059000  1.0
  H  H77  1  0.31097000  0.58109000  0.48059000  1.0
  H  H78  1  0.31097000  0.08109000  0.51941000  1.0
  H  H79  1  0.68903000  0.41892000  0.51941000  1.0
  H  H80  1  0.68947000  0.91448000  0.32530000  1.0
  H  H81  1  0.31052000  0.58552000  0.32530000  1.0
  H  H82  1  0.31053000  0.08552000  0.67470000  1.0
  H  H83  1  0.68948000  0.41448000  0.67470000  1.0
  H  H84  1  0.67056000  0.85779000  0.20336000  1.0
  H  H85  1  0.32943000  0.64221000  0.20337000  1.0
  H  H86  1  0.32944000  0.14221000  0.79663000  1.0
  H  H87  1  0.67057000  0.35779000  0.79664000  1.0
  H  H88  1  0.66130000  0.86398000  0.04848000  1.0
  H  H89  1  0.33870000  0.63602000  0.04848000  1.0
  H  H90  1  0.33870000  0.13602000  0.95152000  1.0
  H  H91  1  0.66130000  0.36398000  0.95152000  1.0
  H  H92  1  0.36819000  0.88887000  0.05619000  1.0
  H  H93  1  0.63181000  0.61114000  0.05619000  1.0
  H  H94  1  0.63182000  0.11114000  0.94381000  1.0
  H  H95  1  0.36819000  0.38886000  0.94381000  1.0
  H  H96  1  0.36465000  0.88520000  0.21123000  1.0
  H  H97  1  0.63535000  0.61480000  0.21123000  1.0
  H  H98  1  0.63535000  0.11481000  0.78877000  1.0
  H  H99  1  0.36465000  0.38520000  0.78877000  1.0
  C  C100  1  0.13114000  0.75135000  0.52683000  1.0
  C  C101  1  0.86885000  0.74864000  0.52683000  1.0
  C  C102  1  0.86885000  0.24864000  0.47317000  1.0
  C  C103  1  0.13114000  0.25135000  0.47317000  1.0
  C  C104  1  0.13251000  0.73374000  0.43390000  1.0
  C  C105  1  0.86748000  0.76625000  0.43391000  1.0
  C  C106  1  0.86749000  0.26625000  0.56609000  1.0
  C  C107  1  0.13251000  0.23375000  0.56609000  1.0
  C  C108  1  0.10857000  0.64473000  0.40561000  1.0
  C  C109  1  0.89141000  0.85527000  0.40561000  1.0
  C  C110  1  0.89143000  0.35526000  0.59440000  1.0
  C  C111  1  0.10858000  0.14473000  0.59439000  1.0
  C  C112  1  0.10319000  0.62548000  0.31991000  1.0
  C  C113  1  0.89681000  0.87452000  0.31991000  1.0
  C  C114  1  0.89681000  0.37451000  0.68009000  1.0
  C  C115  1  0.10319000  0.12548000  0.68009000  1.0
  C  C116  1  0.08826000  0.53051000  0.29264000  1.0
  C  C117  1  0.91173000  0.96948000  0.29264000  1.0
  C  C118  1  0.91174000  0.46948000  0.70736000  1.0
  C  C119  1  0.08827000  0.03051000  0.70736000  1.0
  C  C120  1  0.11527000  0.69490000  0.26045000  1.0
  C  C121  1  0.88473000  0.80510000  0.26045000  1.0
  C  C122  1  0.88473000  0.30510000  0.73956000  1.0
  C  C123  1  0.11527000  0.19489000  0.73955000  1.0
  C  C124  1  0.14284000  0.78445000  0.28917000  1.0
  C  C125  1  0.85716000  0.71555000  0.28917000  1.0
  C  C126  1  0.85716000  0.21554000  0.71083000  1.0
  C  C127  1  0.14284000  0.28445000  0.71083000  1.0
  C  C128  1  0.15275000  0.80389000  0.37503000  1.0
  C  C129  1  0.84725000  0.69610000  0.37503000  1.0
  C  C130  1  0.84725000  0.19610000  0.62497000  1.0
  C  C131  1  0.15275000  0.30389000  0.62496000  1.0
  C  C132  1  0.08473000  0.67321000  0.17166000  1.0
  C  C133  1  0.91527000  0.82679000  0.17166000  1.0
  C  C134  1  0.91527000  0.32679000  0.82834000  1.0
  C  C135  1  0.08472000  0.17321000  0.82834000  1.0
  C  C136  1  0.98799000  0.60772000  0.15454000  1.0
  C  C137  1  0.01201000  0.89228000  0.15454000  1.0
  C  C138  1  0.01201000  0.39227000  0.84545000  1.0
  C  C139  1  0.98799000  0.10772000  0.84546000  1.0
  C  C140  1  0.95089000  0.59356000  0.07257000  1.0
  C  C141  1  0.04911000  0.90644000  0.07257000  1.0
  C  C142  1  0.04911000  0.40644000  0.92743000  1.0
  C  C143  1  0.95089000  0.09356000  0.92744000  1.0
  C  C144  1  0.00830000  0.64075000  0.00402000  1.0
  C  C145  1  0.99170000  0.85925000  0.00402000  1.0
  C  C146  1  0.99170000  0.35925000  0.99598000  1.0
  C  C147  1  0.00830000  0.14075000  0.99598000  1.0
  C  C148  1  0.96784000  0.63415000  0.91554000  1.0
  C  C149  1  0.03217000  0.86585000  0.91554000  1.0
  C  C150  1  0.03216000  0.36585000  0.08446000  1.0
  C  C151  1  0.96784000  0.13416000  0.08446000  1.0
  C  C152  1  0.10632000  0.70348000  0.02193000  1.0
  C  C153  1  0.89368000  0.79652000  0.02193000  1.0
  C  C154  1  0.89368000  0.29652000  0.97807000  1.0
  C  C155  1  0.10632000  0.20348000  0.97807000  1.0
  C  C156  1  0.14347000  0.72067000  0.10380000  1.0
  C  C157  1  0.85653000  0.77933000  0.10380000  1.0
  C  C158  1  0.85652000  0.27933000  0.89620000  1.0
  C  C159  1  0.14348000  0.22067000  0.89619000  1.0
  C  C160  1  0.24537000  0.67843000  0.80110000  1.0
  C  C161  1  0.75464000  0.82156000  0.80109000  1.0
  C  C162  1  0.75464000  0.32157000  0.19890000  1.0
  C  C163  1  0.24536000  0.17844000  0.19891000  1.0
  C  C164  1  0.33975000  0.66534000  0.81596000  1.0
  C  C165  1  0.66025000  0.83466000  0.81596000  1.0
  C  C166  1  0.66025000  0.33466000  0.18404000  1.0
  C  C167  1  0.33976000  0.16535000  0.18404000  1.0
  C  C168  1  0.38213000  0.62472000  0.75373000  1.0
  C  C169  1  0.61788000  0.87529000  0.75373000  1.0
  C  C170  1  0.61787000  0.37529000  0.24627000  1.0
  C  C171  1  0.38213000  0.12473000  0.24627000  1.0
  C  C172  1  0.32459000  0.59626000  0.67966000  1.0
  C  C173  1  0.67542000  0.90375000  0.67966000  1.0
  C  C174  1  0.67541000  0.40374000  0.32034000  1.0
  C  C175  1  0.32458000  0.09626000  0.32034000  1.0
  C  C176  1  0.23034000  0.61100000  0.67008000  1.0
  C  C177  1  0.76967000  0.88900000  0.67008000  1.0
  C  C178  1  0.76966000  0.38900000  0.32992000  1.0
  C  C179  1  0.23034000  0.11101000  0.32992000  1.0
  C  C180  1  0.48480000  0.61398000  0.76390000  1.0
  C  C181  1  0.51521000  0.88603000  0.76390000  1.0
  C  C182  1  0.51520000  0.38603000  0.23611000  1.0
  C  C183  1  0.48480000  0.11398000  0.23610000  1.0
  C  C184  1  0.52373000  0.60218000  0.84316000  1.0
  C  C185  1  0.47628000  0.89783000  0.84316000  1.0
  C  C186  1  0.47627000  0.39782000  0.15684000  1.0
  C  C187  1  0.52373000  0.10217000  0.15684000  1.0
  C  C188  1  0.62140000  0.59310000  0.84811000  1.0
  C  C189  1  0.37861000  0.90691000  0.84811000  1.0
  C  C190  1  0.37860000  0.40690000  0.15189000  1.0
  C  C191  1  0.62140000  0.09309000  0.15189000  1.0
  C  C192  1  0.64448000  0.60868000  0.70347000  1.0
  C  C193  1  0.35552000  0.89132000  0.70347000  1.0
  C  C194  1  0.35552000  0.39132000  0.29652000  1.0
  C  C195  1  0.64448000  0.10868000  0.29653000  1.0
  C  C196  1  0.54701000  0.61676000  0.69298000  1.0
  C  C197  1  0.45300000  0.88324000  0.69298000  1.0
  C  C198  1  0.45299000  0.38324000  0.30702000  1.0
  C  C199  1  0.54701000  0.11676000  0.30702000  1.0
  C  C200  1  0.42992000  0.84907000  0.36417000  1.0
  C  C201  1  0.57008000  0.65093000  0.36417000  1.0
  C  C202  1  0.57008000  0.15094000  0.63584000  1.0
  C  C203  1  0.42992000  0.34907000  0.63584000  1.0
  C  C204  1  0.43773000  0.85486000  0.45153000  1.0
  C  C205  1  0.56227000  0.64514000  0.45153000  1.0
  C  C206  1  0.56227000  0.14514000  0.54847000  1.0
  C  C207  1  0.43773000  0.35486000  0.54848000  1.0
  C  C208  1  0.61531000  0.89905000  0.44634000  1.0
  C  C209  1  0.38469000  0.60094000  0.44635000  1.0
  C  C210  1  0.38469000  0.10094000  0.55365000  1.0
  C  C211  1  0.61531000  0.39906000  0.55366000  1.0
  C  C212  1  0.61564000  0.89585000  0.35885000  1.0
  C  C213  1  0.38435000  0.60415000  0.35885000  1.0
  C  C214  1  0.38436000  0.10415000  0.64115000  1.0
  C  C215  1  0.61564000  0.39585000  0.64115000  1.0
  C  C216  1  0.52067000  0.87076000  0.31535000  1.0
  C  C217  1  0.47933000  0.62924000  0.31535000  1.0
  C  C218  1  0.47933000  0.12925000  0.68465000  1.0
  C  C219  1  0.52067000  0.37076000  0.68465000  1.0
  C  C220  1  0.51712000  0.86952000  0.22237000  1.0
  C  C221  1  0.48287000  0.63048000  0.22237000  1.0
  C  C222  1  0.48287000  0.13048000  0.77764000  1.0
  C  C223  1  0.51713000  0.36952000  0.77764000  1.0
  C  C224  1  0.60077000  0.86341000  0.17397000  1.0
  C  C225  1  0.39923000  0.63659000  0.17397000  1.0
  C  C226  1  0.39923000  0.13659000  0.82603000  1.0
  C  C227  1  0.60077000  0.36341000  0.82603000  1.0
  C  C228  1  0.59562000  0.86657000  0.08658000  1.0
  C  C229  1  0.40437000  0.63343000  0.08658000  1.0
  C  C230  1  0.40438000  0.13343000  0.91343000  1.0
  C  C231  1  0.59562000  0.36657000  0.91343000  1.0
  C  C232  1  0.43363000  0.88020000  0.09069000  1.0
  C  C233  1  0.56637000  0.61980000  0.09069000  1.0
  C  C234  1  0.56637000  0.11981000  0.90931000  1.0
  C  C235  1  0.43363000  0.38019000  0.90931000  1.0
  C  C236  1  0.43147000  0.87775000  0.17827000  1.0
  C  C237  1  0.56853000  0.62225000  0.17826000  1.0
  C  C238  1  0.56853000  0.12226000  0.82174000  1.0
  C  C239  1  0.43147000  0.37774000  0.82174000  1.0
  N  N240  1  0.84605000  0.52711000  0.06170000  1.0
  N  N241  1  0.15395000  0.97289000  0.06170000  1.0
  N  N242  1  0.15395000  0.47289000  0.93830000  1.0
  N  N243  1  0.84605000  0.02710000  0.93831000  1.0
  N  N244  1  0.19165000  0.65251000  0.72929000  1.0
  N  N245  1  0.80836000  0.84748000  0.72929000  1.0
  N  N246  1  0.80835000  0.34749000  0.27071000  1.0
  N  N247  1  0.19165000  0.15252000  0.27071000  1.0
  N  N248  1  0.68113000  0.59654000  0.77980000  1.0
  N  N249  1  0.31888000  0.90347000  0.77980000  1.0
  N  N250  1  0.31887000  0.40346000  0.22020000  1.0
  N  N251  1  0.68113000  0.09653000  0.22020000  1.0
  N  N252  1  0.52866000  0.87965000  0.49317000  1.0
  N  N253  1  0.47134000  0.62035000  0.49317000  1.0
  N  N254  1  0.47135000  0.12035000  0.50683000  1.0
  N  N255  1  0.52866000  0.37966000  0.50683000  1.0
  N  N256  1  0.51381000  0.87495000  0.04438000  1.0
  N  N257  1  0.48619000  0.62505000  0.04438000  1.0
  N  N258  1  0.48619000  0.12505000  0.95562000  1.0
  N  N259  1  0.51381000  0.37495000  0.95563000  1.0
  O  O260  1  0.08196000  0.68214000  0.57099000  1.0
  O  O261  1  0.91804000  0.81786000  0.57099000  1.0
  O  O262  1  0.91803000  0.31786000  0.42901000  1.0
  O  O263  1  0.08196000  0.18214000  0.42901000  1.0
  O  O264  1  0.17614000  0.83087000  0.55399000  1.0
  O  O265  1  0.82385000  0.66912000  0.55399000  1.0
  O  O266  1  0.82385000  0.16912000  0.44601000  1.0
  O  O267  1  0.17614000  0.33088000  0.44601000  1.0
  O  O268  1  0.16151000  0.52209000  0.24572000  1.0
  O  O269  1  0.83849000  0.97792000  0.24572000  1.0
  O  O270  1  0.83849000  0.47791000  0.75427000  1.0
  O  O271  1  0.16151000  0.02208000  0.75428000  1.0
  O  O272  1  0.00943000  0.46871000  0.31903000  1.0
  O  O273  1  0.99057000  0.03128000  0.31903000  1.0
  O  O274  1  0.99057000  0.53128000  0.68097000  1.0
  O  O275  1  0.00943000  0.96871000  0.68097000  1.0
  O  O276  1  0.86867000  0.61751000  0.90777000  1.0
  O  O277  1  0.13134000  0.88248000  0.90777000  1.0
  O  O278  1  0.13134000  0.38249000  0.09223000  1.0
  O  O279  1  0.86867000  0.11753000  0.09223000  1.0
  O  O280  1  0.03100000  0.64767000  0.85569000  1.0
  O  O281  1  0.96900000  0.85233000  0.85570000  1.0
  O  O282  1  0.96900000  0.35233000  0.14430000  1.0
  O  O283  1  0.03100000  0.14767000  0.14430000  1.0
  O  O284  1  0.83436000  0.46478000  0.01114000  1.0
  O  O285  1  0.16563000  0.03522000  0.01114000  1.0
  O  O286  1  0.16564000  0.53521000  0.98886000  1.0
  O  O287  1  0.83436000  0.96478000  0.98886000  1.0
  O  O288  1  0.77576000  0.53751000  0.10640000  1.0
  O  O289  1  0.22424000  0.96250000  0.10640000  1.0
  O  O290  1  0.22424000  0.46249000  0.89360000  1.0
  O  O291  1  0.77576000  0.03751000  0.89361000  1.0
  O  O292  1  0.09508000  0.81526000  0.70556000  1.0
  O  O293  1  0.90493000  0.68474000  0.70556000  1.0
  O  O294  1  0.90492000  0.18474000  0.29444000  1.0
  O  O295  1  0.09507000  0.31526000  0.29444000  1.0
