# generated using pymatgen
data_ZrHgH6(C2O5)3
_symmetry_space_group_name_H-M   'P 1'
_cell_length_a   8.87587000
_cell_length_b   10.16490000
_cell_length_c   16.79230000
_cell_angle_alpha   90.00000000
_cell_angle_beta   90.00000000
_cell_angle_gamma   105.47200000
_symmetry_Int_Tables_number   1
_chemical_formula_structural   ZrHgH6(C2O5)3
_chemical_formula_sum   'Zr4 Hg4 H24 C24 O60'
_cell_volume   1460.13679962
_cell_formula_units_Z   4
loop_
 _symmetry_equiv_pos_site_id
 _symmetry_equiv_pos_as_xyz
  1  'x, y, z'
loop_
 _atom_site_type_symbol
 _atom_site_label
 _atom_site_symmetry_multiplicity
 _atom_site_fract_x
 _atom_site_fract_y
 _atom_site_fract_z
 _atom_site_occupancy
  Zr  Zr0  1  0.19644000  0.89257000  0.40833000  1.0
  Zr  Zr1  1  0.80357000  0.60743000  0.90833000  1.0
  Zr  Zr2  1  0.80356000  0.10743000  0.59167000  1.0
  Zr  Zr3  1  0.19643000  0.39257000  0.09167000  1.0
  Hg  Hg4  1  0.43866000  0.52425000  0.63147000  1.0
  Hg  Hg5  1  0.56134000  0.97574000  0.13147000  1.0
  Hg  Hg6  1  0.56134000  0.47575000  0.36853000  1.0
  Hg  Hg7  1  0.43866000  0.02426000  0.86853000  1.0
  H  H8  1  0.41951000  0.50108000  0.80575000  1.0
  H  H9  1  0.58050000  0.99893000  0.30575000  1.0
  H  H10  1  0.58050000  0.49893000  0.19425000  1.0
  H  H11  1  0.41951000  0.00107000  0.69425000  1.0
  H  H12  1  0.32539000  0.60770000  0.78958000  1.0
  H  H13  1  0.67461000  0.89230000  0.28958000  1.0
  H  H14  1  0.67461000  0.39230000  0.21043000  1.0
  H  H15  1  0.32539000  0.10770000  0.71043000  1.0
  H  H16  1  0.23223000  0.99953000  0.24905000  1.0
  H  H17  1  0.76777000  0.50047000  0.74905000  1.0
  H  H18  1  0.76777000  0.00047000  0.75095000  1.0
  H  H19  1  0.23223000  0.49953000  0.25095000  1.0
  H  H20  1  0.06595000  0.00696000  0.28275000  1.0
  H  H21  1  0.93406000  0.49304000  0.78275000  1.0
  H  H22  1  0.93406000  0.99304000  0.71725000  1.0
  H  H23  1  0.06594000  0.50696000  0.21725000  1.0
  H  H24  1  0.13103000  0.98258000  0.56764000  1.0
  H  H25  1  0.86898000  0.51742000  0.06764000  1.0
  H  H26  1  0.86898000  0.01742000  0.43236000  1.0
  H  H27  1  0.13102000  0.48258000  0.93236000  1.0
  H  H28  1  0.22033000  0.86135000  0.57567000  1.0
  H  H29  1  0.77967000  0.63864000  0.07567000  1.0
  H  H30  1  0.77967000  0.13864000  0.42433000  1.0
  H  H31  1  0.22033000  0.36136000  0.92433000  1.0
  C  C32  1  0.39556000  0.69597000  0.43316000  1.0
  C  C33  1  0.60444000  0.80404000  0.93317000  1.0
  C  C34  1  0.60444000  0.30403000  0.56684000  1.0
  C  C35  1  0.39556000  0.19596000  0.06683000  1.0
  C  C36  1  0.34894000  0.68091000  0.34411000  1.0
  C  C37  1  0.65106000  0.81910000  0.84412000  1.0
  C  C38  1  0.65105000  0.31909000  0.65589000  1.0
  C  C39  1  0.34894000  0.18090000  0.15588000  1.0
  C  C40  1  0.69065000  0.79674000  0.59868000  1.0
  C  C41  1  0.30934000  0.70326000  0.09868000  1.0
  C  C42  1  0.30934000  0.20327000  0.40132000  1.0
  C  C43  1  0.69066000  0.29674000  0.90132000  1.0
  C  C44  1  0.54477000  0.84403000  0.62324000  1.0
  C  C45  1  0.45522000  0.65597000  0.12324000  1.0
  C  C46  1  0.45522000  0.15598000  0.37676000  1.0
  C  C47  1  0.54478000  0.34403000  0.87676000  1.0
  C  C48  1  0.15867000  0.22740000  0.61496000  1.0
  C  C49  1  0.84132000  0.27259000  0.11495000  1.0
  C  C50  1  0.84132000  0.77260000  0.38504000  1.0
  C  C51  1  0.15868000  0.72741000  0.88505000  1.0
  C  C52  1  0.09613000  0.35066000  0.59139000  1.0
  C  C53  1  0.90386000  0.14934000  0.09139000  1.0
  C  C54  1  0.90387000  0.64934000  0.40861000  1.0
  C  C55  1  0.09614000  0.85066000  0.90861000  1.0
  O  O56  1  0.46627000  0.61952000  0.46498000  1.0
  O  O57  1  0.53373000  0.88049000  0.96498000  1.0
  O  O58  1  0.53373000  0.38049000  0.53502000  1.0
  O  O59  1  0.46627000  0.11951000  0.03502000  1.0
  O  O60  1  0.35174000  0.79201000  0.46834000  1.0
  O  O61  1  0.64827000  0.70800000  0.96834000  1.0
  O  O62  1  0.64827000  0.20800000  0.53166000  1.0
  O  O63  1  0.35173000  0.29200000  0.03166000  1.0
  O  O64  1  0.27878000  0.76719000  0.31878000  1.0
  O  O65  1  0.72122000  0.73281000  0.81878000  1.0
  O  O66  1  0.72121000  0.23280000  0.68122000  1.0
  O  O67  1  0.27878000  0.26719000  0.18122000  1.0
  O  O68  1  0.37648000  0.58693000  0.30267000  1.0
  O  O69  1  0.62352000  0.91307000  0.80267000  1.0
  O  O70  1  0.62351000  0.41306000  0.69733000  1.0
  O  O71  1  0.37649000  0.08693000  0.19733000  1.0
  O  O72  1  0.80709000  0.89525000  0.57572000  1.0
  O  O73  1  0.19291000  0.60474000  0.07572000  1.0
  O  O74  1  0.19291000  0.10475000  0.42428000  1.0
  O  O75  1  0.80709000  0.39525000  0.92428000  1.0
  O  O76  1  0.69153000  0.67500000  0.60304000  1.0
  O  O77  1  0.30847000  0.82499000  0.10304000  1.0
  O  O78  1  0.30847000  0.32500000  0.39696000  1.0
  O  O79  1  0.69153000  0.17501000  0.89696000  1.0
  O  O80  1  0.56954000  0.97564000  0.62327000  1.0
  O  O81  1  0.43045000  0.52436000  0.12327000  1.0
  O  O82  1  0.43045000  0.02437000  0.37673000  1.0
  O  O83  1  0.56955000  0.47564000  0.87673000  1.0
  O  O84  1  0.41889000  0.76216000  0.64180000  1.0
  O  O85  1  0.58110000  0.73784000  0.14180000  1.0
  O  O86  1  0.58110000  0.23785000  0.35820000  1.0
  O  O87  1  0.41889000  0.26216000  0.85820000  1.0
  O  O88  1  0.34043000  0.52059000  0.76950000  1.0
  O  O89  1  0.65957000  0.97941000  0.26950000  1.0
  O  O90  1  0.65957000  0.47941000  0.23050000  1.0
  O  O91  1  0.34043000  0.02058000  0.73050000  1.0
  O  O92  1  0.05838000  0.11033000  0.60020000  1.0
  O  O93  1  0.94161000  0.38967000  0.10020000  1.0
  O  O94  1  0.94162000  0.88968000  0.39980000  1.0
  O  O95  1  0.05839000  0.61033000  0.89980000  1.0
  O  O96  1  0.28826000  0.24342000  0.64654000  1.0
  O  O97  1  0.71173000  0.25658000  0.14653000  1.0
  O  O98  1  0.71174000  0.75659000  0.35347000  1.0
  O  O99  1  0.28827000  0.74342000  0.85347000  1.0
  O  O100  1  0.18102000  0.47033000  0.58992000  1.0
  O  O101  1  0.81898000  0.02966000  0.08992000  1.0
  O  O102  1  0.81898000  0.52966000  0.41009000  1.0
  O  O103  1  0.18103000  0.97034000  0.91009000  1.0
  O  O104  1  0.94945000  0.31686000  0.57594000  1.0
  O  O105  1  0.05054000  0.18314000  0.07593000  1.0
  O  O106  1  0.05054000  0.68315000  0.42407000  1.0
  O  O107  1  0.94946000  0.81686000  0.92407000  1.0
  O  O108  1  0.14066000  0.95206000  0.28366000  1.0
  O  O109  1  0.85934000  0.54794000  0.78366000  1.0
  O  O110  1  0.85934000  0.04794000  0.71634000  1.0
  O  O111  1  0.14066000  0.45205000  0.21633000  1.0
  O  O112  1  0.17608000  0.91550000  0.53877000  1.0
  O  O113  1  0.82393000  0.58450000  0.03877000  1.0
  O  O114  1  0.82393000  0.08450000  0.46123000  1.0
  O  O115  1  0.17608000  0.41550000  0.96123000  1.0
