# generated using pymatgen
data_ZnH16C8(NO3)2
_symmetry_space_group_name_H-M   'P 1'
_cell_length_a   6.32358000
_cell_length_b   7.17198000
_cell_length_c   12.05030000
_cell_angle_alpha   89.99980000
_cell_angle_beta   78.52600000
_cell_angle_gamma   89.99980000
_symmetry_Int_Tables_number   1
_chemical_formula_structural   ZnH16C8(NO3)2
_chemical_formula_sum   'Zn2 H32 C16 N4 O12'
_cell_volume   535.59029870
_cell_formula_units_Z   2
loop_
 _symmetry_equiv_pos_site_id
 _symmetry_equiv_pos_as_xyz
  1  'x, y, z'
loop_
 _atom_site_type_symbol
 _atom_site_label
 _atom_site_symmetry_multiplicity
 _atom_site_fract_x
 _atom_site_fract_y
 _atom_site_fract_z
 _atom_site_occupancy
  Zn  Zn0  1  0.50000000  0.00000000  0.50000000  1.0
  Zn  Zn1  1  0.50000000  0.50000000  0.00000000  1.0
  H  H2  1  0.26377000  0.59073000  0.46268000  1.0
  H  H3  1  0.73622000  0.09073000  0.03732000  1.0
  H  H4  1  0.73622000  0.40927000  0.53732000  1.0
  H  H5  1  0.26377000  0.90927000  0.96268000  1.0
  H  H6  1  0.06440000  0.59524000  0.58946000  1.0
  H  H7  1  0.93560000  0.09523000  0.91055000  1.0
  H  H8  1  0.93560000  0.40477000  0.41055000  1.0
  H  H9  1  0.06440000  0.90476000  0.08945000  1.0
  H  H10  1  0.91765000  0.77081000  0.43054000  1.0
  H  H11  1  0.08235000  0.27080000  0.06947000  1.0
  H  H12  1  0.08235000  0.22920000  0.56947000  1.0
  H  H13  1  0.91765000  0.72919000  0.93053000  1.0
  H  H14  1  0.17716000  0.80823000  0.34327000  1.0
  H  H15  1  0.82284000  0.30822000  0.15673000  1.0
  H  H16  1  0.82285000  0.19178000  0.65673000  1.0
  H  H17  1  0.17715000  0.69177000  0.84327000  1.0
  H  H18  1  0.08200000  0.95047000  0.68639000  1.0
  H  H19  1  0.91801000  0.45047000  0.81361000  1.0
  H  H20  1  0.91801000  0.04953000  0.31361000  1.0
  H  H21  1  0.08200000  0.54953000  0.18639000  1.0
  H  H22  1  0.86202000  0.85195000  0.63294000  1.0
  H  H23  1  0.13798000  0.35194000  0.86706000  1.0
  H  H24  1  0.13798000  0.14806000  0.36706000  1.0
  H  H25  1  0.86202000  0.64805000  0.13293000  1.0
  H  H26  1  0.53234000  0.91343000  0.27521000  1.0
  H  H27  1  0.46765000  0.41343000  0.22479000  1.0
  H  H28  1  0.46765000  0.08657000  0.72479000  1.0
  H  H29  1  0.53235000  0.58657000  0.77521000  1.0
  H  H30  1  0.61184000  0.72838000  0.33051000  1.0
  H  H31  1  0.38816000  0.22838000  0.16949000  1.0
  H  H32  1  0.38816000  0.27162000  0.66949000  1.0
  H  H33  1  0.61184000  0.77161000  0.83051000  1.0
  C  C34  1  0.39176000  0.64794000  0.60808000  1.0
  C  C35  1  0.60824000  0.14793000  0.89192000  1.0
  C  C36  1  0.60824000  0.35207000  0.39191000  1.0
  C  C37  1  0.39175000  0.85206000  0.10808000  1.0
  C  C38  1  0.20931000  0.66657000  0.54272000  1.0
  C  C39  1  0.79069000  0.16656000  0.95728000  1.0
  C  C40  1  0.79069000  0.33344000  0.45728000  1.0
  C  C41  1  0.20931000  0.83344000  0.04272000  1.0
  C  C42  1  0.06030000  0.86290000  0.41548000  1.0
  C  C43  1  0.93970000  0.36289000  0.08452000  1.0
  C  C44  1  0.93970000  0.13711000  0.58452000  1.0
  C  C45  1  0.06030000  0.63710000  0.91548000  1.0
  C  C46  1  0.00549000  0.94210000  0.61256000  1.0
  C  C47  1  0.99451000  0.44209000  0.88744000  1.0
  C  C48  1  0.99451000  0.05791000  0.38744000  1.0
  C  C49  1  0.00549000  0.55790000  0.11256000  1.0
  N  N50  1  0.16211000  0.86077000  0.51633000  1.0
  N  N51  1  0.83789000  0.36076000  0.98367000  1.0
  N  N52  1  0.83789000  0.13924000  0.48368000  1.0
  N  N53  1  0.16211000  0.63923000  0.01632000  1.0
  O  O54  1  0.39018000  0.51065000  0.67451000  1.0
  O  O55  1  0.60982000  0.01064000  0.82549000  1.0
  O  O56  1  0.60982000  0.48936000  0.32549000  1.0
  O  O57  1  0.39017000  0.98935000  0.17451000  1.0
  O  O58  1  0.54282000  0.76832000  0.59107000  1.0
  O  O59  1  0.45718000  0.26832000  0.90893000  1.0
  O  O60  1  0.45719000  0.23168000  0.40893000  1.0
  O  O61  1  0.54281000  0.73168000  0.09107000  1.0
  O  O62  1  0.59963000  0.86585000  0.33782000  1.0
  O  O63  1  0.40037000  0.36585000  0.16218000  1.0
  O  O64  1  0.40037000  0.13415000  0.66218000  1.0
  O  O65  1  0.59963000  0.63415000  0.83782000  1.0
