# generated using pymatgen
data_TlH4C7N3O
_symmetry_space_group_name_H-M   'P 1'
_cell_length_a   3.97714000
_cell_length_b   9.24815000
_cell_length_c   12.04200000
_cell_angle_alpha   69.13470000
_cell_angle_beta   87.77590000
_cell_angle_gamma   81.05190000
_symmetry_Int_Tables_number   1
_chemical_formula_structural   TlH4C7N3O
_chemical_formula_sum   'Tl2 H8 C14 N6 O2'
_cell_volume   408.76955813
_cell_formula_units_Z   2
loop_
 _symmetry_equiv_pos_site_id
 _symmetry_equiv_pos_as_xyz
  1  'x, y, z'
loop_
 _atom_site_type_symbol
 _atom_site_label
 _atom_site_symmetry_multiplicity
 _atom_site_fract_x
 _atom_site_fract_y
 _atom_site_fract_z
 _atom_site_occupancy
  Tl  Tl0  1  0.16716000  0.93804000  0.35954000  1.0
  Tl  Tl1  1  0.83285000  0.06196000  0.64047000  1.0
  H  H2  1  0.24644000  0.56936000  0.05574000  1.0
  H  H3  1  0.75357000  0.43063000  0.94427000  1.0
  H  H4  1  0.94874000  0.84016000  0.96242000  1.0
  H  H5  1  0.05129000  0.15983000  0.03758000  1.0
  H  H6  1  0.59996000  0.96920000  0.09175000  1.0
  H  H7  1  0.40007000  0.03081000  0.90824000  1.0
  H  H8  1  0.81626000  0.56966000  0.39117000  1.0
  H  H9  1  0.18372000  0.43035000  0.60883000  1.0
  C  C10  1  0.23183000  0.38644000  0.29199000  1.0
  C  C11  1  0.76816000  0.61356000  0.70801000  1.0
  C  C12  1  0.43942000  0.30614000  0.22666000  1.0
  C  C13  1  0.56055000  0.69385000  0.77335000  1.0
  C  C14  1  0.05836000  0.54602000  0.23226000  1.0
  C  C15  1  0.94163000  0.45398000  0.76774000  1.0
  C  C16  1  0.08956000  0.62547000  0.10978000  1.0
  C  C17  1  0.91044000  0.37453000  0.89022000  1.0
  C  C18  1  0.92289000  0.77811000  0.05720000  1.0
  C  C19  1  0.07714000  0.22190000  0.94281000  1.0
  C  C20  1  0.72843000  0.84843000  0.12805000  1.0
  C  C21  1  0.27158000  0.15157000  0.87195000  1.0
  C  C22  1  0.85066000  0.62643000  0.29594000  1.0
  C  C23  1  0.14934000  0.37358000  0.70406000  1.0
  N  N24  1  0.19181000  0.31400000  0.40781000  1.0
  N  N25  1  0.80818000  0.68601000  0.59219000  1.0
  N  N26  1  0.61712000  0.23405000  0.17866000  1.0
  N  N27  1  0.38287000  0.76594000  0.82134000  1.0
  N  N28  1  0.69208000  0.77336000  0.24534000  1.0
  N  N29  1  0.30791000  0.22665000  0.75466000  1.0
  O  O30  1  0.33766000  0.16785000  0.45479000  1.0
  O  O31  1  0.66232000  0.83215000  0.54520000  1.0
