# generated using pymatgen
data_CuH8C6(BrN)2
_symmetry_space_group_name_H-M   'P 1'
_cell_length_a   6.04216000
_cell_length_b   6.04293000
_cell_length_c   6.62787000
_cell_angle_alpha   77.48930000
_cell_angle_beta   77.47840000
_cell_angle_gamma   84.03660000
_symmetry_Int_Tables_number   1
_chemical_formula_structural   CuH8C6(BrN)2
_chemical_formula_sum   'Cu1 H8 C6 Br2 N2'
_cell_volume   230.22172031
_cell_formula_units_Z   1
loop_
 _symmetry_equiv_pos_site_id
 _symmetry_equiv_pos_as_xyz
  1  'x, y, z'
loop_
 _atom_site_type_symbol
 _atom_site_label
 _atom_site_symmetry_multiplicity
 _atom_site_fract_x
 _atom_site_fract_y
 _atom_site_fract_z
 _atom_site_occupancy
  Cu  Cu0  1  0.49996000  0.50004000  0.50001000  1.0
  H  H1  1  0.74114000  0.74058000  0.71153000  1.0
  H  H2  1  0.25876000  0.25939000  0.28853000  1.0
  H  H3  1  0.11325000  0.11396000  0.03755000  1.0
  H  H4  1  0.88672000  0.88599000  0.96248000  1.0
  H  H5  1  0.31413000  0.09616000  0.79851000  1.0
  H  H6  1  0.90368000  0.68551000  0.20178000  1.0
  H  H7  1  0.68581000  0.90377000  0.20150000  1.0
  H  H8  1  0.09632000  0.31451000  0.79823000  1.0
  C  C9  1  0.63344000  0.63313000  0.84166000  1.0
  C  C10  1  0.36654000  0.36681000  0.15838000  1.0
  C  C11  1  0.36189000  0.36186000  0.94974000  1.0
  C  C12  1  0.63818000  0.63804000  0.05024000  1.0
  C  C13  1  0.21273000  0.21296000  0.89455000  1.0
  C  C14  1  0.78724000  0.78697000  0.10546000  1.0
  Br  Br15  1  0.19618000  0.80377000  0.50017000  1.0
  Br  Br16  1  0.80398000  0.19653000  0.49968000  1.0
  N  N17  1  0.49821000  0.49803000  0.79377000  1.0
  N  N18  1  0.50184000  0.50200000  0.20622000  1.0
