# generated using pymatgen
data_CdH16C19BrN2O5
_symmetry_space_group_name_H-M   'P 1'
_cell_length_a   8.67236000
_cell_length_b   11.65210000
_cell_length_c   12.00950000
_cell_angle_alpha   66.22920000
_cell_angle_beta   76.75050000
_cell_angle_gamma   71.46520000
_symmetry_Int_Tables_number   1
_chemical_formula_structural   CdH16C19BrN2O5
_chemical_formula_sum   'Cd2 H32 C38 Br2 N4 O10'
_cell_volume   1045.84740712
_cell_formula_units_Z   2
loop_
 _symmetry_equiv_pos_site_id
 _symmetry_equiv_pos_as_xyz
  1  'x, y, z'
loop_
 _atom_site_type_symbol
 _atom_site_label
 _atom_site_symmetry_multiplicity
 _atom_site_fract_x
 _atom_site_fract_y
 _atom_site_fract_z
 _atom_site_occupancy
  Cd  Cd0  1  0.63433000  0.71211000  0.35660000  1.0
  Cd  Cd1  1  0.36568000  0.28790000  0.64339000  1.0
  H  H2  1  0.94960000  0.92822000  0.34587000  1.0
  H  H3  1  0.05041000  0.07178000  0.65411000  1.0
  H  H4  1  0.27571000  0.92718000  0.56800000  1.0
  H  H5  1  0.72430000  0.07281000  0.43200000  1.0
  H  H6  1  0.69614000  0.55332000  0.04114000  1.0
  H  H7  1  0.30384000  0.44669000  0.95885000  1.0
  H  H8  1  0.15765000  0.54306000  0.12130000  1.0
  H  H9  1  0.84233000  0.45695000  0.87870000  1.0
  H  H10  1  0.51265000  0.82329000  0.55549000  1.0
  H  H11  1  0.48736000  0.17671000  0.44451000  1.0
  H  H12  1  0.98321000  0.60897000  0.49080000  1.0
  H  H13  1  0.01679000  0.39102000  0.50921000  1.0
  H  H14  1  0.58824000  0.87148000  0.71498000  1.0
  H  H15  1  0.41177000  0.12851000  0.28502000  1.0
  H  H16  1  0.07997000  0.63975000  0.65103000  1.0
  H  H17  1  0.92004000  0.36023000  0.34898000  1.0
  H  H18  1  0.64309000  0.86845000  0.86572000  1.0
  H  H19  1  0.35691000  0.13154000  0.13430000  1.0
  H  H20  1  0.15537000  0.72560000  0.74689000  1.0
  H  H21  1  0.84463000  0.27437000  0.25313000  1.0
  H  H22  1  0.73402000  0.93459000  0.00639000  1.0
  H  H23  1  0.26598000  0.06542000  0.99361000  1.0
  H  H24  1  0.22456000  0.80675000  0.88686000  1.0
  H  H25  1  0.77543000  0.19324000  0.11314000  1.0
  H  H26  1  0.15774000  0.88945000  0.03098000  1.0
  H  H27  1  0.84227000  0.11056000  0.96901000  1.0
  H  H28  1  0.96139000  0.88872000  0.11950000  1.0
  H  H29  1  0.03862000  0.11129000  0.88050000  1.0
  H  H30  1  0.68615000  0.46321000  0.58430000  1.0
  H  H31  1  0.31386000  0.53680000  0.41568000  1.0
  H  H32  1  0.65406000  0.40461000  0.49938000  1.0
  H  H33  1  0.34595000  0.59540000  0.50061000  1.0
  C  C34  1  0.26345000  0.83088000  0.39428000  1.0
  C  C35  1  0.73658000  0.16910000  0.60570000  1.0
  C  C36  1  0.12828000  0.91717000  0.45066000  1.0
  C  C37  1  0.87173000  0.08283000  0.54935000  1.0
  C  C38  1  0.97155000  0.95999000  0.41340000  1.0
  C  C39  1  0.02843000  0.04002000  0.58659000  1.0
  C  C40  1  0.15483000  0.95839000  0.53804000  1.0
  C  C41  1  0.84517000  0.04162000  0.46197000  1.0
  C  C42  1  0.83294000  0.61057000  0.18683000  1.0
  C  C43  1  0.16705000  0.38944000  0.81318000  1.0
  C  C44  1  0.91891000  0.55362000  0.09001000  1.0
  C  C45  1  0.08108000  0.44638000  0.90999000  1.0
  C  C46  1  0.82926000  0.52935000  0.02211000  1.0
  C  C47  1  0.17073000  0.47065000  0.97788000  1.0
  C  C48  1  0.09026000  0.52387000  0.06717000  1.0
  C  C49  1  0.90974000  0.47613000  0.93281000  1.0
  C  C50  1  0.63683000  0.78491000  0.58080000  1.0
  C  C51  1  0.36316000  0.21510000  0.41920000  1.0
  C  C52  1  0.89853000  0.66422000  0.54447000  1.0
  C  C53  1  0.10146000  0.33577000  0.45554000  1.0
  C  C54  1  0.68067000  0.80865000  0.67176000  1.0
  C  C55  1  0.31933000  0.19134000  0.32824000  1.0
  C  C56  1  0.95237000  0.68329000  0.63490000  1.0
  C  C57  1  0.04761000  0.31670000  0.36512000  1.0
  C  C58  1  0.84252000  0.75796000  0.70051000  1.0
  C  C59  1  0.15748000  0.24202000  0.29950000  1.0
  C  C60  1  0.89197000  0.79070000  0.79146000  1.0
  C  C61  1  0.10802000  0.20929000  0.20856000  1.0
  C  C62  1  0.77399000  0.84958000  0.86734000  1.0
  C  C63  1  0.22600000  0.15041000  0.13266000  1.0
  C  C64  1  0.05716000  0.77084000  0.80213000  1.0
  C  C65  1  0.94282000  0.22915000  0.19789000  1.0
  C  C66  1  0.82075000  0.88996000  0.94464000  1.0
  C  C67  1  0.17925000  0.11004000  0.05537000  1.0
  C  C68  1  0.09878000  0.81402000  0.87986000  1.0
  C  C69  1  0.90121000  0.18597000  0.12014000  1.0
  C  C70  1  0.02533000  0.92555000  0.02715000  1.0
  C  C71  1  0.97466000  0.07446000  0.97285000  1.0
  Br  Br72  1  0.64583000  0.96484000  0.22197000  1.0
  Br  Br73  1  0.35419000  0.03516000  0.77803000  1.0
  N  N74  1  0.74340000  0.71426000  0.51738000  1.0
  N  N75  1  0.25660000  0.28574000  0.48263000  1.0
  N  N76  1  0.98143000  0.87373000  0.94877000  1.0
  N  N77  1  0.01856000  0.12627000  0.05124000  1.0
  O  O78  1  0.25797000  0.83579000  0.28977000  1.0
  O  O79  1  0.74202000  0.16421000  0.71022000  1.0
  O  O80  1  0.38019000  0.75356000  0.46336000  1.0
  O  O81  1  0.61983000  0.24644000  0.53667000  1.0
  O  O82  1  0.67778000  0.62089000  0.21366000  1.0
  O  O83  1  0.32220000  0.37912000  0.78633000  1.0
  O  O84  1  0.91457000  0.64499000  0.23729000  1.0
  O  O85  1  0.08545000  0.35502000  0.76270000  1.0
  O  O86  1  0.69337000  0.47655000  0.49808000  1.0
  O  O87  1  0.30665000  0.52345000  0.50191000  1.0
