# generated using pymatgen
data_CdH6C9IN3O2
_symmetry_space_group_name_H-M   'P 1'
_cell_length_a   7.68143000
_cell_length_b   7.81510000
_cell_length_c   18.31930000
_cell_angle_alpha   90.00010000
_cell_angle_beta   90.00040000
_cell_angle_gamma   76.20500000
_symmetry_Int_Tables_number   1
_chemical_formula_structural   CdH6C9IN3O2
_chemical_formula_sum   'Cd4 H24 C36 I4 N12 O8'
_cell_volume   1068.00696076
_cell_formula_units_Z   4
loop_
 _symmetry_equiv_pos_site_id
 _symmetry_equiv_pos_as_xyz
  1  'x, y, z'
loop_
 _atom_site_type_symbol
 _atom_site_label
 _atom_site_symmetry_multiplicity
 _atom_site_fract_x
 _atom_site_fract_y
 _atom_site_fract_z
 _atom_site_occupancy
  Cd  Cd0  1  0.36660000  0.97374000  0.21897000  1.0
  Cd  Cd1  1  0.63341000  0.52626000  0.71896000  1.0
  Cd  Cd2  1  0.63340000  0.02626000  0.78103000  1.0
  Cd  Cd3  1  0.36659000  0.47374000  0.28104000  1.0
  H  H4  1  0.46592000  0.36657000  0.11111000  1.0
  H  H5  1  0.53409000  0.13343000  0.61111000  1.0
  H  H6  1  0.53408000  0.63343000  0.88889000  1.0
  H  H7  1  0.46592000  0.86657000  0.38889000  1.0
  H  H8  1  0.42751000  0.15606000  0.01442000  1.0
  H  H9  1  0.57250000  0.34394000  0.51442000  1.0
  H  H10  1  0.57249000  0.84394000  0.98558000  1.0
  H  H11  1  0.42751000  0.65606000  0.48558000  1.0
  H  H12  1  0.24061000  0.25767000  0.90649000  1.0
  H  H13  1  0.75939000  0.24233000  0.40649000  1.0
  H  H14  1  0.75939000  0.74233000  0.09351000  1.0
  H  H15  1  0.24061000  0.75766000  0.59351000  1.0
  H  H16  1  0.12236000  0.78981000  0.99348000  1.0
  H  H17  1  0.87763000  0.71019000  0.49347000  1.0
  H  H18  1  0.87764000  0.21019000  0.00652000  1.0
  H  H19  1  0.12236000  0.28980000  0.50653000  1.0
  H  H20  1  0.96483000  0.87532000  0.90195000  1.0
  H  H21  1  0.03517000  0.62469000  0.40195000  1.0
  H  H22  1  0.03517000  0.12468000  0.09805000  1.0
  H  H23  1  0.96483000  0.37531000  0.59805000  1.0
  H  H24  1  0.03352000  0.35032000  0.82522000  1.0
  H  H25  1  0.96648000  0.14968000  0.32522000  1.0
  H  H26  1  0.96648000  0.64968000  0.17478000  1.0
  H  H27  1  0.03352000  0.85032000  0.67478000  1.0
  C  C28  1  0.31362000  0.72362000  0.11438000  1.0
  C  C29  1  0.68638000  0.77638000  0.61438000  1.0
  C  C30  1  0.68638000  0.27638000  0.88562000  1.0
  C  C31  1  0.31362000  0.22362000  0.38562000  1.0
  C  C32  1  0.29421000  0.59123000  0.05760000  1.0
  C  C33  1  0.70579000  0.90877000  0.55760000  1.0
  C  C34  1  0.70578000  0.40877000  0.94240000  1.0
  C  C35  1  0.29422000  0.09123000  0.44240000  1.0
  C  C36  1  0.38058000  0.41282000  0.06417000  1.0
  C  C37  1  0.61943000  0.08718000  0.56417000  1.0
  C  C38  1  0.61942000  0.58718000  0.93583000  1.0
  C  C39  1  0.38058000  0.91282000  0.43583000  1.0
  C  C40  1  0.35949000  0.29486000  0.00970000  1.0
  C  C41  1  0.64051000  0.20514000  0.50970000  1.0
  C  C42  1  0.64051000  0.70514000  0.99030000  1.0
  C  C43  1  0.35949000  0.79486000  0.49030000  1.0
  C  C44  1  0.25299000  0.35253000  0.94873000  1.0
  C  C45  1  0.74701000  0.14747000  0.44873000  1.0
  C  C46  1  0.74701000  0.64747000  0.05127000  1.0
  C  C47  1  0.25299000  0.85253000  0.55127000  1.0
  C  C48  1  0.16627000  0.53075000  0.94278000  1.0
  C  C49  1  0.83373000  0.96925000  0.44278000  1.0
  C  C50  1  0.83373000  0.46925000  0.05722000  1.0
  C  C51  1  0.16627000  0.03075000  0.55722000  1.0
  C  C52  1  0.18718000  0.65023000  0.99657000  1.0
  C  C53  1  0.81282000  0.84977000  0.49656000  1.0
  C  C54  1  0.81282000  0.34977000  0.00343000  1.0
  C  C55  1  0.18718000  0.15023000  0.50344000  1.0
  C  C56  1  0.95411000  0.76049000  0.87096000  1.0
  C  C57  1  0.04589000  0.73951000  0.37096000  1.0
  C  C58  1  0.04589000  0.23951000  0.12904000  1.0
  C  C59  1  0.95411000  0.26049000  0.62904000  1.0
  C  C60  1  0.98596000  0.49190000  0.83164000  1.0
  C  C61  1  0.01403000  0.00811000  0.33164000  1.0
  C  C62  1  0.01404000  0.50811000  0.16836000  1.0
  C  C63  1  0.98597000  0.99189000  0.66836000  1.0
  I  I64  1  0.69625000  0.03640000  0.18325000  1.0
  I  I65  1  0.30375000  0.46360000  0.68325000  1.0
  I  I66  1  0.30375000  0.96360000  0.81675000  1.0
  I  I67  1  0.69624000  0.53641000  0.31675000  1.0
  N  N68  1  0.84237000  0.76488000  0.81622000  1.0
  N  N69  1  0.15763000  0.73512000  0.31622000  1.0
  N  N70  1  0.15762000  0.23512000  0.18378000  1.0
  N  N71  1  0.84238000  0.26488000  0.68378000  1.0
  N  N72  1  0.86115000  0.59555000  0.79155000  1.0
  N  N73  1  0.13885000  0.90446000  0.29155000  1.0
  N  N74  1  0.13885000  0.40445000  0.20845000  1.0
  N  N75  1  0.86115000  0.09554000  0.70845000  1.0
  N  N76  1  0.04723000  0.59064000  0.88314000  1.0
  N  N77  1  0.95277000  0.90936000  0.38313000  1.0
  N  N78  1  0.95277000  0.40936000  0.11686000  1.0
  N  N79  1  0.04723000  0.09064000  0.61687000  1.0
  O  O80  1  0.25583000  0.88604000  0.10007000  1.0
  O  O81  1  0.74417000  0.61395000  0.60006000  1.0
  O  O82  1  0.74417000  0.11395000  0.89994000  1.0
  O  O83  1  0.25583000  0.38605000  0.39994000  1.0
  O  O84  1  0.38920000  0.66992000  0.17553000  1.0
  O  O85  1  0.61081000  0.83008000  0.67553000  1.0
  O  O86  1  0.61080000  0.33008000  0.82447000  1.0
  O  O87  1  0.38920000  0.16992000  0.32447000  1.0
