# generated using pymatgen
data_ZnH5C19I(NO2)8
_symmetry_space_group_name_H-M   'P 1'
_cell_length_a   14.57430000
_cell_length_b   15.08170000
_cell_length_c   16.86090000
_cell_angle_alpha   89.66840000
_cell_angle_beta   87.19860000
_cell_angle_gamma   89.21650000
_symmetry_Int_Tables_number   1
_chemical_formula_structural   ZnH5C19I(NO2)8
_chemical_formula_sum   'Zn2 H10 C38 I2 N16 O32'
_cell_volume   3701.29010446
_cell_formula_units_Z   2
loop_
 _symmetry_equiv_pos_site_id
 _symmetry_equiv_pos_as_xyz
  1  'x, y, z'
loop_
 _atom_site_type_symbol
 _atom_site_label
 _atom_site_symmetry_multiplicity
 _atom_site_fract_x
 _atom_site_fract_y
 _atom_site_fract_z
 _atom_site_occupancy
  Zn  Zn0  1  0.60090000  0.48865000  0.49957000  1.0
  Zn  Zn1  1  0.39382000  0.48859000  0.50305000  1.0
  H  H2  1  0.61172000  0.60380000  0.10185000  1.0
  H  H3  1  0.37308000  0.51570000  0.91056000  1.0
  H  H4  1  0.64021000  0.57803000  0.24659000  1.0
  H  H5  1  0.36292000  0.49663000  0.76359000  1.0
  H  H6  1  0.55742000  0.74794000  0.35578000  1.0
  H  H7  1  0.33771000  0.21910000  0.47142000  1.0
  H  H8  1  0.40093000  0.94802000  0.55306000  1.0
  H  H9  1  0.62812000  0.04606000  0.43430000  1.0
  H  H10  1  0.05905000  0.48498000  0.63846000  1.0
  H  H11  1  0.92423000  0.64432000  0.46175000  1.0
  C  C12  1  0.47659000  0.65609000  0.47857000  1.0
  C  C13  1  0.48329000  0.32098000  0.49130000  1.0
  C  C14  1  0.54358000  0.47423000  0.35014000  1.0
  C  C15  1  0.49463000  0.52439000  0.64951000  1.0
  C  C16  1  0.53771000  0.47778000  0.26143000  1.0
  C  C17  1  0.49572000  0.55123000  0.73501000  1.0
  C  C18  1  0.47145000  0.42845000  0.22393000  1.0
  C  C19  1  0.57179000  0.59284000  0.76569000  1.0
  C  C20  1  0.45248000  0.44571000  0.14552000  1.0
  C  C21  1  0.57752000  0.60366000  0.84723000  1.0
  C  C22  1  0.50238000  0.50990000  0.10126000  1.0
  C  C23  1  0.50765000  0.57200000  0.89996000  1.0
  C  C24  1  0.57141000  0.55663000  0.13767000  1.0
  C  C25  1  0.42855000  0.53640000  0.86916000  1.0
  C  C26  1  0.58805000  0.54097000  0.21710000  1.0
  C  C27  1  0.42304000  0.52663000  0.78778000  1.0
  C  C28  1  0.51959000  0.88195000  0.38534000  1.0
  C  C29  1  0.39945000  0.09213000  0.44468000  1.0
  C  C30  1  0.52136000  0.79074000  0.39909000  1.0
  C  C31  1  0.40163000  0.18170000  0.46242000  1.0
  C  C32  1  0.47734000  0.75501000  0.46701000  1.0
  C  C33  1  0.48509000  0.22493000  0.46833000  1.0
  C  C34  1  0.43342000  0.81412000  0.52056000  1.0
  C  C35  1  0.56540000  0.17418000  0.45331000  1.0
  C  C36  1  0.43401000  0.90504000  0.50823000  1.0
  C  C37  1  0.56354000  0.08327000  0.44017000  1.0
  C  C38  1  0.47707000  0.94152000  0.43972000  1.0
  C  C39  1  0.47983000  0.03973000  0.43637000  1.0
  C  C40  1  0.09728000  0.52927000  0.44251000  1.0
  C  C41  1  0.89335000  0.44469000  0.55213000  1.0
  C  C42  1  0.19384000  0.52406000  0.43985000  1.0
  C  C43  1  0.79700000  0.44599000  0.55799000  1.0
  C  C44  1  0.18777000  0.48381000  0.57113000  1.0
  C  C45  1  0.79705000  0.57666000  0.48762000  1.0
  C  C46  1  0.09343000  0.49429000  0.58035000  1.0
  C  C47  1  0.89168000  0.58517000  0.48655000  1.0
  C  C48  1  0.04475000  0.51362000  0.51267000  1.0
  C  C49  1  0.94288000  0.51460000  0.51657000  1.0
  I  I50  1  0.26574000  0.55599000  0.33446000  1.0
  I  I51  1  0.72850000  0.35198000  0.62794000  1.0
  N  N52  1  0.48671000  0.51269000  0.01968000  1.0
  N  N53  1  0.51977000  0.57856000  0.98226000  1.0
  N  N54  1  0.23881000  0.49725000  0.50410000  1.0
  N  N55  1  0.74917000  0.50965000  0.52016000  1.0
  N  N56  1  0.64944000  0.62348000  0.71260000  1.0
  N  N57  1  0.42326000  0.35601000  0.26720000  1.0
  N  N58  1  0.23388000  0.44928000  0.64212000  1.0
  N  N59  1  0.74640000  0.65057000  0.44902000  1.0
  N  N60  1  0.65901000  0.64460000  0.87951000  1.0
  N  N61  1  0.38088000  0.39673000  0.10554000  1.0
  N  N62  1  0.56153000  0.91361000  0.30861000  1.0
  N  N63  1  0.30860000  0.05318000  0.43294000  1.0
  N  N64  1  0.38797000  0.78204000  0.59538000  1.0
  N  N65  1  0.65827000  0.21282000  0.44964000  1.0
  N  N66  1  0.04933000  0.54894000  0.36885000  1.0
  N  N67  1  0.94472000  0.36615000  0.58048000  1.0
  O  O68  1  0.55428000  0.61834000  0.47915000  1.0
  O  O69  1  0.40380000  0.35754000  0.49739000  1.0
  O  O70  1  0.39781000  0.62035000  0.48354000  1.0
  O  O71  1  0.55916000  0.35716000  0.50405000  1.0
  O  O72  1  0.62186000  0.47570000  0.37991000  1.0
  O  O73  1  0.41749000  0.51170000  0.62023000  1.0
  O  O74  1  0.46606000  0.47588000  0.38752000  1.0
  O  O75  1  0.57343000  0.51307000  0.61504000  1.0
  O  O76  1  0.63399000  0.68622000  0.66819000  1.0
  O  O77  1  0.72360000  0.58352000  0.71852000  1.0
  O  O78  1  0.47208000  0.30283000  0.30248000  1.0
  O  O79  1  0.33878000  0.35343000  0.26366000  1.0
  O  O80  1  0.21661000  0.48998000  0.70461000  1.0
  O  O81  1  0.28094000  0.38154000  0.63285000  1.0
  O  O82  1  0.72639000  0.63912000  0.37974000  1.0
  O  O83  1  0.73387000  0.71769000  0.48948000  1.0
  O  O84  1  0.69769000  0.60313000  0.93207000  1.0
  O  O85  1  0.68114000  0.71774000  0.85169000  1.0
  O  O86  1  0.31277000  0.44072000  0.08780000  1.0
  O  O87  1  0.39589000  0.31738000  0.09275000  1.0
  O  O88  1  0.54064000  0.98944000  0.28668000  1.0
  O  O89  1  0.61361000  0.86161000  0.27108000  1.0
  O  O90  1  0.30678000  0.98696000  0.38975000  1.0
  O  O91  1  0.24064000  0.09010000  0.46571000  1.0
  O  O92  1  0.42334000  0.71727000  0.62795000  1.0
  O  O93  1  0.31881000  0.82353000  0.62066000  1.0
  O  O94  1  0.67900000  0.26062000  0.39227000  1.0
  O  O95  1  0.70950000  0.18955000  0.50274000  1.0
  O  O96  1  0.02306000  0.48460000  0.33207000  1.0
  O  O97  1  0.03832000  0.62822000  0.35231000  1.0
  O  O98  1  0.97420000  0.31474000  0.52845000  1.0
  O  O99  1  0.95496000  0.36005000  0.65261000  1.0
