# generated using pymatgen
data_K2H14C12S2Br2N2Cl2O7
_symmetry_space_group_name_H-M   'P 1'
_cell_length_a   6.89260000
_cell_length_b   6.99209000
_cell_length_c   27.01228216
_cell_angle_alpha   86.40450191
_cell_angle_beta   82.68782198
_cell_angle_gamma   60.46380000
_symmetry_Int_Tables_number   1
_chemical_formula_structural   K2H14C12S2Br2N2Cl2O7
_chemical_formula_sum   'K4 H28 C24 S4 Br4 N4 Cl4 O14'
_cell_volume   1123.43099882
_cell_formula_units_Z   2
loop_
 _symmetry_equiv_pos_site_id
 _symmetry_equiv_pos_as_xyz
  1  'x, y, z'
loop_
 _atom_site_type_symbol
 _atom_site_label
 _atom_site_symmetry_multiplicity
 _atom_site_fract_x
 _atom_site_fract_y
 _atom_site_fract_z
 _atom_site_occupancy
  K  K0  1  0.87288000  0.31101000  0.98675000  1.0
  K  K1  1  0.17097000  0.68909000  0.01309000  1.0
  K  K2  1  0.93352000  0.18879000  0.48686000  1.0
  K  K3  1  0.60977000  0.81078000  0.51333000  1.0
  H  H4  1  0.19837000  0.41206000  0.75327000  1.0
  H  H5  1  0.36363000  0.58786000  0.24667000  1.0
  H  H6  1  0.36056000  0.08781000  0.25344000  1.0
  H  H7  1  0.70226000  0.91246000  0.74672000  1.0
  H  H8  1  0.42458000  0.59646000  0.72917000  1.0
  H  H9  1  0.75034000  0.40322000  0.27073000  1.0
  H  H10  1  0.77126000  0.90360000  0.22943000  1.0
  H  H11  1  0.90465000  0.09674000  0.77075000  1.0
  H  H12  1  0.40266000  0.87829000  0.78595000  1.0
  H  H13  1  0.06683000  0.12145000  0.21391000  1.0
  H  H14  1  0.03112000  0.62123000  0.28616000  1.0
  H  H15  1  0.93887000  0.37889000  0.71398000  1.0
  H  H16  1  0.15277000  0.97063000  0.86566000  1.0
  H  H17  1  0.98855000  0.02922000  0.13423000  1.0
  H  H18  1  0.87332000  0.52834000  0.36575000  1.0
  H  H19  1  0.76795000  0.47155000  0.63435000  1.0
  H  H20  1  0.11077000  0.33568000  0.08395000  1.0
  H  H21  1  0.53082000  0.66493000  0.91603000  1.0
  H  H22  1  0.19671000  0.16509000  0.58403000  1.0
  H  H23  1  0.94501000  0.83493000  0.41601000  1.0
  H  H24  1  0.86670000  0.54090000  0.09223000  1.0
  H  H25  1  0.50026000  0.45970000  0.90773000  1.0
  H  H26  1  0.15809000  0.95974000  0.59235000  1.0
  H  H27  1  0.70926000  0.04025000  0.40771000  1.0
  H  H28  1  0.42859000  0.96777000  0.97114000  1.0
  H  H29  1  0.36713000  0.03260000  0.02867000  1.0
  H  H30  1  0.14601000  0.53225000  0.47122000  1.0
  H  H31  1  0.14984000  0.46753000  0.52877000  1.0
  C  C32  1  0.03120000  0.74951000  0.85410000  1.0
  C  C33  1  0.63430000  0.25035000  0.14582000  1.0
  C  C34  1  0.53056000  0.74949000  0.35416000  1.0
  C  C35  1  0.63489000  0.25037000  0.64593000  1.0
  C  C36  1  0.04393000  0.59185000  0.82204000  1.0
  C  C37  1  0.45742000  0.40804000  0.17789000  1.0
  C  C38  1  0.38577000  0.90742000  0.32211000  1.0
  C  C39  1  0.61585000  0.09263000  0.67799000  1.0
  C  C40  1  0.18841000  0.53579000  0.77759000  1.0
  C  C41  1  0.50161000  0.46404000  0.22235000  1.0
  C  C42  1  0.47428000  0.96384000  0.27773000  1.0
  C  C43  1  0.71636000  0.03630000  0.72240000  1.0
  C  C44  1  0.31670000  0.63887000  0.76438000  1.0
  C  C45  1  0.71984000  0.36091000  0.23553000  1.0
  C  C46  1  0.70569000  0.86088000  0.26458000  1.0
  C  C47  1  0.83162000  0.13929000  0.73558000  1.0
  C  C48  1  0.30487000  0.79518000  0.79599000  1.0
  C  C49  1  0.89581000  0.20456000  0.20390000  1.0
  C  C50  1  0.85011000  0.70420000  0.29616000  1.0
  C  C51  1  0.85084000  0.29590000  0.70399000  1.0
  C  C52  1  0.16355000  0.84911000  0.84061000  1.0
  C  C53  1  0.85287000  0.15080000  0.15928000  1.0
  C  C54  1  0.76254000  0.65000000  0.34071000  1.0
  C  C55  1  0.75381000  0.34995000  0.65940000  1.0
  S  S56  1  0.85981000  0.82574000  0.91305000  1.0
  S  S57  1  0.59820000  0.17428000  0.08682000  1.0
  S  S58  1  0.43486000  0.67388000  0.41315000  1.0
  S  S59  1  0.52257000  0.32600000  0.58695000  1.0
  Br  Br60  1  0.47892000  0.14870000  0.86425000  1.0
  Br  Br61  1  0.49096000  0.85125000  0.13541000  1.0
  Br  Br62  1  0.37708000  0.35021000  0.36462000  1.0
  Br  Br63  1  0.09332000  0.64932000  0.63569000  1.0
  N  N64  1  0.60709000  0.89516000  0.90640000  1.0
  N  N65  1  0.40803000  0.10510000  0.09338000  1.0
  N  N66  1  0.25139000  0.60474000  0.40649000  1.0
  N  N67  1  0.26322000  0.39549000  0.59359000  1.0
  Cl  Cl68  1  0.88507000  0.46185000  0.83505000  1.0
  Cl  Cl69  1  0.18144000  0.53827000  0.16491000  1.0
  Cl  Cl70  1  0.09682000  0.03739000  0.33503000  1.0
  Cl  Cl71  1  0.46986000  0.96258000  0.66507000  1.0
  O  O72  1  0.89431000  0.99654000  0.93200000  1.0
  O  O73  1  0.82242000  0.00318000  0.06792000  1.0
  O  O74  1  0.63986000  0.50279000  0.43218000  1.0
  O  O75  1  0.57575000  0.49691000  0.56794000  1.0
  O  O76  1  0.93608000  0.62666000  0.94366000  1.0
  O  O77  1  0.50633000  0.37335000  0.05620000  1.0
  O  O78  1  0.31236000  0.87329000  0.44365000  1.0
  O  O79  1  0.62960000  0.12664000  0.55644000  1.0
  O  O80  1  0.98238000  0.44524000  0.06663000  1.0
  O  O81  1  0.49482000  0.55528000  0.93334000  1.0
  O  O82  1  0.17800000  0.05541000  0.56673000  1.0
  O  O83  1  0.79935000  0.94462000  0.43333000  1.0
  O  O84  1  0.31267000  0.00015000  0.99987000  1.0
  O  O85  1  0.06275000  0.49986000  0.50001000  1.0
