# generated using pymatgen
data_FeH28C26S(NO)4
_symmetry_space_group_name_H-M   'P 1'
_cell_length_a   10.50310000
_cell_length_b   11.55520000
_cell_length_c   12.01222705
_cell_angle_alpha   108.53629908
_cell_angle_beta   115.47268439
_cell_angle_gamma   90.15920000
_symmetry_Int_Tables_number   1
_chemical_formula_structural   FeH28C26S(NO)4
_chemical_formula_sum   'Fe2 H56 C52 S2 N8 O8'
_cell_volume   1231.18672166
_cell_formula_units_Z   2
loop_
 _symmetry_equiv_pos_site_id
 _symmetry_equiv_pos_as_xyz
  1  'x, y, z'
loop_
 _atom_site_type_symbol
 _atom_site_label
 _atom_site_symmetry_multiplicity
 _atom_site_fract_x
 _atom_site_fract_y
 _atom_site_fract_z
 _atom_site_occupancy
  Fe  Fe0  1  0.50000000  0.50000000  1.00000000  1.0
  Fe  Fe1  1  0.50000000  0.00000000  0.00000000  1.0
  H  H2  1  0.31747000  0.12767000  0.34787000  1.0
  H  H3  1  0.03030000  0.62707000  0.34920000  1.0
  H  H4  1  0.68253000  0.87233000  0.65213000  1.0
  H  H5  1  0.96969000  0.37293000  0.65080000  1.0
  H  H6  1  0.37793000  0.26656000  0.34144000  1.0
  H  H7  1  0.96403000  0.76620000  0.34372000  1.0
  H  H8  1  0.62207000  0.73344000  0.65856000  1.0
  H  H9  1  0.03597000  0.23380000  0.65628000  1.0
  H  H10  1  0.02923000  0.43682000  0.07551000  1.0
  H  H11  1  0.04802000  0.93652000  0.07640000  1.0
  H  H12  1  0.97077000  0.56317000  0.92449000  1.0
  H  H13  1  0.95199000  0.06348000  0.92360000  1.0
  H  H14  1  0.59187000  0.52409000  0.78984000  1.0
  H  H15  1  0.19882000  0.02502000  0.79104000  1.0
  H  H16  1  0.40812000  0.47591000  0.21016000  1.0
  H  H17  1  0.80118000  0.97498000  0.20896000  1.0
  H  H18  1  0.52232000  0.42572000  0.55165000  1.0
  H  H19  1  0.03063000  0.92579000  0.55371000  1.0
  H  H20  1  0.47768000  0.57428000  0.44835000  1.0
  H  H21  1  0.96937000  0.07421000  0.44629000  1.0
  H  H22  1  0.78184000  0.47944000  0.95910000  1.0
  H  H23  1  0.17968000  0.97935000  0.95900000  1.0
  H  H24  1  0.21816000  0.52056000  0.04090000  1.0
  H  H25  1  0.82032000  0.02065000  0.04100000  1.0
  H  H26  1  0.65134000  0.37328000  0.19602000  1.0
  H  H27  1  0.54403000  0.87337000  0.19475000  1.0
  H  H28  1  0.34867000  0.62672000  0.80399000  1.0
  H  H29  1  0.45597000  0.12663000  0.80525000  1.0
  H  H30  1  0.89412000  0.33562000  0.32854000  1.0
  H  H31  1  0.43288000  0.83575000  0.32834000  1.0
  H  H32  1  0.10588000  0.66438000  0.67146000  1.0
  H  H33  1  0.56711000  0.16425000  0.67165000  1.0
  H  H34  1  0.16712000  0.42749000  0.40198000  1.0
  H  H35  1  0.23340000  0.92696000  0.40273000  1.0
  H  H36  1  0.83288000  0.57251000  0.59802000  1.0
  H  H37  1  0.76660000  0.07304000  0.59727000  1.0
  H  H38  1  0.20791000  0.40839000  0.26849000  1.0
  H  H39  1  0.06064000  0.90827000  0.26976000  1.0
  H  H40  1  0.79209000  0.59161000  0.73151000  1.0
  H  H41  1  0.93936000  0.09173000  0.73024000  1.0
  H  H42  1  0.28551000  0.27693000  0.76565000  1.0
  H  H43  1  0.47833000  0.77694000  0.76402000  1.0
  H  H44  1  0.71449000  0.72307000  0.23435000  1.0
  H  H45  1  0.52167000  0.22307000  0.23597000  1.0
  H  H46  1  0.12566000  0.18407000  0.18145000  1.0
  H  H47  1  0.05581000  0.68408000  0.18142000  1.0
  H  H48  1  0.87434000  0.81592000  0.81855000  1.0
  H  H49  1  0.94419000  0.31592000  0.81858000  1.0
  H  H50  1  0.07904000  0.19665000  0.30993000  1.0
  H  H51  1  0.22978000  0.69639000  0.30874000  1.0
  H  H52  1  0.92096000  0.80335000  0.69007000  1.0
  H  H53  1  0.77021000  0.30361000  0.69125000  1.0
  H  H54  1  0.20329000  0.16863000  0.52544000  1.0
  H  H55  1  0.32096000  0.66812000  0.52431000  1.0
  H  H56  1  0.79671000  0.83137000  0.47456000  1.0
  H  H57  1  0.67904000  0.33189000  0.47569000  1.0
  C  C58  1  0.30775000  0.22632000  0.37050000  1.0
  C  C59  1  0.06254000  0.72574000  0.37160000  1.0
  C  C60  1  0.69225000  0.77368000  0.62950000  1.0
  C  C61  1  0.93746000  0.27426000  0.62840000  1.0
  C  C62  1  0.98502000  0.38665000  0.21561000  1.0
  C  C63  1  0.23075000  0.88690000  0.21608000  1.0
  C  C64  1  0.01498000  0.61335000  0.78439000  1.0
  C  C65  1  0.76926000  0.11310000  0.78392000  1.0
  C  C66  1  0.94879000  0.42347000  0.10682000  1.0
  C  C67  1  0.15924000  0.92341000  0.10721000  1.0
  C  C68  1  0.05121000  0.57653000  0.89318000  1.0
  C  C69  1  0.84076000  0.07659000  0.89279000  1.0
  C  C70  1  0.50810000  0.44304000  0.72902000  1.0
  C  C71  1  0.22135000  0.94353000  0.72994000  1.0
  C  C72  1  0.49190000  0.55696000  0.27098000  1.0
  C  C73  1  0.77865000  0.05647000  0.27006000  1.0
  C  C74  1  0.35619000  0.28707000  0.51591000  1.0
  C  C75  1  0.15958000  0.78671000  0.51655000  1.0
  C  C76  1  0.64381000  0.71293000  0.48409000  1.0
  C  C77  1  0.84042000  0.21328000  0.48345000  1.0
  C  C78  1  0.46710000  0.38824000  0.59475000  1.0
  C  C79  1  0.12823000  0.88830000  0.59614000  1.0
  C  C80  1  0.53290000  0.61176000  0.40525000  1.0
  C  C81  1  0.87178000  0.11170000  0.40386000  1.0
  C  C82  1  0.81068000  0.44553000  0.04045000  1.0
  C  C83  1  0.23142000  0.94557000  0.04037000  1.0
  C  C84  1  0.18932000  0.55447000  0.95955000  1.0
  C  C85  1  0.76858000  0.05443000  0.95963000  1.0
  C  C86  1  0.73874000  0.38794000  0.17361000  1.0
  C  C87  1  0.43481000  0.88805000  0.17303000  1.0
  C  C88  1  0.26126000  0.61206000  0.82639000  1.0
  C  C89  1  0.56519000  0.11195000  0.82697000  1.0
  C  C90  1  0.87442000  0.36642000  0.24646000  1.0
  C  C91  1  0.37146000  0.86662000  0.24640000  1.0
  C  C92  1  0.12558000  0.63358000  0.75354000  1.0
  C  C93  1  0.62854000  0.13338000  0.75360000  1.0
  C  C94  1  0.13519000  0.37202000  0.29775000  1.0
  C  C95  1  0.16203000  0.87198000  0.29845000  1.0
  C  C96  1  0.86481000  0.62798000  0.70225000  1.0
  C  C97  1  0.83796000  0.12802000  0.70154000  1.0
  C  C98  1  0.33647000  0.30622000  0.71457000  1.0
  C  C99  1  0.37700000  0.80627000  0.71365000  1.0
  C  C100  1  0.66353000  0.69378000  0.28543000  1.0
  C  C101  1  0.62300000  0.19374000  0.28635000  1.0
  C  C102  1  0.15324000  0.23733000  0.28465000  1.0
  C  C103  1  0.13083000  0.73699000  0.28451000  1.0
  C  C104  1  0.84676000  0.76266000  0.71535000  1.0
  C  C105  1  0.86917000  0.26301000  0.71549000  1.0
  C  C106  1  0.29085000  0.24672000  0.58031000  1.0
  C  C107  1  0.28863000  0.74644000  0.57972000  1.0
  C  C108  1  0.70914000  0.75328000  0.41969000  1.0
  C  C109  1  0.71137000  0.25356000  0.42028000  1.0
  S  S110  1  0.31307000  0.24994000  0.00044000  1.0
  S  S111  1  0.68694000  0.75006000  0.99957000  1.0
  N  N112  1  0.44461000  0.40308000  0.78976000  1.0
  N  N113  1  0.34477000  0.90355000  0.78957000  1.0
  N  N114  1  0.55539000  0.59692000  0.21024000  1.0
  N  N115  1  0.65524000  0.09645000  0.21043000  1.0
  N  N116  1  0.70644000  0.43009000  0.07370000  1.0
  N  N117  1  0.36827000  0.93022000  0.07321000  1.0
  N  N118  1  0.29356000  0.56991000  0.92630000  1.0
  N  N119  1  0.63173000  0.06978000  0.92679000  1.0
  O  O120  1  0.40197000  0.35533000  0.00468000  1.0
  O  O121  1  0.60280000  0.85540000  0.00397000  1.0
  O  O122  1  0.59802000  0.64467000  0.99531000  1.0
  O  O123  1  0.39720000  0.14460000  0.99603000  1.0
  O  O124  1  0.17626000  0.21313000  0.87962000  1.0
  O  O125  1  0.70376000  0.71310000  0.87841000  1.0
  O  O126  1  0.82375000  0.78687000  0.12039000  1.0
  O  O127  1  0.29624000  0.28690000  0.12159000  1.0
