# generated using pymatgen
data_Zn4H20C44O29
_symmetry_space_group_name_H-M   'P 1'
_cell_length_a   23.69982857
_cell_length_b   23.69960000
_cell_length_c   23.69860000
_cell_angle_alpha   114.16430000
_cell_angle_beta   107.18112078
_cell_angle_gamma   107.17568755
_symmetry_Int_Tables_number   1
_chemical_formula_structural   Zn4H20C44O29
_chemical_formula_sum   'Zn8 H40 C88 O58'
_cell_volume   10194.40820343
_cell_formula_units_Z   2
loop_
 _symmetry_equiv_pos_site_id
 _symmetry_equiv_pos_as_xyz
  1  'x, y, z'
loop_
 _atom_site_type_symbol
 _atom_site_label
 _atom_site_symmetry_multiplicity
 _atom_site_fract_x
 _atom_site_fract_y
 _atom_site_fract_z
 _atom_site_occupancy
  Zn  Zn0  1  0.94028000  0.89964000  0.45634000  1.0
  Zn  Zn1  1  0.94029000  0.04064000  0.48393000  1.0
  Zn  Zn2  1  0.05973000  0.04366000  0.60036000  1.0
  Zn  Zn3  1  0.05971000  0.01606000  0.45935000  1.0
  Zn  Zn4  1  0.05671000  0.60036000  0.04065000  1.0
  Zn  Zn5  1  0.94329000  0.45935000  0.89962000  1.0
  Zn  Zn6  1  0.05670000  0.45634000  0.01606000  1.0
  Zn  Zn7  1  0.94331000  0.48394000  0.04366000  1.0
  H  H8  1  0.07851000  0.73064000  0.96403000  1.0
  H  H9  1  0.92149000  0.53599000  0.76935000  1.0
  H  H10  1  0.07203000  0.96788000  0.73006000  1.0
  H  H11  1  0.92805000  0.76999000  0.53214000  1.0
  H  H12  1  0.92148000  0.38549000  0.15211000  1.0
  H  H13  1  0.07850000  0.34786000  0.11449000  1.0
  H  H14  1  0.92802000  0.15804000  0.39587000  1.0
  H  H15  1  0.07199000  0.10413000  0.34197000  1.0
  H  H16  1  0.26216000  0.73000000  0.15804000  1.0
  H  H17  1  0.26216000  0.53212000  0.10413000  1.0
  H  H18  1  0.73336000  0.96400000  0.38549000  1.0
  H  H19  1  0.73338000  0.76937000  0.34789000  1.0
  H  H20  1  0.73781000  0.34194000  0.76995000  1.0
  H  H21  1  0.73786000  0.39587000  0.96786000  1.0
  H  H22  1  0.26663000  0.11449000  0.53599000  1.0
  H  H23  1  0.26663000  0.15214000  0.73065000  1.0
  H  H24  1  0.16277000  0.89815000  0.35348000  1.0
  H  H25  1  0.95536000  0.60188000  0.26466000  1.0
  H  H26  1  0.04464000  0.80928000  0.14650000  1.0
  H  H27  1  0.83722000  0.69069000  0.23536000  1.0
  H  H28  1  0.16276000  0.26461000  0.80931000  1.0
  H  H29  1  0.95535000  0.35348000  0.69069000  1.0
  H  H30  1  0.04465000  0.23537000  0.89815000  1.0
  H  H31  1  0.83721000  0.14652000  0.60182000  1.0
  H  H32  1  0.91678000  0.62121000  0.67665000  1.0
  H  H33  1  0.08324000  0.82336000  0.87884000  1.0
  H  H34  1  0.92571000  0.67664000  0.61676000  1.0
  H  H35  1  0.07437000  0.88327000  0.82341000  1.0
  H  H36  1  0.08316000  0.25979000  0.20434000  1.0
  H  H37  1  0.91670000  0.29548000  0.24002000  1.0
  H  H38  1  0.07440000  0.19117000  0.25103000  1.0
  H  H39  1  0.92575000  0.24914000  0.30899000  1.0
  H  H40  1  0.44014000  0.61674000  0.19104000  1.0
  H  H41  1  0.44013000  0.82335000  0.24900000  1.0
  H  H42  1  0.55546000  0.67666000  0.25996000  1.0
  H  H43  1  0.55545000  0.87880000  0.29564000  1.0
  H  H44  1  0.55989000  0.30891000  0.88326000  1.0
  H  H45  1  0.55984000  0.25092000  0.67661000  1.0
  H  H46  1  0.44455000  0.24011000  0.82336000  1.0
  H  H47  1  0.44454000  0.20440000  0.62120000  1.0
  C  C48  1  0.81540000  0.90770000  0.40769000  1.0
  C  C49  1  0.99999000  0.13731000  0.63731000  1.0
  C  C50  1  0.00003000  0.90989000  0.59013000  1.0
  C  C51  1  0.18460000  0.09231000  0.59229000  1.0
  C  C52  1  0.00000000  0.86268000  0.36267000  1.0
  C  C53  1  0.00000000  0.09011000  0.40987000  1.0
  C  C54  1  0.00000000  0.59230000  0.90771000  1.0
  C  C55  1  0.00000000  0.36267000  0.86267000  1.0
  C  C56  1  0.18024000  0.59010000  0.09012000  1.0
  C  C57  1  0.00000000  0.40770000  0.09230000  1.0
  C  C58  1  0.00001000  0.63733000  0.13733000  1.0
  C  C59  1  0.81976000  0.40987000  0.90987000  1.0
  C  C60  1  0.00000000  0.80446000  0.30446000  1.0
  C  C61  1  0.00000000  0.69555000  0.19554000  1.0
  C  C62  1  0.04263000  0.82054000  0.27661000  1.0
  C  C63  1  0.95607000  0.67945000  0.22209000  1.0
  C  C64  1  0.04392000  0.76602000  0.22337000  1.0
  C  C65  1  0.95737000  0.73399000  0.27791000  1.0
  C  C66  1  0.99999000  0.19553000  0.69553000  1.0
  C  C67  1  0.99999000  0.30444000  0.80444000  1.0
  C  C68  1  0.04262000  0.22208000  0.76601000  1.0
  C  C69  1  0.95607000  0.27661000  0.73396000  1.0
  C  C70  1  0.04392000  0.27790000  0.82054000  1.0
  C  C71  1  0.95735000  0.22336000  0.67944000  1.0
  C  C72  1  0.00000000  0.62982000  0.87018000  1.0
  C  C73  1  0.04429000  0.70201000  0.90800000  1.0
  C  C74  1  0.04428000  0.73693000  0.87309000  1.0
  C  C75  1  0.00001000  0.70020000  0.79983000  1.0
  C  C76  1  0.95574000  0.62693000  0.76308000  1.0
  C  C77  1  0.95572000  0.59201000  0.79799000  1.0
  C  C78  1  0.00002000  0.73565000  0.76438000  1.0
  C  C79  1  0.00003000  0.76660000  0.73342000  1.0
  C  C80  1  0.00003000  0.80204000  0.69798000  1.0
  C  C81  1  0.04096000  0.87614000  0.73558000  1.0
  C  C82  1  0.04089000  0.91109000  0.70070000  1.0
  C  C83  1  0.00003000  0.87238000  0.62765000  1.0
  C  C84  1  0.95918000  0.79934000  0.58894000  1.0
  C  C85  1  0.95911000  0.76446000  0.62388000  1.0
  C  C86  1  0.00000000  0.37018000  0.12982000  1.0
  C  C87  1  0.95571000  0.36370000  0.15772000  1.0
  C  C88  1  0.95572000  0.32879000  0.19264000  1.0
  C  C89  1  0.99999000  0.29980000  0.20018000  1.0
  C  C90  1  0.04426000  0.30734000  0.17118000  1.0
  C  C91  1  0.04428000  0.34227000  0.13629000  1.0
  C  C92  1  0.00000000  0.26435000  0.23563000  1.0
  C  C93  1  0.00002000  0.23342000  0.26661000  1.0
  C  C94  1  0.00002000  0.19799000  0.30205000  1.0
  C  C95  1  0.95909000  0.19466000  0.33521000  1.0
  C  C96  1  0.95915000  0.15983000  0.37021000  1.0
  C  C97  1  0.00000000  0.12763000  0.37235000  1.0
  C  C98  1  0.04086000  0.12979000  0.34018000  1.0
  C  C99  1  0.04096000  0.16483000  0.30540000  1.0
  C  C100  1  0.25527000  0.62761000  0.12763000  1.0
  C  C101  1  0.28961000  0.70066000  0.15982000  1.0
  C  C102  1  0.35944000  0.73555000  0.19463000  1.0
  C  C103  1  0.39594000  0.69796000  0.19798000  1.0
  C  C104  1  0.35944000  0.62386000  0.16481000  1.0
  C  C105  1  0.28961000  0.58891000  0.12979000  1.0
  C  C106  1  0.46681000  0.73339000  0.23342000  1.0
  C  C107  1  0.52872000  0.76435000  0.26438000  1.0
  C  C108  1  0.59962000  0.79980000  0.29983000  1.0
  C  C109  1  0.63615000  0.87307000  0.32883000  1.0
  C  C110  1  0.70598000  0.90799000  0.36371000  1.0
  C  C111  1  0.74035000  0.87017000  0.37017000  1.0
  C  C112  1  0.70598000  0.79799000  0.34229000  1.0
  C  C113  1  0.63615000  0.76307000  0.30737000  1.0
  C  C114  1  0.74473000  0.37236000  0.87235000  1.0
  C  C115  1  0.71038000  0.34016000  0.79931000  1.0
  C  C116  1  0.64055000  0.30534000  0.76443000  1.0
  C  C117  1  0.60406000  0.30202000  0.80203000  1.0
  C  C118  1  0.64058000  0.33519000  0.87613000  1.0
  C  C119  1  0.71041000  0.37021000  0.91107000  1.0
  C  C120  1  0.53319000  0.26658000  0.76661000  1.0
  C  C121  1  0.47128000  0.23562000  0.73565000  1.0
  C  C122  1  0.40038000  0.20018000  0.70020000  1.0
  C  C123  1  0.36384000  0.17117000  0.62692000  1.0
  C  C124  1  0.29402000  0.13629000  0.59201000  1.0
  C  C125  1  0.25965000  0.12982000  0.62982000  1.0
  C  C126  1  0.29402000  0.15772000  0.70201000  1.0
  C  C127  1  0.36385000  0.19264000  0.73693000  1.0
  C  C128  1  0.08280000  0.89525000  0.29745000  1.0
  C  C129  1  0.90221000  0.60474000  0.18755000  1.0
  C  C130  1  0.09778000  0.78534000  0.20253000  1.0
  C  C131  1  0.91720000  0.71465000  0.31244000  1.0
  C  C132  1  0.08279000  0.18755000  0.78536000  1.0
  C  C133  1  0.90221000  0.29746000  0.71463000  1.0
  C  C134  1  0.09779000  0.31244000  0.89526000  1.0
  C  C135  1  0.91719000  0.20252000  0.60472000  1.0
  O  O136  1  0.00000000  0.00000000  0.50000000  1.0
  O  O137  1  0.84458000  0.87230000  0.41682000  1.0
  O  O138  1  0.94885000  0.10269000  0.57698000  1.0
  O  O139  1  0.03660000  0.97676000  0.62799000  1.0
  O  O140  1  0.84458000  0.97228000  0.42774000  1.0
  O  O141  1  0.96345000  0.87202000  0.52325000  1.0
  O  O142  1  0.05114000  0.12812000  0.65385000  1.0
  O  O143  1  0.15543000  0.08319000  0.62771000  1.0
  O  O144  1  0.05114000  0.92301000  0.39730000  1.0
  O  O145  1  0.15542000  0.07225000  0.52771000  1.0
  O  O146  1  0.94886000  0.84616000  0.37187000  1.0
  O  O147  1  0.96343000  0.09141000  0.44016000  1.0
  O  O148  1  0.03656000  0.05981000  0.40857000  1.0
  O  O149  1  0.00000000  0.50000000  1.00000000  1.0
  O  O150  1  0.04452000  0.62770000  0.97229000  1.0
  O  O151  1  0.97429000  0.39730000  0.84615000  1.0
  O  O152  1  0.15123000  0.52325000  0.05982000  1.0
  O  O153  1  0.95547000  0.52772000  0.87229000  1.0
  O  O154  1  0.15124000  0.62798000  0.09143000  1.0
  O  O155  1  0.02571000  0.37186000  0.92301000  1.0
  O  O156  1  0.04453000  0.41683000  0.07225000  1.0
  O  O157  1  0.97430000  0.57699000  0.12814000  1.0
  O  O158  1  0.95548000  0.42776000  0.08318000  1.0
  O  O159  1  0.02572000  0.65384000  0.10270000  1.0
  O  O160  1  0.84877000  0.40858000  0.87201000  1.0
  O  O161  1  0.84878000  0.44017000  0.97674000  1.0
  O  O162  1  0.15005000  0.92778000  0.33925000  1.0
  O  O163  1  0.05642000  0.92231000  0.27263000  1.0
  O  O164  1  0.91151000  0.57225000  0.22231000  1.0
  O  O165  1  0.85033000  0.57765000  0.13411000  1.0
  O  O166  1  0.08850000  0.81079000  0.16074000  1.0
  O  O167  1  0.14966000  0.78378000  0.22734000  1.0
  O  O168  1  0.84995000  0.68920000  0.27772000  1.0
  O  O169  1  0.94357000  0.71622000  0.36589000  1.0
  O  O170  1  0.15004000  0.22226000  0.81082000  1.0
  O  O171  1  0.05642000  0.13410000  0.78378000  1.0
  O  O172  1  0.91149000  0.33925000  0.68918000  1.0
  O  O173  1  0.85033000  0.27266000  0.71619000  1.0
  O  O174  1  0.08850000  0.27771000  0.92777000  1.0
  O  O175  1  0.14967000  0.36588000  0.92234000  1.0
  O  O176  1  0.84993000  0.16074000  0.57219000  1.0
  O  O177  1  0.94356000  0.22732000  0.57765000  1.0
  O  O178  1  0.91224000  0.58907000  0.69281000  1.0
  O  O179  1  0.08778000  0.80719000  0.91096000  1.0
  O  O180  1  0.91875000  0.69338000  0.58520000  1.0
  O  O181  1  0.08132000  0.91482000  0.80667000  1.0
  O  O182  1  0.08774000  0.28055000  0.17680000  1.0
  O  O183  1  0.91220000  0.32312000  0.21937000  1.0
  O  O184  1  0.08133000  0.16653000  0.27469000  1.0
  O  O185  1  0.91874000  0.22537000  0.33353000  1.0
  O  O186  1  0.39184000  0.58518000  0.16649000  1.0
  O  O187  1  0.39182000  0.80660000  0.22531000  1.0
  O  O188  1  0.60376000  0.69282000  0.28064000  1.0
  O  O189  1  0.60374000  0.91093000  0.32320000  1.0
  O  O190  1  0.60820000  0.33352000  0.91483000  1.0
  O  O191  1  0.60814000  0.27463000  0.69335000  1.0
  O  O192  1  0.39626000  0.21941000  0.80720000  1.0
  O  O193  1  0.39625000  0.17681000  0.58906000  1.0
