# generated using pymatgen
data_CoH24C18(SN7)2
_symmetry_space_group_name_H-M   'P 1'
_cell_length_a   7.76097000
_cell_length_b   9.05058000
_cell_length_c   9.92034000
_cell_angle_alpha   114.05700000
_cell_angle_beta   91.15100000
_cell_angle_gamma   92.78980000
_symmetry_Int_Tables_number   1
_chemical_formula_structural   CoH24C18(SN7)2
_chemical_formula_sum   'Co1 H24 C18 S2 N14'
_cell_volume   634.92864907
_cell_formula_units_Z   1
loop_
 _symmetry_equiv_pos_site_id
 _symmetry_equiv_pos_as_xyz
  1  'x, y, z'
loop_
 _atom_site_type_symbol
 _atom_site_label
 _atom_site_symmetry_multiplicity
 _atom_site_fract_x
 _atom_site_fract_y
 _atom_site_fract_z
 _atom_site_occupancy
  Co  Co0  1  0.50000000  0.50000000  0.00000000  1.0
  H  H1  1  0.47442000  0.78812000  0.32034000  1.0
  H  H2  1  0.52558000  0.21188000  0.67966000  1.0
  H  H3  1  0.32132000  0.29258000  0.16577000  1.0
  H  H4  1  0.67868000  0.70742000  0.83423000  1.0
  H  H5  1  0.28508000  0.48929000  0.58356000  1.0
  H  H6  1  0.71492000  0.51071000  0.41644000  1.0
  H  H7  1  0.27720000  0.29690000  0.43207000  1.0
  H  H8  1  0.72280000  0.70310000  0.56793000  1.0
  H  H9  1  0.98519000  0.35296000  0.34910000  1.0
  H  H10  1  0.01481000  0.64704000  0.65090000  1.0
  H  H11  1  0.98906000  0.34270000  0.52337000  1.0
  H  H12  1  0.01094000  0.65730000  0.47663000  1.0
  H  H13  1  0.15702000  0.89610000  0.48032000  1.0
  H  H14  1  0.84298000  0.10390000  0.51968000  1.0
  H  H15  1  0.16844000  0.10382000  0.51496000  1.0
  H  H16  1  0.83156000  0.89618000  0.48504000  1.0
  H  H17  1  0.00148000  0.04165000  0.27663000  1.0
  H  H18  1  0.99852000  0.95835000  0.72337000  1.0
  H  H19  1  0.19360000  0.93653000  0.24760000  1.0
  H  H20  1  0.80640000  0.06347000  0.75240000  1.0
  H  H21  1  0.89151000  0.42133000  0.12519000  1.0
  H  H22  1  0.10849000  0.57867000  0.87481000  1.0
  H  H23  1  0.73569000  0.86706000  0.14235000  1.0
  H  H24  1  0.26431000  0.13294000  0.85765000  1.0
  C  C25  1  0.42393000  0.67304000  0.31731000  1.0
  C  C26  1  0.57607000  0.32696000  0.68269000  1.0
  C  C27  1  0.34631000  0.42087000  0.23450000  1.0
  C  C28  1  0.65369000  0.57914000  0.76550000  1.0
  C  C29  1  0.23222000  0.41992000  0.47035000  1.0
  C  C30  1  0.76778000  0.58008000  0.52966000  1.0
  C  C31  1  0.03515000  0.41602000  0.46455000  1.0
  C  C32  1  0.96485000  0.58398000  0.53545000  1.0
  C  C33  1  0.08675000  0.99044000  0.46347000  1.0
  C  C34  1  0.91325000  0.00956000  0.53653000  1.0
  C  C35  1  0.06803000  0.94881000  0.29863000  1.0
  C  C36  1  0.93197000  0.05119000  0.70137000  1.0
  C  C37  1  0.88943000  0.54928000  0.14855000  1.0
  C  C38  1  0.11057000  0.45072000  0.85146000  1.0
  C  C39  1  0.80678000  0.77264000  0.15526000  1.0
  C  C40  1  0.19322000  0.22736000  0.84474000  1.0
  C  C41  1  0.65966000  0.20623000  0.00938000  1.0
  C  C42  1  0.34034000  0.79377000  0.99062000  1.0
  S  S43  1  0.78185000  0.08528000  0.04524000  1.0
  S  S44  1  0.21815000  0.91472000  0.95476000  1.0
  N  N45  1  0.41780000  0.53227000  0.19255000  1.0
  N  N46  1  0.58220000  0.46773000  0.80745000  1.0
  N  N47  1  0.36176000  0.65459000  0.43361000  1.0
  N  N48  1  0.63824000  0.34541000  0.56639000  1.0
  N  N49  1  0.31273000  0.49356000  0.37871000  1.0
  N  N50  1  0.68728000  0.50644000  0.62129000  1.0
  N  N51  1  0.75554000  0.61596000  0.10700000  1.0
  N  N52  1  0.24446000  0.38404000  0.89300000  1.0
  N  N53  1  0.01953000  0.65577000  0.21988000  1.0
  N  N54  1  0.98047000  0.34423000  0.78012000  1.0
  N  N55  1  0.96503000  0.79724000  0.22194000  1.0
  N  N56  1  0.03497000  0.20276000  0.77806000  1.0
  N  N57  1  0.57732000  0.29816000  0.98130000  1.0
  N  N58  1  0.42268000  0.70184000  0.01870000  1.0
