# generated using pymatgen
data_CdH14C20(NO)4
_symmetry_space_group_name_H-M   'P 1'
_cell_length_a   7.50099000
_cell_length_b   11.29450000
_cell_length_c   15.14020000
_cell_angle_alpha   110.74900000
_cell_angle_beta   102.66300000
_cell_angle_gamma   94.27530000
_symmetry_Int_Tables_number   1
_chemical_formula_structural   CdH14C20(NO)4
_chemical_formula_sum   'Cd2 H28 C40 N8 O8'
_cell_volume   1153.90784632
_cell_formula_units_Z   2
loop_
 _symmetry_equiv_pos_site_id
 _symmetry_equiv_pos_as_xyz
  1  'x, y, z'
loop_
 _atom_site_type_symbol
 _atom_site_label
 _atom_site_symmetry_multiplicity
 _atom_site_fract_x
 _atom_site_fract_y
 _atom_site_fract_z
 _atom_site_occupancy
  Cd  Cd0  1  0.30811000  0.75085000  0.19676000  1.0
  Cd  Cd1  1  0.61135000  0.55430000  0.80320000  1.0
  H  H2  1  0.18344000  0.62278000  0.36064000  1.0
  H  H3  1  0.40242000  0.59687000  0.49843000  1.0
  H  H4  1  0.01548000  0.69306000  0.67356000  1.0
  H  H5  1  0.78962000  0.71352000  0.53529000  1.0
  H  H6  1  0.60202000  0.77007000  0.40633000  1.0
  H  H7  1  0.67080000  0.60703000  0.12119000  1.0
  H  H8  1  0.30464000  0.95609000  0.81614000  1.0
  H  H9  1  0.36723000  0.14460000  0.77362000  1.0
  H  H10  1  0.60807000  0.37940000  0.07754000  1.0
  H  H11  1  0.54455000  0.19271000  0.12206000  1.0
  H  H12  1  0.40610000  0.02969000  0.16148000  1.0
  H  H13  1  0.28542000  0.64802000  0.95701000  1.0
  H  H14  1  0.96000000  0.58966000  0.23585000  1.0
  H  H15  1  0.33150000  0.78465000  0.86283000  1.0
  H  H16  1  0.32341000  0.26280000  0.63936000  1.0
  H  H17  1  0.40477000  0.09897000  0.50163000  1.0
  H  H18  1  0.84286000  0.01989000  0.32684000  1.0
  H  H19  1  0.75516000  0.17887000  0.46507000  1.0
  H  H20  1  0.69625000  0.36422000  0.59404000  1.0
  H  H21  1  0.05008000  0.48645000  0.87899000  1.0
  H  H22  1  0.98746000  0.13964000  0.18365000  1.0
  H  H23  1  0.09275000  0.37058000  0.22613000  1.0
  H  H24  1  0.03131000  0.30139000  0.92216000  1.0
  H  H25  1  0.92306000  0.07028000  0.87773000  1.0
  H  H26  1  0.74406000  0.86817000  0.83852000  1.0
  H  H27  1  0.82837000  0.69058000  0.04281000  1.0
  H  H28  1  0.22463000  0.35444000  0.76420000  1.0
  H  H29  1  0.96876000  0.92143000  0.13701000  1.0
  C  C30  1  0.14444000  0.63800000  0.42862000  1.0
  C  C31  1  0.26864000  0.62449000  0.50582000  1.0
  C  C32  1  0.22372000  0.64419000  0.59457000  1.0
  C  C33  1  0.05165000  0.67949000  0.60507000  1.0
  C  C34  1  0.92564000  0.69104000  0.52745000  1.0
  C  C35  1  0.96919000  0.66937000  0.43761000  1.0
  C  C36  1  0.83253000  0.67483000  0.35508000  1.0
  C  C37  1  0.66605000  0.72136000  0.34881000  1.0
  C  C38  1  0.69660000  0.64115000  0.20036000  1.0
  C  C39  1  0.35520000  0.62152000  0.67385000  1.0
  C  C40  1  0.37065000  0.04870000  0.87417000  1.0
  C  C41  1  0.40492000  0.15458000  0.84997000  1.0
  C  C42  1  0.48995000  0.27458000  0.92317000  1.0
  C  C43  1  0.53947000  0.28666000  0.02116000  1.0
  C  C44  1  0.50342000  0.18182000  0.04558000  1.0
  C  C45  1  0.41855000  0.06092000  0.97258000  1.0
  C  C46  1  0.38302000  0.95307000  0.00083000  1.0
  C  C47  1  0.38337000  0.95030000  0.09175000  1.0
  C  C48  1  0.31660000  0.75188000  0.98803000  1.0
  C  C49  1  0.53401000  0.38746000  0.89798000  1.0
  C  C50  1  0.21652000  0.21001000  0.57145000  1.0
  C  C51  1  0.26361000  0.11919000  0.49428000  1.0
  C  C52  1  0.13000000  0.05009000  0.40563000  1.0
  C  C53  1  0.94745000  0.07487000  0.39522000  1.0
  C  C54  1  0.89896000  0.16418000  0.47280000  1.0
  C  C55  1  0.03230000  0.23239000  0.56256000  1.0
  C  C56  1  0.97808000  0.32037000  0.64510000  1.0
  C  C57  1  0.81781000  0.37305000  0.65146000  1.0
  C  C58  1  0.99673000  0.44146000  0.79984000  1.0
  C  C59  1  0.18194000  0.94792000  0.32630000  1.0
  C  C60  1  0.99579000  0.17419000  0.12560000  1.0
  C  C61  1  0.05431000  0.30424000  0.14978000  1.0
  C  C62  1  0.06668000  0.35098000  0.07654000  1.0
  C  C63  1  0.01855000  0.26510000  0.97857000  1.0
  C  C64  1  0.95800000  0.13587000  0.95418000  1.0
  C  C65  1  0.94574000  0.08801000  0.02721000  1.0
  C  C66  1  0.88204000  0.95197000  0.99907000  1.0
  C  C67  1  0.79126000  0.85843000  0.90821000  1.0
  C  C68  1  0.82847000  0.76353000  0.01187000  1.0
  C  C69  1  0.13607000  0.48906000  0.10179000  1.0
  N  N70  1  0.58404000  0.69974000  0.25265000  1.0
  N  N71  1  0.84695000  0.62476000  0.25959000  1.0
  N  N72  1  0.34194000  0.82509000  0.08239000  1.0
  N  N73  1  0.33845000  0.82570000  0.93691000  1.0
  N  N74  1  0.83187000  0.44762000  0.74759000  1.0
  N  N75  1  0.08788000  0.36584000  0.74055000  1.0
  N  N76  1  0.75926000  0.74258000  0.91757000  1.0
  N  N77  1  0.90153000  0.88842000  0.06297000  1.0
  O  O78  1  0.49251000  0.56690000  0.65353000  1.0
  O  O79  1  0.32682000  0.65400000  0.75912000  1.0
  O  O80  1  0.64644000  0.48555000  0.95876000  1.0
  O  O81  1  0.45440000  0.37824000  0.80964000  1.0
  O  O82  1  0.33925000  0.91323000  0.34653000  1.0
  O  O83  1  0.06842000  0.89530000  0.24104000  1.0
  O  O84  1  0.18807000  0.52642000  0.04106000  1.0
  O  O85  1  0.14447000  0.56814000  0.19012000  1.0
