# generated using pymatgen
data_ZnH16C25N19O4
_symmetry_space_group_name_H-M   'P 1'
_cell_length_a   11.08010000
_cell_length_b   11.35190000
_cell_length_c   15.67660000
_cell_angle_alpha   87.36640000
_cell_angle_beta   84.31410000
_cell_angle_gamma   87.69980000
_symmetry_Int_Tables_number   1
_chemical_formula_structural   ZnH16C25N19O4
_chemical_formula_sum   'Zn2 H32 C50 N38 O8'
_cell_volume   1958.77578403
_cell_formula_units_Z   2
loop_
 _symmetry_equiv_pos_site_id
 _symmetry_equiv_pos_as_xyz
  1  'x, y, z'
loop_
 _atom_site_type_symbol
 _atom_site_label
 _atom_site_symmetry_multiplicity
 _atom_site_fract_x
 _atom_site_fract_y
 _atom_site_fract_z
 _atom_site_occupancy
  Zn  Zn0  1  0.33946000  0.53459000  0.53804000  1.0
  Zn  Zn1  1  0.60604000  0.50706000  0.49833000  1.0
  H  H2  1  0.26400000  0.08002000  0.52480000  1.0
  H  H3  1  0.22628000  0.10258000  0.41883000  1.0
  H  H4  1  0.68125000  0.10726000  0.58503000  1.0
  H  H5  1  0.79589000  0.07519000  0.50926000  1.0
  H  H6  1  0.31215000  0.03579000  0.67755000  1.0
  H  H7  1  0.31433000  0.17037000  0.63020000  1.0
  H  H8  1  0.50627000  0.20983000  0.66349000  1.0
  H  H9  1  0.52420000  0.08150000  0.71482000  1.0
  H  H10  1  0.93889000  0.73721000  0.56978000  1.0
  H  H11  1  0.80557000  0.67994000  0.56363000  1.0
  H  H12  1  0.16668000  0.70953000  0.55547000  1.0
  H  H13  1  0.10932000  0.59489000  0.61629000  1.0
  H  H14  1  0.81823000  0.26474000  0.54054000  1.0
  H  H15  1  0.77620000  0.32721000  0.63228000  1.0
  H  H16  1  0.16417000  0.23092000  0.51155000  1.0
  H  H17  1  0.02174000  0.20789000  0.56183000  1.0
  H  H18  1  0.78289000  0.54970000  0.88502000  1.0
  H  H19  1  0.73270000  0.43223000  0.94433000  1.0
  H  H20  1  0.26840000  0.56413000  0.86036000  1.0
  H  H21  1  0.20999000  0.51676000  0.95923000  1.0
  H  H22  1  0.70071000  0.62210000  0.15687000  1.0
  H  H23  1  0.77021000  0.57516000  0.06081000  1.0
  H  H24  1  0.21098000  0.49345000  0.14007000  1.0
  H  H25  1  0.28278000  0.39395000  0.07039000  1.0
  H  H26  1  0.34975000  0.35877000  0.92757000  1.0
  H  H27  1  0.41336000  0.23019000  0.96846000  1.0
  H  H28  1  0.61111000  0.28503000  0.88593000  1.0
  H  H29  1  0.63887000  0.23753000  0.98443000  1.0
  H  H30  1  0.37117000  0.14252000  0.31043000  1.0
  H  H31  1  0.52591000  0.14066000  0.33697000  1.0
  H  H32  1  0.73705000  0.09565000  0.34853000  1.0
  H  H33  1  0.67666000  0.22233000  0.38271000  1.0
  C  C34  1  0.54442000  0.73834000  0.51393000  1.0
  C  C35  1  0.52394000  0.39853000  0.08013000  1.0
  C  C36  1  0.51345000  0.37717000  0.97961000  1.0
  C  C37  1  0.46283000  0.53990000  0.19151000  1.0
  C  C38  1  0.52080000  0.49168000  0.84083000  1.0
  C  C39  1  0.51592000  0.48756000  0.76410000  1.0
  C  C40  1  0.40747000  0.89659000  0.45830000  1.0
  C  C41  1  0.63260000  0.93821000  0.45114000  1.0
  C  C42  1  0.39972000  0.12252000  0.43734000  1.0
  C  C43  1  0.62888000  0.08604000  0.46360000  1.0
  C  C44  1  0.50398000  0.93025000  0.59615000  1.0
  C  C45  1  0.52215000  0.87608000  0.50279000  1.0
  C  C46  1  0.49741000  0.13237000  0.50116000  1.0
  C  C47  1  0.50074000  0.49306000  0.67423000  1.0
  C  C48  1  0.46452000  0.07082000  0.59496000  1.0
  C  C49  1  0.94227000  0.60307000  0.48747000  1.0
  C  C50  1  0.09141000  0.58451000  0.48476000  1.0
  C  C51  1  0.91875000  0.41135000  0.56943000  1.0
  C  C52  1  0.06306000  0.37978000  0.54734000  1.0
  C  C53  1  0.92290000  0.41785000  0.41050000  1.0
  C  C54  1  0.07352000  0.42290000  0.39178000  1.0
  C  C55  1  0.49663000  0.27328000  0.51058000  1.0
  C  C56  1  0.45802000  0.53456000  0.36045000  1.0
  C  C57  1  0.38230000  0.57208000  0.95657000  1.0
  C  C58  1  0.62030000  0.57992000  0.95732000  1.0
  C  C59  1  0.58845000  0.61030000  0.05881000  1.0
  C  C60  1  0.35318000  0.56122000  0.05979000  1.0
  C  C61  1  0.45023000  0.54027000  0.26932000  1.0
  C  C62  1  0.51062000  0.50496000  0.93228000  1.0
  C  C63  1  0.47952000  0.53013000  0.09922000  1.0
  C  C64  1  0.30309000  0.67466000  0.09223000  1.0
  C  C65  1  0.55652000  0.73673000  0.06656000  1.0
  C  C66  1  0.41444000  0.86366000  0.65305000  1.0
  C  C67  1  0.61693000  0.90719000  0.63772000  1.0
  C  C68  1  0.91131000  0.66582000  0.40758000  1.0
  C  C69  1  0.14528000  0.66054000  0.41372000  1.0
  C  C70  1  0.89844000  0.47858000  0.64912000  1.0
  C  C71  1  0.12851000  0.38957000  0.62433000  1.0
  C  C72  1  0.90021000  0.29143000  0.41118000  1.0
  C  C73  1  0.12912000  0.31158000  0.36021000  1.0
  C  C74  1  0.85834000  0.46274000  0.33747000  1.0
  C  C75  1  0.10222000  0.50110000  0.31566000  1.0
  C  C76  1  0.38328000  0.69723000  0.92742000  1.0
  C  C77  1  0.63073000  0.68995000  0.90424000  1.0
  C  C78  1  0.44880000  0.31370000  0.13320000  1.0
  C  C79  1  0.64697000  0.36713000  0.10645000  1.0
  C  C80  1  0.29551000  0.87365000  0.50324000  1.0
  C  C81  1  0.75276000  0.90020000  0.47662000  1.0
  C  C82  1  0.40355000  0.89210000  0.36894000  1.0
  C  C83  1  0.64522000  0.90759000  0.36033000  1.0
  N  N84  1  0.88476000  0.48259000  0.49053000  1.0
  N  N85  1  0.11708000  0.45710000  0.47250000  1.0
  N  N86  1  0.25310000  0.75907000  0.11949000  1.0
  N  N87  1  0.54488000  0.83840000  0.07417000  1.0
  N  N88  1  0.27996000  0.12245000  0.46508000  1.0
  N  N89  1  0.71386000  0.11794000  0.52163000  1.0
  N  N90  1  0.34891000  0.81119000  0.70223000  1.0
  N  N91  1  0.70457000  0.88114000  0.67059000  1.0
  N  N92  1  0.33474000  0.08259000  0.62136000  1.0
  N  N93  1  0.53730000  0.12448000  0.65600000  1.0
  N  N94  1  0.89679000  0.65995000  0.56348000  1.0
  N  N95  1  0.15532000  0.61662000  0.55800000  1.0
  N  N96  1  0.88723000  0.71852000  0.34564000  1.0
  N  N97  1  0.18213000  0.73616000  0.36678000  1.0
  N  N98  1  0.88145000  0.49489000  0.72254000  1.0
  N  N99  1  0.17358000  0.37783000  0.68860000  1.0
  N  N100  1  0.89769000  0.19343000  0.39256000  1.0
  N  N101  1  0.17431000  0.23311000  0.32201000  1.0
  N  N102  1  0.80465000  0.48258000  0.27789000  1.0
  N  N103  1  0.11503000  0.53874000  0.24515000  1.0
  N  N104  1  0.84947000  0.30794000  0.58995000  1.0
  N  N105  1  0.07511000  0.26158000  0.52134000  1.0
  N  N106  1  0.36792000  0.79408000  0.90151000  1.0
  N  N107  1  0.65498000  0.77181000  0.85920000  1.0
  N  N108  1  0.73965000  0.52264000  0.94265000  1.0
  N  N109  1  0.28569000  0.51915000  0.91580000  1.0
  N  N110  1  0.69310000  0.57862000  0.10247000  1.0
  N  N111  1  0.25784000  0.47985000  0.08176000  1.0
  N  N112  1  0.40147000  0.31910000  0.97241000  1.0
  N  N113  1  0.62183000  0.31052000  0.94624000  1.0
  N  N114  1  0.39881000  0.24325000  0.17851000  1.0
  N  N115  1  0.72984000  0.30781000  0.12535000  1.0
  N  N116  1  0.19718000  0.85988000  0.53793000  1.0
  N  N117  1  0.85470000  0.89070000  0.48924000  1.0
  N  N118  1  0.38941000  0.89777000  0.29558000  1.0
  N  N119  1  0.67288000  0.88101000  0.28989000  1.0
  N  N120  1  0.43217000  0.14226000  0.35525000  1.0
  N  N121  1  0.66018000  0.13534000  0.37712000  1.0
  O  O122  1  0.44845000  0.68138000  0.52777000  1.0
  O  O123  1  0.65047000  0.69035000  0.50635000  1.0
  O  O124  1  0.39319000  0.51500000  0.65500000  1.0
  O  O125  1  0.59696000  0.47519000  0.62304000  1.0
  O  O126  1  0.40179000  0.31810000  0.54891000  1.0
  O  O127  1  0.58804000  0.32898000  0.47635000  1.0
  O  O128  1  0.36280000  0.51259000  0.41128000  1.0
  O  O129  1  0.56388000  0.54972000  0.38220000  1.0
