# generated using pymatgen
data_SrH15C8NO12
_symmetry_space_group_name_H-M   'P 1'
_cell_length_a   7.60225000
_cell_length_b   10.15040000
_cell_length_c   10.74230000
_cell_angle_alpha   114.08400000
_cell_angle_beta   105.56600000
_cell_angle_gamma   100.45600000
_symmetry_Int_Tables_number   1
_chemical_formula_structural   SrH15C8NO12
_chemical_formula_sum   'Sr2 H30 C16 N2 O24'
_cell_volume   687.96043278
_cell_formula_units_Z   2
loop_
 _symmetry_equiv_pos_site_id
 _symmetry_equiv_pos_as_xyz
  1  'x, y, z'
loop_
 _atom_site_type_symbol
 _atom_site_label
 _atom_site_symmetry_multiplicity
 _atom_site_fract_x
 _atom_site_fract_y
 _atom_site_fract_z
 _atom_site_occupancy
  Sr  Sr0  1  0.94064000  0.67227000  0.32710000  1.0
  Sr  Sr1  1  0.11358000  0.34541000  0.67287000  1.0
  H  H2  1  0.83719000  0.98075000  0.51846000  1.0
  H  H3  1  0.81566000  0.46067000  0.47953000  1.0
  H  H4  1  0.80532000  0.85396000  0.56316000  1.0
  H  H5  1  0.74198000  0.28961000  0.43688000  1.0
  H  H6  1  0.57755000  0.74317000  0.19092000  1.0
  H  H7  1  0.88656000  0.55215000  0.80868000  1.0
  H  H8  1  0.56505000  0.59874000  0.04782000  1.0
  H  H9  1  0.01694000  0.55085000  0.95196000  1.0
  H  H10  1  0.21176000  0.70130000  0.16729000  1.0
  H  H11  1  0.54484000  0.53388000  0.83257000  1.0
  H  H12  1  0.18053000  0.52723000  0.12666000  1.0
  H  H13  1  0.55418000  0.40037000  0.87327000  1.0
  H  H14  1  0.26961000  0.59060000  0.44804000  1.0
  H  H15  1  0.32155000  0.14229000  0.55187000  1.0
  H  H16  1  0.22358000  0.45312000  0.28939000  1.0
  H  H17  1  0.43441000  0.16361000  0.71059000  1.0
  H  H18  1  0.61417000  0.58641000  0.44217000  1.0
  H  H19  1  0.67182000  0.14386000  0.55798000  1.0
  H  H20  1  0.52646000  0.47340000  0.27049000  1.0
  H  H21  1  0.75616000  0.20331000  0.72974000  1.0
  H  H22  1  0.40679000  0.83582000  0.43138000  1.0
  H  H23  1  0.47508000  0.40424000  0.56823000  1.0
  H  H24  1  0.31444000  0.92294000  0.53813000  1.0
  H  H25  1  0.27595000  0.38499000  0.46166000  1.0
  H  H26  1  0.63581000  0.99223000  0.76396000  1.0
  H  H27  1  0.37147000  0.22833000  0.23642000  1.0
  H  H28  1  0.85593000  0.77957000  0.02062000  1.0
  H  H29  1  0.33513000  0.75916000  0.97956000  1.0
  H  H30  1  0.87731000  0.24670000  0.23890000  1.0
  H  H31  1  0.13896000  0.00834000  0.76147000  1.0
  C  C32  1  0.75718000  0.13631000  0.00125000  1.0
  C  C33  1  0.25591000  0.13537000  0.99910000  1.0
  C  C34  1  0.70484000  0.00095000  0.87100000  1.0
  C  C35  1  0.33360000  0.13010000  0.12934000  1.0
  C  C36  1  0.73917000  0.87385000  0.88018000  1.0
  C  C37  1  0.35875000  0.99378000  0.12007000  1.0
  C  C38  1  0.82621000  0.87799000  0.01457000  1.0
  C  C39  1  0.31148000  0.86364000  0.98567000  1.0
  C  C40  1  0.87554000  0.01310000  0.14504000  1.0
  C  C41  1  0.23065000  0.86844000  0.85525000  1.0
  C  C42  1  0.83929000  0.14082000  0.13748000  1.0
  C  C43  1  0.20204000  0.00377000  0.86288000  1.0
  C  C44  1  0.72253000  0.27667000  0.99667000  1.0
  C  C45  1  0.22602000  0.28034000  0.00363000  1.0
  C  C46  1  0.96473000  0.01716000  0.29251000  1.0
  C  C47  1  0.17258000  0.72519000  0.70766000  1.0
  N  N48  1  0.68124000  0.73415000  0.74404000  1.0
  N  N49  1  0.43684000  0.99000000  0.25610000  1.0
  O  O50  1  0.76511000  0.39392000  0.11617000  1.0
  O  O51  1  0.14937000  0.27816000  0.88410000  1.0
  O  O52  1  0.80920000  0.87036000  0.48051000  1.0
  O  O53  1  0.82861000  0.38925000  0.51849000  1.0
  O  O54  1  0.65103000  0.68021000  0.14969000  1.0
  O  O55  1  0.00129000  0.53054000  0.85016000  1.0
  O  O56  1  0.11160000  0.60507000  0.13439000  1.0
  O  O57  1  0.47762000  0.47056000  0.86550000  1.0
  O  O58  1  0.18761000  0.48438000  0.37681000  1.0
  O  O59  1  0.31099000  0.10736000  0.62317000  1.0
  O  O60  1  0.64685000  0.52417000  0.36007000  1.0
  O  O61  1  0.78700000  0.16455000  0.64024000  1.0
  O  O62  1  0.32301000  0.81918000  0.48223000  1.0
  O  O63  1  0.34036000  0.33691000  0.51739000  1.0
  O  O64  1  0.64960000  0.26588000  0.86777000  1.0
  O  O65  1  0.28193000  0.39845000  0.13252000  1.0
  O  O66  1  0.94121000  0.11496000  0.40141000  1.0
  O  O67  1  0.04054000  0.71449000  0.59876000  1.0
  O  O68  1  0.05173000  0.92197000  0.29254000  1.0
  O  O69  1  0.25929000  0.62980000  0.70761000  1.0
  O  O70  1  0.67824000  0.61155000  0.74719000  1.0
  O  O71  1  0.43088000  0.86422000  0.25278000  1.0
  O  O72  1  0.63516000  0.73893000  0.62633000  1.0
  O  O73  1  0.50826000  0.11233000  0.37395000  1.0
