# generated using pymatgen
data_RbH5C6(NO3)2
_symmetry_space_group_name_H-M   'P 1'
_cell_length_a   5.36724000
_cell_length_b   7.73950000
_cell_length_c   21.94460000
_cell_angle_alpha   89.99960000
_cell_angle_beta   89.99970000
_cell_angle_gamma   87.77680000
_symmetry_Int_Tables_number   1
_chemical_formula_structural   RbH5C6(NO3)2
_chemical_formula_sum   'Rb4 H20 C24 N8 O24'
_cell_volume   910.88713541
_cell_formula_units_Z   4
loop_
 _symmetry_equiv_pos_site_id
 _symmetry_equiv_pos_as_xyz
  1  'x, y, z'
loop_
 _atom_site_type_symbol
 _atom_site_label
 _atom_site_symmetry_multiplicity
 _atom_site_fract_x
 _atom_site_fract_y
 _atom_site_fract_z
 _atom_site_occupancy
  Rb  Rb0  1  0.81290000  0.76169000  0.98175000  1.0
  Rb  Rb1  1  0.18711000  0.73832000  0.48176000  1.0
  Rb  Rb2  1  0.18711000  0.23831000  0.01825000  1.0
  Rb  Rb3  1  0.81289000  0.26169000  0.51824000  1.0
  H  H4  1  0.56048000  0.09195000  0.91520000  1.0
  H  H5  1  0.43952000  0.40806000  0.41520000  1.0
  H  H6  1  0.43953000  0.90805000  0.08479000  1.0
  H  H7  1  0.56049000  0.59195000  0.58480000  1.0
  H  H8  1  0.74289000  0.23168000  0.93419000  1.0
  H  H9  1  0.25712000  0.26832000  0.43419000  1.0
  H  H10  1  0.25711000  0.76832000  0.06581000  1.0
  H  H11  1  0.74287000  0.73169000  0.56581000  1.0
  H  H12  1  0.53351000  0.40053000  0.23278000  1.0
  H  H13  1  0.46648000  0.09946000  0.73277000  1.0
  H  H14  1  0.46650000  0.59947000  0.76723000  1.0
  H  H15  1  0.53351000  0.90052000  0.26722000  1.0
  H  H16  1  0.16865000  0.68172000  0.29145000  1.0
  H  H17  1  0.83136000  0.81827000  0.79145000  1.0
  H  H18  1  0.83138000  0.31828000  0.70855000  1.0
  H  H19  1  0.16862000  0.18172000  0.20855000  1.0
  H  H20  1  0.28845000  0.72513000  0.18340000  1.0
  H  H21  1  0.71154000  0.77486000  0.68340000  1.0
  H  H22  1  0.71156000  0.27486000  0.81661000  1.0
  H  H23  1  0.28845000  0.22514000  0.31660000  1.0
  C  C24  1  0.98534000  0.58668000  0.14386000  1.0
  C  C25  1  0.01464000  0.91331000  0.64385000  1.0
  C  C26  1  0.01466000  0.41332000  0.85615000  1.0
  C  C27  1  0.98534000  0.08667000  0.35614000  1.0
  C  C28  1  0.76616000  0.49173000  0.16134000  1.0
  C  C29  1  0.23384000  0.00827000  0.66134000  1.0
  C  C30  1  0.23386000  0.50828000  0.83866000  1.0
  C  C31  1  0.76615000  0.99171000  0.33866000  1.0
  C  C32  1  0.69838000  0.47127000  0.22194000  1.0
  C  C33  1  0.30165000  0.02873000  0.72194000  1.0
  C  C34  1  0.30164000  0.52873000  0.77807000  1.0
  C  C35  1  0.69835000  0.97126000  0.27806000  1.0
  C  C36  1  0.84127000  0.53980000  0.26811000  1.0
  C  C37  1  0.15874000  0.96021000  0.76811000  1.0
  C  C38  1  0.15876000  0.46022000  0.73189000  1.0
  C  C39  1  0.84124000  0.03978000  0.23189000  1.0
  C  C40  1  0.05819000  0.63090000  0.25438000  1.0
  C  C41  1  0.94181000  0.86909000  0.75438000  1.0
  C  C42  1  0.94183000  0.36911000  0.74562000  1.0
  C  C43  1  0.05816000  0.13090000  0.24561000  1.0
  C  C44  1  0.12418000  0.65343000  0.19477000  1.0
  C  C45  1  0.87582000  0.84657000  0.69477000  1.0
  C  C46  1  0.87583000  0.34657000  0.80523000  1.0
  C  C47  1  0.12417000  0.15342000  0.30522000  1.0
  N  N48  1  0.61094000  0.41123000  0.11706000  1.0
  N  N49  1  0.38904000  0.08877000  0.61705000  1.0
  N  N50  1  0.38905000  0.58877000  0.88294000  1.0
  N  N51  1  0.61095000  0.91122000  0.38294000  1.0
  N  N52  1  0.77070000  0.51227000  0.32987000  1.0
  N  N53  1  0.22931000  0.98774000  0.82987000  1.0
  N  N54  1  0.22931000  0.48774000  0.67013000  1.0
  N  N55  1  0.77069000  0.01226000  0.17013000  1.0
  O  O56  1  0.05602000  0.60970000  0.08941000  1.0
  O  O57  1  0.94395000  0.89031000  0.58941000  1.0
  O  O58  1  0.94398000  0.39030000  0.91060000  1.0
  O  O59  1  0.05603000  0.10969000  0.41059000  1.0
  O  O60  1  0.64928000  0.43324000  0.06150000  1.0
  O  O61  1  0.35068000  0.06676000  0.56149000  1.0
  O  O62  1  0.35070000  0.56677000  0.93851000  1.0
  O  O63  1  0.64929000  0.93324000  0.43850000  1.0
  O  O64  1  0.43983000  0.31852000  0.13587000  1.0
  O  O65  1  0.56014000  0.18149000  0.63586000  1.0
  O  O66  1  0.56018000  0.68148000  0.86414000  1.0
  O  O67  1  0.43984000  0.81851000  0.36413000  1.0
  O  O68  1  0.57915000  0.42753000  0.33995000  1.0
  O  O69  1  0.42086000  0.07247000  0.83995000  1.0
  O  O70  1  0.42087000  0.57248000  0.66005000  1.0
  O  O71  1  0.57915000  0.92752000  0.16005000  1.0
  O  O72  1  0.90044000  0.57117000  0.37172000  1.0
  O  O73  1  0.09960000  0.92884000  0.87171000  1.0
  O  O74  1  0.09959000  0.42885000  0.62828000  1.0
  O  O75  1  0.90040000  0.07116000  0.12828000  1.0
  O  O76  1  0.65056000  0.13349000  0.95112000  1.0
  O  O77  1  0.34941000  0.36652000  0.45112000  1.0
  O  O78  1  0.34942000  0.86652000  0.04888000  1.0
  O  O79  1  0.65057000  0.63348000  0.54889000  1.0
