# generated using pymatgen
data_Zn2H21C33(NO)9
_symmetry_space_group_name_H-M   'P 1'
_cell_length_a   13.74350000
_cell_length_b   15.60260000
_cell_length_c   18.37770000
_cell_angle_alpha   90.00020000
_cell_angle_beta   90.00010000
_cell_angle_gamma   89.99980000
_symmetry_Int_Tables_number   1
_chemical_formula_structural   Zn2H21C33(NO)9
_chemical_formula_sum   'Zn8 H84 C132 N36 O36'
_cell_volume   3940.80984336
_cell_formula_units_Z   4
loop_
 _symmetry_equiv_pos_site_id
 _symmetry_equiv_pos_as_xyz
  1  'x, y, z'
loop_
 _atom_site_type_symbol
 _atom_site_label
 _atom_site_symmetry_multiplicity
 _atom_site_fract_x
 _atom_site_fract_y
 _atom_site_fract_z
 _atom_site_occupancy
  Zn  Zn0  1  0.75000000  0.66806000  0.64314000  1.0
  Zn  Zn1  1  0.25000000  0.83194000  0.14314000  1.0
  Zn  Zn2  1  0.75000000  0.16806000  0.85686000  1.0
  Zn  Zn3  1  0.25000000  0.33194000  0.35686000  1.0
  Zn  Zn4  1  0.75000000  0.75955000  0.13168000  1.0
  Zn  Zn5  1  0.25000000  0.74045000  0.63168000  1.0
  Zn  Zn6  1  0.75000000  0.25955000  0.36832000  1.0
  Zn  Zn7  1  0.25000000  0.24045000  0.86832000  1.0
  H  H8  1  0.75000000  0.95933000  0.46272000  1.0
  H  H9  1  0.25000000  0.54067000  0.96272000  1.0
  H  H10  1  0.75000000  0.45933000  0.03728000  1.0
  H  H11  1  0.25000000  0.04067000  0.53728000  1.0
  H  H12  1  0.75000000  0.17952000  0.60396000  1.0
  H  H13  1  0.25000000  0.32047000  0.10396000  1.0
  H  H14  1  0.75000000  0.67953000  0.89604000  1.0
  H  H15  1  0.25000000  0.82048000  0.39604000  1.0
  H  H16  1  0.75000000  0.92697000  0.69579000  1.0
  H  H17  1  0.25000000  0.57303000  0.19579000  1.0
  H  H18  1  0.75000000  0.42697000  0.80421000  1.0
  H  H19  1  0.25000000  0.07303000  0.30421000  1.0
  H  H20  1  0.31929000  0.62482000  0.49743000  1.0
  H  H21  1  0.68071000  0.87518000  0.99743000  1.0
  H  H22  1  0.18071000  0.12482000  0.00257000  1.0
  H  H23  1  0.81928000  0.37518000  0.50257000  1.0
  H  H24  1  0.68071000  0.37518000  0.50257000  1.0
  H  H25  1  0.31929000  0.12482000  0.00257000  1.0
  H  H26  1  0.81929000  0.87518000  0.99743000  1.0
  H  H27  1  0.18072000  0.62482000  0.49743000  1.0
  H  H28  1  0.58904000  0.65078000  0.38139000  1.0
  H  H29  1  0.41096000  0.84922000  0.88139000  1.0
  H  H30  1  0.91096000  0.15078000  0.11861000  1.0
  H  H31  1  0.08904000  0.34922000  0.61861000  1.0
  H  H32  1  0.41096000  0.34922000  0.61861000  1.0
  H  H33  1  0.58904000  0.15078000  0.11861000  1.0
  H  H34  1  0.08904000  0.84922000  0.88139000  1.0
  H  H35  1  0.91096000  0.65078000  0.38139000  1.0
  H  H36  1  0.31882000  0.68377000  0.26739000  1.0
  H  H37  1  0.68118000  0.81623000  0.76739000  1.0
  H  H38  1  0.18118000  0.18377000  0.23261000  1.0
  H  H39  1  0.81882000  0.31622000  0.73261000  1.0
  H  H40  1  0.68118000  0.31622000  0.73261000  1.0
  H  H41  1  0.31882000  0.18377000  0.23261000  1.0
  H  H42  1  0.81882000  0.81623000  0.76739000  1.0
  H  H43  1  0.18118000  0.68378000  0.26739000  1.0
  H  H44  1  0.63651000  0.70685000  0.49727000  1.0
  H  H45  1  0.36349000  0.79316000  0.99727000  1.0
  H  H46  1  0.86349000  0.20685000  0.00273000  1.0
  H  H47  1  0.13651000  0.29315000  0.50273000  1.0
  H  H48  1  0.36349000  0.29316000  0.50273000  1.0
  H  H49  1  0.63651000  0.20685000  0.00273000  1.0
  H  H50  1  0.13651000  0.79316000  0.99727000  1.0
  H  H51  1  0.86349000  0.70684000  0.49727000  1.0
  H  H52  1  0.56297000  0.54243000  0.67058000  1.0
  H  H53  1  0.43703000  0.95757000  0.17059000  1.0
  H  H54  1  0.93703000  0.04243000  0.82941000  1.0
  H  H55  1  0.06297000  0.45757000  0.32941000  1.0
  H  H56  1  0.43703000  0.45757000  0.32941000  1.0
  H  H57  1  0.56297000  0.04243000  0.82941000  1.0
  H  H58  1  0.06297000  0.95757000  0.17059000  1.0
  H  H59  1  0.93703000  0.54243000  0.67059000  1.0
  H  H60  1  0.41288000  0.53739000  0.56853000  1.0
  H  H61  1  0.58713000  0.96261000  0.06853000  1.0
  H  H62  1  0.08712000  0.03739000  0.93147000  1.0
  H  H63  1  0.91288000  0.46261000  0.43147000  1.0
  H  H64  1  0.58712000  0.46261000  0.43147000  1.0
  H  H65  1  0.41288000  0.03739000  0.93147000  1.0
  H  H66  1  0.91288000  0.96261000  0.06853000  1.0
  H  H67  1  0.08712000  0.53738000  0.56853000  1.0
  H  H68  1  0.63422000  0.75675000  0.29048000  1.0
  H  H69  1  0.36578000  0.74325000  0.79048000  1.0
  H  H70  1  0.86578000  0.25676000  0.20952000  1.0
  H  H71  1  0.13422000  0.24324000  0.70952000  1.0
  H  H72  1  0.36578000  0.24325000  0.70952000  1.0
  H  H73  1  0.63422000  0.25676000  0.20952000  1.0
  H  H74  1  0.13422000  0.74325000  0.79048000  1.0
  H  H75  1  0.86578000  0.75675000  0.29048000  1.0
  H  H76  1  0.55402000  0.68141000  0.07835000  1.0
  H  H77  1  0.44597000  0.81859000  0.57835000  1.0
  H  H78  1  0.94598000  0.18141000  0.42165000  1.0
  H  H79  1  0.05402000  0.31859000  0.92165000  1.0
  H  H80  1  0.44598000  0.31859000  0.92165000  1.0
  H  H81  1  0.55402000  0.18141000  0.42166000  1.0
  H  H82  1  0.05403000  0.81859000  0.57835000  1.0
  H  H83  1  0.94598000  0.68141000  0.07834000  1.0
  H  H84  1  0.40994000  0.62902000  0.17455000  1.0
  H  H85  1  0.59005000  0.87098000  0.67455000  1.0
  H  H86  1  0.09006000  0.12902000  0.32545000  1.0
  H  H87  1  0.90994000  0.37098000  0.82545000  1.0
  H  H88  1  0.59006000  0.37098000  0.82545000  1.0
  H  H89  1  0.40994000  0.12902000  0.32545000  1.0
  H  H90  1  0.90994000  0.87098000  0.67455000  1.0
  H  H91  1  0.09006000  0.62902000  0.17455000  1.0
  C  C92  1  0.75000000  0.93150000  0.57818000  1.0
  C  C93  1  0.25000000  0.56850000  0.07818000  1.0
  C  C94  1  0.75000000  0.43150000  0.92182000  1.0
  C  C95  1  0.25000000  0.06850000  0.42182000  1.0
  C  C96  1  0.75000000  0.98570000  0.51763000  1.0
  C  C97  1  0.25000000  0.51430000  0.01763000  1.0
  C  C98  1  0.75000000  0.48571000  0.98237000  1.0
  C  C99  1  0.25000000  0.01429000  0.48237000  1.0
  C  C100  1  0.75000000  0.07489000  0.52699000  1.0
  C  C101  1  0.25000000  0.42511000  0.02699000  1.0
  C  C102  1  0.75000000  0.57489000  0.97301000  1.0
  C  C103  1  0.25000000  0.92511000  0.47301000  1.0
  C  C104  1  0.75000000  0.11026000  0.59713000  1.0
  C  C105  1  0.25000000  0.38973000  0.09713000  1.0
  C  C106  1  0.75000000  0.61027000  0.90287000  1.0
  C  C107  1  0.25000000  0.88974000  0.40287000  1.0
  C  C108  1  0.75000000  0.05619000  0.65793000  1.0
  C  C109  1  0.25000000  0.44380000  0.15793000  1.0
  C  C110  1  0.75000000  0.55620000  0.84208000  1.0
  C  C111  1  0.25000000  0.94380000  0.34207000  1.0
  C  C112  1  0.75000000  0.96759000  0.64773000  1.0
  C  C113  1  0.25000000  0.53241000  0.14773000  1.0
  C  C114  1  0.75000000  0.46759000  0.85227000  1.0
  C  C115  1  0.25000000  0.03241000  0.35227000  1.0
  C  C116  1  0.75000000  0.83553000  0.57058000  1.0
  C  C117  1  0.25000000  0.66446000  0.07058000  1.0
  C  C118  1  0.75000000  0.33554000  0.92943000  1.0
  C  C119  1  0.25000000  0.16446000  0.42942000  1.0
  C  C120  1  0.75000000  0.13024000  0.46019000  1.0
  C  C121  1  0.25000000  0.36976000  0.96019000  1.0
  C  C122  1  0.75000000  0.63024000  0.03981000  1.0
  C  C123  1  0.25000000  0.86976000  0.53981000  1.0
  C  C124  1  0.75000000  0.08784000  0.73468000  1.0
  C  C125  1  0.25000000  0.41216000  0.23468000  1.0
  C  C126  1  0.75000000  0.58784000  0.76532000  1.0
  C  C127  1  0.25000000  0.91216000  0.26532000  1.0
  C  C128  1  0.30389000  0.65056000  0.38172000  1.0
  C  C129  1  0.69611000  0.84944000  0.88172000  1.0
  C  C130  1  0.19611000  0.15056000  0.11828000  1.0
  C  C131  1  0.80389000  0.34944000  0.61828000  1.0
  C  C132  1  0.69611000  0.34944000  0.61828000  1.0
  C  C133  1  0.30389000  0.15056000  0.11828000  1.0
  C  C134  1  0.80389000  0.84944000  0.88172000  1.0
  C  C135  1  0.19611000  0.65056000  0.38172000  1.0
  C  C136  1  0.35631000  0.63660000  0.44618000  1.0
  C  C137  1  0.64370000  0.86341000  0.94618000  1.0
  C  C138  1  0.14369000  0.13659000  0.05382000  1.0
  C  C139  1  0.85630000  0.36340000  0.55382000  1.0
  C  C140  1  0.64369000  0.36341000  0.55382000  1.0
  C  C141  1  0.35631000  0.13659000  0.05382000  1.0
  C  C142  1  0.85631000  0.86341000  0.94618000  1.0
  C  C143  1  0.14370000  0.63659000  0.44618000  1.0
  C  C144  1  0.45750000  0.63953000  0.44603000  1.0
  C  C145  1  0.54250000  0.86048000  0.94603000  1.0
  C  C146  1  0.04250000  0.13953000  0.05397000  1.0
  C  C147  1  0.95750000  0.36047000  0.55397000  1.0
  C  C148  1  0.54250000  0.36047000  0.55397000  1.0
  C  C149  1  0.45750000  0.13953000  0.05397000  1.0
  C  C150  1  0.95750000  0.86047000  0.94603000  1.0
  C  C151  1  0.04250000  0.63953000  0.44603000  1.0
  C  C152  1  0.50996000  0.65477000  0.38223000  1.0
  C  C153  1  0.49004000  0.84524000  0.88223000  1.0
  C  C154  1  0.99004000  0.15477000  0.11777000  1.0
  C  C155  1  0.00996000  0.34523000  0.61777000  1.0
  C  C156  1  0.49004000  0.34523000  0.61777000  1.0
  C  C157  1  0.50996000  0.15477000  0.11777000  1.0
  C  C158  1  0.00996000  0.84524000  0.88223000  1.0
  C  C159  1  0.99004000  0.65477000  0.38223000  1.0
  C  C160  1  0.45731000  0.67037000  0.31865000  1.0
  C  C161  1  0.54269000  0.82964000  0.81865000  1.0
  C  C162  1  0.04269000  0.17037000  0.18135000  1.0
  C  C163  1  0.95731000  0.32963000  0.68134000  1.0
  C  C164  1  0.54269000  0.32963000  0.68135000  1.0
  C  C165  1  0.45731000  0.17037000  0.18135000  1.0
  C  C166  1  0.95731000  0.82964000  0.81865000  1.0
  C  C167  1  0.04269000  0.67037000  0.31866000  1.0
  C  C168  1  0.35601000  0.66842000  0.31787000  1.0
  C  C169  1  0.64399000  0.83159000  0.81787000  1.0
  C  C170  1  0.14399000  0.16841000  0.18213000  1.0
  C  C171  1  0.85601000  0.33158000  0.68213000  1.0
  C  C172  1  0.64399000  0.33158000  0.68213000  1.0
  C  C173  1  0.35601000  0.16841000  0.18213000  1.0
  C  C174  1  0.85601000  0.83159000  0.81787000  1.0
  C  C175  1  0.14399000  0.66842000  0.31787000  1.0
  C  C176  1  0.59716000  0.65963000  0.52937000  1.0
  C  C177  1  0.40285000  0.84037000  0.02937000  1.0
  C  C178  1  0.90285000  0.15963000  0.97063000  1.0
  C  C179  1  0.09715000  0.34037000  0.47063000  1.0
  C  C180  1  0.40284000  0.34037000  0.47063000  1.0
  C  C181  1  0.59715000  0.15963000  0.97063000  1.0
  C  C182  1  0.09716000  0.84037000  0.02937000  1.0
  C  C183  1  0.90285000  0.65963000  0.52937000  1.0
  C  C184  1  0.55477000  0.57588000  0.61930000  1.0
  C  C185  1  0.44524000  0.92412000  0.11930000  1.0
  C  C186  1  0.94524000  0.07588000  0.88070000  1.0
  C  C187  1  0.05476000  0.42412000  0.38070000  1.0
  C  C188  1  0.44523000  0.42412000  0.38070000  1.0
  C  C189  1  0.55476000  0.07588000  0.88070000  1.0
  C  C190  1  0.05476000  0.92412000  0.11930000  1.0
  C  C191  1  0.94524000  0.57587000  0.61930000  1.0
  C  C192  1  0.48104000  0.57215000  0.56919000  1.0
  C  C193  1  0.51896000  0.92785000  0.06919000  1.0
  C  C194  1  0.01896000  0.07215000  0.93081000  1.0
  C  C195  1  0.98104000  0.42785000  0.43081000  1.0
  C  C196  1  0.51896000  0.42785000  0.43081000  1.0
  C  C197  1  0.48104000  0.07215000  0.93081000  1.0
  C  C198  1  0.98104000  0.92785000  0.06919000  1.0
  C  C199  1  0.01896000  0.57215000  0.56919000  1.0
  C  C200  1  0.59494000  0.72810000  0.24554000  1.0
  C  C201  1  0.40506000  0.77190000  0.74554000  1.0
  C  C202  1  0.90507000  0.22810000  0.25446000  1.0
  C  C203  1  0.09494000  0.27190000  0.75446000  1.0
  C  C204  1  0.40507000  0.27190000  0.75446000  1.0
  C  C205  1  0.59493000  0.22810000  0.25446000  1.0
  C  C206  1  0.09494000  0.77190000  0.74554000  1.0
  C  C207  1  0.90506000  0.72810000  0.24554000  1.0
  C  C208  1  0.54871000  0.68960000  0.13674000  1.0
  C  C209  1  0.45128000  0.81040000  0.63674000  1.0
  C  C210  1  0.95128000  0.18960000  0.36326000  1.0
  C  C211  1  0.04871000  0.31040000  0.86326000  1.0
  C  C212  1  0.45128000  0.31040000  0.86326000  1.0
  C  C213  1  0.54872000  0.18961000  0.36326000  1.0
  C  C214  1  0.04872000  0.81040000  0.63673000  1.0
  C  C215  1  0.95129000  0.68960000  0.13674000  1.0
  C  C216  1  0.47765000  0.66274000  0.18352000  1.0
  C  C217  1  0.52235000  0.83726000  0.68352000  1.0
  C  C218  1  0.02235000  0.16274000  0.31648000  1.0
  C  C219  1  0.97765000  0.33726000  0.81648000  1.0
  C  C220  1  0.52235000  0.33726000  0.81648000  1.0
  C  C221  1  0.47765000  0.16274000  0.31648000  1.0
  C  C222  1  0.97765000  0.83726000  0.68352000  1.0
  C  C223  1  0.02235000  0.66274000  0.18352000  1.0
  N  N224  1  0.75000000  0.93368000  0.16947000  1.0
  N  N225  1  0.25000000  0.56632000  0.66947000  1.0
  N  N226  1  0.75000000  0.43368000  0.33053000  1.0
  N  N227  1  0.25000000  0.06632000  0.83053000  1.0
  N  N228  1  0.50910000  0.62505000  0.51202000  1.0
  N  N229  1  0.49091000  0.87495000  0.01202000  1.0
  N  N230  1  0.99090000  0.12505000  0.98798000  1.0
  N  N231  1  0.00909000  0.37495000  0.48798000  1.0
  N  N232  1  0.49090000  0.37495000  0.48798000  1.0
  N  N233  1  0.50910000  0.12505000  0.98798000  1.0
  N  N234  1  0.00910000  0.87495000  0.01202000  1.0
  N  N235  1  0.99091000  0.62505000  0.51202000  1.0
  N  N236  1  0.62613000  0.63070000  0.59387000  1.0
  N  N237  1  0.37388000  0.86930000  0.09387000  1.0
  N  N238  1  0.87388000  0.13070000  0.90613000  1.0
  N  N239  1  0.12612000  0.36930000  0.40613000  1.0
  N  N240  1  0.37387000  0.36931000  0.40613000  1.0
  N  N241  1  0.62613000  0.13070000  0.90613000  1.0
  N  N242  1  0.12613000  0.86930000  0.09387000  1.0
  N  N243  1  0.87388000  0.63070000  0.59387000  1.0
  N  N244  1  0.50792000  0.68696000  0.25261000  1.0
  N  N245  1  0.49208000  0.81304000  0.75261000  1.0
  N  N246  1  0.99208000  0.18696000  0.24739000  1.0
  N  N247  1  0.00792000  0.31304000  0.74739000  1.0
  N  N248  1  0.49208000  0.31304000  0.74739000  1.0
  N  N249  1  0.50792000  0.18696000  0.24739000  1.0
  N  N250  1  0.00792000  0.81304000  0.75261000  1.0
  N  N251  1  0.99208000  0.68696000  0.25261000  1.0
  N  N252  1  0.62106000  0.73040000  0.17599000  1.0
  N  N253  1  0.37894000  0.76961000  0.67599000  1.0
  N  N254  1  0.87894000  0.23040000  0.32400000  1.0
  N  N255  1  0.12106000  0.26960000  0.82401000  1.0
  N  N256  1  0.37894000  0.26961000  0.82401000  1.0
  N  N257  1  0.62106000  0.23040000  0.32401000  1.0
  N  N258  1  0.12106000  0.76961000  0.67599000  1.0
  N  N259  1  0.87894000  0.73040000  0.17599000  1.0
  O  O260  1  0.75000000  0.79527000  0.63242000  1.0
  O  O261  1  0.25000000  0.70472000  0.13242000  1.0
  O  O262  1  0.75000000  0.29528000  0.86758000  1.0
  O  O263  1  0.25000000  0.20473000  0.36758000  1.0
  O  O264  1  0.75000000  0.80091000  0.50895000  1.0
  O  O265  1  0.25000000  0.69909000  0.00895000  1.0
  O  O266  1  0.75000000  0.30091000  0.99105000  1.0
  O  O267  1  0.25000000  0.19909000  0.49106000  1.0
  O  O268  1  0.75000000  0.21334000  0.47025000  1.0
  O  O269  1  0.25000000  0.28666000  0.97025000  1.0
  O  O270  1  0.75000000  0.71334000  0.02975000  1.0
  O  O271  1  0.25000000  0.78666000  0.52975000  1.0
  O  O272  1  0.75000000  0.09662000  0.39849000  1.0
  O  O273  1  0.25000000  0.40337000  0.89849000  1.0
  O  O274  1  0.75000000  0.59663000  0.10151000  1.0
  O  O275  1  0.25000000  0.90337000  0.60151000  1.0
  O  O276  1  0.75000000  0.16968000  0.74638000  1.0
  O  O277  1  0.25000000  0.33031000  0.24638000  1.0
  O  O278  1  0.75000000  0.66968000  0.75362000  1.0
  O  O279  1  0.25000000  0.83031000  0.25362000  1.0
  O  O280  1  0.75000000  0.03456000  0.78645000  1.0
  O  O281  1  0.25000000  0.46544000  0.28645000  1.0
  O  O282  1  0.75000000  0.53456000  0.71355000  1.0
  O  O283  1  0.25000000  0.96544000  0.21355000  1.0
  O  O284  1  0.75000000  0.88822000  0.10843000  1.0
  O  O285  1  0.25000000  0.61178000  0.60843000  1.0
  O  O286  1  0.75000000  0.38822000  0.39157000  1.0
  O  O287  1  0.25000000  0.11178000  0.89158000  1.0
  O  O288  1  0.75000000  0.89380000  0.22852000  1.0
  O  O289  1  0.25000000  0.60620000  0.72852000  1.0
  O  O290  1  0.75000000  0.39380000  0.27148000  1.0
  O  O291  1  0.25000000  0.10619000  0.77149000  1.0
  O  O292  1  0.75000000  0.01313000  0.16393000  1.0
  O  O293  1  0.25000000  0.48688000  0.66394000  1.0
  O  O294  1  0.75000000  0.51313000  0.33607000  1.0
  O  O295  1  0.25000000  0.98687000  0.83607000  1.0
