# generated using pymatgen
data_CoH34C28(NO2)4
_symmetry_space_group_name_H-M   'P 1'
_cell_length_a   7.66337000
_cell_length_b   8.34119000
_cell_length_c   10.74250000
_cell_angle_alpha   96.10990000
_cell_angle_beta   98.85240000
_cell_angle_gamma   96.85210000
_symmetry_Int_Tables_number   1
_chemical_formula_structural   CoH34C28(NO2)4
_chemical_formula_sum   'Co1 H34 C28 N4 O8'
_cell_volume   668.17936827
_cell_formula_units_Z   1
loop_
 _symmetry_equiv_pos_site_id
 _symmetry_equiv_pos_as_xyz
  1  'x, y, z'
loop_
 _atom_site_type_symbol
 _atom_site_label
 _atom_site_symmetry_multiplicity
 _atom_site_fract_x
 _atom_site_fract_y
 _atom_site_fract_z
 _atom_site_occupancy
  Co  Co0  1  0.00000000  0.00000000  0.00000000  1.0
  H  H1  1  0.37401000  0.03950000  0.04424000  1.0
  H  H2  1  0.62600000  0.96049000  0.95575000  1.0
  H  H3  1  0.27189000  0.92736000  0.91555000  1.0
  H  H4  1  0.72810000  0.07263000  0.08445000  1.0
  H  H5  1  0.35917000  0.71469000  0.05033000  1.0
  H  H6  1  0.64084000  0.28531000  0.94967000  1.0
  H  H7  1  0.25490000  0.28730000  0.11707000  1.0
  H  H8  1  0.74511000  0.71271000  0.88293000  1.0
  H  H9  1  0.88740000  0.15945000  0.78405000  1.0
  H  H10  1  0.11261000  0.84055000  0.21596000  1.0
  H  H11  1  0.96855000  0.42841000  0.70903000  1.0
  H  H12  1  0.03145000  0.57159000  0.29097000  1.0
  H  H13  1  0.20178000  0.63435000  0.84699000  1.0
  H  H14  1  0.79823000  0.36566000  0.15301000  1.0
  H  H15  1  0.54498000  0.84660000  0.19888000  1.0
  H  H16  1  0.45502000  0.15341000  0.80113000  1.0
  H  H17  1  0.69021000  0.73933000  0.29234000  1.0
  H  H18  1  0.30980000  0.26069000  0.70766000  1.0
  H  H19  1  0.32030000  0.79024000  0.35271000  1.0
  H  H20  1  0.67971000  0.20977000  0.64729000  1.0
  H  H21  1  0.49125000  0.71739000  0.44913000  1.0
  H  H22  1  0.50876000  0.28260000  0.55087000  1.0
  H  H23  1  0.50163000  0.06147000  0.36982000  1.0
  H  H24  1  0.49838000  0.93852000  0.63019000  1.0
  H  H25  1  0.68303000  0.99364000  0.45916000  1.0
  H  H26  1  0.31698000  0.00635000  0.54085000  1.0
  H  H27  1  0.00228000  0.08577000  0.44605000  1.0
  H  H28  1  0.99771000  0.91423000  0.55395000  1.0
  H  H29  1  0.19904000  0.17288000  0.39603000  1.0
  H  H30  1  0.80094000  0.82711000  0.60397000  1.0
  H  H31  1  0.73716000  0.29588000  0.40605000  1.0
  H  H32  1  0.26283000  0.70412000  0.59394000  1.0
  H  H33  1  0.69388000  0.56561000  0.50413000  1.0
  H  H34  1  0.30611000  0.43439000  0.49587000  1.0
  C  C35  1  0.24248000  0.47804000  0.99495000  1.0
  C  C36  1  0.75752000  0.52197000  0.00505000  1.0
  C  C37  1  0.19588000  0.32164000  0.02708000  1.0
  C  C38  1  0.80413000  0.67837000  0.97292000  1.0
  C  C39  1  0.98987000  0.25149000  0.83976000  1.0
  C  C40  1  0.01014000  0.74851000  0.16024000  1.0
  C  C41  1  0.03500000  0.40162000  0.79999000  1.0
  C  C42  1  0.96500000  0.59839000  0.20001000  1.0
  C  C43  1  0.16298000  0.51655000  0.87716000  1.0
  C  C44  1  0.83702000  0.48346000  0.12284000  1.0
  C  C45  1  0.45499000  0.58932000  0.19398000  1.0
  C  C46  1  0.54501000  0.41070000  0.80601000  1.0
  C  C47  1  0.54921000  0.75187000  0.26249000  1.0
  C  C48  1  0.45079000  0.24813000  0.73752000  1.0
  C  C49  1  0.46635000  0.80282000  0.37920000  1.0
  C  C50  1  0.53366000  0.19718000  0.62080000  1.0
  C  C51  1  0.53610000  0.97707000  0.43921000  1.0
  C  C52  1  0.46391000  0.02293000  0.56080000  1.0
  C  C53  1  0.96429000  0.12295000  0.25338000  1.0
  C  C54  1  0.03570000  0.87704000  0.74662000  1.0
  C  C55  1  0.05583000  0.17768000  0.39003000  1.0
  C  C56  1  0.94415000  0.82232000  0.60997000  1.0
  C  C57  1  0.02481000  0.34401000  0.44537000  1.0
  C  C58  1  0.97518000  0.65599000  0.55463000  1.0
  C  C59  1  0.85291000  0.38420000  0.44826000  1.0
  C  C60  1  0.14708000  0.61581000  0.55174000  1.0
  C  C61  1  0.82903000  0.53788000  0.50234000  1.0
  C  C62  1  0.17096000  0.46212000  0.49766000  1.0
  N  N63  1  0.07069000  0.21098000  0.95066000  1.0
  N  N64  1  0.92931000  0.78902000  0.04934000  1.0
  N  N65  1  0.36011000  0.59949000  0.07586000  1.0
  N  N66  1  0.63990000  0.40052000  0.92414000  1.0
  O  O67  1  0.46017000  0.46073000  0.24149000  1.0
  O  O68  1  0.53985000  0.53927000  0.75852000  1.0
  O  O69  1  0.06970000  0.09024000  0.17461000  1.0
  O  O70  1  0.93028000  0.90976000  0.82539000  1.0
  O  O71  1  0.79637000  0.10980000  0.22657000  1.0
  O  O72  1  0.20362000  0.89019000  0.77343000  1.0
  O  O73  1  0.29852000  0.93600000  0.01354000  1.0
  O  O74  1  0.70147000  0.06400000  0.98646000  1.0
