# generated using pymatgen
data_VH10C14(NO2)2
_symmetry_space_group_name_H-M   'P 1'
_cell_length_a   6.38354000
_cell_length_b   9.88589000
_cell_length_c   10.71330000
_cell_angle_alpha   106.66000000
_cell_angle_beta   102.99800000
_cell_angle_gamma   103.27000000
_symmetry_Int_Tables_number   1
_chemical_formula_structural   VH10C14(NO2)2
_chemical_formula_sum   'V2 H20 C28 N4 O8'
_cell_volume   598.98486057
_cell_formula_units_Z   2
loop_
 _symmetry_equiv_pos_site_id
 _symmetry_equiv_pos_as_xyz
  1  'x, y, z'
loop_
 _atom_site_type_symbol
 _atom_site_label
 _atom_site_symmetry_multiplicity
 _atom_site_fract_x
 _atom_site_fract_y
 _atom_site_fract_z
 _atom_site_occupancy
  V  V0  1  0.34411000  0.34104000  0.45675000  1.0
  V  V1  1  0.65587000  0.65896000  0.54325000  1.0
  H  H2  1  0.62298000  0.18923000  0.88088000  1.0
  H  H3  1  0.37701000  0.81077000  0.11912000  1.0
  H  H4  1  0.87395000  0.05437000  0.79076000  1.0
  H  H5  1  0.12603000  0.94562000  0.20924000  1.0
  H  H6  1  0.91981000  0.04620000  0.56378000  1.0
  H  H7  1  0.08020000  0.95380000  0.43622000  1.0
  H  H8  1  0.69942000  0.16674000  0.42932000  1.0
  H  H9  1  0.30059000  0.83326000  0.57068000  1.0
  H  H10  1  0.38153000  0.29372000  0.93297000  1.0
  H  H11  1  0.61849000  0.70629000  0.06703000  1.0
  H  H12  1  0.14814000  0.45173000  0.99309000  1.0
  H  H13  1  0.85185000  0.54827000  0.00691000  1.0
  H  H14  1  0.00518000  0.57921000  0.82886000  1.0
  H  H15  1  0.99482000  0.42079000  0.17114000  1.0
  H  H16  1  0.11442000  0.53592000  0.61599000  1.0
  H  H17  1  0.88558000  0.46408000  0.38400000  1.0
  H  H18  1  0.77850000  0.16925000  0.22660000  1.0
  H  H19  1  0.22151000  0.83075000  0.77341000  1.0
  H  H20  1  0.11708000  0.02346000  0.92933000  1.0
  H  H21  1  0.88292000  0.97654000  0.07068000  1.0
  C  C22  1  0.52396000  0.24531000  0.69981000  1.0
  C  C23  1  0.47604000  0.75469000  0.30018000  1.0
  C  C24  1  0.64103000  0.18099000  0.78062000  1.0
  C  C25  1  0.35897000  0.81901000  0.21938000  1.0
  C  C26  1  0.78270000  0.10690000  0.73093000  1.0
  C  C27  1  0.21729000  0.89309000  0.26906000  1.0
  C  C28  1  0.80848000  0.10203000  0.60433000  1.0
  C  C29  1  0.19152000  0.89797000  0.39566000  1.0
  C  C30  1  0.68568000  0.16750000  0.52883000  1.0
  C  C31  1  0.31432000  0.83250000  0.47116000  1.0
  C  C32  1  0.37953000  0.33315000  0.74405000  1.0
  C  C33  1  0.62048000  0.66685000  0.25595000  1.0
  C  C34  1  0.32387000  0.35001000  0.86502000  1.0
  C  C35  1  0.67614000  0.64999000  0.13497000  1.0
  C  C36  1  0.18990000  0.43935000  0.89818000  1.0
  C  C37  1  0.81009000  0.56065000  0.10181000  1.0
  C  C38  1  0.11241000  0.50902000  0.80961000  1.0
  C  C39  1  0.88759000  0.49098000  0.19038000  1.0
  C  C40  1  0.17200000  0.48562000  0.68944000  1.0
  C  C41  1  0.82800000  0.51438000  0.31056000  1.0
  C  C42  1  0.43873000  0.10948000  0.08715000  1.0
  C  C43  1  0.56128000  0.89052000  0.91286000  1.0
  C  C44  1  0.65537000  0.09592000  0.12785000  1.0
  C  C45  1  0.34465000  0.90408000  0.87216000  1.0
  C  C46  1  0.28524000  0.01278000  0.95911000  1.0
  C  C47  1  0.71477000  0.98722000  0.04090000  1.0
  C  C48  1  0.36199000  0.22203000  0.17749000  1.0
  C  C49  1  0.63801000  0.77797000  0.82251000  1.0
  N  N50  1  0.54326000  0.23476000  0.57438000  1.0
  N  N51  1  0.45675000  0.76524000  0.42561000  1.0
  N  N52  1  0.30263000  0.40069000  0.65799000  1.0
  N  N53  1  0.69737000  0.59932000  0.34200000  1.0
  O  O54  1  0.29869000  0.49557000  0.43947000  1.0
  O  O55  1  0.70130000  0.50443000  0.56052000  1.0
  O  O56  1  0.21315000  0.26953000  0.12674000  1.0
  O  O57  1  0.78684000  0.73046000  0.87327000  1.0
  O  O58  1  0.46339000  0.25984000  0.30963000  1.0
  O  O59  1  0.53660000  0.74016000  0.69038000  1.0
  O  O60  1  0.09777000  0.21287000  0.39814000  1.0
  O  O61  1  0.90221000  0.78712000  0.60187000  1.0
