# generated using pymatgen
data_CuH9C11N3(OF)3
_symmetry_space_group_name_H-M   'P 1'
_cell_length_a   8.73442000
_cell_length_b   9.10625000
_cell_length_c   9.13449000
_cell_angle_alpha   68.12410000
_cell_angle_beta   85.74930000
_cell_angle_gamma   70.07470000
_symmetry_Int_Tables_number   1
_chemical_formula_structural   CuH9C11N3(OF)3
_chemical_formula_sum   'Cu2 H18 C22 N6 O6 F6'
_cell_volume   632.69673178
_cell_formula_units_Z   2
loop_
 _symmetry_equiv_pos_site_id
 _symmetry_equiv_pos_as_xyz
  1  'x, y, z'
loop_
 _atom_site_type_symbol
 _atom_site_label
 _atom_site_symmetry_multiplicity
 _atom_site_fract_x
 _atom_site_fract_y
 _atom_site_fract_z
 _atom_site_occupancy
  Cu  Cu0  1  0.16956000  0.49321000  0.39094000  1.0
  Cu  Cu1  1  0.83044000  0.50680000  0.60905000  1.0
  H  H2  1  0.51017000  0.88881000  0.17196000  1.0
  H  H3  1  0.48983000  0.11119000  0.82804000  1.0
  H  H4  1  0.76476000  0.96268000  0.14477000  1.0
  H  H5  1  0.23524000  0.03732000  0.85524000  1.0
  H  H6  1  0.78597000  0.17831000  0.23587000  1.0
  H  H7  1  0.21403000  0.82168000  0.76415000  1.0
  H  H8  1  0.54699000  0.34299000  0.34722000  1.0
  H  H9  1  0.45301000  0.65701000  0.65279000  1.0
  H  H10  1  0.33306000  0.75194000  0.37678000  1.0
  H  H11  1  0.66694000  0.24807000  0.62322000  1.0
  H  H12  1  0.15023000  0.80861000  0.48040000  1.0
  H  H13  1  0.84977000  0.19138000  0.51961000  1.0
  H  H14  1  0.98494000  0.78930000  0.27886000  1.0
  H  H15  1  0.01507000  0.21070000  0.72114000  1.0
  H  H16  1  0.32710000  0.63791000  0.16598000  1.0
  H  H17  1  0.67290000  0.36209000  0.83402000  1.0
  H  H18  1  0.12726000  0.65169000  0.09367000  1.0
  H  H19  1  0.87273000  0.34831000  0.90632000  1.0
  C  C20  1  0.25946000  0.43641000  0.69405000  1.0
  C  C21  1  0.74053000  0.56360000  0.30594000  1.0
  C  C22  1  0.23257000  0.41571000  0.87000000  1.0
  C  C23  1  0.76743000  0.58430000  0.12999000  1.0
  C  C24  1  0.39129000  0.07322000  0.27856000  1.0
  C  C25  1  0.60871000  0.92677000  0.72144000  1.0
  C  C26  1  0.52077000  0.98375000  0.21179000  1.0
  C  C27  1  0.47923000  0.01625000  0.78822000  1.0
  C  C28  1  0.66079000  0.02622000  0.19832000  1.0
  C  C29  1  0.33921000  0.97378000  0.80168000  1.0
  C  C30  1  0.67199000  0.15171000  0.24929000  1.0
  C  C31  1  0.32801000  0.84829000  0.75072000  1.0
  C  C32  1  0.54175000  0.24236000  0.31239000  1.0
  C  C33  1  0.45825000  0.75763000  0.68761000  1.0
  C  C34  1  0.39911000  0.20134000  0.32572000  1.0
  C  C35  1  0.60089000  0.79866000  0.67428000  1.0
  C  C36  1  0.19981000  0.81168000  0.36564000  1.0
  C  C37  1  0.80019000  0.18832000  0.63436000  1.0
  C  C38  1  0.11812000  0.74162000  0.28376000  1.0
  C  C39  1  0.88188000  0.25838000  0.71624000  1.0
  C  C40  1  0.19676000  0.66130000  0.18186000  1.0
  C  C41  1  0.80324000  0.33869000  0.81814000  1.0
  N  N42  1  0.23482000  0.07472000  0.30718000  1.0
  N  N43  1  0.76517000  0.92528000  0.69281000  1.0
  N  N44  1  0.14876000  0.19323000  0.36321000  1.0
  N  N45  1  0.85124000  0.80678000  0.63679000  1.0
  N  N46  1  0.24722000  0.27173000  0.37396000  1.0
  N  N47  1  0.75277000  0.72827000  0.62603000  1.0
  O  O48  1  0.13188000  0.45511000  0.61876000  1.0
  O  O49  1  0.86812000  0.54489000  0.38124000  1.0
  O  O50  1  0.39616000  0.43337000  0.64434000  1.0
  O  O51  1  0.60384000  0.56663000  0.35564000  1.0
  O  O52  1  0.15644000  0.99245000  0.25931000  1.0
  O  O53  1  0.84356000  0.00756000  0.74069000  1.0
  F  F54  1  0.11681000  0.55482000  0.88271000  1.0
  F  F55  1  0.88319000  0.44518000  0.11729000  1.0
  F  F56  1  0.18137000  0.28151000  0.94929000  1.0
  F  F57  1  0.81864000  0.71849000  0.05071000  1.0
  F  F58  1  0.37101000  0.38965000  0.94890000  1.0
  F  F59  1  0.62900000  0.61036000  0.05110000  1.0
