# generated using pymatgen
data_FeH14C22(NO2)2
_symmetry_space_group_name_H-M   'P 1'
_cell_length_a   11.42000000
_cell_length_b   16.36080000
_cell_length_c   24.44690000
_cell_angle_alpha   90.00000000
_cell_angle_beta   89.99920000
_cell_angle_gamma   89.99960000
_symmetry_Int_Tables_number   1
_chemical_formula_structural   FeH14C22(NO2)2
_chemical_formula_sum   'Fe8 H112 C176 N16 O32'
_cell_volume   4567.66700960
_cell_formula_units_Z   8
loop_
 _symmetry_equiv_pos_site_id
 _symmetry_equiv_pos_as_xyz
  1  'x, y, z'
loop_
 _atom_site_type_symbol
 _atom_site_label
 _atom_site_symmetry_multiplicity
 _atom_site_fract_x
 _atom_site_fract_y
 _atom_site_fract_z
 _atom_site_occupancy
  Fe  Fe0  1  0.35375000  0.65431000  0.54418000  1.0
  Fe  Fe1  1  0.64625000  0.65431000  0.95582000  1.0
  Fe  Fe2  1  0.64625000  0.84570000  0.04418000  1.0
  Fe  Fe3  1  0.35376000  0.84570000  0.45582000  1.0
  Fe  Fe4  1  0.64625000  0.34569000  0.45582000  1.0
  Fe  Fe5  1  0.35375000  0.34569000  0.04418000  1.0
  Fe  Fe6  1  0.35376000  0.15430000  0.95582000  1.0
  Fe  Fe7  1  0.64624000  0.15431000  0.54418000  1.0
  H  H8  1  0.55464000  0.56070000  0.48473000  1.0
  H  H9  1  0.44537000  0.56071000  0.01528000  1.0
  H  H10  1  0.44538000  0.93930000  0.98473000  1.0
  H  H11  1  0.55463000  0.93930000  0.51527000  1.0
  H  H12  1  0.44537000  0.43929000  0.51528000  1.0
  H  H13  1  0.55463000  0.43930000  0.98472000  1.0
  H  H14  1  0.55463000  0.06069000  0.01528000  1.0
  H  H15  1  0.44537000  0.06070000  0.48473000  1.0
  H  H16  1  0.76673000  0.55440000  0.48422000  1.0
  H  H17  1  0.23327000  0.55441000  0.01578000  1.0
  H  H18  1  0.23328000  0.94561000  0.98422000  1.0
  H  H19  1  0.76673000  0.94562000  0.51578000  1.0
  H  H20  1  0.23327000  0.44560000  0.51578000  1.0
  H  H21  1  0.76673000  0.44560000  0.98422000  1.0
  H  H22  1  0.76673000  0.05438000  0.01578000  1.0
  H  H23  1  0.23328000  0.05439000  0.48422000  1.0
  H  H24  1  0.76666000  0.75543000  0.60065000  1.0
  H  H25  1  0.23333000  0.75543000  0.89935000  1.0
  H  H26  1  0.23334000  0.74458000  0.10065000  1.0
  H  H27  1  0.76667000  0.74458000  0.39935000  1.0
  H  H28  1  0.23334000  0.24457000  0.39935000  1.0
  H  H29  1  0.76666000  0.24456000  0.10064000  1.0
  H  H30  1  0.76667000  0.25541000  0.89935000  1.0
  H  H31  1  0.23333000  0.25541000  0.60066000  1.0
  H  H32  1  0.55071000  0.74970000  0.59778000  1.0
  H  H33  1  0.44929000  0.74970000  0.90222000  1.0
  H  H34  1  0.44929000  0.75032000  0.09779000  1.0
  H  H35  1  0.55072000  0.75032000  0.40221000  1.0
  H  H36  1  0.44929000  0.25030000  0.40222000  1.0
  H  H37  1  0.55070000  0.25030000  0.09778000  1.0
  H  H38  1  0.55072000  0.24968000  0.90221000  1.0
  H  H39  1  0.44928000  0.24968000  0.59779000  1.0
  H  H40  1  0.93784000  0.58618000  0.46708000  1.0
  H  H41  1  0.06216000  0.58618000  0.03292000  1.0
  H  H42  1  0.06217000  0.91383000  0.96708000  1.0
  H  H43  1  0.93783000  0.91383000  0.53292000  1.0
  H  H44  1  0.06216000  0.41382000  0.53292000  1.0
  H  H45  1  0.93784000  0.41382000  0.96708000  1.0
  H  H46  1  0.93783000  0.08617000  0.03292000  1.0
  H  H47  1  0.06217000  0.08617000  0.46708000  1.0
  H  H48  1  0.15412000  0.58645000  0.47005000  1.0
  H  H49  1  0.84589000  0.58646000  0.02995000  1.0
  H  H50  1  0.84589000  0.91356000  0.97005000  1.0
  H  H51  1  0.15411000  0.91355000  0.52995000  1.0
  H  H52  1  0.84589000  0.41355000  0.52995000  1.0
  H  H53  1  0.15411000  0.41355000  0.97005000  1.0
  H  H54  1  0.15411000  0.08645000  0.02996000  1.0
  H  H55  1  0.84589000  0.08645000  0.47005000  1.0
  H  H56  1  0.15921000  0.71885000  0.61428000  1.0
  H  H57  1  0.84079000  0.71886000  0.88572000  1.0
  H  H58  1  0.84078000  0.78116000  0.11428000  1.0
  H  H59  1  0.15922000  0.78117000  0.38572000  1.0
  H  H60  1  0.84079000  0.28115000  0.38572000  1.0
  H  H61  1  0.15920000  0.28114000  0.11428000  1.0
  H  H62  1  0.15922000  0.21883000  0.88572000  1.0
  H  H63  1  0.84078000  0.21883000  0.61428000  1.0
  H  H64  1  0.94275000  0.72132000  0.61941000  1.0
  H  H65  1  0.05725000  0.72133000  0.88059000  1.0
  H  H66  1  0.05724000  0.77870000  0.11941000  1.0
  H  H67  1  0.94277000  0.77870000  0.38059000  1.0
  H  H68  1  0.05725000  0.27868000  0.38059000  1.0
  H  H69  1  0.94274000  0.27867000  0.11940000  1.0
  H  H70  1  0.94276000  0.22129000  0.88059000  1.0
  H  H71  1  0.05723000  0.22130000  0.61941000  1.0
  H  H72  1  0.34853000  0.49377000  0.39227000  1.0
  H  H73  1  0.65147000  0.49377000  0.10772000  1.0
  H  H74  1  0.65146000  0.00623000  0.89227000  1.0
  H  H75  1  0.34854000  0.00623000  0.60773000  1.0
  H  H76  1  0.65147000  0.50624000  0.60772000  1.0
  H  H77  1  0.34853000  0.50623000  0.89228000  1.0
  H  H78  1  0.34853000  0.99377000  0.10773000  1.0
  H  H79  1  0.65147000  0.99377000  0.39227000  1.0
  H  H80  1  0.36261000  0.74674000  0.34387000  1.0
  H  H81  1  0.63739000  0.74673000  0.15613000  1.0
  H  H82  1  0.63739000  0.75326000  0.84387000  1.0
  H  H83  1  0.36261000  0.75326000  0.65613000  1.0
  H  H84  1  0.63739000  0.25327000  0.65613000  1.0
  H  H85  1  0.36261000  0.25326000  0.84387000  1.0
  H  H86  1  0.36261000  0.24674000  0.15613000  1.0
  H  H87  1  0.63739000  0.24674000  0.34387000  1.0
  H  H88  1  0.35810000  0.70646000  0.24571000  1.0
  H  H89  1  0.64189000  0.70646000  0.25428000  1.0
  H  H90  1  0.64189000  0.79354000  0.74571000  1.0
  H  H91  1  0.35811000  0.79354000  0.75429000  1.0
  H  H92  1  0.64190000  0.29354000  0.75428000  1.0
  H  H93  1  0.35811000  0.29354000  0.74571000  1.0
  H  H94  1  0.35810000  0.20646000  0.25429000  1.0
  H  H95  1  0.64189000  0.20646000  0.24571000  1.0
  H  H96  1  0.34142000  0.38503000  0.32071000  1.0
  H  H97  1  0.65859000  0.38503000  0.17929000  1.0
  H  H98  1  0.65858000  0.11497000  0.82071000  1.0
  H  H99  1  0.34142000  0.11496000  0.67929000  1.0
  H  H100  1  0.65858000  0.61497000  0.67929000  1.0
  H  H101  1  0.34141000  0.61497000  0.82071000  1.0
  H  H102  1  0.34142000  0.88504000  0.17929000  1.0
  H  H103  1  0.65859000  0.88504000  0.32071000  1.0
  H  H104  1  0.33853000  0.34617000  0.22206000  1.0
  H  H105  1  0.66148000  0.34617000  0.27794000  1.0
  H  H106  1  0.66148000  0.15383000  0.72207000  1.0
  H  H107  1  0.33851000  0.15383000  0.77794000  1.0
  H  H108  1  0.66147000  0.65384000  0.77794000  1.0
  H  H109  1  0.33852000  0.65383000  0.72207000  1.0
  H  H110  1  0.33852000  0.84617000  0.27794000  1.0
  H  H111  1  0.66149000  0.84616000  0.22207000  1.0
  H  H112  1  0.34807000  0.59841000  0.17459000  1.0
  H  H113  1  0.65193000  0.59841000  0.32540000  1.0
  H  H114  1  0.65194000  0.90160000  0.67459000  1.0
  H  H115  1  0.34807000  0.90159000  0.82541000  1.0
  H  H116  1  0.65193000  0.40160000  0.82540000  1.0
  H  H117  1  0.34807000  0.40160000  0.67460000  1.0
  H  H118  1  0.34806000  0.09840000  0.32541000  1.0
  H  H119  1  0.65193000  0.09840000  0.17459000  1.0
  C  C120  1  0.60422000  0.60221000  0.51060000  1.0
  C  C121  1  0.39578000  0.60222000  0.98940000  1.0
  C  C122  1  0.39579000  0.89779000  0.01060000  1.0
  C  C123  1  0.60422000  0.89779000  0.48940000  1.0
  C  C124  1  0.39578000  0.39778000  0.48940000  1.0
  C  C125  1  0.60422000  0.39778000  0.01060000  1.0
  C  C126  1  0.60422000  0.10220000  0.98940000  1.0
  C  C127  1  0.39578000  0.10221000  0.51060000  1.0
  C  C128  1  0.72559000  0.59981000  0.51043000  1.0
  C  C129  1  0.27441000  0.59982000  0.98957000  1.0
  C  C130  1  0.27441000  0.90020000  0.01044000  1.0
  C  C131  1  0.72559000  0.90020000  0.48956000  1.0
  C  C132  1  0.27441000  0.40018000  0.48957000  1.0
  C  C133  1  0.72559000  0.40018000  0.01043000  1.0
  C  C134  1  0.72559000  0.09980000  0.98957000  1.0
  C  C135  1  0.27441000  0.09980000  0.51044000  1.0
  C  C136  1  0.78965000  0.65434000  0.54322000  1.0
  C  C137  1  0.21035000  0.65434000  0.95678000  1.0
  C  C138  1  0.21035000  0.84568000  0.04322000  1.0
  C  C139  1  0.78965000  0.84568000  0.45678000  1.0
  C  C140  1  0.21035000  0.34566000  0.45678000  1.0
  C  C141  1  0.78964000  0.34566000  0.04321000  1.0
  C  C142  1  0.78965000  0.15432000  0.95678000  1.0
  C  C143  1  0.21035000  0.15432000  0.54322000  1.0
  C  C144  1  0.72416000  0.70944000  0.57525000  1.0
  C  C145  1  0.27584000  0.70945000  0.92475000  1.0
  C  C146  1  0.27584000  0.79057000  0.07525000  1.0
  C  C147  1  0.72417000  0.79057000  0.42475000  1.0
  C  C148  1  0.27584000  0.29055000  0.42476000  1.0
  C  C149  1  0.72416000  0.29055000  0.07524000  1.0
  C  C150  1  0.72417000  0.20943000  0.92475000  1.0
  C  C151  1  0.27583000  0.20943000  0.57525000  1.0
  C  C152  1  0.60285000  0.70742000  0.57347000  1.0
  C  C153  1  0.39715000  0.70743000  0.92653000  1.0
  C  C154  1  0.39715000  0.79259000  0.07348000  1.0
  C  C155  1  0.60286000  0.79259000  0.42653000  1.0
  C  C156  1  0.39715000  0.29257000  0.42653000  1.0
  C  C157  1  0.60284000  0.29258000  0.07347000  1.0
  C  C158  1  0.60285000  0.20740000  0.92653000  1.0
  C  C159  1  0.39714000  0.20741000  0.57347000  1.0
  C  C160  1  0.91849000  0.65403000  0.54327000  1.0
  C  C161  1  0.08151000  0.65403000  0.95673000  1.0
  C  C162  1  0.08151000  0.84599000  0.04327000  1.0
  C  C163  1  0.91849000  0.84599000  0.45673000  1.0
  C  C164  1  0.08151000  0.34597000  0.45673000  1.0
  C  C165  1  0.91849000  0.34596000  0.04326000  1.0
  C  C166  1  0.91849000  0.15401000  0.95673000  1.0
  C  C167  1  0.08151000  0.15401000  0.54327000  1.0
  C  C168  1  0.98223000  0.61581000  0.50117000  1.0
  C  C169  1  0.01777000  0.61581000  0.99883000  1.0
  C  C170  1  0.01777000  0.88420000  0.00117000  1.0
  C  C171  1  0.98223000  0.88420000  0.49883000  1.0
  C  C172  1  0.01777000  0.38419000  0.49883000  1.0
  C  C173  1  0.98222000  0.38419000  0.00117000  1.0
  C  C174  1  0.98223000  0.11580000  0.99884000  1.0
  C  C175  1  0.01777000  0.11580000  0.50117000  1.0
  C  C176  1  0.10349000  0.61629000  0.50210000  1.0
  C  C177  1  0.89651000  0.61630000  0.99790000  1.0
  C  C178  1  0.89651000  0.88371000  0.00210000  1.0
  C  C179  1  0.10349000  0.88371000  0.49790000  1.0
  C  C180  1  0.89651000  0.38371000  0.49790000  1.0
  C  C181  1  0.10349000  0.38371000  0.00210000  1.0
  C  C182  1  0.10349000  0.11629000  0.99790000  1.0
  C  C183  1  0.89651000  0.11629000  0.50210000  1.0
  C  C184  1  0.10636000  0.68992000  0.58258000  1.0
  C  C185  1  0.89364000  0.68992000  0.91742000  1.0
  C  C186  1  0.89364000  0.81010000  0.08258000  1.0
  C  C187  1  0.10637000  0.81010000  0.41742000  1.0
  C  C188  1  0.89364000  0.31008000  0.41742000  1.0
  C  C189  1  0.10635000  0.31008000  0.08258000  1.0
  C  C190  1  0.10636000  0.18989000  0.91742000  1.0
  C  C191  1  0.89363000  0.18990000  0.58258000  1.0
  C  C192  1  0.98495000  0.69143000  0.58480000  1.0
  C  C193  1  0.01505000  0.69143000  0.91520000  1.0
  C  C194  1  0.01505000  0.80859000  0.08480000  1.0
  C  C195  1  0.98496000  0.80860000  0.41520000  1.0
  C  C196  1  0.01505000  0.30857000  0.41520000  1.0
  C  C197  1  0.98494000  0.30857000  0.08479000  1.0
  C  C198  1  0.98496000  0.19140000  0.91520000  1.0
  C  C199  1  0.01504000  0.19141000  0.58480000  1.0
  C  C200  1  0.35533000  0.64821000  0.43173000  1.0
  C  C201  1  0.64467000  0.64821000  0.06827000  1.0
  C  C202  1  0.64467000  0.85179000  0.93173000  1.0
  C  C203  1  0.35533000  0.85179000  0.56827000  1.0
  C  C204  1  0.64467000  0.35179000  0.56827000  1.0
  C  C205  1  0.35533000  0.35179000  0.93173000  1.0
  C  C206  1  0.35533000  0.14821000  0.06827000  1.0
  C  C207  1  0.64467000  0.14821000  0.43173000  1.0
  C  C208  1  0.34929000  0.53968000  0.35991000  1.0
  C  C209  1  0.65071000  0.53968000  0.14009000  1.0
  C  C210  1  0.65071000  0.96032000  0.85991000  1.0
  C  C211  1  0.34930000  0.96031000  0.64009000  1.0
  C  C212  1  0.65071000  0.46032000  0.64009000  1.0
  C  C213  1  0.34929000  0.46031000  0.85991000  1.0
  C  C214  1  0.34929000  0.03969000  0.14009000  1.0
  C  C215  1  0.65071000  0.03968000  0.35991000  1.0
  C  C216  1  0.35447000  0.62181000  0.37371000  1.0
  C  C217  1  0.64552000  0.62180000  0.12628000  1.0
  C  C218  1  0.64552000  0.87819000  0.87371000  1.0
  C  C219  1  0.35448000  0.87819000  0.62629000  1.0
  C  C220  1  0.64552000  0.37820000  0.62628000  1.0
  C  C221  1  0.35447000  0.37819000  0.87371000  1.0
  C  C222  1  0.35448000  0.12181000  0.12629000  1.0
  C  C223  1  0.64553000  0.12181000  0.37371000  1.0
  C  C224  1  0.35772000  0.68257000  0.33206000  1.0
  C  C225  1  0.64228000  0.68257000  0.16794000  1.0
  C  C226  1  0.64228000  0.81743000  0.83206000  1.0
  C  C227  1  0.35772000  0.81743000  0.66794000  1.0
  C  C228  1  0.64228000  0.31744000  0.66794000  1.0
  C  C229  1  0.35772000  0.31743000  0.83206000  1.0
  C  C230  1  0.35772000  0.18257000  0.16794000  1.0
  C  C231  1  0.64228000  0.18257000  0.33206000  1.0
  C  C232  1  0.35456000  0.66020000  0.27789000  1.0
  C  C233  1  0.64544000  0.66020000  0.22211000  1.0
  C  C234  1  0.64544000  0.83980000  0.77789000  1.0
  C  C235  1  0.35456000  0.83980000  0.72211000  1.0
  C  C236  1  0.64544000  0.33980000  0.72211000  1.0
  C  C237  1  0.35456000  0.33980000  0.77789000  1.0
  C  C238  1  0.35456000  0.16020000  0.22211000  1.0
  C  C239  1  0.64544000  0.16020000  0.27789000  1.0
  C  C240  1  0.34761000  0.57671000  0.26242000  1.0
  C  C241  1  0.65239000  0.57671000  0.23758000  1.0
  C  C242  1  0.65239000  0.92329000  0.76242000  1.0
  C  C243  1  0.34761000  0.92329000  0.73758000  1.0
  C  C244  1  0.65239000  0.42329000  0.73758000  1.0
  C  C245  1  0.34761000  0.42329000  0.76242000  1.0
  C  C246  1  0.34760000  0.07671000  0.23758000  1.0
  C  C247  1  0.65239000  0.07671000  0.26242000  1.0
  C  C248  1  0.34558000  0.51521000  0.30446000  1.0
  C  C249  1  0.65442000  0.51521000  0.19554000  1.0
  C  C250  1  0.65442000  0.98479000  0.80446000  1.0
  C  C251  1  0.34558000  0.98479000  0.69555000  1.0
  C  C252  1  0.65442000  0.48479000  0.69554000  1.0
  C  C253  1  0.34558000  0.48479000  0.80446000  1.0
  C  C254  1  0.34558000  0.01521000  0.19554000  1.0
  C  C255  1  0.65442000  0.01521000  0.30445000  1.0
  C  C256  1  0.34143000  0.43166000  0.28874000  1.0
  C  C257  1  0.65858000  0.43165000  0.21126000  1.0
  C  C258  1  0.65857000  0.06835000  0.78874000  1.0
  C  C259  1  0.34142000  0.06834000  0.71126000  1.0
  C  C260  1  0.65857000  0.56835000  0.71126000  1.0
  C  C261  1  0.34142000  0.56834000  0.78874000  1.0
  C  C262  1  0.34142000  0.93166000  0.21126000  1.0
  C  C263  1  0.65857000  0.93166000  0.28874000  1.0
  C  C264  1  0.33981000  0.41008000  0.23437000  1.0
  C  C265  1  0.66019000  0.41008000  0.26563000  1.0
  C  C266  1  0.66020000  0.08992000  0.73437000  1.0
  C  C267  1  0.33981000  0.08991000  0.76563000  1.0
  C  C268  1  0.66018000  0.58992000  0.76563000  1.0
  C  C269  1  0.33982000  0.58992000  0.73437000  1.0
  C  C270  1  0.33981000  0.91009000  0.26563000  1.0
  C  C271  1  0.66020000  0.91008000  0.23437000  1.0
  C  C272  1  0.34147000  0.47078000  0.19277000  1.0
  C  C273  1  0.65853000  0.47078000  0.30723000  1.0
  C  C274  1  0.65853000  0.02922000  0.69277000  1.0
  C  C275  1  0.34147000  0.02922000  0.80723000  1.0
  C  C276  1  0.65852000  0.52922000  0.80723000  1.0
  C  C277  1  0.34148000  0.52922000  0.69277000  1.0
  C  C278  1  0.34147000  0.97078000  0.30723000  1.0
  C  C279  1  0.65853000  0.97078000  0.19277000  1.0
  C  C280  1  0.34489000  0.55251000  0.20697000  1.0
  C  C281  1  0.65511000  0.55251000  0.29302000  1.0
  C  C282  1  0.65511000  0.94749000  0.70697000  1.0
  C  C283  1  0.34489000  0.94748000  0.79303000  1.0
  C  C284  1  0.65511000  0.44749000  0.79302000  1.0
  C  C285  1  0.34489000  0.44749000  0.70697000  1.0
  C  C286  1  0.34488000  0.05251000  0.29303000  1.0
  C  C287  1  0.65512000  0.05251000  0.20697000  1.0
  C  C288  1  0.34333000  0.44662000  0.13371000  1.0
  C  C289  1  0.65667000  0.44663000  0.36629000  1.0
  C  C290  1  0.65667000  0.05338000  0.63371000  1.0
  C  C291  1  0.34333000  0.05337000  0.86629000  1.0
  C  C292  1  0.65667000  0.55337000  0.86629000  1.0
  C  C293  1  0.34333000  0.55338000  0.63371000  1.0
  C  C294  1  0.34333000  0.94663000  0.36629000  1.0
  C  C295  1  0.65667000  0.94662000  0.13371000  1.0
  N  N296  1  0.54229000  0.65481000  0.54162000  1.0
  N  N297  1  0.45771000  0.65482000  0.95838000  1.0
  N  N298  1  0.45771000  0.84520000  0.04163000  1.0
  N  N299  1  0.54229000  0.84520000  0.45838000  1.0
  N  N300  1  0.45771000  0.34519000  0.45838000  1.0
  N  N301  1  0.54228000  0.34519000  0.04162000  1.0
  N  N302  1  0.54229000  0.15480000  0.95838000  1.0
  N  N303  1  0.45771000  0.15480000  0.54163000  1.0
  N  N304  1  0.16652000  0.65288000  0.54191000  1.0
  N  N305  1  0.83348000  0.65289000  0.95809000  1.0
  N  N306  1  0.83348000  0.84713000  0.04191000  1.0
  N  N307  1  0.16653000  0.84713000  0.45809000  1.0
  N  N308  1  0.83348000  0.34712000  0.45809000  1.0
  N  N309  1  0.16652000  0.34711000  0.04191000  1.0
  N  N310  1  0.16652000  0.15287000  0.95809000  1.0
  N  N311  1  0.83347000  0.15287000  0.54191000  1.0
  O  O312  1  0.35534000  0.59447000  0.47021000  1.0
  O  O313  1  0.64466000  0.59447000  0.02979000  1.0
  O  O314  1  0.64465000  0.90553000  0.97021000  1.0
  O  O315  1  0.35535000  0.90553000  0.52979000  1.0
  O  O316  1  0.64466000  0.40553000  0.52979000  1.0
  O  O317  1  0.35534000  0.40553000  0.97021000  1.0
  O  O318  1  0.35535000  0.09447000  0.02979000  1.0
  O  O319  1  0.64465000  0.09447000  0.47021000  1.0
  O  O320  1  0.35427000  0.72426000  0.44253000  1.0
  O  O321  1  0.64574000  0.72426000  0.05747000  1.0
  O  O322  1  0.64574000  0.77575000  0.94254000  1.0
  O  O323  1  0.35426000  0.77575000  0.55747000  1.0
  O  O324  1  0.64574000  0.27574000  0.55746000  1.0
  O  O325  1  0.35426000  0.27574000  0.94253000  1.0
  O  O326  1  0.35425000  0.22425000  0.05747000  1.0
  O  O327  1  0.64575000  0.22425000  0.44253000  1.0
  O  O328  1  0.33496000  0.49804000  0.09593000  1.0
  O  O329  1  0.66504000  0.49804000  0.40407000  1.0
  O  O330  1  0.66504000  0.00196000  0.59593000  1.0
  O  O331  1  0.33496000  0.00196000  0.90407000  1.0
  O  O332  1  0.66504000  0.50196000  0.90407000  1.0
  O  O333  1  0.33497000  0.50196000  0.59593000  1.0
  O  O334  1  0.33496000  0.99804000  0.40407000  1.0
  O  O335  1  0.66504000  0.99803000  0.09593000  1.0
  O  O336  1  0.35493000  0.36860000  0.12469000  1.0
  O  O337  1  0.64506000  0.36860000  0.37531000  1.0
  O  O338  1  0.64507000  0.13140000  0.62469000  1.0
  O  O339  1  0.35493000  0.13140000  0.87531000  1.0
  O  O340  1  0.64506000  0.63140000  0.87531000  1.0
  O  O341  1  0.35494000  0.63140000  0.62469000  1.0
  O  O342  1  0.35494000  0.86860000  0.37531000  1.0
  O  O343  1  0.64507000  0.86860000  0.12470000  1.0
