# generated using pymatgen
data_CdH6(C3N5)2
_symmetry_space_group_name_H-M   'P 1'
_cell_length_a   6.30373000
_cell_length_b   10.34050000
_cell_length_c   15.08330000
_cell_angle_alpha   89.99980000
_cell_angle_beta   89.99980000
_cell_angle_gamma   89.99970000
_symmetry_Int_Tables_number   1
_chemical_formula_structural   CdH6(C3N5)2
_chemical_formula_sum   'Cd4 H24 C24 N40'
_cell_volume   983.18560483
_cell_formula_units_Z   4
loop_
 _symmetry_equiv_pos_site_id
 _symmetry_equiv_pos_as_xyz
  1  'x, y, z'
loop_
 _atom_site_type_symbol
 _atom_site_label
 _atom_site_symmetry_multiplicity
 _atom_site_fract_x
 _atom_site_fract_y
 _atom_site_fract_z
 _atom_site_occupancy
  Cd  Cd0  1  0.75001000  0.00000000  0.56613000  1.0
  Cd  Cd1  1  0.25000000  0.50000000  0.93387000  1.0
  Cd  Cd2  1  0.25001000  0.00000000  0.43387000  1.0
  Cd  Cd3  1  0.75000000  0.50000000  0.06613000  1.0
  H  H4  1  0.94750000  0.95241000  0.90208000  1.0
  H  H5  1  0.44749000  0.54759000  0.59791000  1.0
  H  H6  1  0.05251000  0.45241000  0.59791000  1.0
  H  H7  1  0.55250000  0.04758000  0.90210000  1.0
  H  H8  1  0.05250000  0.04759000  0.09790000  1.0
  H  H9  1  0.55250000  0.45241000  0.40208000  1.0
  H  H10  1  0.94749000  0.54759000  0.40209000  1.0
  H  H11  1  0.44750000  0.95241000  0.09792000  1.0
  H  H12  1  0.22184000  0.81641000  0.66410000  1.0
  H  H13  1  0.72183000  0.68358000  0.83589000  1.0
  H  H14  1  0.77817000  0.31642000  0.83590000  1.0
  H  H15  1  0.27818000  0.18357000  0.66411000  1.0
  H  H16  1  0.77820000  0.18358000  0.33590000  1.0
  H  H17  1  0.27817000  0.31642000  0.16410000  1.0
  H  H18  1  0.22182000  0.68358000  0.16410000  1.0
  H  H19  1  0.72185000  0.81641000  0.33590000  1.0
  H  H20  1  0.26410000  0.82293000  0.84777000  1.0
  H  H21  1  0.76409000  0.67707000  0.65222000  1.0
  H  H22  1  0.73590000  0.32292000  0.65223000  1.0
  H  H23  1  0.23590000  0.17707000  0.84777000  1.0
  H  H24  1  0.73590000  0.17708000  0.15224000  1.0
  H  H25  1  0.23590000  0.32293000  0.34777000  1.0
  H  H26  1  0.26409000  0.67708000  0.34777000  1.0
  H  H27  1  0.76410000  0.82293000  0.15222000  1.0
  C  C28  1  0.11735000  0.85733000  0.71384000  1.0
  C  C29  1  0.61736000  0.64268000  0.78616000  1.0
  C  C30  1  0.88265000  0.35732000  0.78616000  1.0
  C  C31  1  0.38262000  0.14268000  0.71384000  1.0
  C  C32  1  0.88262000  0.14269000  0.28617000  1.0
  C  C33  1  0.38265000  0.35733000  0.21384000  1.0
  C  C34  1  0.11737000  0.64268000  0.21384000  1.0
  C  C35  1  0.61735000  0.85734000  0.28615000  1.0
  C  C36  1  0.14045000  0.85930000  0.80473000  1.0
  C  C37  1  0.64046000  0.64071000  0.69528000  1.0
  C  C38  1  0.85954000  0.35929000  0.69528000  1.0
  C  C39  1  0.35952000  0.14072000  0.80470000  1.0
  C  C40  1  0.85951000  0.14073000  0.19531000  1.0
  C  C41  1  0.35955000  0.35930000  0.30472000  1.0
  C  C42  1  0.14047000  0.64071000  0.30471000  1.0
  C  C43  1  0.64044000  0.85931000  0.19527000  1.0
  C  C44  1  0.84739000  0.96360000  0.76749000  1.0
  C  C45  1  0.34737000  0.53639000  0.73251000  1.0
  C  C46  1  0.15261000  0.46361000  0.73251000  1.0
  C  C47  1  0.65264000  0.03638000  0.76749000  1.0
  C  C48  1  0.15265000  0.03639000  0.23252000  1.0
  C  C49  1  0.65261000  0.46361000  0.26749000  1.0
  C  C50  1  0.84737000  0.53639000  0.26749000  1.0
  C  C51  1  0.34740000  0.96360000  0.23250000  1.0
  N  N52  1  0.93418000  0.92187000  0.69144000  1.0
  N  N53  1  0.43420000  0.57813000  0.80856000  1.0
  N  N54  1  0.06581000  0.42187000  0.80857000  1.0
  N  N55  1  0.56579000  0.07813000  0.69144000  1.0
  N  N56  1  0.06579000  0.07814000  0.30856000  1.0
  N  N57  1  0.56581000  0.42188000  0.19143000  1.0
  N  N58  1  0.93421000  0.57813000  0.19144000  1.0
  N  N59  1  0.43418000  0.92188000  0.30857000  1.0
  N  N60  1  0.96929000  0.92676000  0.83728000  1.0
  N  N61  1  0.46928000  0.57324000  0.66273000  1.0
  N  N62  1  0.03071000  0.42676000  0.66273000  1.0
  N  N63  1  0.53073000  0.07324000  0.83727000  1.0
  N  N64  1  0.03073000  0.07324000  0.16273000  1.0
  N  N65  1  0.53070000  0.42676000  0.33728000  1.0
  N  N66  1  0.96928000  0.57324000  0.33727000  1.0
  N  N67  1  0.46930000  0.92676000  0.16272000  1.0
  N  N68  1  0.01401000  0.14394000  0.52396000  1.0
  N  N69  1  0.51400000  0.35605000  0.97604000  1.0
  N  N70  1  0.98599000  0.64394000  0.97604000  1.0
  N  N71  1  0.48600000  0.85606000  0.52396000  1.0
  N  N72  1  0.98600000  0.85605000  0.47605000  1.0
  N  N73  1  0.48599000  0.64394000  0.02395000  1.0
  N  N74  1  0.01400000  0.35605000  0.02395000  1.0
  N  N75  1  0.51401000  0.14394000  0.47604000  1.0
  N  N76  1  0.96834000  0.24823000  0.49404000  1.0
  N  N77  1  0.46834000  0.25178000  0.00596000  1.0
  N  N78  1  0.03166000  0.74822000  0.00596000  1.0
  N  N79  1  0.53167000  0.75177000  0.49403000  1.0
  N  N80  1  0.03167000  0.75177000  0.50597000  1.0
  N  N81  1  0.53166000  0.74822000  0.99403000  1.0
  N  N82  1  0.96834000  0.25177000  0.99404000  1.0
  N  N83  1  0.46834000  0.24822000  0.50596000  1.0
  N  N84  1  0.92721000  0.35068000  0.46619000  1.0
  N  N85  1  0.42720000  0.14931000  0.03381000  1.0
  N  N86  1  0.07279000  0.85068000  0.03381000  1.0
  N  N87  1  0.57280000  0.64931000  0.46619000  1.0
  N  N88  1  0.07280000  0.64931000  0.53381000  1.0
  N  N89  1  0.57279000  0.85068000  0.96619000  1.0
  N  N90  1  0.92720000  0.14931000  0.96619000  1.0
  N  N91  1  0.42721000  0.35068000  0.53381000  1.0
