# generated using pymatgen
data_Cd3H38C60(N3O7)2
_symmetry_space_group_name_H-M   'P 1'
_cell_length_a   13.60310000
_cell_length_b   13.60300000
_cell_length_c   17.59820000
_cell_angle_alpha   92.39140000
_cell_angle_beta   92.39120000
_cell_angle_gamma   103.57300000
_symmetry_Int_Tables_number   1
_chemical_formula_structural   Cd3H38C60(N3O7)2
_chemical_formula_sum   'Cd6 H76 C120 N12 O28'
_cell_volume   3158.26800662
_cell_formula_units_Z   2
loop_
 _symmetry_equiv_pos_site_id
 _symmetry_equiv_pos_as_xyz
  1  'x, y, z'
loop_
 _atom_site_type_symbol
 _atom_site_label
 _atom_site_symmetry_multiplicity
 _atom_site_fract_x
 _atom_site_fract_y
 _atom_site_fract_z
 _atom_site_occupancy
  Cd  Cd0  1  0.11562000  0.88438000  0.75000000  1.0
  Cd  Cd1  1  0.88438000  0.11563000  0.25000000  1.0
  Cd  Cd2  1  0.43157000  0.00139000  0.78261000  1.0
  Cd  Cd3  1  0.99860000  0.56843000  0.71739000  1.0
  Cd  Cd4  1  0.56843000  0.99860000  0.21739000  1.0
  Cd  Cd5  1  0.00140000  0.43157000  0.28261000  1.0
  H  H6  1  0.10308000  0.98149000  0.88458000  1.0
  H  H7  1  0.01850000  0.89693000  0.61543000  1.0
  H  H8  1  0.89693000  0.01850000  0.11543000  1.0
  H  H9  1  0.98149000  0.10307000  0.38457000  1.0
  H  H10  1  0.97048000  0.04296000  0.95316000  1.0
  H  H11  1  0.95704000  0.02953000  0.54685000  1.0
  H  H12  1  0.02953000  0.95704000  0.04685000  1.0
  H  H13  1  0.04296000  0.97048000  0.45316000  1.0
  H  H14  1  0.17440000  0.33506000  0.99504000  1.0
  H  H15  1  0.66495000  0.82560000  0.50496000  1.0
  H  H16  1  0.82559000  0.66495000  0.00495000  1.0
  H  H17  1  0.33505000  0.17440000  0.49504000  1.0
  H  H18  1  0.30315000  0.27718000  0.91691000  1.0
  H  H19  1  0.72282000  0.69685000  0.58309000  1.0
  H  H20  1  0.69685000  0.72282000  0.08309000  1.0
  H  H21  1  0.27718000  0.30315000  0.41690000  1.0
  H  H22  1  0.81448000  0.44458000  0.08817000  1.0
  H  H23  1  0.55541000  0.18552000  0.41183000  1.0
  H  H24  1  0.18552000  0.55541000  0.91183000  1.0
  H  H25  1  0.44458000  0.81448000  0.58817000  1.0
  H  H26  1  0.83036000  0.51795000  0.95831000  1.0
  H  H27  1  0.48204000  0.16964000  0.54169000  1.0
  H  H28  1  0.16964000  0.48204000  0.04169000  1.0
  H  H29  1  0.51795000  0.83036000  0.45831000  1.0
  H  H30  1  0.00637000  0.30945000  0.89264000  1.0
  H  H31  1  0.69055000  0.99364000  0.60736000  1.0
  H  H32  1  0.99363000  0.69055000  0.10735000  1.0
  H  H33  1  0.30945000  0.00637000  0.39265000  1.0
  H  H34  1  0.80208000  0.06535000  0.74136000  1.0
  H  H35  1  0.93464000  0.19792000  0.75863000  1.0
  H  H36  1  0.19792000  0.93465000  0.25863000  1.0
  H  H37  1  0.06535000  0.80208000  0.24136000  1.0
  H  H38  1  0.67319000  0.92601000  0.78910000  1.0
  H  H39  1  0.07399000  0.32680000  0.71090000  1.0
  H  H40  1  0.32680000  0.07400000  0.21090000  1.0
  H  H41  1  0.92601000  0.67319000  0.28910000  1.0
  H  H42  1  0.72837000  0.77465000  0.84121000  1.0
  H  H43  1  0.22534000  0.27162000  0.65880000  1.0
  H  H44  1  0.27161000  0.22535000  0.15879000  1.0
  H  H45  1  0.77466000  0.72838000  0.34120000  1.0
  H  H46  1  0.91068000  0.76944000  0.83372000  1.0
  H  H47  1  0.23056000  0.08931000  0.66628000  1.0
  H  H48  1  0.08931000  0.23056000  0.16628000  1.0
  H  H49  1  0.76944000  0.91069000  0.33372000  1.0
  H  H50  1  0.32838000  0.76514000  0.79764000  1.0
  H  H51  1  0.23486000  0.67161000  0.70236000  1.0
  H  H52  1  0.67162000  0.23486000  0.20236000  1.0
  H  H53  1  0.76515000  0.32839000  0.29764000  1.0
  H  H54  1  0.34260000  0.61648000  0.87367000  1.0
  H  H55  1  0.38352000  0.65740000  0.62634000  1.0
  H  H56  1  0.65741000  0.38352000  0.12634000  1.0
  H  H57  1  0.61648000  0.34260000  0.37366000  1.0
  H  H58  1  0.47337000  0.64567000  0.98397000  1.0
  H  H59  1  0.35432000  0.52663000  0.51603000  1.0
  H  H60  1  0.52664000  0.35433000  0.01603000  1.0
  H  H61  1  0.64568000  0.47336000  0.48397000  1.0
  H  H62  1  0.58157000  0.81778000  0.01218000  1.0
  H  H63  1  0.18222000  0.41843000  0.48781000  1.0
  H  H64  1  0.41844000  0.18223000  0.98781000  1.0
  H  H65  1  0.81778000  0.58157000  0.51218000  1.0
  H  H66  1  0.68204000  0.95456000  0.01683000  1.0
  H  H67  1  0.04544000  0.31795000  0.48317000  1.0
  H  H68  1  0.31796000  0.04545000  0.98317000  1.0
  H  H69  1  0.95456000  0.68205000  0.51683000  1.0
  H  H70  1  0.78687000  0.13014000  0.02923000  1.0
  H  H71  1  0.86986000  0.21312000  0.47078000  1.0
  H  H72  1  0.21313000  0.86987000  0.97077000  1.0
  H  H73  1  0.13014000  0.78687000  0.52923000  1.0
  H  H74  1  0.74559000  0.25887000  0.94095000  1.0
  H  H75  1  0.74113000  0.25441000  0.55905000  1.0
  H  H76  1  0.25441000  0.74113000  0.05905000  1.0
  H  H77  1  0.25887000  0.74560000  0.44095000  1.0
  H  H78  1  0.59615000  0.20240000  0.84705000  1.0
  H  H79  1  0.79760000  0.40386000  0.65295000  1.0
  H  H80  1  0.40386000  0.79760000  0.15295000  1.0
  H  H81  1  0.20240000  0.59615000  0.34705000  1.0
  C  C82  1  0.28949000  0.09261000  0.85050000  1.0
  C  C83  1  0.90740000  0.71051000  0.64950000  1.0
  C  C84  1  0.71052000  0.90740000  0.14950000  1.0
  C  C85  1  0.09261000  0.28949000  0.35050000  1.0
  C  C86  1  0.21037000  0.12679000  0.89400000  1.0
  C  C87  1  0.87321000  0.78964000  0.60600000  1.0
  C  C88  1  0.78964000  0.87321000  0.10600000  1.0
  C  C89  1  0.12680000  0.21036000  0.39400000  1.0
  C  C90  1  0.11762000  0.06007000  0.90574000  1.0
  C  C91  1  0.93993000  0.88238000  0.59427000  1.0
  C  C92  1  0.88238000  0.93993000  0.09427000  1.0
  C  C93  1  0.06007000  0.11762000  0.40573000  1.0
  C  C94  1  0.04422000  0.09293000  0.94568000  1.0
  C  C95  1  0.90707000  0.95578000  0.55433000  1.0
  C  C96  1  0.95578000  0.90707000  0.05433000  1.0
  C  C97  1  0.09293000  0.04422000  0.44568000  1.0
  C  C98  1  0.06578000  0.19129000  0.97802000  1.0
  C  C99  1  0.80871000  0.93423000  0.52198000  1.0
  C  C100  1  0.93422000  0.80871000  0.02198000  1.0
  C  C101  1  0.19129000  0.06578000  0.47802000  1.0
  C  C102  1  0.15910000  0.25861000  0.96894000  1.0
  C  C103  1  0.74139000  0.84090000  0.53106000  1.0
  C  C104  1  0.84090000  0.74139000  0.03106000  1.0
  C  C105  1  0.25860000  0.15910000  0.46894000  1.0
  C  C106  1  0.23028000  0.22628000  0.92602000  1.0
  C  C107  1  0.77372000  0.76972000  0.57398000  1.0
  C  C108  1  0.76972000  0.77372000  0.07398000  1.0
  C  C109  1  0.22628000  0.23027000  0.42601000  1.0
  C  C110  1  0.95151000  0.29502000  0.00646000  1.0
  C  C111  1  0.70498000  0.04849000  0.49354000  1.0
  C  C112  1  0.04849000  0.70498000  0.99354000  1.0
  C  C113  1  0.29502000  0.95151000  0.50646000  1.0
  C  C114  1  0.89545000  0.33209000  0.06206000  1.0
  C  C115  1  0.66791000  0.10455000  0.43794000  1.0
  C  C116  1  0.10455000  0.66791000  0.93794000  1.0
  C  C117  1  0.33209000  0.89545000  0.56206000  1.0
  C  C118  1  0.87860000  0.28844000  0.13896000  1.0
  C  C119  1  0.71156000  0.12140000  0.36104000  1.0
  C  C120  1  0.12139000  0.71156000  0.86104000  1.0
  C  C121  1  0.28844000  0.87860000  0.63896000  1.0
  C  C122  1  0.85344000  0.41347000  0.04364000  1.0
  C  C123  1  0.58653000  0.14656000  0.45636000  1.0
  C  C124  1  0.14656000  0.58653000  0.95636000  1.0
  C  C125  1  0.41347000  0.85344000  0.54364000  1.0
  C  C126  1  0.86308000  0.45489000  0.97255000  1.0
  C  C127  1  0.54511000  0.13692000  0.52745000  1.0
  C  C128  1  0.13692000  0.54511000  0.02745000  1.0
  C  C129  1  0.45488000  0.86308000  0.47255000  1.0
  C  C130  1  0.91842000  0.41668000  0.91805000  1.0
  C  C131  1  0.58332000  0.08158000  0.58195000  1.0
  C  C132  1  0.08158000  0.58332000  0.08195000  1.0
  C  C133  1  0.41668000  0.91842000  0.41806000  1.0
  C  C134  1  0.93844000  0.46360000  0.84279000  1.0
  C  C135  1  0.53640000  0.06156000  0.65721000  1.0
  C  C136  1  0.06156000  0.53640000  0.15721000  1.0
  C  C137  1  0.46360000  0.93844000  0.34280000  1.0
  C  C138  1  0.96220000  0.33672000  0.93543000  1.0
  C  C139  1  0.66328000  0.03781000  0.56457000  1.0
  C  C140  1  0.03780000  0.66328000  0.06457000  1.0
  C  C141  1  0.33671000  0.96220000  0.43543000  1.0
  C  C142  1  0.92583000  0.99277000  0.76392000  1.0
  C  C143  1  0.00722000  0.07416000  0.73608000  1.0
  C  C144  1  0.07416000  0.00723000  0.23607000  1.0
  C  C145  1  0.99278000  0.92583000  0.26392000  1.0
  C  C146  1  0.82490000  0.00039000  0.76418000  1.0
  C  C147  1  0.99961000  0.17510000  0.73582000  1.0
  C  C148  1  0.17510000  0.99961000  0.23582000  1.0
  C  C149  1  0.00039000  0.82490000  0.26418000  1.0
  C  C150  1  0.75218000  0.92146000  0.79130000  1.0
  C  C151  1  0.07854000  0.24781000  0.70871000  1.0
  C  C152  1  0.24781000  0.07855000  0.20870000  1.0
  C  C153  1  0.92146000  0.75218000  0.29129000  1.0
  C  C154  1  0.78230000  0.83761000  0.81861000  1.0
  C  C155  1  0.16238000  0.21769000  0.68140000  1.0
  C  C156  1  0.21769000  0.16239000  0.18139000  1.0
  C  C157  1  0.83762000  0.78230000  0.31860000  1.0
  C  C158  1  0.88369000  0.83431000  0.81494000  1.0
  C  C159  1  0.16569000  0.11630000  0.68507000  1.0
  C  C160  1  0.11630000  0.16569000  0.18506000  1.0
  C  C161  1  0.83431000  0.88369000  0.31494000  1.0
  C  C162  1  0.38481000  0.77218000  0.84457000  1.0
  C  C163  1  0.22782000  0.61518000  0.65543000  1.0
  C  C164  1  0.61519000  0.22782000  0.15543000  1.0
  C  C165  1  0.77218000  0.38482000  0.34457000  1.0
  C  C166  1  0.39309000  0.69041000  0.88748000  1.0
  C  C167  1  0.30959000  0.60690000  0.61252000  1.0
  C  C168  1  0.60692000  0.30960000  0.11252000  1.0
  C  C169  1  0.69041000  0.39309000  0.38748000  1.0
  C  C170  1  0.46557000  0.70705000  0.94793000  1.0
  C  C171  1  0.29294000  0.53442000  0.55207000  1.0
  C  C172  1  0.53443000  0.29295000  0.05207000  1.0
  C  C173  1  0.70706000  0.46557000  0.44793000  1.0
  C  C174  1  0.52768000  0.80362000  0.96313000  1.0
  C  C175  1  0.19637000  0.47232000  0.53686000  1.0
  C  C176  1  0.47233000  0.19638000  0.03687000  1.0
  C  C177  1  0.80363000  0.52768000  0.46313000  1.0
  C  C178  1  0.51690000  0.88151000  0.91602000  1.0
  C  C179  1  0.11849000  0.48309000  0.58398000  1.0
  C  C180  1  0.48310000  0.11850000  0.08398000  1.0
  C  C181  1  0.88151000  0.51691000  0.41601000  1.0
  C  C182  1  0.58271000  0.98565000  0.92633000  1.0
  C  C183  1  0.01435000  0.41729000  0.57366000  1.0
  C  C184  1  0.41729000  0.01435000  0.07366000  1.0
  C  C185  1  0.98565000  0.58271000  0.42633000  1.0
  C  C186  1  0.66438000  0.01111000  0.98027000  1.0
  C  C187  1  0.98889000  0.33562000  0.51973000  1.0
  C  C188  1  0.33563000  0.98889000  0.01973000  1.0
  C  C189  1  0.01111000  0.66438000  0.48027000  1.0
  C  C190  1  0.72402000  0.10970000  0.98648000  1.0
  C  C191  1  0.89030000  0.27598000  0.51353000  1.0
  C  C192  1  0.27599000  0.89031000  0.01352000  1.0
  C  C193  1  0.10970000  0.72402000  0.48648000  1.0
  C  C194  1  0.70107000  0.18090000  0.93810000  1.0
  C  C195  1  0.81910000  0.29893000  0.56191000  1.0
  C  C196  1  0.29893000  0.81910000  0.06190000  1.0
  C  C197  1  0.18090000  0.70107000  0.43810000  1.0
  C  C198  1  0.61861000  0.15001000  0.88580000  1.0
  C  C199  1  0.84999000  0.38140000  0.61420000  1.0
  C  C200  1  0.38140000  0.84999000  0.11419000  1.0
  C  C201  1  0.15001000  0.61861000  0.38580000  1.0
  N  N202  1  0.95325000  0.90955000  0.78769000  1.0
  N  N203  1  0.09045000  0.04675000  0.71232000  1.0
  N  N204  1  0.04675000  0.09045000  0.21232000  1.0
  N  N205  1  0.90955000  0.95325000  0.28768000  1.0
  N  N206  1  0.44567000  0.86451000  0.85814000  1.0
  N  N207  1  0.13549000  0.55432000  0.64186000  1.0
  N  N208  1  0.55433000  0.13549000  0.14185000  1.0
  N  N209  1  0.86451000  0.44567000  0.35814000  1.0
  N  N210  1  0.56128000  0.05530000  0.88026000  1.0
  N  N211  1  0.94470000  0.43872000  0.61974000  1.0
  N  N212  1  0.43872000  0.94470000  0.11973000  1.0
  N  N213  1  0.05531000  0.56129000  0.38026000  1.0
  O  O214  1  0.26595000  0.00465000  0.81436000  1.0
  O  O215  1  0.99536000  0.73407000  0.68564000  1.0
  O  O216  1  0.73406000  0.99536000  0.18564000  1.0
  O  O217  1  0.00465000  0.26594000  0.31436000  1.0
  O  O218  1  0.37811000  0.14839000  0.85254000  1.0
  O  O219  1  0.85162000  0.62189000  0.64747000  1.0
  O  O220  1  0.62189000  0.85162000  0.14747000  1.0
  O  O221  1  0.14839000  0.37811000  0.35253000  1.0
  O  O222  1  0.99428000  0.21601000  0.02406000  1.0
  O  O223  1  0.78399000  0.00572000  0.47594000  1.0
  O  O224  1  0.00571000  0.78399000  0.97594000  1.0
  O  O225  1  0.21601000  0.99428000  0.52406000  1.0
  O  O226  1  0.86317000  0.34497000  0.19390000  1.0
  O  O227  1  0.65503000  0.13683000  0.30610000  1.0
  O  O228  1  0.13682000  0.65503000  0.80610000  1.0
  O  O229  1  0.34497000  0.86317000  0.69390000  1.0
  O  O230  1  0.87791000  0.19437000  0.14245000  1.0
  O  O231  1  0.80562000  0.12209000  0.35755000  1.0
  O  O232  1  0.12210000  0.80562000  0.85755000  1.0
  O  O233  1  0.19438000  0.87791000  0.64246000  1.0
  O  O234  1  0.90549000  0.54198000  0.82887000  1.0
  O  O235  1  0.45802000  0.09451000  0.67113000  1.0
  O  O236  1  0.09451000  0.45802000  0.17113000  1.0
  O  O237  1  0.54198000  0.90548000  0.32888000  1.0
  O  O238  1  0.99103000  0.42511000  0.79694000  1.0
  O  O239  1  0.57490000  0.00897000  0.70306000  1.0
  O  O240  1  0.00897000  0.57489000  0.20306000  1.0
  O  O241  1  0.42511000  0.99103000  0.29694000  1.0
