# generated using pymatgen
data_ZnH14C22NO4
_symmetry_space_group_name_H-M   'P 1'
_cell_length_a   15.26590000
_cell_length_b   15.31190000
_cell_length_c   18.22460000
_cell_angle_alpha   84.16720000
_cell_angle_beta   74.24780000
_cell_angle_gamma   80.12970000
_symmetry_Int_Tables_number   1
_chemical_formula_structural   ZnH14C22NO4
_chemical_formula_sum   'Zn6 H84 C132 N6 O24'
_cell_volume   4032.50371019
_cell_formula_units_Z   6
loop_
 _symmetry_equiv_pos_site_id
 _symmetry_equiv_pos_as_xyz
  1  'x, y, z'
loop_
 _atom_site_type_symbol
 _atom_site_label
 _atom_site_symmetry_multiplicity
 _atom_site_fract_x
 _atom_site_fract_y
 _atom_site_fract_z
 _atom_site_occupancy
  Zn  Zn0  1  0.73179000  0.32370000  0.41228000  1.0
  Zn  Zn1  1  0.26822000  0.67630000  0.58772000  1.0
  Zn  Zn2  1  0.78194000  0.33338000  0.24727000  1.0
  Zn  Zn3  1  0.21806000  0.66666667  0.75273000  1.0
  Zn  Zn4  1  0.97631000  0.99526000  0.08283000  1.0
  Zn  Zn5  1  0.02367000  0.00474000  0.91717000  1.0
  H  H6  1  0.43004000  0.34447000  0.45957000  1.0
  H  H7  1  0.56997000  0.65552000  0.54042000  1.0
  H  H8  1  0.27075000  0.34097000  0.45391000  1.0
  H  H9  1  0.72926000  0.65902000  0.54609000  1.0
  H  H10  1  0.36160000  0.35970000  0.20725000  1.0
  H  H11  1  0.63840000  0.64030000  0.79275000  1.0
  H  H12  1  0.51846000  0.36869000  0.21559000  1.0
  H  H13  1  0.48155000  0.63131000  0.78440000  1.0
  H  H14  1  0.15518000  0.31115000  0.44724000  1.0
  H  H15  1  0.84482000  0.68886000  0.55277000  1.0
  H  H16  1  0.99991000  0.29644000  0.43912000  1.0
  H  H17  1  0.00009000  0.70357000  0.56089000  1.0
  H  H18  1  0.08098000  0.34631000  0.19607000  1.0
  H  H19  1  0.91901000  0.65369000  0.80394000  1.0
  H  H20  1  0.23459000  0.36719000  0.20277000  1.0
  H  H21  1  0.76541000  0.63281000  0.79724000  1.0
  H  H22  1  0.83115000  0.61616000  0.20494000  1.0
  H  H23  1  0.16885000  0.38385000  0.79506000  1.0
  H  H24  1  0.82635000  0.77802000  0.21101000  1.0
  H  H25  1  0.17365000  0.22198000  0.78899000  1.0
  H  H26  1  0.66681000  0.76236000  0.44598000  1.0
  H  H27  1  0.33320000  0.23763000  0.55402000  1.0
  H  H28  1  0.67763000  0.59905000  0.43936000  1.0
  H  H29  1  0.32238000  0.40095000  0.56064000  1.0
  H  H30  1  0.75205000  0.90980000  0.21339000  1.0
  H  H31  1  0.24795000  0.09020000  0.78662000  1.0
  H  H32  1  0.75453000  0.06908000  0.21891000  1.0
  H  H33  1  0.24546000  0.93092000  0.78109000  1.0
  H  H34  1  0.73680000  0.03314000  0.45912000  1.0
  H  H35  1  0.26320000  0.96686000  0.54089000  1.0
  H  H36  1  0.73679000  0.87165000  0.45445000  1.0
  H  H37  1  0.26321000  0.12835000  0.54556000  1.0
  H  H38  1  0.75135000  0.45845000  0.50892000  1.0
  H  H39  1  0.24865000  0.54155000  0.49107000  1.0
  H  H40  1  0.76768000  0.46642000  0.64089000  1.0
  H  H41  1  0.23233000  0.53358000  0.35909000  1.0
  H  H42  1  0.71902000  0.19326000  0.68435000  1.0
  H  H43  1  0.28100000  0.80674000  0.31565000  1.0
  H  H44  1  0.70624000  0.19735000  0.54983000  1.0
  H  H45  1  0.29375000  0.80265000  0.45017000  1.0
  H  H46  1  0.68525000  0.46633000  0.76807000  1.0
  H  H47  1  0.31477000  0.53368000  0.23192000  1.0
  H  H48  1  0.69529000  0.46781000  0.90046000  1.0
  H  H49  1  0.30472000  0.53219000  0.09954000  1.0
  H  H50  1  0.83776000  0.19816000  0.88825000  1.0
  H  H51  1  0.16223000  0.80184000  0.11175000  1.0
  H  H52  1  0.82556000  0.19624000  0.75683000  1.0
  H  H53  1  0.17445000  0.80377000  0.24316000  1.0
  H  H54  1  0.77571000  0.47526000  0.98380000  1.0
  H  H55  1  0.22428000  0.52473000  0.01620000  1.0
  H  H56  1  0.78196000  0.46785000  0.11956000  1.0
  H  H57  1  0.21804000  0.53215000  0.88043000  1.0
  H  H58  1  0.78062000  0.19648000  0.14280000  1.0
  H  H59  1  0.21937000  0.80352000  0.85721000  1.0
  H  H60  1  0.76812000  0.19239000  0.00981000  1.0
  H  H61  1  0.23185000  0.80761000  0.99020000  1.0
  H  H62  1  0.67575000  0.99181000  0.13179000  1.0
  H  H63  1  0.32424000  0.00819000  0.86820000  1.0
  H  H64  1  0.52081000  0.97659000  0.12514000  1.0
  H  H65  1  0.47919000  0.02343000  0.87485000  1.0
  H  H66  1  0.60016000  0.03704000  0.88128000  1.0
  H  H67  1  0.39984000  0.96296000  0.11872000  1.0
  H  H68  1  0.75579000  0.04910000  0.88960000  1.0
  H  H69  1  0.24421000  0.95089000  0.11039000  1.0
  H  H70  1  0.02770000  0.29503000  0.86897000  1.0
  H  H71  1  0.97230000  0.70497000  0.13104000  1.0
  H  H72  1  0.02081000  0.45580000  0.87478000  1.0
  H  H73  1  0.97919000  0.54420000  0.12522000  1.0
  H  H74  1  0.98991000  0.41835000  0.11886000  1.0
  H  H75  1  0.01009000  0.58164000  0.88114000  1.0
  H  H76  1  0.99877000  0.25961000  0.11092000  1.0
  H  H77  1  0.00122000  0.74038000  0.88907000  1.0
  H  H78  1  0.98196000  0.13375000  0.18481000  1.0
  H  H79  1  0.01803000  0.86626000  0.81520000  1.0
  H  H80  1  0.99544000  0.13913000  0.31738000  1.0
  H  H81  1  0.00456000  0.86086000  0.68263000  1.0
  H  H82  1  0.97564000  0.85856000  0.34894000  1.0
  H  H83  1  0.02437000  0.14143000  0.65106000  1.0
  H  H84  1  0.96727000  0.86462000  0.21363000  1.0
  H  H85  1  0.03274000  0.13539000  0.78638000  1.0
  H  H86  1  0.07099000  0.86690000  0.42574000  1.0
  H  H87  1  0.92902000  0.13311000  0.57427000  1.0
  H  H88  1  0.08269000  0.86796000  0.55775000  1.0
  H  H89  1  0.91732000  0.13204000  0.44226000  1.0
  C  C90  1  0.58130000  0.35409000  0.34140000  1.0
  C  C91  1  0.41870000  0.64591000  0.65860000  1.0
  C  C92  1  0.48385000  0.35695000  0.33808000  1.0
  C  C93  1  0.51616000  0.64305000  0.66192000  1.0
  C  C94  1  0.41313000  0.34934000  0.40474000  1.0
  C  C95  1  0.58687000  0.65066000  0.59525000  1.0
  C  C96  1  0.32399000  0.34653000  0.40072000  1.0
  C  C97  1  0.67601000  0.65347000  0.59928000  1.0
  C  C98  1  0.30239000  0.34925000  0.32994000  1.0
  C  C99  1  0.69761000  0.65075000  0.67006000  1.0
  C  C100  1  0.37426000  0.35831000  0.26342000  1.0
  C  C101  1  0.62574000  0.64169000  0.73657000  1.0
  C  C102  1  0.46305000  0.36280000  0.26732000  1.0
  C  C103  1  0.53696000  0.63720000  0.73267000  1.0
  C  C104  1  0.20870000  0.34055000  0.32559000  1.0
  C  C105  1  0.79130000  0.65946000  0.67441000  1.0
  C  C106  1  0.14021000  0.32023000  0.39158000  1.0
  C  C107  1  0.85979000  0.67978000  0.60842000  1.0
  C  C108  1  0.05276000  0.31087000  0.38761000  1.0
  C  C109  1  0.94724000  0.68914000  0.61239000  1.0
  C  C110  1  0.03037000  0.31971000  0.31727000  1.0
  C  C111  1  0.96963000  0.68029000  0.68273000  1.0
  C  C112  1  0.09772000  0.33928000  0.25105000  1.0
  C  C113  1  0.90228000  0.66072000  0.74895000  1.0
  C  C114  1  0.18469000  0.35042000  0.25541000  1.0
  C  C115  1  0.81531000  0.64958000  0.74460000  1.0
  C  C116  1  0.93480000  0.31129000  0.31491000  1.0
  C  C117  1  0.06519000  0.68871000  0.68509000  1.0
  C  C118  1  0.76045000  0.49945000  0.32024000  1.0
  C  C119  1  0.23955000  0.50054000  0.67975000  1.0
  C  C120  1  0.75601000  0.59756000  0.32237000  1.0
  C  C121  1  0.24399000  0.40244000  0.67763000  1.0
  C  C122  1  0.79638000  0.64867000  0.25779000  1.0
  C  C123  1  0.20362000  0.35133000  0.74220000  1.0
  C  C124  1  0.79269000  0.73960000  0.26143000  1.0
  C  C125  1  0.20731000  0.26041000  0.73857000  1.0
  C  C126  1  0.74719000  0.78219000  0.32944000  1.0
  C  C127  1  0.25281000  0.21781000  0.67056000  1.0
  C  C128  1  0.70535000  0.73041000  0.39354000  1.0
  C  C129  1  0.29465000  0.26959000  0.60646000  1.0
  C  C130  1  0.71034000  0.63944000  0.39014000  1.0
  C  C131  1  0.28967000  0.36056000  0.60986000  1.0
  C  C132  1  0.74381000  0.87840000  0.33359000  1.0
  C  C133  1  0.25618000  0.12160000  0.66641000  1.0
  C  C134  1  0.74811000  0.93591000  0.26786000  1.0
  C  C135  1  0.25188000  0.06409000  0.73215000  1.0
  C  C136  1  0.74909000  0.02600000  0.27077000  1.0
  C  C137  1  0.25090000  0.97400000  0.72924000  1.0
  C  C138  1  0.74541000  0.06156000  0.33960000  1.0
  C  C139  1  0.25458000  0.93845000  0.66040000  1.0
  C  C140  1  0.73924000  0.00518000  0.40582000  1.0
  C  C141  1  0.26076000  0.99483000  0.59418000  1.0
  C  C142  1  0.73866000  0.91492000  0.40281000  1.0
  C  C143  1  0.26134000  0.08508000  0.59719000  1.0
  C  C144  1  0.75081000  0.15787000  0.34161000  1.0
  C  C145  1  0.24918000  0.84214000  0.65840000  1.0
  C  C146  1  0.74455000  0.40178000  0.55037000  1.0
  C  C147  1  0.25545000  0.59823000  0.44963000  1.0
  C  C148  1  0.75334000  0.40531000  0.62378000  1.0
  C  C149  1  0.24667000  0.59470000  0.37622000  1.0
  C  C150  1  0.74543000  0.32975000  0.67438000  1.0
  C  C151  1  0.25458000  0.67026000  0.32561000  1.0
  C  C152  1  0.72813000  0.25332000  0.64725000  1.0
  C  C153  1  0.27188000  0.74668000  0.35275000  1.0
  C  C154  1  0.71974000  0.25510000  0.57309000  1.0
  C  C155  1  0.28026000  0.74490000  0.42691000  1.0
  C  C156  1  0.75410000  0.33101000  0.75284000  1.0
  C  C157  1  0.24592000  0.66900000  0.24715000  1.0
  C  C158  1  0.71971000  0.40784000  0.79399000  1.0
  C  C159  1  0.28031000  0.59216000  0.20601000  1.0
  C  C160  1  0.72563000  0.40861000  0.86865000  1.0
  C  C161  1  0.27438000  0.59139000  0.13135000  1.0
  C  C162  1  0.76680000  0.33322000  0.90457000  1.0
  C  C163  1  0.23320000  0.66678000  0.09543000  1.0
  C  C164  1  0.80275000  0.25680000  0.86287000  1.0
  C  C165  1  0.19725000  0.74320000  0.13714000  1.0
  C  C166  1  0.79591000  0.25576000  0.78844000  1.0
  C  C167  1  0.20410000  0.74425000  0.21156000  1.0
  C  C168  1  0.77115000  0.33367000  0.98434000  1.0
  C  C169  1  0.22885000  0.66632000  0.01566000  1.0
  C  C170  1  0.77432000  0.41199000  0.01702000  1.0
  C  C171  1  0.22567000  0.58801000  0.98298000  1.0
  C  C172  1  0.77919000  0.40862000  0.09216000  1.0
  C  C173  1  0.22081000  0.59137000  0.90783000  1.0
  C  C174  1  0.77836000  0.25656000  0.10543000  1.0
  C  C175  1  0.22164000  0.74343000  0.89457000  1.0
  C  C176  1  0.77230000  0.25496000  0.03106000  1.0
  C  C177  1  0.22769000  0.74504000  0.96894000  1.0
  C  C178  1  0.82264000  0.02567000  0.01340000  1.0
  C  C179  1  0.17736000  0.97433000  0.98660000  1.0
  C  C180  1  0.72614000  0.02151000  0.01104000  1.0
  C  C181  1  0.27386000  0.97849000  0.98895000  1.0
  C  C182  1  0.65854000  0.00164000  0.07701000  1.0
  C  C183  1  0.34145000  0.99836000  0.92299000  1.0
  C  C184  1  0.57084000  0.99323000  0.07259000  1.0
  C  C185  1  0.42915000  0.00678000  0.92741000  1.0
  C  C186  1  0.54658000  0.00506000  0.00245000  1.0
  C  C187  1  0.45341000  0.99495000  0.99754000  1.0
  C  C188  1  0.61507000  0.02660000  0.93692000  1.0
  C  C189  1  0.38493000  0.97341000  0.06307000  1.0
  C  C190  1  0.70298000  0.03417000  0.94096000  1.0
  C  C191  1  0.29701000  0.96583000  0.05904000  1.0
  C  C192  1  0.01225000  0.16946000  0.98639000  1.0
  C  C193  1  0.98774000  0.83053000  0.01361000  1.0
  C  C194  1  0.01408000  0.26625000  0.98924000  1.0
  C  C195  1  0.98593000  0.73374000  0.01075000  1.0
  C  C196  1  0.02080000  0.32299000  0.92326000  1.0
  C  C197  1  0.97919000  0.67701000  0.07675000  1.0
  C  C198  1  0.01641000  0.41382000  0.92725000  1.0
  C  C199  1  0.98358000  0.58618000  0.07276000  1.0
  C  C200  1  0.00474000  0.45149000  0.99741000  1.0
  C  C201  1  0.99525000  0.54852000  0.00260000  1.0
  C  C202  1  0.00051000  0.39321000  0.06283000  1.0
  C  C203  1  0.99949000  0.60679000  0.93718000  1.0
  C  C204  1  0.00511000  0.30245000  0.05889000  1.0
  C  C205  1  0.99490000  0.69755000  0.94111000  1.0
  C  C206  1  0.98177000  0.07442000  0.22321000  1.0
  C  C207  1  0.01823000  0.92559000  0.77679000  1.0
  C  C208  1  0.98851000  0.07674000  0.29733000  1.0
  C  C209  1  0.01149000  0.92326000  0.70267000  1.0
  C  C210  1  0.98747000  0.99881000  0.34508000  1.0
  C  C211  1  0.01254000  0.00119000  0.65493000  1.0
  C  C212  1  0.97980000  0.92077000  0.31430000  1.0
  C  C213  1  0.02021000  0.07923000  0.68571000  1.0
  C  C214  1  0.97370000  0.92354000  0.23955000  1.0
  C  C215  1  0.02630000  0.07646000  0.76045000  1.0
  C  C216  1  0.99367000  0.99935000  0.42423000  1.0
  C  C217  1  0.00635000  0.00066000  0.57577000  1.0
  C  C218  1  0.03859000  0.92503000  0.45856000  1.0
  C  C219  1  0.96142000  0.07497000  0.54144000  1.0
  C  C220  1  0.04510000  0.92543000  0.53313000  1.0
  C  C221  1  0.95491000  0.07457000  0.46687000  1.0
  N  N222  1  0.72802000  0.32800000  0.52524000  1.0
  N  N223  1  0.27198000  0.67200000  0.47475000  1.0
  N  N224  1  0.78195000  0.33212000  0.13557000  1.0
  N  N225  1  0.21804000  0.66788000  0.86443000  1.0
  N  N226  1  0.97469000  0.99904000  0.19458000  1.0
  N  N227  1  0.02531000  0.00096000  0.80542000  1.0
  O  O228  1  0.59833000  0.33689000  0.40653000  1.0
  O  O229  1  0.40167000  0.66310000  0.59347000  1.0
  O  O230  1  0.63970000  0.36710000  0.27830000  1.0
  O  O231  1  0.36030000  0.63289000  0.72170000  1.0
  O  O232  1  0.91928000  0.30939000  0.24974000  1.0
  O  O233  1  0.08071000  0.69061000  0.75027000  1.0
  O  O234  1  0.87592000  0.30690000  0.37920000  1.0
  O  O235  1  0.12408000  0.69309000  0.62081000  1.0
  O  O236  1  0.73378000  0.45729000  0.38432000  1.0
  O  O237  1  0.26623000  0.54271000  0.61567000  1.0
  O  O238  1  0.79047000  0.46550000  0.25545000  1.0
  O  O239  1  0.20954000  0.53449000  0.74455000  1.0
  O  O240  1  0.76536000  0.20265000  0.27766000  1.0
  O  O241  1  0.23462000  0.79736000  0.72235000  1.0
  O  O242  1  0.74138000  0.18807000  0.40642000  1.0
  O  O243  1  0.25862000  0.81193000  0.59358000  1.0
  O  O244  1  0.84050000  0.01648000  0.07849000  1.0
  O  O245  1  0.15949000  0.98351000  0.92151000  1.0
  O  O246  1  0.88016000  0.03790000  0.94948000  1.0
  O  O247  1  0.11983000  0.96210000  0.05052000  1.0
  O  O248  1  0.99306000  0.12520000  0.05037000  1.0
  O  O249  1  0.00694000  0.87479000  0.94963000  1.0
  O  O250  1  0.02862000  0.13845000  0.92091000  1.0
  O  O251  1  0.97136000  0.86155000  0.07909000  1.0
