# generated using pymatgen
data_HgH3C4(BrN)2
_symmetry_space_group_name_H-M   'P 1'
_cell_length_a   4.15249000
_cell_length_b   9.39497000
_cell_length_c   19.50150000
_cell_angle_alpha   89.99970000
_cell_angle_beta   90.00000000
_cell_angle_gamma   100.57200000
_symmetry_Int_Tables_number   1
_chemical_formula_structural   HgH3C4(BrN)2
_chemical_formula_sum   'Hg4 H12 C16 Br8 N8'
_cell_volume   747.88811089
_cell_formula_units_Z   4
loop_
 _symmetry_equiv_pos_site_id
 _symmetry_equiv_pos_as_xyz
  1  'x, y, z'
loop_
 _atom_site_type_symbol
 _atom_site_label
 _atom_site_symmetry_multiplicity
 _atom_site_fract_x
 _atom_site_fract_y
 _atom_site_fract_z
 _atom_site_occupancy
  Hg  Hg0  1  0.75702000  0.72885000  0.86676000  1.0
  Hg  Hg1  1  0.74297000  0.77114000  0.36677000  1.0
  Hg  Hg2  1  0.24289000  0.27114000  0.13323000  1.0
  Hg  Hg3  1  0.25707000  0.22886000  0.63324000  1.0
  H  H4  1  0.10521000  0.86097000  0.02445000  1.0
  H  H5  1  0.39483000  0.63902000  0.52445000  1.0
  H  H6  1  0.89477000  0.13901000  0.97555000  1.0
  H  H7  1  0.60523000  0.36099000  0.47555000  1.0
  H  H8  1  0.61958000  0.60274000  0.19111000  1.0
  H  H9  1  0.88040000  0.89727000  0.69111000  1.0
  H  H10  1  0.38038000  0.39725000  0.80889000  1.0
  H  H11  1  0.11961000  0.10275000  0.30889000  1.0
  H  H12  1  0.00697000  0.83036000  0.15240000  1.0
  H  H13  1  0.49306000  0.66964000  0.65240000  1.0
  H  H14  1  0.99301000  0.16963000  0.84760000  1.0
  H  H15  1  0.50698000  0.33037000  0.34760000  1.0
  C  C16  1  0.58793000  0.55355000  0.02502000  1.0
  C  C17  1  0.91206000  0.94645000  0.52502000  1.0
  C  C18  1  0.41204000  0.44643000  0.97498000  1.0
  C  C19  1  0.08798000  0.05357000  0.47498000  1.0
  C  C20  1  0.93963000  0.76751000  0.04559000  1.0
  C  C21  1  0.56038000  0.73248000  0.54559000  1.0
  C  C22  1  0.06034000  0.23247000  0.95442000  1.0
  C  C23  1  0.43966000  0.26753000  0.45441000  1.0
  C  C24  1  0.67720000  0.62509000  0.13721000  1.0
  C  C25  1  0.82278000  0.87491000  0.63721000  1.0
  C  C26  1  0.32277000  0.37490000  0.86279000  1.0
  C  C27  1  0.17724000  0.12511000  0.36279000  1.0
  C  C28  1  0.88787000  0.75014000  0.11583000  1.0
  C  C29  1  0.61215000  0.74986000  0.61583000  1.0
  C  C30  1  0.11211000  0.24984000  0.88417000  1.0
  C  C31  1  0.38788000  0.25016000  0.38417000  1.0
  Br  Br32  1  0.42835000  0.92148000  0.90309000  1.0
  Br  Br33  1  0.07167000  0.57851000  0.40309000  1.0
  Br  Br34  1  0.57155000  0.07851000  0.09691000  1.0
  Br  Br35  1  0.92845000  0.42151000  0.59692000  1.0
  Br  Br36  1  0.00168000  0.61680000  0.76648000  1.0
  Br  Br37  1  0.49838000  0.88320000  0.26648000  1.0
  Br  Br38  1  0.99831000  0.38320000  0.23352000  1.0
  Br  Br39  1  0.50168000  0.11680000  0.73352000  1.0
  N  N40  1  0.78881000  0.67029000  0.00010000  1.0
  N  N41  1  0.71121000  0.82970000  0.50010000  1.0
  N  N42  1  0.21115000  0.32969000  0.99990000  1.0
  N  N43  1  0.28884000  0.17031000  0.49990000  1.0
  N  N44  1  0.53152000  0.52664000  0.09187000  1.0
  N  N45  1  0.96846000  0.97336000  0.59187000  1.0
  N  N46  1  0.46843000  0.47334000  0.90813000  1.0
  N  N47  1  0.03156000  0.02666000  0.40813000  1.0
