# generated using pymatgen
data_CoH32C44(N5O3)2
_symmetry_space_group_name_H-M   'P 1'
_cell_length_a   8.28499000
_cell_length_b   10.78250000
_cell_length_c   11.75240000
_cell_angle_alpha   113.47300000
_cell_angle_beta   96.12760000
_cell_angle_gamma   102.79500000
_symmetry_Int_Tables_number   1
_chemical_formula_structural   CoH32C44(N5O3)2
_chemical_formula_sum   'Co1 H32 C44 N10 O6'
_cell_volume   916.50713291
_cell_formula_units_Z   1
loop_
 _symmetry_equiv_pos_site_id
 _symmetry_equiv_pos_as_xyz
  1  'x, y, z'
loop_
 _atom_site_type_symbol
 _atom_site_label
 _atom_site_symmetry_multiplicity
 _atom_site_fract_x
 _atom_site_fract_y
 _atom_site_fract_z
 _atom_site_occupancy
  Co  Co0  1  0.00000000  0.99999000  0.00000000  1.0
  H  H1  1  0.34907000  0.15005000  0.01637000  1.0
  H  H2  1  0.65093000  0.84994000  0.98363000  1.0
  H  H3  1  0.50975000  0.39510000  0.07116000  1.0
  H  H4  1  0.49025000  0.60489000  0.92885000  1.0
  H  H5  1  0.36417000  0.58834000  0.14705000  1.0
  H  H6  1  0.63583000  0.41166000  0.85296000  1.0
  H  H7  1  0.91675000  0.26937000  0.10734000  1.0
  H  H8  1  0.08325000  0.73063000  0.89267000  1.0
  H  H9  1  0.09980000  0.65394000  0.19437000  1.0
  H  H10  1  0.90019000  0.34605000  0.80563000  1.0
  H  H11  1  0.82858000  0.68685000  0.13706000  1.0
  H  H12  1  0.17142000  0.31316000  0.86294000  1.0
  H  H13  1  0.62776000  0.82892000  0.20718000  1.0
  H  H14  1  0.37224000  0.17109000  0.79283000  1.0
  H  H15  1  0.50888000  0.84103000  0.39474000  1.0
  H  H16  1  0.49113000  0.15897000  0.60526000  1.0
  H  H17  1  0.88531000  0.48301000  0.42622000  1.0
  H  H18  1  0.11469000  0.51699000  0.57377000  1.0
  H  H19  1  0.78092000  0.50462000  0.62150000  1.0
  H  H20  1  0.21909000  0.49538000  0.37850000  1.0
  H  H21  1  0.58000000  0.64362000  0.69214000  1.0
  H  H22  1  0.42002000  0.35639000  0.30786000  1.0
  H  H23  1  0.48571000  0.82416000  0.76453000  1.0
  H  H24  1  0.51428000  0.17583000  0.23547000  1.0
  H  H25  1  0.86240000  0.98995000  0.75711000  1.0
  H  H26  1  0.13760000  0.01005000  0.24289000  1.0
  H  H27  1  0.92943000  0.92475000  0.54432000  1.0
  H  H28  1  0.07057000  0.07526000  0.45568000  1.0
  H  H29  1  0.18997000  0.84166000  0.50329000  1.0
  H  H30  1  0.81003000  0.15835000  0.49670000  1.0
  H  H31  1  0.28955000  0.90638000  0.89366000  1.0
  H  H32  1  0.71044000  0.09360000  0.10633000  1.0
  C  C33  1  0.28873000  0.23398000  0.04835000  1.0
  C  C34  1  0.71128000  0.76602000  0.95165000  1.0
  C  C35  1  0.37841000  0.37290000  0.08049000  1.0
  C  C36  1  0.62158000  0.62710000  0.91953000  1.0
  C  C37  1  0.29832000  0.47863000  0.12228000  1.0
  C  C38  1  0.70167000  0.52136000  0.87773000  1.0
  C  C39  1  0.13052000  0.44158000  0.13524000  1.0
  C  C40  1  0.86948000  0.55842000  0.86477000  1.0
  C  C41  1  0.04782000  0.29909000  0.09933000  1.0
  C  C42  1  0.95218000  0.70090000  0.90067000  1.0
  C  C43  1  0.04410000  0.54914000  0.19064000  1.0
  C  C44  1  0.95589000  0.45085000  0.80936000  1.0
  C  C45  1  0.82078000  0.61493000  0.28249000  1.0
  C  C46  1  0.17922000  0.38506000  0.71750000  1.0
  C  C47  1  0.77864000  0.69334000  0.22056000  1.0
  C  C48  1  0.22136000  0.30666000  0.77944000  1.0
  C  C49  1  0.66565000  0.77383000  0.26081000  1.0
  C  C50  1  0.33436000  0.22618000  0.73919000  1.0
  C  C51  1  0.59807000  0.78021000  0.36493000  1.0
  C  C52  1  0.40193000  0.21979000  0.63507000  1.0
  C  C53  1  0.64260000  0.70610000  0.43363000  1.0
  C  C54  1  0.35741000  0.29390000  0.56637000  1.0
  C  C55  1  0.75499000  0.62158000  0.39222000  1.0
  C  C56  1  0.24500000  0.37842000  0.60778000  1.0
  C  C57  1  0.80372000  0.54986000  0.46156000  1.0
  C  C58  1  0.19629000  0.45014000  0.53844000  1.0
  C  C59  1  0.74579000  0.56288000  0.57045000  1.0
  C  C60  1  0.25422000  0.43713000  0.42955000  1.0
  C  C61  1  0.63393000  0.64376000  0.61170000  1.0
  C  C62  1  0.36607000  0.35624000  0.38830000  1.0
  C  C63  1  0.57879000  0.71334000  0.54450000  1.0
  C  C64  1  0.42122000  0.28666000  0.45550000  1.0
  C  C65  1  0.41051000  0.82088000  0.67956000  1.0
  C  C66  1  0.58949000  0.17912000  0.32044000  1.0
  C  C67  1  0.97364000  0.95478000  0.73739000  1.0
  C  C68  1  0.02636000  0.04522000  0.26260000  1.0
  C  C69  1  0.01338000  0.91824000  0.61821000  1.0
  C  C70  1  0.98662000  0.08176000  0.38179000  1.0
  C  C71  1  0.15535000  0.87277000  0.59547000  1.0
  C  C72  1  0.84465000  0.12724000  0.40452000  1.0
  C  C73  1  0.25851000  0.86807000  0.69572000  1.0
  C  C74  1  0.74148000  0.13192000  0.30427000  1.0
  C  C75  1  0.21209000  0.90828000  0.81363000  1.0
  C  C76  1  0.78790000  0.09171000  0.18637000  1.0
  N  N77  1  0.12372000  0.19647000  0.05500000  1.0
  N  N78  1  0.87628000  0.80352000  0.94501000  1.0
  N  N79  1  0.91443000  0.52019000  0.23664000  1.0
  N  N80  1  0.08557000  0.47982000  0.76336000  1.0
  N  N81  1  0.44988000  0.77756000  0.57014000  1.0
  N  N82  1  0.55013000  0.22244000  0.42986000  1.0
  N  N83  1  0.07100000  0.94987000  0.83472000  1.0
  N  N84  1  0.92899000  0.05012000  0.16527000  1.0
  N  N85  1  0.30188000  0.87435000  0.10158000  1.0
  N  N86  1  0.69811000  0.12564000  0.89842000  1.0
  O  O87  1  0.25898000  0.97686000  0.08794000  1.0
  O  O88  1  0.74102000  0.02314000  0.91206000  1.0
  O  O89  1  0.37958000  0.80584000  0.02415000  1.0
  O  O90  1  0.62039000  0.19415000  0.97584000  1.0
  O  O91  1  0.26645000  0.84597000  0.19158000  1.0
  O  O92  1  0.73355000  0.15404000  0.80842000  1.0
