# generated using pymatgen
data_ZnH14C12(N2O)6
_symmetry_space_group_name_H-M   'P 1'
_cell_length_a   7.44766000
_cell_length_b   8.63023000
_cell_length_c   14.68700000
_cell_angle_alpha   89.99580000
_cell_angle_beta   95.79120000
_cell_angle_gamma   89.99210000
_symmetry_Int_Tables_number   1
_chemical_formula_structural   ZnH14C12(N2O)6
_chemical_formula_sum   'Zn2 H28 C24 N24 O12'
_cell_volume   939.18918127
_cell_formula_units_Z   2
loop_
 _symmetry_equiv_pos_site_id
 _symmetry_equiv_pos_as_xyz
  1  'x, y, z'
loop_
 _atom_site_type_symbol
 _atom_site_label
 _atom_site_symmetry_multiplicity
 _atom_site_fract_x
 _atom_site_fract_y
 _atom_site_fract_z
 _atom_site_occupancy
  Zn  Zn0  1  0.26307000  0.94553000  0.75185000  1.0
  Zn  Zn1  1  0.73691000  0.44551000  0.24815000  1.0
  H  H2  1  0.94270000  0.09077000  0.74710000  1.0
  H  H3  1  0.05733000  0.59072000  0.25292000  1.0
  H  H4  1  0.91736000  0.97884000  0.65858000  1.0
  H  H5  1  0.08273000  0.47863000  0.34139000  1.0
  H  H6  1  0.59691000  0.90071000  0.85105000  1.0
  H  H7  1  0.40299000  0.40096000  0.14898000  1.0
  H  H8  1  0.58113000  0.80079000  0.75870000  1.0
  H  H9  1  0.41885000  0.30086000  0.24129000  1.0
  H  H10  1  0.90343000  0.73388000  0.76541000  1.0
  H  H11  1  0.09654000  0.23382000  0.23457000  1.0
  H  H12  1  0.43282000  0.60852000  0.86363000  1.0
  H  H13  1  0.56718000  0.10856000  0.13637000  1.0
  H  H14  1  0.74249000  0.51354000  0.82621000  1.0
  H  H15  1  0.25753000  0.01350000  0.17379000  1.0
  H  H16  1  0.94604000  0.35553000  0.05833000  1.0
  H  H17  1  0.05400000  0.85554000  0.94167000  1.0
  H  H18  1  0.57245000  0.71249000  0.08982000  1.0
  H  H19  1  0.42750000  0.21247000  0.91017000  1.0
  H  H20  1  0.15176000  0.64825000  0.60467000  1.0
  H  H21  1  0.84827000  0.14819000  0.39532000  1.0
  H  H22  1  0.40010000  0.07081000  0.54850000  1.0
  H  H23  1  0.59983000  0.57077000  0.45149000  1.0
  H  H24  1  0.21614000  0.87891000  0.32638000  1.0
  H  H25  1  0.78388000  0.37883000  0.67362000  1.0
  H  H26  1  0.37327000  0.65594000  0.26489000  1.0
  H  H27  1  0.62678000  0.15586000  0.73514000  1.0
  H  H28  1  0.90667000  0.78673000  0.35046000  1.0
  H  H29  1  0.09337000  0.28676000  0.64956000  1.0
  C  C30  1  0.02034000  0.67409000  0.79842000  1.0
  C  C31  1  0.97963000  0.17406000  0.20156000  1.0
  C  C32  1  0.28722000  0.60681000  0.84953000  1.0
  C  C33  1  0.71275000  0.10681000  0.15048000  1.0
  C  C34  1  0.85293000  0.46934000  0.87515000  1.0
  C  C35  1  0.14710000  0.96929000  0.12485000  1.0
  C  C36  1  0.85231000  0.45078000  0.04710000  1.0
  C  C37  1  0.14770000  0.95077000  0.95290000  1.0
  C  C38  1  0.66361000  0.63349000  0.06024000  1.0
  C  C39  1  0.33635000  0.13347000  0.93976000  1.0
  C  C40  1  0.86212000  0.29002000  0.85986000  1.0
  C  C41  1  0.13789000  0.78999000  0.14016000  1.0
  C  C42  1  0.20761000  0.74362000  0.56891000  1.0
  C  C43  1  0.79241000  0.24355000  0.43109000  1.0
  C  C44  1  0.33646000  0.95827000  0.54409000  1.0
  C  C45  1  0.66353000  0.45823000  0.45591000  1.0
  C  C46  1  0.32961000  0.92589000  0.37243000  1.0
  C  C47  1  0.67042000  0.42583000  0.62757000  1.0
  C  C48  1  0.49158000  0.71730000  0.29496000  1.0
  C  C49  1  0.50843000  0.21724000  0.70505000  1.0
  C  C50  1  0.76062000  0.78695000  0.34014000  1.0
  C  C51  1  0.23939000  0.28696000  0.65986000  1.0
  C  C52  1  0.33418000  0.10459000  0.35419000  1.0
  C  C53  1  0.66581000  0.60453000  0.64580000  1.0
  N  N54  1  0.01415000  0.54721000  0.85139000  1.0
  N  N55  1  0.98586000  0.04719000  0.14861000  1.0
  N  N56  1  0.18359000  0.50223000  0.88470000  1.0
  N  N57  1  0.81642000  0.00222000  0.11531000  1.0
  N  N58  1  0.19230000  0.71500000  0.79567000  1.0
  N  N59  1  0.80767000  0.21499000  0.20433000  1.0
  N  N60  1  0.80693000  0.51520000  0.96478000  1.0
  N  N61  1  0.19307000  0.01516000  0.03523000  1.0
  N  N62  1  0.68625000  0.63353000  0.97195000  1.0
  N  N63  1  0.31373000  0.13347000  0.02804000  1.0
  N  N64  1  0.76282000  0.52235000  0.10923000  1.0
  N  N65  1  0.23716000  0.02233000  0.89078000  1.0
  N  N66  1  0.29666000  0.88286000  0.46463000  1.0
  N  N67  1  0.70334000  0.38278000  0.53537000  1.0
  N  N68  1  0.21445000  0.74425000  0.47915000  1.0
  N  N69  1  0.78558000  0.24415000  0.52085000  1.0
  N  N70  1  0.28042000  0.87351000  0.61182000  1.0
  N  N71  1  0.71958000  0.37346000  0.38818000  1.0
  N  N72  1  0.48852000  0.84696000  0.34589000  1.0
  N  N73  1  0.51148000  0.34689000  0.65410000  1.0
  N  N74  1  0.65945000  0.89289000  0.37572000  1.0
  N  N75  1  0.34055000  0.39289000  0.62428000  1.0
  N  N76  1  0.66288000  0.67644000  0.28964000  1.0
  N  N77  1  0.33712000  0.17641000  0.71037000  1.0
  O  O78  1  0.91340000  0.25927000  0.78135000  1.0
  O  O79  1  0.08664000  0.75921000  0.21867000  1.0
  O  O80  1  0.81032000  0.20075000  0.91815000  1.0
  O  O81  1  0.18973000  0.70072000  0.08187000  1.0
  O  O82  1  0.27328000  0.19510000  0.40923000  1.0
  O  O83  1  0.72668000  0.69498000  0.59073000  1.0
  O  O84  1  0.39069000  0.13333000  0.27666000  1.0
  O  O85  1  0.60922000  0.63327000  0.72332000  1.0
  O  O86  1  0.97683000  0.98670000  0.72057000  1.0
  O  O87  1  0.02318000  0.48663000  0.27941000  1.0
  O  O88  1  0.54886000  0.90421000  0.78689000  1.0
  O  O89  1  0.45115000  0.40430000  0.21313000  1.0
