# generated using pymatgen
data_BaH12(CO)8
_symmetry_space_group_name_H-M   'P 1'
_cell_length_a   6.95061000
_cell_length_b   7.57620000
_cell_length_c   12.17290000
_cell_angle_alpha   106.71200000
_cell_angle_beta   105.11300000
_cell_angle_gamma   94.57050000
_symmetry_Int_Tables_number   1
_chemical_formula_structural   BaH12(CO)8
_chemical_formula_sum   'Ba2 H24 C16 O16'
_cell_volume   584.35615446
_cell_formula_units_Z   2
loop_
 _symmetry_equiv_pos_site_id
 _symmetry_equiv_pos_as_xyz
  1  'x, y, z'
loop_
 _atom_site_type_symbol
 _atom_site_label
 _atom_site_symmetry_multiplicity
 _atom_site_fract_x
 _atom_site_fract_y
 _atom_site_fract_z
 _atom_site_occupancy
  Ba  Ba0  1  0.79094000  0.04078000  0.08178000  1.0
  Ba  Ba1  1  0.20906000  0.95921000  0.91822000  1.0
  H  H2  1  0.08089000  0.67394000  0.07239000  1.0
  H  H3  1  0.50904000  0.60216000  0.92785000  1.0
  H  H4  1  0.91910000  0.32606000  0.92761000  1.0
  H  H5  1  0.49095000  0.39783000  0.07215000  1.0
  H  H6  1  0.92162000  0.61750000  0.94259000  1.0
  H  H7  1  0.47908000  0.67482000  0.05757000  1.0
  H  H8  1  0.07838000  0.38250000  0.05741000  1.0
  H  H9  1  0.52091000  0.32518000  0.94243000  1.0
  H  H10  1  0.99306000  0.47789000  0.24432000  1.0
  H  H11  1  0.24913000  0.23464000  0.75569000  1.0
  H  H12  1  0.00693000  0.52209000  0.75568000  1.0
  H  H13  1  0.75087000  0.76536000  0.24431000  1.0
  H  H14  1  0.76341000  0.46900000  0.23830000  1.0
  H  H15  1  0.02559000  0.23208000  0.76179000  1.0
  H  H16  1  0.23658000  0.53100000  0.76169000  1.0
  H  H17  1  0.97441000  0.76792000  0.23821000  1.0
  H  H18  1  0.84286000  0.71181000  0.62391000  1.0
  H  H19  1  0.71931000  0.08749000  0.37633000  1.0
  H  H20  1  0.15713000  0.28821000  0.37609000  1.0
  H  H21  1  0.28069000  0.91251000  0.62366000  1.0
  H  H22  1  0.73314000  0.59974000  0.40272000  1.0
  H  H23  1  0.83106000  0.19757000  0.59753000  1.0
  H  H24  1  0.26687000  0.40026000  0.59729000  1.0
  H  H25  1  0.16895000  0.80243000  0.40247000  1.0
  C  C26  1  0.63657000  0.88678000  0.77325000  1.0
  C  C27  1  0.36343000  0.11324000  0.22675000  1.0
  C  C28  1  0.56898000  0.81930000  0.63826000  1.0
  C  C29  1  0.43105000  0.18072000  0.36176000  1.0
  C  C30  1  0.69579000  0.73216000  0.57478000  1.0
  C  C31  1  0.62139000  0.15717000  0.42533000  1.0
  C  C32  1  0.30423000  0.26786000  0.42522000  1.0
  C  C33  1  0.37861000  0.84284000  0.57467000  1.0
  C  C34  1  0.63360000  0.67005000  0.44995000  1.0
  C  C35  1  0.68412000  0.22038000  0.55017000  1.0
  C  C36  1  0.36640000  0.32996000  0.55005000  1.0
  C  C37  1  0.31589000  0.77962000  0.44982000  1.0
  C  C38  1  0.44275000  0.69279000  0.38585000  1.0
  C  C39  1  0.55723000  0.30722000  0.61415000  1.0
  C  C40  1  0.37555000  0.62532000  0.25174000  1.0
  C  C41  1  0.62446000  0.37468000  0.74826000  1.0
  O  O42  1  0.81079000  0.86403000  0.82821000  1.0
  O  O43  1  0.48255000  0.03562000  0.17172000  1.0
  O  O44  1  0.18922000  0.13597000  0.17178000  1.0
  O  O45  1  0.51746000  0.96439000  0.82828000  1.0
  O  O46  1  0.50952000  0.59408000  0.19616000  1.0
  O  O47  1  0.81407000  0.39929000  0.80380000  1.0
  O  O48  1  0.49050000  0.40591000  0.80383000  1.0
  O  O49  1  0.18593000  0.60069000  0.19621000  1.0
  O  O50  1  0.00303000  0.72483000  0.01140000  1.0
  O  O51  1  0.49177000  0.71369000  0.98885000  1.0
  O  O52  1  0.99696000  0.27516000  0.98861000  1.0
  O  O53  1  0.50822000  0.28631000  0.01115000  1.0
  O  O54  1  0.87825000  0.40300000  0.25280000  1.0
  O  O55  1  0.12578000  0.15145000  0.74728000  1.0
  O  O56  1  0.12174000  0.59699000  0.74719000  1.0
  O  O57  1  0.87422000  0.84854000  0.25272000  1.0
