# generated using pymatgen
data_ZnH16C34(NO6)2
_symmetry_space_group_name_H-M   'P 1'
_cell_length_a   14.51250000
_cell_length_b   15.22060000
_cell_length_c   27.93290000
_cell_angle_alpha   87.31780000
_cell_angle_beta   89.64520000
_cell_angle_gamma   89.78630000
_symmetry_Int_Tables_number   1
_chemical_formula_structural   ZnH16C34(NO6)2
_chemical_formula_sum   'Zn2 H32 C68 N4 O24'
_cell_volume   6163.15489435
_cell_formula_units_Z   2
loop_
 _symmetry_equiv_pos_site_id
 _symmetry_equiv_pos_as_xyz
  1  'x, y, z'
loop_
 _atom_site_type_symbol
 _atom_site_label
 _atom_site_symmetry_multiplicity
 _atom_site_fract_x
 _atom_site_fract_y
 _atom_site_fract_z
 _atom_site_occupancy
  Zn  Zn0  1  0.59997000  0.50060000  0.50062000  1.0
  Zn  Zn1  1  0.39678000  0.50083000  0.49825000  1.0
  H  H2  1  0.33578000  0.55542000  0.65060000  1.0
  H  H3  1  0.34732000  0.46017000  0.34516000  1.0
  H  H4  1  0.65490000  0.22285000  0.47274000  1.0
  H  H5  1  0.37326000  0.77715000  0.48168000  1.0
  H  H6  1  0.65534000  0.77655000  0.52613000  1.0
  H  H7  1  0.37818000  0.22736000  0.52740000  1.0
  H  H8  1  0.52313000  0.27872000  0.87838000  1.0
  H  H9  1  0.49980000  0.70558000  0.12041000  1.0
  H  H10  1  0.65045000  0.51078000  0.26404000  1.0
  H  H11  1  0.61645000  0.45451000  0.73875000  1.0
  H  H12  1  0.52990000  0.27105000  0.96696000  1.0
  H  H13  1  0.48721000  0.71173000  0.03185000  1.0
  H  H14  1  0.06663000  0.43806000  0.57201000  1.0
  H  H15  1  0.93168000  0.62891000  0.46478000  1.0
  H  H16  1  0.06184000  0.56143000  0.42964000  1.0
  H  H17  1  0.93112000  0.37423000  0.53963000  1.0
  H  H18  1  0.25583000  0.39655000  0.64224000  1.0
  H  H19  1  0.74175000  0.76180000  0.44202000  1.0
  H  H20  1  0.32216000  0.66798000  0.39882000  1.0
  H  H21  1  0.73832000  0.24081000  0.55886000  1.0
  H  H22  1  0.33888000  0.55501000  0.74032000  1.0
  H  H23  1  0.36132000  0.45228000  0.25590000  1.0
  H  H24  1  0.63603000  0.51733000  0.35373000  1.0
  H  H25  1  0.61307000  0.45686000  0.64887000  1.0
  H  H26  1  0.45446000  0.14741000  0.16164000  1.0
  H  H27  1  0.45843000  0.84737000  0.84900000  1.0
  H  H28  1  0.51700000  0.26615000  0.03725000  1.0
  H  H29  1  0.44375000  0.70966000  0.96484000  1.0
  H  H30  1  0.65043000  0.05901000  0.47289000  1.0
  H  H31  1  0.37005000  0.94139000  0.48126000  1.0
  H  H32  1  0.65251000  0.94022000  0.52764000  1.0
  H  H33  1  0.37389000  0.06304000  0.52983000  1.0
  C  C34  1  0.52010000  0.33247000  0.50087000  1.0
  C  C35  1  0.51800000  0.66952000  0.50018000  1.0
  C  C36  1  0.48554000  0.49506000  0.89799000  1.0
  C  C37  1  0.50742000  0.48578000  0.10239000  1.0
  C  C38  1  0.49791000  0.41702000  0.87300000  1.0
  C  C39  1  0.50593000  0.56548000  0.12665000  1.0
  C  C40  1  0.51388000  0.33786000  0.89847000  1.0
  C  C41  1  0.49963000  0.64538000  0.10075000  1.0
  C  C42  1  0.46728000  0.57536000  0.87200000  1.0
  C  C43  1  0.51390000  0.40433000  0.12901000  1.0
  C  C44  1  0.47388000  0.50499000  0.64471000  1.0
  C  C45  1  0.49119000  0.48897000  0.35435000  1.0
  C  C46  1  0.50697000  0.40741000  0.02716000  1.0
  C  C47  1  0.47959000  0.57212000  0.97348000  1.0
  C  C48  1  0.49105000  0.57077000  0.02549000  1.0
  C  C49  1  0.50546000  0.40992000  0.97469000  1.0
  C  C50  1  0.50174000  0.48808000  0.05126000  1.0
  C  C51  1  0.49050000  0.49223000  0.94914000  1.0
  C  C52  1  0.51375000  0.32863000  0.05464000  1.0
  C  C53  1  0.45728000  0.64906000  0.94676000  1.0
  C  C54  1  0.51591000  0.32621000  0.10489000  1.0
  C  C55  1  0.45039000  0.65131000  0.89669000  1.0
  C  C56  1  0.47262000  0.50371000  0.59109000  1.0
  C  C57  1  0.48364000  0.49529000  0.40758000  1.0
  C  C58  1  0.51733000  0.33447000  0.94847000  1.0
  C  C59  1  0.49209000  0.64785000  0.05091000  1.0
  C  C60  1  0.59148000  0.09557000  0.48613000  1.0
  C  C61  1  0.43261000  0.90545000  0.49149000  1.0
  C  C62  1  0.59180000  0.90481000  0.51632000  1.0
  C  C63  1  0.43528000  0.09786000  0.51671000  1.0
  C  C64  1  0.59414000  0.18689000  0.48561000  1.0
  C  C65  1  0.43417000  0.81409000  0.49115000  1.0
  C  C66  1  0.59365000  0.81356000  0.51581000  1.0
  C  C67  1  0.43736000  0.18930000  0.51585000  1.0
  C  C68  1  0.51725000  0.23435000  0.50080000  1.0
  C  C69  1  0.51518000  0.76742000  0.50251000  1.0
  C  C70  1  0.51242000  0.04943000  0.50218000  1.0
  C  C71  1  0.51182000  0.95252000  0.50342000  1.0
  C  C72  1  0.10006000  0.46489000  0.53955000  1.0
  C  C73  1  0.89687000  0.57157000  0.48103000  1.0
  C  C74  1  0.09715000  0.53528000  0.46154000  1.0
  C  C75  1  0.89665000  0.43183000  0.52344000  1.0
  C  C76  1  0.19600000  0.46252000  0.53611000  1.0
  C  C77  1  0.80089000  0.56784000  0.48019000  1.0
  C  C78  1  0.19327000  0.53542000  0.46200000  1.0
  C  C79  1  0.80055000  0.43540000  0.52361000  1.0
  C  C80  1  0.04845000  0.50091000  0.50133000  1.0
  C  C81  1  0.94689000  0.50159000  0.50223000  1.0
  C  C82  1  0.49290000  0.41760000  0.82011000  1.0
  C  C83  1  0.50897000  0.56562000  0.17954000  1.0
  C  C84  1  0.46672000  0.58008000  0.81912000  1.0
  C  C85  1  0.51823000  0.40144000  0.18194000  1.0
  C  C86  1  0.55527000  0.47675000  0.71924000  1.0
  C  C87  1  0.58464000  0.49894000  0.28221000  1.0
  C  C88  1  0.55354000  0.47782000  0.66942000  1.0
  C  C89  1  0.57684000  0.50253000  0.33176000  1.0
  C  C90  1  0.39661000  0.53286000  0.67030000  1.0
  C  C91  1  0.41347000  0.47033000  0.32717000  1.0
  C  C92  1  0.39819000  0.53230000  0.72019000  1.0
  C  C93  1  0.42118000  0.46630000  0.27762000  1.0
  C  C94  1  0.47739000  0.50338000  0.74439000  1.0
  C  C95  1  0.50650000  0.48138000  0.25558000  1.0
  C  C96  1  0.24462000  0.40765000  0.57476000  1.0
  C  C97  1  0.75326000  0.63804000  0.44925000  1.0
  C  C98  1  0.23750000  0.57868000  0.41785000  1.0
  C  C99  1  0.75172000  0.36454000  0.55366000  1.0
  C  C100  1  0.52491000  0.23713000  0.13027000  1.0
  C  C101  1  0.41755000  0.73554000  0.87189000  1.0
  N  N102  1  0.47897000  0.50046000  0.79609000  1.0
  N  N103  1  0.51197000  0.48242000  0.20388000  1.0
  N  N104  1  0.24346000  0.49887000  0.49838000  1.0
  N  N105  1  0.75214000  0.50148000  0.50167000  1.0
  O  O106  1  0.59992000  0.36826000  0.49872000  1.0
  O  O107  1  0.44211000  0.63045000  0.49450000  1.0
  O  O108  1  0.59741000  0.63279000  0.50374000  1.0
  O  O109  1  0.44373000  0.37268000  0.50311000  1.0
  O  O110  1  0.54959000  0.49583000  0.57016000  1.0
  O  O111  1  0.40258000  0.49321000  0.42609000  1.0
  O  O112  1  0.55813000  0.50286000  0.43037000  1.0
  O  O113  1  0.39399000  0.51022000  0.57052000  1.0
  O  O114  1  0.50040000  0.35032000  0.79764000  1.0
  O  O115  1  0.50754000  0.63350000  0.20173000  1.0
  O  O116  1  0.52640000  0.33204000  0.20602000  1.0
  O  O117  1  0.45690000  0.65030000  0.79594000  1.0
  O  O118  1  0.28774000  0.34130000  0.56691000  1.0
  O  O119  1  0.22260000  0.43498000  0.61895000  1.0
  O  O120  1  0.71093000  0.62277000  0.41326000  1.0
  O  O121  1  0.77429000  0.71953000  0.46355000  1.0
  O  O122  1  0.21782000  0.55716000  0.37771000  1.0
  O  O123  1  0.29069000  0.64714000  0.42838000  1.0
  O  O124  1  0.70794000  0.37916000  0.58961000  1.0
  O  O125  1  0.77312000  0.28356000  0.53858000  1.0
  O  O126  1  0.59713000  0.19614000  0.13244000  1.0
  O  O127  1  0.44212000  0.20445000  0.14506000  1.0
  O  O128  1  0.33654000  0.75085000  0.86383000  1.0
  O  O129  1  0.48623000  0.79512000  0.86506000  1.0
