# generated using pymatgen
data_ZnH20C35N(Cl3O)4
_symmetry_space_group_name_H-M   'P 1'
_cell_length_a   15.11930000
_cell_length_b   18.85930000
_cell_length_c   19.04050000
_cell_angle_alpha   91.11480000
_cell_angle_beta   92.82900000
_cell_angle_gamma   92.27100000
_symmetry_Int_Tables_number   1
_chemical_formula_structural   ZnH20C35N(Cl3O)4
_chemical_formula_sum   'Zn2 H40 C70 N2 Cl24 O8'
_cell_volume   5417.07421833
_cell_formula_units_Z   2
loop_
 _symmetry_equiv_pos_site_id
 _symmetry_equiv_pos_as_xyz
  1  'x, y, z'
loop_
 _atom_site_type_symbol
 _atom_site_label
 _atom_site_symmetry_multiplicity
 _atom_site_fract_x
 _atom_site_fract_y
 _atom_site_fract_z
 _atom_site_occupancy
  Zn  Zn0  1  0.50019000  0.41644000  0.50188000  1.0
  Zn  Zn1  1  0.50057000  0.58504000  0.49783000  1.0
  H  H2  1  0.05907000  0.42752000  0.72197000  1.0
  H  H3  1  0.16513000  0.43651000  0.68614000  1.0
  H  H4  1  0.15151000  0.46272000  0.77471000  1.0
  H  H5  1  0.15618000  0.57259000  0.70610000  1.0
  H  H6  1  0.05025000  0.55603000  0.73696000  1.0
  H  H7  1  0.96203000  0.42665000  0.22872000  1.0
  H  H8  1  0.86584000  0.39142000  0.26707000  1.0
  H  H9  1  0.85545000  0.45145000  0.19653000  1.0
  H  H10  1  0.83066000  0.51660000  0.30692000  1.0
  H  H11  1  0.92807000  0.54909000  0.27287000  1.0
  H  H12  1  0.93478000  0.69667000  0.60407000  1.0
  H  H13  1  0.82924000  0.65200000  0.59990000  1.0
  H  H14  1  0.86265000  0.70597000  0.67450000  1.0
  H  H15  1  0.88080000  0.58005000  0.70679000  1.0
  H  H16  1  0.98329000  0.62709000  0.70623000  1.0
  H  H17  1  0.12309000  0.61926000  0.33493000  1.0
  H  H18  1  0.21126000  0.56210000  0.35373000  1.0
  H  H19  1  0.18681000  0.58693000  0.26590000  1.0
  H  H20  1  0.12651000  0.46336000  0.28355000  1.0
  H  H21  1  0.04392000  0.52182000  0.26077000  1.0
  H  H22  1  0.52066000  0.31697000  0.33593000  1.0
  H  H23  1  0.46218000  0.23402000  0.31767000  1.0
  H  H24  1  0.41651000  0.31455000  0.28868000  1.0
  H  H25  1  0.33960000  0.27575000  0.39475000  1.0
  H  H26  1  0.40109000  0.35535000  0.41282000  1.0
  H  H27  1  0.64881000  0.75388000  0.67203000  1.0
  H  H28  1  0.57694000  0.67677000  0.66555000  1.0
  H  H29  1  0.69349000  0.66812000  0.67431000  1.0
  H  H30  1  0.64456000  0.64174000  0.55119000  1.0
  H  H31  1  0.70976000  0.72112000  0.55574000  1.0
  H  H32  1  0.54236000  0.28898000  0.69961000  1.0
  H  H33  1  0.64534000  0.24692000  0.69845000  1.0
  H  H34  1  0.64239000  0.33867000  0.71948000  1.0
  H  H35  1  0.68844000  0.31678000  0.59445000  1.0
  H  H36  1  0.59876000  0.37150000  0.60366000  1.0
  H  H37  1  0.37083000  0.74997000  0.32386000  1.0
  H  H38  1  0.43647000  0.67331000  0.32845000  1.0
  H  H39  1  0.31941000  0.66368000  0.31615000  1.0
  H  H40  1  0.36225000  0.63734000  0.43949000  1.0
  H  H41  1  0.30153000  0.71493000  0.43635000  1.0
  C  C42  1  0.48604000  0.52144000  0.63118000  1.0
  C  C43  1  0.51034000  0.51593000  0.36479000  1.0
  C  C44  1  0.96488000  0.55371000  0.61946000  1.0
  C  C45  1  0.04096000  0.49022000  0.36791000  1.0
  C  C46  1  0.61376000  0.55108000  0.26920000  1.0
  C  C47  1  0.45936000  0.45607000  0.74475000  1.0
  C  C48  1  0.45631000  0.58232000  0.74974000  1.0
  C  C49  1  0.47181000  0.49355000  0.23517000  1.0
  C  C50  1  0.63634000  0.55081000  0.19842000  1.0
  C  C51  1  0.47969000  0.45495000  0.81712000  1.0
  C  C52  1  0.47021000  0.58019000  0.82311000  1.0
  C  C53  1  0.49217000  0.49724000  0.16427000  1.0
  C  C54  1  0.57536000  0.52476000  0.14536000  1.0
  C  C55  1  0.50922000  0.51943000  0.85487000  1.0
  C  C56  1  0.53305000  0.51922000  0.28811000  1.0
  C  C57  1  0.46636000  0.52068000  0.70787000  1.0
  C  C58  1  0.60808000  0.46553000  0.03069000  1.0
  C  C59  1  0.58301000  0.58920000  0.95842000  1.0
  C  C60  1  0.59683000  0.46365000  0.95729000  1.0
  C  C61  1  0.58877000  0.59095000  0.03225000  1.0
  C  C62  1  0.56054000  0.52332000  0.92127000  1.0
  C  C63  1  0.59223000  0.52763000  0.06958000  1.0
  C  C64  1  0.45623000  0.26345000  0.45993000  1.0
  C  C65  1  0.57362000  0.73603000  0.53238000  1.0
  C  C66  1  0.56473000  0.27138000  0.55470000  1.0
  C  C67  1  0.43801000  0.73390000  0.46386000  1.0
  C  C68  1  0.45340000  0.18905000  0.46321000  1.0
  C  C69  1  0.57665000  0.81059000  0.53315000  1.0
  C  C70  1  0.57227000  0.19728000  0.55071000  1.0
  C  C71  1  0.43855000  0.80850000  0.46674000  1.0
  C  C72  1  0.51350000  0.15470000  0.50750000  1.0
  C  C73  1  0.50845000  0.84809000  0.50102000  1.0
  C  C74  1  0.66874000  0.48670000  0.49800000  1.0
  C  C75  1  0.33083000  0.47804000  0.49958000  1.0
  C  C76  1  0.47005000  0.03771000  0.55784000  1.0
  C  C77  1  0.55572000  0.96518000  0.45256000  1.0
  C  C78  1  0.55841000  0.03967000  0.45489000  1.0
  C  C79  1  0.46827000  0.96321000  0.55601000  1.0
  C  C80  1  0.51066000  0.92681000  0.50314000  1.0
  C  C81  1  0.51496000  0.07610000  0.50720000  1.0
  C  C82  1  0.17779000  0.46308000  0.44190000  1.0
  C  C83  1  0.81777000  0.51808000  0.55677000  1.0
  C  C84  1  0.23091000  0.48055000  0.50220000  1.0
  C  C85  1  0.76864000  0.49259000  0.49688000  1.0
  C  C86  1  0.19219000  0.50879000  0.56118000  1.0
  C  C87  1  0.81222000  0.47440000  0.43642000  1.0
  C  C88  1  0.09889000  0.51475000  0.56431000  1.0
  C  C89  1  0.90433000  0.48827000  0.43153000  1.0
  C  C90  1  0.04841000  0.50370000  0.49839000  1.0
  C  C91  1  0.95400000  0.50792000  0.49590000  1.0
  C  C92  1  0.08935000  0.48375000  0.43492000  1.0
  C  C93  1  0.91119000  0.52816000  0.55843000  1.0
  C  C94  1  0.05368000  0.53731000  0.62596000  1.0
  C  C95  1  0.94957000  0.48995000  0.36599000  1.0
  C  C96  1  0.09721000  0.53708000  0.69962000  1.0
  C  C97  1  0.11980000  0.46147000  0.72146000  1.0
  C  C98  1  0.89810000  0.50192000  0.29705000  1.0
  C  C99  1  0.89537000  0.43927000  0.24430000  1.0
  C  C100  1  0.92805000  0.60518000  0.67210000  1.0
  C  C101  1  0.88599000  0.66838000  0.63534000  1.0
  C  C102  1  0.09142000  0.50887000  0.30331000  1.0
  C  C103  1  0.15698000  0.57277000  0.31549000  1.0
  C  C104  1  0.40742000  0.29895000  0.40080000  1.0
  C  C105  1  0.45480000  0.29016000  0.33164000  1.0
  C  C106  1  0.64580000  0.69699000  0.57000000  1.0
  C  C107  1  0.64072000  0.69951000  0.65047000  1.0
  C  C108  1  0.61858000  0.31669000  0.60849000  1.0
  C  C109  1  0.61161000  0.29566000  0.68571000  1.0
  C  C110  1  0.36490000  0.69261000  0.42305000  1.0
  C  C111  1  0.37385000  0.69554000  0.34292000  1.0
  N  N112  1  0.50821000  0.30229000  0.50766000  1.0
  N  N113  1  0.50482000  0.69987000  0.49751000  1.0
  Cl  Cl114  1  0.22482000  0.41322000  0.37705000  1.0
  Cl  Cl115  1  0.75724000  0.52252000  0.63233000  1.0
  Cl  Cl116  1  0.41645000  0.08266000  0.62130000  1.0
  Cl  Cl117  1  0.60694000  0.92007000  0.38785000  1.0
  Cl  Cl118  1  0.61433000  0.08706000  0.39378000  1.0
  Cl  Cl119  1  0.41390000  0.91577000  0.61798000  1.0
  Cl  Cl120  1  0.26806000  0.53969000  0.62722000  1.0
  Cl  Cl121  1  0.74999000  0.42622000  0.37147000  1.0
  Cl  Cl122  1  0.68411000  0.59294000  0.33181000  1.0
  Cl  Cl123  1  0.41334000  0.38126000  0.70250000  1.0
  Cl  Cl124  1  0.41905000  0.65959000  0.71449000  1.0
  Cl  Cl125  1  0.36876000  0.46266000  0.25762000  1.0
  Cl  Cl126  1  0.73889000  0.58277000  0.17581000  1.0
  Cl  Cl127  1  0.45029000  0.38003000  0.86180000  1.0
  Cl  Cl128  1  0.42484000  0.64471000  0.87337000  1.0
  Cl  Cl129  1  0.41423000  0.46964000  0.09951000  1.0
  Cl  Cl130  1  0.64052000  0.39179000  0.07534000  1.0
  Cl  Cl131  1  0.61463000  0.66443000  0.91545000  1.0
  Cl  Cl132  1  0.64011000  0.39487000  0.91175000  1.0
  Cl  Cl133  1  0.58770000  0.67116000  0.07653000  1.0
  Cl  Cl134  1  0.37803000  0.13865000  0.41037000  1.0
  Cl  Cl135  1  0.66577000  0.85810000  0.57342000  1.0
  Cl  Cl136  1  0.65607000  0.15606000  0.59690000  1.0
  Cl  Cl137  1  0.35213000  0.85334000  0.42808000  1.0
  O  O138  1  0.50629000  0.46329000  0.60318000  1.0
  O  O139  1  0.50069000  0.57655000  0.39306000  1.0
  O  O140  1  0.50455000  0.45587000  0.39246000  1.0
  O  O141  1  0.48728000  0.58143000  0.60144000  1.0
  O  O142  1  0.63292000  0.42489000  0.49890000  1.0
  O  O143  1  0.36967000  0.53684000  0.48817000  1.0
  O  O144  1  0.36663000  0.41860000  0.50759000  1.0
  O  O145  1  0.63005000  0.54502000  0.49722000  1.0
