# generated using pymatgen
data_ZnH6C18N3Cl4O4F
_symmetry_space_group_name_H-M   'P 1'
_cell_length_a   13.15760000
_cell_length_b   16.23130000
_cell_length_c   17.23190000
_cell_angle_alpha   97.29220000
_cell_angle_beta   91.98410000
_cell_angle_gamma   95.19210000
_symmetry_Int_Tables_number   1
_chemical_formula_structural   ZnH6C18N3Cl4O4F
_chemical_formula_sum   'Zn2 H12 C36 N6 Cl8 O8 F2'
_cell_volume   3631.42386624
_cell_formula_units_Z   2
loop_
 _symmetry_equiv_pos_site_id
 _symmetry_equiv_pos_as_xyz
  1  'x, y, z'
loop_
 _atom_site_type_symbol
 _atom_site_label
 _atom_site_symmetry_multiplicity
 _atom_site_fract_x
 _atom_site_fract_y
 _atom_site_fract_z
 _atom_site_occupancy
  Zn  Zn0  1  0.50286000  0.41110000  0.50121000  1.0
  Zn  Zn1  1  0.50620000  0.59174000  0.50635000  1.0
  H  H2  1  0.37333000  0.70722000  0.45379000  1.0
  H  H3  1  0.36326000  0.86171000  0.44877000  1.0
  H  H4  1  0.35798000  0.10479000  0.38505000  1.0
  H  H5  1  0.59367000  0.11887000  0.56830000  1.0
  H  H6  1  0.43002000  0.60518000  0.25953000  1.0
  H  H7  1  0.42512000  0.59281000  0.11231000  1.0
  H  H8  1  0.57571000  0.65172000  0.91473000  1.0
  H  H9  1  0.41408000  0.40633000  0.88197000  1.0
  H  H10  1  0.83080000  0.37755000  0.50405000  1.0
  H  H11  1  0.81472000  0.63604000  0.47568000  1.0
  H  H12  1  0.17456000  0.60349000  0.48681000  1.0
  H  H13  1  0.19124000  0.34676000  0.52088000  1.0
  C  C14  1  0.49758000  0.50420000  0.35267000  1.0
  C  C15  1  0.30811000  0.48926000  0.50504000  1.0
  C  C16  1  0.50844000  0.52290000  0.65479000  1.0
  C  C17  1  0.69809000  0.49379000  0.49297000  1.0
  C  C18  1  0.43389000  0.75413000  0.47924000  1.0
  C  C19  1  0.42871000  0.83856000  0.47638000  1.0
  C  C20  1  0.50938000  0.89488000  0.51160000  1.0
  C  C21  1  0.59275000  0.86386000  0.54791000  1.0
  C  C22  1  0.59182000  0.77688000  0.54709000  1.0
  C  C23  1  0.41173000  0.14038000  0.42884000  1.0
  C  C24  1  0.47395000  0.10065000  0.47643000  1.0
  C  C25  1  0.54344000  0.14838000  0.53123000  1.0
  C  C26  1  0.54694000  0.23471000  0.53652000  1.0
  C  C27  1  0.42038000  0.22760000  0.43913000  1.0
  C  C28  1  0.49939000  0.49166000  0.26463000  1.0
  C  C29  1  0.45907000  0.55242000  0.22462000  1.0
  C  C30  1  0.45658000  0.54603000  0.14373000  1.0
  C  C31  1  0.49482000  0.47766000  0.09996000  1.0
  C  C32  1  0.53524000  0.41555000  0.13875000  1.0
  C  C33  1  0.53862000  0.42298000  0.22119000  1.0
  C  C34  1  0.54146000  0.59784000  0.87537000  1.0
  C  C35  1  0.49672000  0.52877000  0.90671000  1.0
  C  C36  1  0.45070000  0.45925000  0.85724000  1.0
  C  C37  1  0.45216000  0.45940000  0.77661000  1.0
  C  C38  1  0.50106000  0.52656000  0.74248000  1.0
  C  C39  1  0.54483000  0.59575000  0.79453000  1.0
  C  C40  1  0.86929000  0.43846000  0.49805000  1.0
  C  C41  1  0.86065000  0.58460000  0.48203000  1.0
  C  C42  1  0.96506000  0.59536000  0.48236000  1.0
  C  C43  1  0.02839000  0.53072000  0.49152000  1.0
  C  C44  1  0.13615000  0.54265000  0.49322000  1.0
  C  C45  1  0.14514000  0.39753000  0.51235000  1.0
  C  C46  1  0.04061000  0.38614000  0.50994000  1.0
  C  C47  1  0.97710000  0.45041000  0.49965000  1.0
  C  C48  1  0.81216000  0.50469000  0.49018000  1.0
  C  C49  1  0.19366000  0.47721000  0.50348000  1.0
  N  N50  1  0.51395000  0.72395000  0.51373000  1.0
  N  N51  1  0.51140000  0.98221000  0.51843000  1.0
  N  N52  1  0.46569000  0.01161000  0.46420000  1.0
  N  N53  1  0.48675000  0.27509000  0.49157000  1.0
  N  N54  1  0.49292000  0.46761000  0.01736000  1.0
  N  N55  1  0.50224000  0.53617000  0.98934000  1.0
  Cl  Cl56  1  0.69204000  0.73736000  0.58955000  1.0
  Cl  Cl57  1  0.69372000  0.92991000  0.58960000  1.0
  Cl  Cl58  1  0.34291000  0.27615000  0.38163000  1.0
  Cl  Cl59  1  0.63125000  0.29253000  0.60408000  1.0
  Cl  Cl60  1  0.59669000  0.34968000  0.26630000  1.0
  Cl  Cl61  1  0.58532000  0.33387000  0.08459000  1.0
  Cl  Cl62  1  0.60859000  0.68136000  0.76120000  1.0
  Cl  Cl63  1  0.38762000  0.37428000  0.71872000  1.0
  O  O64  1  0.48275000  0.43997000  0.38708000  1.0
  O  O65  1  0.50863000  0.57972000  0.38521000  1.0
  O  O66  1  0.34984000  0.55963000  0.49174000  1.0
  O  O67  1  0.35439000  0.42673000  0.51962000  1.0
  O  O68  1  0.48803000  0.58690000  0.62399000  1.0
  O  O69  1  0.53566000  0.45576000  0.61949000  1.0
  O  O70  1  0.65483000  0.41961000  0.48395000  1.0
  O  O71  1  0.65367000  0.56044000  0.50529000  1.0
  F  F72  1  0.99370000  0.30927000  0.51800000  1.0
  F  F73  1  0.01216000  0.67214000  0.47419000  1.0
