# generated using pymatgen
data_HgH4C6(SN2)2
_symmetry_space_group_name_H-M   'P 1'
_cell_length_a   7.23884000
_cell_length_b   7.24561000
_cell_length_c   10.41670000
_cell_angle_alpha   99.39180000
_cell_angle_beta   106.03400000
_cell_angle_gamma   111.55800000
_symmetry_Int_Tables_number   1
_chemical_formula_structural   HgH4C6(SN2)2
_chemical_formula_sum   'Hg2 H8 C12 S4 N8'
_cell_volume   466.46672459
_cell_formula_units_Z   2
loop_
 _symmetry_equiv_pos_site_id
 _symmetry_equiv_pos_as_xyz
  1  'x, y, z'
loop_
 _atom_site_type_symbol
 _atom_site_label
 _atom_site_symmetry_multiplicity
 _atom_site_fract_x
 _atom_site_fract_y
 _atom_site_fract_z
 _atom_site_occupancy
  Hg  Hg0  1  0.64011000  0.89029000  0.75010000  1.0
  Hg  Hg1  1  0.35989000  0.10971000  0.24990000  1.0
  H  H2  1  0.42429000  0.67183000  0.96663000  1.0
  H  H3  1  0.20570000  0.45842000  0.53361000  1.0
  H  H4  1  0.57570000  0.32817000  0.03337000  1.0
  H  H5  1  0.79431000  0.54157000  0.46639000  1.0
  H  H6  1  0.11179000  0.36288000  0.96695000  1.0
  H  H7  1  0.89670000  0.14506000  0.53290000  1.0
  H  H8  1  0.88821000  0.63712000  0.03305000  1.0
  H  H9  1  0.10331000  0.85494000  0.46710000  1.0
  C  C10  1  0.30483000  0.55333000  0.86997000  1.0
  C  C11  1  0.18360000  0.43529000  0.63017000  1.0
  C  C12  1  0.69517000  0.44667000  0.13002000  1.0
  C  C13  1  0.81640000  0.56471000  0.36983000  1.0
  C  C14  1  0.13205000  0.38250000  0.86928000  1.0
  C  C15  1  0.01362000  0.26295000  0.63069000  1.0
  C  C16  1  0.86795000  0.61750000  0.13072000  1.0
  C  C17  1  0.98638000  0.73704000  0.36931000  1.0
  C  C18  1  0.09182000  0.88753000  0.88878000  1.0
  C  C19  1  0.49875000  0.20307000  0.61121000  1.0
  C  C20  1  0.90817000  0.11246000  0.11121000  1.0
  C  C21  1  0.50126000  0.79696000  0.38880000  1.0
  S  S22  1  0.87928000  0.70836000  0.75758000  1.0
  S  S23  1  0.45059000  0.12179000  0.74246000  1.0
  S  S24  1  0.12071000  0.29163000  0.24242000  1.0
  S  S25  1  0.54940000  0.87821000  0.25755000  1.0
  N  N26  1  0.32865000  0.57882000  0.75011000  1.0
  N  N27  1  0.67135000  0.42118000  0.24989000  1.0
  N  N28  1  0.98730000  0.23706000  0.74993000  1.0
  N  N29  1  0.01270000  0.76294000  0.25007000  1.0
  N  N30  1  0.24912000  0.01181000  0.98164000  1.0
  N  N31  1  0.53017000  0.26735000  0.51829000  1.0
  N  N32  1  0.75089000  0.98820000  0.01836000  1.0
  N  N33  1  0.46983000  0.73265000  0.48172000  1.0
