# generated using pymatgen
data_SiAgH14C12N3O2
_symmetry_space_group_name_H-M   'P 1'
_cell_length_a   9.69538000
_cell_length_b   13.17850000
_cell_length_c   13.25960000
_cell_angle_alpha   113.88000000
_cell_angle_beta   111.42300000
_cell_angle_gamma   90.00470000
_symmetry_Int_Tables_number   1
_chemical_formula_structural   SiAgH14C12N3O2
_chemical_formula_sum   'Si4 Ag4 H56 C48 N12 O8'
_cell_volume   1420.17569927
_cell_formula_units_Z   4
loop_
 _symmetry_equiv_pos_site_id
 _symmetry_equiv_pos_as_xyz
  1  'x, y, z'
loop_
 _atom_site_type_symbol
 _atom_site_label
 _atom_site_symmetry_multiplicity
 _atom_site_fract_x
 _atom_site_fract_y
 _atom_site_fract_z
 _atom_site_occupancy
  Si  Si0  1  0.36430000  0.10888000  0.63696000  1.0
  Si  Si1  1  0.72717000  0.39146000  0.36316000  1.0
  Si  Si2  1  0.63572000  0.89113000  0.36305000  1.0
  Si  Si3  1  0.27282000  0.60853000  0.63684000  1.0
  Ag  Ag4  1  0.89695000  0.39827000  0.89905000  1.0
  Ag  Ag5  1  0.99820000  0.10196000  0.10091000  1.0
  Ag  Ag6  1  0.10305000  0.60173000  0.10095000  1.0
  Ag  Ag7  1  0.00180000  0.89804000  0.89909000  1.0
  H  H8  1  0.90109000  0.27282000  0.65056000  1.0
  H  H9  1  0.25042000  0.22674000  0.34894000  1.0
  H  H10  1  0.09891000  0.72718000  0.34944000  1.0
  H  H11  1  0.74957000  0.77325000  0.65105000  1.0
  H  H12  1  0.06272000  0.17023000  0.54805000  1.0
  H  H13  1  0.51435000  0.32969000  0.45170000  1.0
  H  H14  1  0.93729000  0.82978000  0.45195000  1.0
  H  H15  1  0.48564000  0.67030000  0.54829000  1.0
  H  H16  1  0.40695000  0.25239000  0.90128000  1.0
  H  H17  1  0.50624000  0.24759000  0.09864000  1.0
  H  H18  1  0.59306000  0.74761000  0.09872000  1.0
  H  H19  1  0.49376000  0.75241000  0.90136000  1.0
  H  H20  1  0.23184000  0.35209000  0.98797000  1.0
  H  H21  1  0.24464000  0.14749000  0.01170000  1.0
  H  H22  1  0.76816000  0.64790000  0.01204000  1.0
  H  H23  1  0.75536000  0.85251000  0.98830000  1.0
  H  H24  1  0.92142000  0.14610000  0.87221000  1.0
  H  H25  1  0.04933000  0.35427000  0.12790000  1.0
  H  H26  1  0.07858000  0.85389000  0.12779000  1.0
  H  H27  1  0.95067000  0.64573000  0.87209000  1.0
  H  H28  1  0.70269000  0.15718000  0.70784000  1.0
  H  H29  1  0.99495000  0.34329000  0.29240000  1.0
  H  H30  1  0.29732000  0.84282000  0.29217000  1.0
  H  H31  1  0.00504000  0.65671000  0.70759000  1.0
  H  H32  1  0.41428000  0.04069000  0.83769000  1.0
  H  H33  1  0.57660000  0.45947000  0.16252000  1.0
  H  H34  1  0.58571000  0.95932000  0.16232000  1.0
  H  H35  1  0.42339000  0.54053000  0.83748000  1.0
  H  H36  1  0.64787000  0.04365000  0.00311000  1.0
  H  H37  1  0.64485000  0.45669000  0.99714000  1.0
  H  H38  1  0.35213000  0.95635000  0.99689000  1.0
  H  H39  1  0.35514000  0.54331000  0.00286000  1.0
  H  H40  1  0.20238000  0.93404000  0.58353000  1.0
  H  H41  1  0.61796000  0.56599000  0.41636000  1.0
  H  H42  1  0.79763000  0.06597000  0.41648000  1.0
  H  H43  1  0.38204000  0.43400000  0.58363000  1.0
  H  H44  1  0.30781000  0.90633000  0.49186000  1.0
  H  H45  1  0.81500000  0.59414000  0.50809000  1.0
  H  H46  1  0.69220000  0.09368000  0.50814000  1.0
  H  H47  1  0.18499000  0.40586000  0.49190000  1.0
  H  H48  1  0.14842000  0.97388000  0.46290000  1.0
  H  H49  1  0.68490000  0.52632000  0.53711000  1.0
  H  H50  1  0.85159000  0.02613000  0.53711000  1.0
  H  H51  1  0.31510000  0.47367000  0.46288000  1.0
  H  H52  1  0.46302000  0.11501000  0.49025000  1.0
  H  H53  1  0.97264000  0.38559000  0.50975000  1.0
  H  H54  1  0.53699000  0.88500000  0.50975000  1.0
  H  H55  1  0.02736000  0.61441000  0.49025000  1.0
  H  H56  1  0.48768000  0.25366000  0.60422000  1.0
  H  H57  1  0.88362000  0.24690000  0.39581000  1.0
  H  H58  1  0.51233000  0.74635000  0.39577000  1.0
  H  H59  1  0.11638000  0.75309000  0.60419000  1.0
  H  H60  1  0.30562000  0.18261000  0.48914000  1.0
  H  H61  1  0.81666000  0.31778000  0.51104000  1.0
  H  H62  1  0.69439000  0.81739000  0.51087000  1.0
  H  H63  1  0.18334000  0.68222000  0.48896000  1.0
  C  C64  1  0.01417000  0.26554000  0.70198000  1.0
  C  C65  1  0.31223000  0.23412000  0.29760000  1.0
  C  C66  1  0.98583000  0.73446000  0.29802000  1.0
  C  C67  1  0.68777000  0.76587000  0.70239000  1.0
  C  C68  1  0.10589000  0.20866000  0.64613000  1.0
  C  C69  1  0.45966000  0.29123000  0.35359000  1.0
  C  C70  1  0.89412000  0.79135000  0.35387000  1.0
  C  C71  1  0.54034000  0.70876000  0.64641000  1.0
  C  C72  1  0.25026000  0.19961000  0.71580000  1.0
  C  C73  1  0.53452000  0.30043000  0.28408000  1.0
  C  C74  1  0.74975000  0.80040000  0.28421000  1.0
  C  C75  1  0.46547000  0.69956000  0.71592000  1.0
  C  C76  1  0.29560000  0.25399000  0.84096000  1.0
  C  C77  1  0.45504000  0.24593000  0.15889000  1.0
  C  C78  1  0.70440000  0.74602000  0.15904000  1.0
  C  C79  1  0.54496000  0.75406000  0.84111000  1.0
  C  C80  1  0.19787000  0.30954000  0.89074000  1.0
  C  C81  1  0.30764000  0.19015000  0.10894000  1.0
  C  C82  1  0.80213000  0.69045000  0.10926000  1.0
  C  C83  1  0.69236000  0.80985000  0.89105000  1.0
  C  C84  1  0.80711000  0.12542000  0.86267000  1.0
  C  C85  1  0.94458000  0.37500000  0.13755000  1.0
  C  C86  1  0.19289000  0.87457000  0.13734000  1.0
  C  C87  1  0.05541000  0.62499000  0.86244000  1.0
  C  C88  1  0.68329000  0.13002000  0.76983000  1.0
  C  C89  1  0.91360000  0.37043000  0.23041000  1.0
  C  C90  1  0.31671000  0.86998000  0.23018000  1.0
  C  C91  1  0.08639000  0.62957000  0.76958000  1.0
  C  C92  1  0.53718000  0.10057000  0.75771000  1.0
  C  C93  1  0.77959000  0.39983000  0.24253000  1.0
  C  C94  1  0.46282000  0.89944000  0.24230000  1.0
  C  C95  1  0.22040000  0.60016000  0.75746000  1.0
  C  C96  1  0.52442000  0.06648000  0.84227000  1.0
  C  C97  1  0.68225000  0.43387000  0.15798000  1.0
  C  C98  1  0.47558000  0.93353000  0.15773000  1.0
  C  C99  1  0.31774000  0.56613000  0.84202000  1.0
  C  C100  1  0.65353000  0.06719000  0.93456000  1.0
  C  C101  1  0.71912000  0.43320000  0.06571000  1.0
  C  C102  1  0.34647000  0.93281000  0.06545000  1.0
  C  C103  1  0.28087000  0.56680000  0.93429000  1.0
  C  C104  1  0.24502000  0.96654000  0.53430000  1.0
  C  C105  1  0.71003000  0.53370000  0.46568000  1.0
  C  C106  1  0.75499000  0.03347000  0.46571000  1.0
  C  C107  1  0.28997000  0.46629000  0.53431000  1.0
  C  C108  1  0.41242000  0.17185000  0.54847000  1.0
  C  C109  1  0.86395000  0.32862000  0.45162000  1.0
  C  C110  1  0.58759000  0.82815000  0.45153000  1.0
  C  C111  1  0.13605000  0.67137000  0.54838000  1.0
  N  N112  1  0.05779000  0.31443000  0.82229000  1.0
  N  N113  1  0.23586000  0.18520000  0.17732000  1.0
  N  N114  1  0.94221000  0.68556000  0.17771000  1.0
  N  N115  1  0.76413000  0.81480000  0.82268000  1.0
  N  N116  1  0.79311000  0.09630000  0.94516000  1.0
  N  N117  1  0.84811000  0.40412000  0.05506000  1.0
  N  N118  1  0.20689000  0.90369000  0.05484000  1.0
  N  N119  1  0.15188000  0.59588000  0.94493000  1.0
  N  N120  1  0.65070000  0.46129000  0.72612000  1.0
  N  N121  1  0.92441000  0.03877000  0.27384000  1.0
  N  N122  1  0.34929000  0.53871000  0.27388000  1.0
  N  N123  1  0.07559000  0.96123000  0.72617000  1.0
  O  O124  1  0.68850000  0.49745000  0.83932000  1.0
  O  O125  1  0.84987000  0.00277000  0.16054000  1.0
  O  O126  1  0.31149000  0.50254000  0.16067000  1.0
  O  O127  1  0.15013000  0.99722000  0.83946000  1.0
  O  O128  1  0.72527000  0.39109000  0.68215000  1.0
  O  O129  1  0.04271000  0.10937000  0.31851000  1.0
  O  O130  1  0.27473000  0.60891000  0.31785000  1.0
  O  O131  1  0.95729000  0.89063000  0.68149000  1.0
