# generated using pymatgen
data_Zn4H14C35O17
_symmetry_space_group_name_H-M   'P 1'
_cell_length_a   16.12980000
_cell_length_b   16.13510000
_cell_length_c   19.55920000
_cell_angle_alpha   89.09210000
_cell_angle_beta   83.47060000
_cell_angle_gamma   83.19770000
_symmetry_Int_Tables_number   1
_chemical_formula_structural   Zn4H14C35O17
_chemical_formula_sum   'Zn4 H14 C35 O17'
_cell_volume   5021.76502506
_cell_formula_units_Z   1
loop_
 _symmetry_equiv_pos_site_id
 _symmetry_equiv_pos_as_xyz
  1  'x, y, z'
loop_
 _atom_site_type_symbol
 _atom_site_label
 _atom_site_symmetry_multiplicity
 _atom_site_fract_x
 _atom_site_fract_y
 _atom_site_fract_z
 _atom_site_occupancy
  Zn  Zn0  1  0.42895000  0.57385000  0.44193000  1.0
  Zn  Zn1  1  0.42790000  0.43798000  0.56629000  1.0
  Zn  Zn2  1  0.56038000  0.57006000  0.55319000  1.0
  Zn  Zn3  1  0.57666000  0.42209000  0.44099000  1.0
  H  H4  1  0.45722000  0.61711000  0.22965000  1.0
  H  H5  1  0.60224000  0.37623000  0.22868000  1.0
  H  H6  1  0.42005000  0.38638000  0.95603000  1.0
  H  H7  1  0.98084000  0.37245000  0.39717000  1.0
  H  H8  1  0.69839000  0.48446000  0.02021000  1.0
  H  H9  1  0.43680000  0.69321000  0.13333000  1.0
  H  H10  1  0.43561000  0.01100000  0.44676000  1.0
  H  H11  1  0.56434000  0.99018000  0.55336000  1.0
  H  H12  1  0.98613000  0.56190000  0.54985000  1.0
  H  H13  1  0.56268000  0.61133000  0.76332000  1.0
  H  H14  1  0.40805000  0.40985000  0.77781000  1.0
  H  H15  1  0.43270000  0.50025000  0.01090000  1.0
  H  H16  1  0.62066000  0.37772000  0.10055000  1.0
  H  H17  1  0.56799000  0.60410000  0.89057000  1.0
  C  C18  1  0.51143000  0.27585000  0.51067000  1.0
  C  C19  1  0.56230000  0.49577000  0.01558000  1.0
  C  C20  1  0.49421000  0.49852000  0.98002000  1.0
  C  C21  1  0.48847000  0.72585000  0.48968000  1.0
  C  C22  1  0.48564000  0.51058000  0.76305000  1.0
  C  C23  1  0.51586000  0.18613000  0.51441000  1.0
  C  C24  1  0.52253000  0.02302000  0.51891000  1.0
  C  C25  1  0.47754000  0.97825000  0.48110000  1.0
  C  C26  1  0.48227000  0.89100000  0.48421000  1.0
  C  C27  1  0.51854000  0.11023000  0.51635000  1.0
  C  C28  1  0.48510000  0.81508000  0.48602000  1.0
  C  C29  1  0.55142000  0.49939000  0.09166000  1.0
  C  C30  1  0.18423000  0.51619000  0.51191000  1.0
  C  C31  1  0.02202000  0.51679000  0.51330000  1.0
  C  C32  1  0.97823000  0.46944000  0.47547000  1.0
  C  C33  1  0.27393000  0.51314000  0.50956000  1.0
  C  C34  1  0.88979000  0.47804000  0.48263000  1.0
  C  C35  1  0.10913000  0.51292000  0.50968000  1.0
  C  C36  1  0.81360000  0.48090000  0.48486000  1.0
  C  C37  1  0.72352000  0.48609000  0.48885000  1.0
  C  C38  1  0.48620000  0.51073000  0.68680000  1.0
  C  C39  1  0.51467000  0.49429000  0.31397000  1.0
  C  C40  1  0.58600000  0.43118000  0.12871000  1.0
  C  C41  1  0.52706000  0.49582000  0.23708000  1.0
  C  C42  1  0.49294000  0.56460000  0.20090000  1.0
  C  C43  1  0.50656000  0.56845000  0.12897000  1.0
  C  C44  1  0.02290000  0.40689000  0.42471000  1.0
  C  C45  1  0.65113000  0.47904000  0.98338000  1.0
  C  C46  1  0.47987000  0.65011000  0.09726000  1.0
  C  C47  1  0.57494000  0.42939000  0.20038000  1.0
  C  C48  1  0.53419000  0.56126000  0.86505000  1.0
  C  C49  1  0.53065000  0.56591000  0.79469000  1.0
  C  C50  1  0.44245000  0.45293000  0.80241000  1.0
  C  C51  1  0.44593000  0.44890000  0.87331000  1.0
  C  C52  1  0.49295000  0.50230000  0.90563000  1.0
  O  O53  1  0.49813000  0.50035000  0.49989000  1.0
  O  O54  1  0.44207000  0.46051000  0.66150000  1.0
  O  O55  1  0.55815000  0.43602000  0.34357000  1.0
  O  O56  1  0.53153000  0.56020000  0.65241000  1.0
  O  O57  1  0.46207000  0.55163000  0.34343000  1.0
  O  O58  1  0.40471000  0.38949000  0.90917000  1.0
  O  O59  1  0.09942000  0.39373000  0.41348000  1.0
  O  O60  1  0.67402000  0.45829000  0.92370000  1.0
  O  O61  1  0.50361000  0.67326000  0.03921000  1.0
  O  O62  1  0.30912000  0.55921000  0.46424000  1.0
  O  O63  1  0.69429000  0.43822000  0.44839000  1.0
  O  O64  1  0.45557000  0.31638000  0.55260000  1.0
  O  O65  1  0.53929000  0.68869000  0.52891000  1.0
  O  O66  1  0.56387000  0.30497000  0.46552000  1.0
  O  O67  1  0.44021000  0.69246000  0.45340000  1.0
  O  O68  1  0.30817000  0.46450000  0.55292000  1.0
  O  O69  1  0.68229000  0.53796000  0.53228000  1.0
