# generated using pymatgen
data_CuH9C8(NO)5
_symmetry_space_group_name_H-M   'P 1'
_cell_length_a   7.80003000
_cell_length_b   8.07573000
_cell_length_c   20.75900000
_cell_angle_alpha   90.00000000
_cell_angle_beta   90.00000000
_cell_angle_gamma   116.09600000
_symmetry_Int_Tables_number   1
_chemical_formula_structural   CuH9C8(NO)5
_chemical_formula_sum   'Cu4 H36 C32 N20 O20'
_cell_volume   1174.32692169
_cell_formula_units_Z   4
loop_
 _symmetry_equiv_pos_site_id
 _symmetry_equiv_pos_as_xyz
  1  'x, y, z'
loop_
 _atom_site_type_symbol
 _atom_site_label
 _atom_site_symmetry_multiplicity
 _atom_site_fract_x
 _atom_site_fract_y
 _atom_site_fract_z
 _atom_site_occupancy
  Cu  Cu0  1  0.33013000  0.00830000  0.16428000  1.0
  Cu  Cu1  1  0.66986000  0.49170000  0.66429000  1.0
  Cu  Cu2  1  0.66984000  0.99170000  0.83571000  1.0
  Cu  Cu3  1  0.33015000  0.50830000  0.33571000  1.0
  H  H4  1  0.60362000  0.61889000  0.94303000  1.0
  H  H5  1  0.39638000  0.88112000  0.44303000  1.0
  H  H6  1  0.39637000  0.38111000  0.05696000  1.0
  H  H7  1  0.60363000  0.11888000  0.55697000  1.0
  H  H8  1  0.75575000  0.51518000  0.87449000  1.0
  H  H9  1  0.24426000  0.98482000  0.37449000  1.0
  H  H10  1  0.24426000  0.48481000  0.12550000  1.0
  H  H11  1  0.75575000  0.01519000  0.62551000  1.0
  H  H12  1  0.95121000  0.48027000  0.90547000  1.0
  H  H13  1  0.04879000  0.01974000  0.40546000  1.0
  H  H14  1  0.04880000  0.51974000  0.09453000  1.0
  H  H15  1  0.95121000  0.98026000  0.59454000  1.0
  H  H16  1  0.99414000  0.68590000  0.86115000  1.0
  H  H17  1  0.00586000  0.81410000  0.36115000  1.0
  H  H18  1  0.00587000  0.31410000  0.13885000  1.0
  H  H19  1  0.99414000  0.18590000  0.63885000  1.0
  H  H20  1  0.68635000  0.86206000  0.14209000  1.0
  H  H21  1  0.31365000  0.63794000  0.64209000  1.0
  H  H22  1  0.31364000  0.13792000  0.85791000  1.0
  H  H23  1  0.68636000  0.36206000  0.35792000  1.0
  H  H24  1  0.93338000  0.95612000  0.15983000  1.0
  H  H25  1  0.06662000  0.54388000  0.65983000  1.0
  H  H26  1  0.06660000  0.04387000  0.84017000  1.0
  H  H27  1  0.93339000  0.45612000  0.34018000  1.0
  H  H28  1  0.46110000  0.86943000  0.04802000  1.0
  H  H29  1  0.53890000  0.63056000  0.54802000  1.0
  H  H30  1  0.53890000  0.13057000  0.95198000  1.0
  H  H31  1  0.46110000  0.36942000  0.45198000  1.0
  H  H32  1  0.66615000  0.26765000  0.08104000  1.0
  H  H33  1  0.33385000  0.23234000  0.58105000  1.0
  H  H34  1  0.33385000  0.73235000  0.91896000  1.0
  H  H35  1  0.66615000  0.76765000  0.41896000  1.0
  H  H36  1  0.67052000  0.32726000  0.15418000  1.0
  H  H37  1  0.32948000  0.17273000  0.65418000  1.0
  H  H38  1  0.32947000  0.67275000  0.84582000  1.0
  H  H39  1  0.67054000  0.82726000  0.34582000  1.0
  C  C40  1  0.38669000  0.73383000  0.22991000  1.0
  C  C41  1  0.61330000  0.76617000  0.72990000  1.0
  C  C42  1  0.61330000  0.26616000  0.77009000  1.0
  C  C43  1  0.38670000  0.23384000  0.27009000  1.0
  C  C44  1  0.20132000  0.71639000  0.26325000  1.0
  C  C45  1  0.79866000  0.78360000  0.76325000  1.0
  C  C46  1  0.79867000  0.28360000  0.73675000  1.0
  C  C47  1  0.20133000  0.21640000  0.23675000  1.0
  C  C48  1  0.72447000  0.67560000  0.97617000  1.0
  C  C49  1  0.27553000  0.82441000  0.47617000  1.0
  C  C50  1  0.27552000  0.32440000  0.02382000  1.0
  C  C51  1  0.72448000  0.17560000  0.52383000  1.0
  C  C52  1  0.89885000  0.58307000  0.89521000  1.0
  C  C53  1  0.10115000  0.91694000  0.39521000  1.0
  C  C54  1  0.10115000  0.41694000  0.10479000  1.0
  C  C55  1  0.89886000  0.08307000  0.60479000  1.0
  C  C56  1  0.04258000  0.75015000  0.99520000  1.0
  C  C57  1  0.95742000  0.74986000  0.49521000  1.0
  C  C58  1  0.95742000  0.24986000  0.00479000  1.0
  C  C59  1  0.04259000  0.25015000  0.50480000  1.0
  C  C60  1  0.03239000  0.82916000  0.05465000  1.0
  C  C61  1  0.96762000  0.67087000  0.55466000  1.0
  C  C62  1  0.96760000  0.17085000  0.94534000  1.0
  C  C63  1  0.03240000  0.32915000  0.44535000  1.0
  C  C64  1  0.85394000  0.82171000  0.07377000  1.0
  C  C65  1  0.14607000  0.67831000  0.57377000  1.0
  C  C66  1  0.14605000  0.17829000  0.92622000  1.0
  C  C67  1  0.85394000  0.32170000  0.42623000  1.0
  C  C68  1  0.31427000  0.84466000  0.03968000  1.0
  C  C69  1  0.68573000  0.65535000  0.53968000  1.0
  C  C70  1  0.68572000  0.15535000  0.96032000  1.0
  C  C71  1  0.31428000  0.34464000  0.46031000  1.0
  N  N72  1  0.70415000  0.74411000  0.03152000  1.0
  N  N73  1  0.29585000  0.75590000  0.53153000  1.0
  N  N74  1  0.29584000  0.25589000  0.96847000  1.0
  N  N75  1  0.70416000  0.24410000  0.46848000  1.0
  N  N76  1  0.88761000  0.67208000  0.95528000  1.0
  N  N77  1  0.11239000  0.82794000  0.45528000  1.0
  N  N78  1  0.11239000  0.32794000  0.04472000  1.0
  N  N79  1  0.88762000  0.17207000  0.54473000  1.0
  N  N80  1  0.82163000  0.88332000  0.12958000  1.0
  N  N81  1  0.17837000  0.61669000  0.62958000  1.0
  N  N82  1  0.17835000  0.11667000  0.87042000  1.0
  N  N83  1  0.82164000  0.38332000  0.37042000  1.0
  N  N84  1  0.21189000  0.89000000  0.08248000  1.0
  N  N85  1  0.78811000  0.61001000  0.58248000  1.0
  N  N86  1  0.78811000  0.11000000  0.91752000  1.0
  N  N87  1  0.21189000  0.39000000  0.41752000  1.0
  N  N88  1  0.21818000  0.75942000  0.98571000  1.0
  N  N89  1  0.78183000  0.74059000  0.48571000  1.0
  N  N90  1  0.78182000  0.24060000  0.01429000  1.0
  N  N91  1  0.21818000  0.25941000  0.51429000  1.0
  O  O92  1  0.44950000  0.83384000  0.18001000  1.0
  O  O93  1  0.55049000  0.66615000  0.68001000  1.0
  O  O94  1  0.55047000  0.16613000  0.81998000  1.0
  O  O95  1  0.44952000  0.33387000  0.31998000  1.0
  O  O96  1  0.46524000  0.64042000  0.25438000  1.0
  O  O97  1  0.53474000  0.85956000  0.75438000  1.0
  O  O98  1  0.53474000  0.35956000  0.74561000  1.0
  O  O99  1  0.46526000  0.14045000  0.24561000  1.0
  O  O100  1  0.16966000  0.63610000  0.31872000  1.0
  O  O101  1  0.83033000  0.86389000  0.81872000  1.0
  O  O102  1  0.83036000  0.36390000  0.68128000  1.0
  O  O103  1  0.16964000  0.13610000  0.18128000  1.0
  O  O104  1  0.09693000  0.77565000  0.23667000  1.0
  O  O105  1  0.90305000  0.72434000  0.73667000  1.0
  O  O106  1  0.90305000  0.22433000  0.76333000  1.0
  O  O107  1  0.09694000  0.27566000  0.26333000  1.0
  O  O108  1  0.58506000  0.27503000  0.11779000  1.0
  O  O109  1  0.41495000  0.22496000  0.61779000  1.0
  O  O110  1  0.41494000  0.72496000  0.88221000  1.0
  O  O111  1  0.58506000  0.77503000  0.38220000  1.0
