# generated using pymatgen
data_FeH7C10N3O5
_symmetry_space_group_name_H-M   'P 1'
_cell_length_a   7.53151000
_cell_length_b   10.07180000
_cell_length_c   15.79860000
_cell_angle_alpha   89.99940000
_cell_angle_beta   89.98750000
_cell_angle_gamma   89.99960000
_symmetry_Int_Tables_number   1
_chemical_formula_structural   FeH7C10N3O5
_chemical_formula_sum   'Fe4 H28 C40 N12 O20'
_cell_volume   1198.41639938
_cell_formula_units_Z   4
loop_
 _symmetry_equiv_pos_site_id
 _symmetry_equiv_pos_as_xyz
  1  'x, y, z'
loop_
 _atom_site_type_symbol
 _atom_site_label
 _atom_site_symmetry_multiplicity
 _atom_site_fract_x
 _atom_site_fract_y
 _atom_site_fract_z
 _atom_site_occupancy
  Fe  Fe0  1  0.65250000  0.52244000  0.90592000  1.0
  Fe  Fe1  1  0.34750000  0.47760000  0.40601000  1.0
  Fe  Fe2  1  0.15250000  0.97755000  0.90592000  1.0
  Fe  Fe3  1  0.84750000  0.02241000  0.40600000  1.0
  H  H4  1  0.56317000  0.96530000  0.71567000  1.0
  H  H5  1  0.42541000  0.39395000  0.58394000  1.0
  H  H6  1  0.33472000  0.76301000  0.47532000  1.0
  H  H7  1  0.45304000  0.88035000  0.59944000  1.0
  H  H8  1  0.55809000  0.49576000  0.71309000  1.0
  H  H9  1  0.73673000  0.29210000  0.82952000  1.0
  H  H10  1  0.91960000  0.37689000  0.83394000  1.0
  H  H11  1  0.43682000  0.03470000  0.21560000  1.0
  H  H12  1  0.57461000  0.60605000  0.08383000  1.0
  H  H13  1  0.66526000  0.23698000  0.97520000  1.0
  H  H14  1  0.54693000  0.11963000  0.09934000  1.0
  H  H15  1  0.44193000  0.50422000  0.21301000  1.0
  H  H16  1  0.26330000  0.70789000  0.32951000  1.0
  H  H17  1  0.08043000  0.62311000  0.33392000  1.0
  H  H18  1  0.06316000  0.53472000  0.71567000  1.0
  H  H19  1  0.92541000  0.10606000  0.58393000  1.0
  H  H20  1  0.83470000  0.73700000  0.47532000  1.0
  H  H21  1  0.95302000  0.61967000  0.59945000  1.0
  H  H22  1  0.05809000  0.00426000  0.71308000  1.0
  H  H23  1  0.23672000  0.20790000  0.82952000  1.0
  H  H24  1  0.41960000  0.12312000  0.83394000  1.0
  H  H25  1  0.93682000  0.46530000  0.21560000  1.0
  H  H26  1  0.07457000  0.89393000  0.08384000  1.0
  H  H27  1  0.16526000  0.26300000  0.97521000  1.0
  H  H28  1  0.04694000  0.38035000  0.09935000  1.0
  H  H29  1  0.94191000  0.99577000  0.21302000  1.0
  H  H30  1  0.76330000  0.79212000  0.32951000  1.0
  H  H31  1  0.58044000  0.87692000  0.33393000  1.0
  C  C32  1  0.43400000  0.50124000  0.59071000  1.0
  C  C33  1  0.38305000  0.70713000  0.52971000  1.0
  C  C34  1  0.45005000  0.77211000  0.60010000  1.0
  C  C35  1  0.50690000  0.55821000  0.66234000  1.0
  C  C36  1  0.51742000  0.69732000  0.66816000  1.0
  C  C37  1  0.60286000  0.75834000  0.74015000  1.0
  C  C38  1  0.72947000  0.91705000  0.81824000  1.0
  C  C39  1  0.77366000  0.79174000  0.84961000  1.0
  C  C40  1  0.77335000  0.05675000  0.83902000  1.0
  C  C41  1  0.88384000  0.75036000  0.92272000  1.0
  C  C42  1  0.56602000  0.49874000  0.09061000  1.0
  C  C43  1  0.61691000  0.29286000  0.02960000  1.0
  C  C44  1  0.54993000  0.22788000  0.09999000  1.0
  C  C45  1  0.49310000  0.44177000  0.16225000  1.0
  C  C46  1  0.48256000  0.30267000  0.16808000  1.0
  C  C47  1  0.39714000  0.24166000  0.24010000  1.0
  C  C48  1  0.27052000  0.08295000  0.31820000  1.0
  C  C49  1  0.22636000  0.20824000  0.34960000  1.0
  C  C50  1  0.22666000  0.94323000  0.33900000  1.0
  C  C51  1  0.11618000  0.24959000  0.42274000  1.0
  C  C52  1  0.93399000  0.99877000  0.59071000  1.0
  C  C53  1  0.88304000  0.79287000  0.52971000  1.0
  C  C54  1  0.95004000  0.72790000  0.60010000  1.0
  C  C55  1  0.00689000  0.94181000  0.66234000  1.0
  C  C56  1  0.01741000  0.80270000  0.66816000  1.0
  C  C57  1  0.10285000  0.74168000  0.74016000  1.0
  C  C58  1  0.22947000  0.58296000  0.81823000  1.0
  C  C59  1  0.27366000  0.70826000  0.84961000  1.0
  C  C60  1  0.27335000  0.44326000  0.83902000  1.0
  C  C61  1  0.38385000  0.74962000  0.92272000  1.0
  C  C62  1  0.06600000  0.00124000  0.09062000  1.0
  C  C63  1  0.11690000  0.20712000  0.02960000  1.0
  C  C64  1  0.04992000  0.27211000  0.09999000  1.0
  C  C65  1  0.99309000  0.05821000  0.16226000  1.0
  C  C66  1  0.98256000  0.19732000  0.16808000  1.0
  C  C67  1  0.89713000  0.25833000  0.24011000  1.0
  C  C68  1  0.77052000  0.41705000  0.31820000  1.0
  C  C69  1  0.72636000  0.29175000  0.34960000  1.0
  C  C70  1  0.72665000  0.55677000  0.33900000  1.0
  C  C71  1  0.61617000  0.25041000  0.42274000  1.0
  N  N72  1  0.37696000  0.57332000  0.52344000  1.0
  N  N73  1  0.61940000  0.89221000  0.75088000  1.0
  N  N74  1  0.69129000  0.69513000  0.80210000  1.0
  N  N75  1  0.62302000  0.42666000  0.02332000  1.0
  N  N76  1  0.38058000  0.10778000  0.25083000  1.0
  N  N77  1  0.30872000  0.30486000  0.30207000  1.0
  N  N78  1  0.87695000  0.92668000  0.52344000  1.0
  N  N79  1  0.11940000  0.60780000  0.75089000  1.0
  N  N80  1  0.19130000  0.80488000  0.80210000  1.0
  N  N81  1  0.12302000  0.07331000  0.02334000  1.0
  N  N82  1  0.88058000  0.39221000  0.25083000  1.0
  N  N83  1  0.80872000  0.19513000  0.30208000  1.0
  O  O84  1  0.65325000  0.14271000  0.82177000  1.0
  O  O85  1  0.92495000  0.08577000  0.86825000  1.0
  O  O86  1  0.98974000  0.83319000  0.95625000  1.0
  O  O87  1  0.86941000  0.63066000  0.94778000  1.0
  O  O88  1  0.78790000  0.38483000  0.83456000  1.0
  O  O89  1  0.34677000  0.85727000  0.32171000  1.0
  O  O90  1  0.07511000  0.91421000  0.36831000  1.0
  O  O91  1  0.01023000  0.16677000  0.45626000  1.0
  O  O92  1  0.13064000  0.36927000  0.44785000  1.0
  O  O93  1  0.21214000  0.61516000  0.33461000  1.0
  O  O94  1  0.15323000  0.35729000  0.82177000  1.0
  O  O95  1  0.42492000  0.41424000  0.86825000  1.0
  O  O96  1  0.48974000  0.66681000  0.95624000  1.0
  O  O97  1  0.36943000  0.86935000  0.94778000  1.0
  O  O98  1  0.28789000  0.11518000  0.83457000  1.0
  O  O99  1  0.84677000  0.64273000  0.32170000  1.0
  O  O100  1  0.57511000  0.58580000  0.36830000  1.0
  O  O101  1  0.51026000  0.33322000  0.45627000  1.0
  O  O102  1  0.63062000  0.13070000  0.44785000  1.0
  O  O103  1  0.71214000  0.88484000  0.33462000  1.0
