# generated using pymatgen
data_LiAlH16C28(NO)4
_symmetry_space_group_name_H-M   'P 1'
_cell_length_a   6.90543000
_cell_length_b   6.90786000
_cell_length_c   13.66443350
_cell_angle_alpha   104.60049726
_cell_angle_beta   104.63115155
_cell_angle_gamma   90.03650000
_symmetry_Int_Tables_number   1
_chemical_formula_structural   LiAlH16C28(NO)4
_chemical_formula_sum   'Li1 Al1 H16 C28 N4 O4'
_cell_volume   608.87231155
_cell_formula_units_Z   1
loop_
 _symmetry_equiv_pos_site_id
 _symmetry_equiv_pos_as_xyz
  1  'x, y, z'
loop_
 _atom_site_type_symbol
 _atom_site_label
 _atom_site_symmetry_multiplicity
 _atom_site_fract_x
 _atom_site_fract_y
 _atom_site_fract_z
 _atom_site_occupancy
  Li  Li0  1  0.00016000  0.00005000  0.00001000  1.0
  Al  Al1  1  0.74965000  0.24998000  0.50001000  1.0
  H  H2  1  0.41931000  0.05776000  0.21975000  1.0
  H  H3  1  0.80243000  0.16189000  0.21963000  1.0
  H  H4  1  0.94271000  0.19919000  0.78051000  1.0
  H  H5  1  0.83808000  0.58149000  0.77995000  1.0
  H  H6  1  0.31190000  0.72518000  0.09380000  1.0
  H  H7  1  0.78415000  0.36892000  0.09391000  1.0
  H  H8  1  0.27540000  0.21740000  0.90616000  1.0
  H  H9  1  0.63182000  0.68870000  0.90608000  1.0
  H  H10  1  0.39586000  0.45158000  0.35245000  1.0
  H  H11  1  0.95463000  0.90079000  0.35266000  1.0
  H  H12  1  0.54830000  0.04451000  0.64732000  1.0
  H  H13  1  0.09893000  0.60284000  0.64783000  1.0
  H  H14  1  0.50607000  0.78508000  0.47756000  1.0
  H  H15  1  0.96900000  0.69195000  0.47766000  1.0
  H  H16  1  0.21427000  0.03000000  0.52232000  1.0
  H  H17  1  0.30679000  0.49278000  0.52243000  1.0
  C  C18  1  0.46691000  0.94404000  0.35693000  1.0
  C  C19  1  0.88996000  0.41246000  0.35697000  1.0
  C  C20  1  0.05570000  0.11020000  0.64310000  1.0
  C  C21  1  0.58694000  0.53318000  0.64286000  1.0
  C  C22  1  0.41356000  0.92463000  0.24806000  1.0
  C  C23  1  0.83584000  0.32331000  0.24809000  1.0
  C  C24  1  0.07557000  0.16518000  0.75201000  1.0
  C  C25  1  0.67659000  0.58711000  0.75172000  1.0
  C  C26  1  0.35442000  0.73889000  0.17781000  1.0
  C  C27  1  0.82470000  0.43905000  0.17792000  1.0
  C  C28  1  0.26147000  0.17623000  0.82215000  1.0
  C  C29  1  0.56128000  0.64594000  0.82211000  1.0
  C  C30  1  0.34624000  0.56720000  0.21511000  1.0
  C  C31  1  0.86899000  0.64809000  0.21531000  1.0
  C  C32  1  0.43303000  0.13114000  0.78470000  1.0
  C  C33  1  0.35214000  0.65342000  0.78498000  1.0
  C  C34  1  0.40084000  0.58482000  0.32382000  1.0
  C  C35  1  0.92185000  0.73890000  0.32401000  1.0
  C  C36  1  0.41504000  0.07769000  0.67599000  1.0
  C  C37  1  0.26090000  0.59838000  0.67630000  1.0
  C  C38  1  0.46047000  0.77115000  0.39360000  1.0
  C  C39  1  0.93191000  0.62208000  0.39373000  1.0
  C  C40  1  0.22848000  0.06771000  0.60629000  1.0
  C  C41  1  0.37724000  0.53891000  0.60635000  1.0
  C  C42  1  0.27568000  0.37958000  0.14353000  1.0
  C  C43  1  0.86821000  0.76435000  0.14381000  1.0
  C  C44  1  0.62082000  0.13209000  0.85621000  1.0
  C  C45  1  0.23606000  0.72415000  0.85656000  1.0
  N  N46  1  0.21174000  0.22513000  0.08466000  1.0
  N  N47  1  0.87355000  0.85978000  0.08486000  1.0
  N  N48  1  0.77524000  0.12710000  0.91517000  1.0
  N  N49  1  0.14043000  0.78831000  0.91538000  1.0
  O  O50  1  0.51908000  0.12554000  0.42369000  1.0
  O  O51  1  0.90410000  0.29737000  0.42360000  1.0
  O  O52  1  0.87394000  0.09604000  0.57653000  1.0
  O  O53  1  0.70161000  0.48075000  0.57604000  1.0
