# generated using pymatgen
data_CdH24C24(N2O3)2
_symmetry_space_group_name_H-M   'P 1'
_cell_length_a   10.09710000
_cell_length_b   10.12780000
_cell_length_c   13.65670000
_cell_angle_alpha   109.50500000
_cell_angle_beta   104.78500000
_cell_angle_gamma   94.71040000
_symmetry_Int_Tables_number   1
_chemical_formula_structural   CdH24C24(N2O3)2
_chemical_formula_sum   'Cd2 H48 C48 N8 O12'
_cell_volume   1251.18794676
_cell_formula_units_Z   2
loop_
 _symmetry_equiv_pos_site_id
 _symmetry_equiv_pos_as_xyz
  1  'x, y, z'
loop_
 _atom_site_type_symbol
 _atom_site_label
 _atom_site_symmetry_multiplicity
 _atom_site_fract_x
 _atom_site_fract_y
 _atom_site_fract_z
 _atom_site_occupancy
  Cd  Cd0  1  0.41783000  0.14904000  0.60111000  1.0
  Cd  Cd1  1  0.58217000  0.85096000  0.39889000  1.0
  H  H2  1  0.12349000  0.76525000  0.61416000  1.0
  H  H3  1  0.87651000  0.23475000  0.38584000  1.0
  H  H4  1  0.99628000  0.83952000  0.54032000  1.0
  H  H5  1  0.00372000  0.16048000  0.45968000  1.0
  H  H6  1  0.05203000  0.91108000  0.68437000  1.0
  H  H7  1  0.94797000  0.08892000  0.31564000  1.0
  H  H8  1  0.90729000  0.26595000  0.66780000  1.0
  H  H9  1  0.09271000  0.73405000  0.33220000  1.0
  H  H10  1  0.90887000  0.08098000  0.59823000  1.0
  H  H11  1  0.09113000  0.91902000  0.40177000  1.0
  H  H12  1  0.90817000  0.14566000  0.73521000  1.0
  H  H13  1  0.09183000  0.85433000  0.26479000  1.0
  H  H14  1  0.40426000  0.80597000  0.63584000  1.0
  H  H15  1  0.59573000  0.19403000  0.36416000  1.0
  H  H16  1  0.49901000  0.47937000  0.68985000  1.0
  H  H17  1  0.50098000  0.52063000  0.31015000  1.0
  H  H18  1  0.22311000  0.20138000  0.39794000  1.0
  H  H19  1  0.77689000  0.79862000  0.60206000  1.0
  H  H20  1  0.15614000  0.40563000  0.33920000  1.0
  H  H21  1  0.84385000  0.59437000  0.66080000  1.0
  H  H22  1  0.27156000  0.65417000  0.46359000  1.0
  H  H23  1  0.72844000  0.34583000  0.53641000  1.0
  H  H24  1  0.71168000  0.96634000  0.83328000  1.0
  H  H25  1  0.28832000  0.03366000  0.16671000  1.0
  H  H26  1  0.55060000  0.98805000  0.75473000  1.0
  H  H27  1  0.44940000  0.01194000  0.24526000  1.0
  H  H28  1  0.75369000  0.02715000  0.02245000  1.0
  H  H29  1  0.24631000  0.97285000  0.97755000  1.0
  H  H30  1  0.32991000  0.92122000  0.81537000  1.0
  H  H31  1  0.67008000  0.07878000  0.18462000  1.0
  H  H32  1  0.30984000  0.29823000  0.07949000  1.0
  H  H33  1  0.69017000  0.70177000  0.92051000  1.0
  H  H34  1  0.25889000  0.24792000  0.78911000  1.0
  H  H35  1  0.74111000  0.75208000  0.21089000  1.0
  H  H36  1  0.68115000  0.30533000  0.82249000  1.0
  H  H37  1  0.31885000  0.69467000  0.17751000  1.0
  H  H38  1  0.74346000  0.37033000  0.02603000  1.0
  H  H39  1  0.25655000  0.62966000  0.97397000  1.0
  H  H40  1  0.55112000  0.37126000  0.11075000  1.0
  H  H41  1  0.44888000  0.62874000  0.88925000  1.0
  H  H42  1  0.10439000  0.36715000  0.11924000  1.0
  H  H43  1  0.89561000  0.63286000  0.88076000  1.0
  H  H44  1  0.95952000  0.34133000  0.00494000  1.0
  H  H45  1  0.04049000  0.65868000  0.99506000  1.0
  H  H46  1  0.05437000  0.18403000  0.18536000  1.0
  H  H47  1  0.94562000  0.81598000  0.81464000  1.0
  H  H48  1  0.99500000  0.07082000  0.84245000  1.0
  H  H49  1  0.00499000  0.92919000  0.15754000  1.0
  C  C50  1  0.19823000  0.97128000  0.61097000  1.0
  C  C51  1  0.80177000  0.02872000  0.38903000  1.0
  C  C52  1  0.08666000  0.86348000  0.61241000  1.0
  C  C53  1  0.91334000  0.13652000  0.38759000  1.0
  C  C54  1  0.71075000  0.12417000  0.62369000  1.0
  C  C55  1  0.28925000  0.87583000  0.37632000  1.0
  C  C56  1  0.86755000  0.15619000  0.65607000  1.0
  C  C57  1  0.13245000  0.84380000  0.34393000  1.0
  C  C58  1  0.39149000  0.58716000  0.58839000  1.0
  C  C59  1  0.60851000  0.41284000  0.41161000  1.0
  C  C60  1  0.42193000  0.46779000  0.61427000  1.0
  C  C61  1  0.57806000  0.53221000  0.38573000  1.0
  C  C62  1  0.26600000  0.31261000  0.44974000  1.0
  C  C63  1  0.73400000  0.68739000  0.55026000  1.0
  C  C64  1  0.23027000  0.42565000  0.41840000  1.0
  C  C65  1  0.76972000  0.57435000  0.58160000  1.0
  C  C66  1  0.29310000  0.56415000  0.48803000  1.0
  C  C67  1  0.70689000  0.43585000  0.51197000  1.0
  C  C68  1  0.56343000  0.77380000  0.74819000  1.0
  C  C69  1  0.43656000  0.22620000  0.25180000  1.0
  C  C70  1  0.59813000  0.93403000  0.80850000  1.0
  C  C71  1  0.40186000  0.06597000  0.19149000  1.0
  C  C72  1  0.54776000  0.97057000  0.90780000  1.0
  C  C73  1  0.45224000  0.02943000  0.09219000  1.0
  C  C74  1  0.64222000  0.01524000  0.01241000  1.0
  C  C75  1  0.35778000  0.98476000  0.98758000  1.0
  C  C76  1  0.40480000  0.95547000  0.89644000  1.0
  C  C77  1  0.59520000  0.04453000  0.10355000  1.0
  C  C78  1  0.38985000  0.31160000  0.95703000  1.0
  C  C79  1  0.61016000  0.68840000  0.04298000  1.0
  C  C80  1  0.36452000  0.27591000  0.84434000  1.0
  C  C81  1  0.63548000  0.72409000  0.15565000  1.0
  C  C82  1  0.60160000  0.30714000  0.86370000  1.0
  C  C83  1  0.39841000  0.69286000  0.13630000  1.0
  C  C84  1  0.63500000  0.34205000  0.97579000  1.0
  C  C85  1  0.36501000  0.65795000  0.02421000  1.0
  C  C86  1  0.52840000  0.34374000  0.02315000  1.0
  C  C87  1  0.47160000  0.65626000  0.97685000  1.0
  C  C88  1  0.15007000  0.32997000  0.96673000  1.0
  C  C89  1  0.84993000  0.67003000  0.03327000  1.0
  C  C90  1  0.05577000  0.30322000  0.03218000  1.0
  C  C91  1  0.94424000  0.69679000  0.96783000  1.0
  C  C92  1  0.02650000  0.14697000  0.01579000  1.0
  C  C93  1  0.97351000  0.85304000  0.98421000  1.0
  C  C94  1  0.03004000  0.10367000  0.10354000  1.0
  C  C95  1  0.96996000  0.89634000  0.89646000  1.0
  C  C96  1  0.99642000  0.04048000  0.91213000  1.0
  C  C97  1  0.00358000  0.95953000  0.08787000  1.0
  N  N98  1  0.35939000  0.33493000  0.54600000  1.0
  N  N99  1  0.64061000  0.66507000  0.45400000  1.0
  N  N100  1  0.45256000  0.72780000  0.65667000  1.0
  N  N101  1  0.54744000  0.27220000  0.34333000  1.0
  N  N102  1  0.46849000  0.27288000  0.79927000  1.0
  N  N103  1  0.53151000  0.72712000  0.20073000  1.0
  N  N104  1  0.28310000  0.31004000  0.00484000  1.0
  N  N105  1  0.71690000  0.68996000  0.99516000  1.0
  O  O106  1  0.16929000  0.08644000  0.60231000  1.0
  O  O107  1  0.83071000  0.91356000  0.39769000  1.0
  O  O108  1  0.32171000  0.94180000  0.61757000  1.0
  O  O109  1  0.67829000  0.05820000  0.38243000  1.0
  O  O110  1  0.64671000  0.99579000  0.58934000  1.0
  O  O111  1  0.35330000  0.00420000  0.41066000  1.0
  O  O112  1  0.64777000  0.23054000  0.63689000  1.0
  O  O113  1  0.35222000  0.76945000  0.36311000  1.0
  O  O114  1  0.63022000  0.69206000  0.78332000  1.0
  O  O115  1  0.36978000  0.30794000  0.21668000  1.0
  O  O116  1  0.10731000  0.36238000  0.88601000  1.0
  O  O117  1  0.89269000  0.63763000  0.11399000  1.0
