# generated using pymatgen
data_ZnH18C22(N2O3)2
_symmetry_space_group_name_H-M   'P 1'
_cell_length_a   8.16675000
_cell_length_b   8.83025000
_cell_length_c   14.50870000
_cell_angle_alpha   89.99980000
_cell_angle_beta   95.03890000
_cell_angle_gamma   89.99910000
_symmetry_Int_Tables_number   1
_chemical_formula_structural   ZnH18C22(N2O3)2
_chemical_formula_sum   'Zn2 H36 C44 N8 O12'
_cell_volume   1042.24324688
_cell_formula_units_Z   2
loop_
 _symmetry_equiv_pos_site_id
 _symmetry_equiv_pos_as_xyz
  1  'x, y, z'
loop_
 _atom_site_type_symbol
 _atom_site_label
 _atom_site_symmetry_multiplicity
 _atom_site_fract_x
 _atom_site_fract_y
 _atom_site_fract_z
 _atom_site_occupancy
  Zn  Zn0  1  0.00000000  0.00000000  0.00000000  1.0
  Zn  Zn1  1  0.00000000  0.49999000  0.50000000  1.0
  H  H2  1  0.01677000  0.77379000  0.16317000  1.0
  H  H3  1  0.98323000  0.27380000  0.33683000  1.0
  H  H4  1  0.98323000  0.22621000  0.83683000  1.0
  H  H5  1  0.01675000  0.72619000  0.66316000  1.0
  H  H6  1  0.26231000  0.38323000  0.09590000  1.0
  H  H7  1  0.73769000  0.88323000  0.40411000  1.0
  H  H8  1  0.73768000  0.61678000  0.90411000  1.0
  H  H9  1  0.26230000  0.11677000  0.59589000  1.0
  H  H10  1  0.13904000  0.73369000  0.89364000  1.0
  H  H11  1  0.86095000  0.23370000  0.60637000  1.0
  H  H12  1  0.86096000  0.26630000  0.10636000  1.0
  H  H13  1  0.13906000  0.76630000  0.39363000  1.0
  H  H14  1  0.45780000  0.33300000  0.01221000  1.0
  H  H15  1  0.54221000  0.83301000  0.48779000  1.0
  H  H16  1  0.54221000  0.66701000  0.98779000  1.0
  H  H17  1  0.45778000  0.16700000  0.51221000  1.0
  H  H18  1  0.59038000  0.18493000  0.89639000  1.0
  H  H19  1  0.40963000  0.68494000  0.60361000  1.0
  H  H20  1  0.40963000  0.81508000  0.10361000  1.0
  H  H21  1  0.59036000  0.31507000  0.39639000  1.0
  H  H22  1  0.51281000  0.22580000  0.72775000  1.0
  H  H23  1  0.48720000  0.72581000  0.77225000  1.0
  H  H24  1  0.48719000  0.77421000  0.27225000  1.0
  H  H25  1  0.51281000  0.27420000  0.22775000  1.0
  H  H26  1  0.13926000  0.53918000  0.79384000  1.0
  H  H27  1  0.86074000  0.03919000  0.70616000  1.0
  H  H28  1  0.86073000  0.46081000  0.20617000  1.0
  H  H29  1  0.13927000  0.96082000  0.29383000  1.0
  H  H30  1  0.69911000  0.92980000  0.00720000  1.0
  H  H31  1  0.30089000  0.42980000  0.49280000  1.0
  H  H32  1  0.30090000  0.07019000  0.99279000  1.0
  H  H33  1  0.69911000  0.57020000  0.50720000  1.0
  H  H34  1  0.71415000  0.01752000  0.10494000  1.0
  H  H35  1  0.28586000  0.51751000  0.39506000  1.0
  H  H36  1  0.28585000  0.98248000  0.89505000  1.0
  H  H37  1  0.71414000  0.48249000  0.60495000  1.0
  C  C38  1  0.07447000  0.70590000  0.11225000  1.0
  C  C39  1  0.92552000  0.20590000  0.38775000  1.0
  C  C40  1  0.92552000  0.29411000  0.88775000  1.0
  C  C41  1  0.07447000  0.79409000  0.61224000  1.0
  C  C42  1  0.20904000  0.49225000  0.07400000  1.0
  C  C43  1  0.79096000  0.99226000  0.42600000  1.0
  C  C44  1  0.79096000  0.50775000  0.92601000  1.0
  C  C45  1  0.20903000  0.00772000  0.57399000  1.0
  C  C46  1  0.21430000  0.54157000  0.98205000  1.0
  C  C47  1  0.78570000  0.04157000  0.51795000  1.0
  C  C48  1  0.78570000  0.45842000  0.01796000  1.0
  C  C49  1  0.21430000  0.95842000  0.48203000  1.0
  C  C50  1  0.14186000  0.68305000  0.96240000  1.0
  C  C51  1  0.85813000  0.18306000  0.53760000  1.0
  C  C52  1  0.85813000  0.31694000  0.03761000  1.0
  C  C53  1  0.14187000  0.81694000  0.46238000  1.0
  C  C54  1  0.29340000  0.45308000  0.91219000  1.0
  C  C55  1  0.70660000  0.95309000  0.58781000  1.0
  C  C56  1  0.70659000  0.54692000  0.08782000  1.0
  C  C57  1  0.29340000  0.04691000  0.41218000  1.0
  C  C58  1  0.41959000  0.35009000  0.93926000  1.0
  C  C59  1  0.58042000  0.85010000  0.56075000  1.0
  C  C60  1  0.58042000  0.64991000  0.06075000  1.0
  C  C61  1  0.41958000  0.14991000  0.43925000  1.0
  C  C62  1  0.49598000  0.26713000  0.87360000  1.0
  C  C63  1  0.50402000  0.76714000  0.62641000  1.0
  C  C64  1  0.50402000  0.73287000  0.12641000  1.0
  C  C65  1  0.49597000  0.23287000  0.37359000  1.0
  C  C66  1  0.45140000  0.28802000  0.77970000  1.0
  C  C67  1  0.54861000  0.78803000  0.72030000  1.0
  C  C68  1  0.54860000  0.71198000  0.22030000  1.0
  C  C69  1  0.45140000  0.21199000  0.27970000  1.0
  C  C70  1  0.32339000  0.38795000  0.75148000  1.0
  C  C71  1  0.67660000  0.88795000  0.74852000  1.0
  C  C72  1  0.67660000  0.61205000  0.24852000  1.0
  C  C73  1  0.32340000  0.11206000  0.25148000  1.0
  C  C74  1  0.24398000  0.46846000  0.81747000  1.0
  C  C75  1  0.75602000  0.96847000  0.68253000  1.0
  C  C76  1  0.75601000  0.53153000  0.18253000  1.0
  C  C77  1  0.24399000  0.03153000  0.31747000  1.0
  C  C78  1  0.27043000  0.40785000  0.65046000  1.0
  C  C79  1  0.72957000  0.90786000  0.84955000  1.0
  C  C80  1  0.72956000  0.59215000  0.34954000  1.0
  C  C81  1  0.27045000  0.09215000  0.15045000  1.0
  N  N82  1  0.07394000  0.76515000  0.02689000  1.0
  N  N83  1  0.92606000  0.26515000  0.47311000  1.0
  N  N84  1  0.92606000  0.23485000  0.97312000  1.0
  N  N85  1  0.07395000  0.73484000  0.52687000  1.0
  N  N86  1  0.13942000  0.57227000  0.13851000  1.0
  N  N87  1  0.86057000  0.07227000  0.36150000  1.0
  N  N88  1  0.86057000  0.42773000  0.86150000  1.0
  N  N89  1  0.13941000  0.92772000  0.63850000  1.0
  O  O90  1  0.77620000  0.95760000  0.06383000  1.0
  O  O91  1  0.22381000  0.45759000  0.43617000  1.0
  O  O92  1  0.22381000  0.04240000  0.93617000  1.0
  O  O93  1  0.77620000  0.54240000  0.56383000  1.0
  O  O94  1  0.11967000  0.44260000  0.62962000  1.0
  O  O95  1  0.88034000  0.94261000  0.87038000  1.0
  O  O96  1  0.88032000  0.55740000  0.37038000  1.0
  O  O97  1  0.11969000  0.05740000  0.12961000  1.0
  O  O98  1  0.37888000  0.38898000  0.59357000  1.0
  O  O99  1  0.62114000  0.88897000  0.90643000  1.0
  O  O100  1  0.62112000  0.61102000  0.40643000  1.0
  O  O101  1  0.37889000  0.11101000  0.09357000  1.0
