# generated using pymatgen
data_CuMoAsH12C12N2O6F
_symmetry_space_group_name_H-M   'P 1'
_cell_length_a   8.43040000
_cell_length_b   10.58290000
_cell_length_c   17.25430000
_cell_angle_alpha   90.00000000
_cell_angle_beta   103.04300000
_cell_angle_gamma   89.99980000
_symmetry_Int_Tables_number   1
_chemical_formula_structural   CuMoAsH12C12N2O6F
_chemical_formula_sum   'Cu4 Mo4 As4 H48 C48 N8 O24 F4'
_cell_volume   1499.68060394
_cell_formula_units_Z   4
loop_
 _symmetry_equiv_pos_site_id
 _symmetry_equiv_pos_as_xyz
  1  'x, y, z'
loop_
 _atom_site_type_symbol
 _atom_site_label
 _atom_site_symmetry_multiplicity
 _atom_site_fract_x
 _atom_site_fract_y
 _atom_site_fract_z
 _atom_site_occupancy
  Cu  Cu0  1  0.89788000  0.76235000  0.50810000  1.0
  Cu  Cu1  1  0.10212000  0.26236000  0.99190000  1.0
  Cu  Cu2  1  0.10213000  0.23764000  0.49190000  1.0
  Cu  Cu3  1  0.89788000  0.73765000  0.00810000  1.0
  Mo  Mo4  1  0.38483000  0.01136000  0.39821000  1.0
  Mo  Mo5  1  0.61517000  0.51137000  0.10179000  1.0
  Mo  Mo6  1  0.61518000  0.98863000  0.60179000  1.0
  Mo  Mo7  1  0.38482000  0.48864000  0.89821000  1.0
  As  As8  1  0.79024000  0.05221000  0.45103000  1.0
  As  As9  1  0.20976000  0.55221000  0.04897000  1.0
  As  As10  1  0.20976000  0.94779000  0.54897000  1.0
  As  As11  1  0.79024000  0.44780000  0.95103000  1.0
  H  H12  1  0.64439000  0.79288000  0.35601000  1.0
  H  H13  1  0.35561000  0.29288000  0.14398000  1.0
  H  H14  1  0.35560000  0.20711000  0.64399000  1.0
  H  H15  1  0.64439000  0.70712000  0.85602000  1.0
  H  H16  1  0.44283000  0.64868000  0.26953000  1.0
  H  H17  1  0.55717000  0.14868000  0.23047000  1.0
  H  H18  1  0.55716000  0.35132000  0.73047000  1.0
  H  H19  1  0.44282000  0.85132000  0.76953000  1.0
  H  H20  1  0.59611000  0.35583000  0.44407000  1.0
  H  H21  1  0.40389000  0.85584000  0.05593000  1.0
  H  H22  1  0.40389000  0.64416000  0.55593000  1.0
  H  H23  1  0.59611000  0.14417000  0.94407000  1.0
  H  H24  1  0.75786000  0.31497000  0.55817000  1.0
  H  H25  1  0.24214000  0.81497000  0.94182000  1.0
  H  H26  1  0.24215000  0.68502000  0.44182000  1.0
  H  H27  1  0.75786000  0.18504000  0.05818000  1.0
  H  H28  1  0.15259000  0.46872000  0.73664000  1.0
  H  H29  1  0.84740000  0.96872000  0.76336000  1.0
  H  H30  1  0.84742000  0.53127000  0.26335000  1.0
  H  H31  1  0.15259000  0.03128000  0.23665000  1.0
  H  H32  1  0.12268000  0.67057000  0.65818000  1.0
  H  H33  1  0.87731000  0.17058000  0.84183000  1.0
  H  H34  1  0.87732000  0.32942000  0.34182000  1.0
  H  H35  1  0.12268000  0.82943000  0.15818000  1.0
  H  H36  1  0.27459000  0.39202000  0.32474000  1.0
  H  H37  1  0.72541000  0.89202000  0.17526000  1.0
  H  H38  1  0.72540000  0.60797000  0.67526000  1.0
  H  H39  1  0.27458000  0.10798000  0.82474000  1.0
  H  H40  1  0.43623000  0.30541000  0.30277000  1.0
  H  H41  1  0.56377000  0.80541000  0.19722000  1.0
  H  H42  1  0.56376000  0.69459000  0.69722000  1.0
  H  H43  1  0.43623000  0.19460000  0.80278000  1.0
  H  H44  1  0.34802000  0.43389000  0.23948000  1.0
  H  H45  1  0.65198000  0.93389000  0.26051000  1.0
  H  H46  1  0.65197000  0.56611000  0.76052000  1.0
  H  H47  1  0.34802000  0.06611000  0.73949000  1.0
  H  H48  1  0.02079000  0.17944000  0.66136000  1.0
  H  H49  1  0.97920000  0.67945000  0.83864000  1.0
  H  H50  1  0.97922000  0.82055000  0.33864000  1.0
  H  H51  1  0.02080000  0.32056000  0.16136000  1.0
  H  H52  1  0.85601000  0.21786000  0.70354000  1.0
  H  H53  1  0.14399000  0.71786000  0.79647000  1.0
  H  H54  1  0.14401000  0.78213000  0.29647000  1.0
  H  H55  1  0.85601000  0.28214000  0.20354000  1.0
  H  H56  1  0.05893000  0.26145000  0.75459000  1.0
  H  H57  1  0.94107000  0.76146000  0.74541000  1.0
  H  H58  1  0.94109000  0.73854000  0.24541000  1.0
  H  H59  1  0.05893000  0.23855000  0.25459000  1.0
  C  C60  1  0.62833000  0.69563000  0.37275000  1.0
  C  C61  1  0.37167000  0.19564000  0.12725000  1.0
  C  C62  1  0.37167000  0.30436000  0.62725000  1.0
  C  C63  1  0.62832000  0.80437000  0.87275000  1.0
  C  C64  1  0.51703000  0.61475000  0.32574000  1.0
  C  C65  1  0.48297000  0.11475000  0.17426000  1.0
  C  C66  1  0.48297000  0.38524000  0.67426000  1.0
  C  C67  1  0.51702000  0.88525000  0.82574000  1.0
  C  C68  1  0.50252000  0.49012000  0.35044000  1.0
  C  C69  1  0.49747000  0.99012000  0.14955000  1.0
  C  C70  1  0.49747000  0.50988000  0.64956000  1.0
  C  C71  1  0.50252000  0.00989000  0.85045000  1.0
  C  C72  1  0.60250000  0.45255000  0.42323000  1.0
  C  C73  1  0.39749000  0.95255000  0.07677000  1.0
  C  C74  1  0.39749000  0.54744000  0.57677000  1.0
  C  C75  1  0.60251000  0.04746000  0.92323000  1.0
  C  C76  1  0.71259000  0.53793000  0.46753000  1.0
  C  C77  1  0.28740000  0.03794000  0.03247000  1.0
  C  C78  1  0.28740000  0.46206000  0.53247000  1.0
  C  C79  1  0.71259000  0.96207000  0.96753000  1.0
  C  C80  1  0.82848000  0.50820000  0.54275000  1.0
  C  C81  1  0.17151000  0.00820000  0.95725000  1.0
  C  C82  1  0.17152000  0.49179000  0.45725000  1.0
  C  C83  1  0.82849000  0.99181000  0.04275000  1.0
  C  C84  1  0.83951000  0.39244000  0.58206000  1.0
  C  C85  1  0.16048000  0.89245000  0.91794000  1.0
  C  C86  1  0.16049000  0.60755000  0.41794000  1.0
  C  C87  1  0.83951000  0.10756000  0.08206000  1.0
  C  C88  1  0.95708000  0.37499000  0.65322000  1.0
  C  C89  1  0.04292000  0.87499000  0.84678000  1.0
  C  C90  1  0.04293000  0.62500000  0.34678000  1.0
  C  C91  1  0.95708000  0.12501000  0.15322000  1.0
  C  C92  1  0.05959000  0.47690000  0.68177000  1.0
  C  C93  1  0.94040000  0.97691000  0.81824000  1.0
  C  C94  1  0.94042000  0.52309000  0.31823000  1.0
  C  C95  1  0.05959000  0.02310000  0.18177000  1.0
  C  C96  1  0.04405000  0.58946000  0.63941000  1.0
  C  C97  1  0.95594000  0.08946000  0.86059000  1.0
  C  C98  1  0.95595000  0.41053000  0.36059000  1.0
  C  C99  1  0.04406000  0.91055000  0.13941000  1.0
  C  C100  1  0.38466000  0.40068000  0.30108000  1.0
  C  C101  1  0.61534000  0.90069000  0.19892000  1.0
  C  C102  1  0.61533000  0.59931000  0.69892000  1.0
  C  C103  1  0.38466000  0.09932000  0.80108000  1.0
  C  C104  1  0.97479000  0.25213000  0.69640000  1.0
  C  C105  1  0.02521000  0.75214000  0.80360000  1.0
  C  C106  1  0.02523000  0.74786000  0.30360000  1.0
  C  C107  1  0.97479000  0.24787000  0.19640000  1.0
  N  N108  1  0.72393000  0.65801000  0.44172000  1.0
  N  N109  1  0.27606000  0.15801000  0.05828000  1.0
  N  N110  1  0.27607000  0.34198000  0.55828000  1.0
  N  N111  1  0.72393000  0.84199000  0.94172000  1.0
  N  N112  1  0.93064000  0.60479000  0.57189000  1.0
  N  N113  1  0.06936000  0.10479000  0.92811000  1.0
  N  N114  1  0.06936000  0.39520000  0.42811000  1.0
  N  N115  1  0.93064000  0.89521000  0.07189000  1.0
  O  O116  1  0.59806000  0.08085000  0.38878000  1.0
  O  O117  1  0.40195000  0.58085000  0.11123000  1.0
  O  O118  1  0.40195000  0.91915000  0.61123000  1.0
  O  O119  1  0.59805000  0.41916000  0.88877000  1.0
  O  O120  1  0.35703000  0.90975000  0.31883000  1.0
  O  O121  1  0.64297000  0.40975000  0.18117000  1.0
  O  O122  1  0.64298000  0.09026000  0.68117000  1.0
  O  O123  1  0.35702000  0.59026000  0.81883000  1.0
  O  O124  1  0.26766000  0.14071000  0.36324000  1.0
  O  O125  1  0.73235000  0.64071000  0.13677000  1.0
  O  O126  1  0.73235000  0.85930000  0.63677000  1.0
  O  O127  1  0.26766000  0.35930000  0.86324000  1.0
  O  O128  1  0.76893000  0.07541000  0.54836000  1.0
  O  O129  1  0.23107000  0.57542000  0.95164000  1.0
  O  O130  1  0.23108000  0.92458000  0.45164000  1.0
  O  O131  1  0.76893000  0.42459000  0.04836000  1.0
  O  O132  1  0.86088000  0.90576000  0.43533000  1.0
  O  O133  1  0.13912000  0.40576000  0.06466000  1.0
  O  O134  1  0.13913000  0.09424000  0.56466000  1.0
  O  O135  1  0.86088000  0.59425000  0.93533000  1.0
  O  O136  1  0.90542000  0.17000000  0.42542000  1.0
  O  O137  1  0.09459000  0.67001000  0.07458000  1.0
  O  O138  1  0.09459000  0.82999000  0.57458000  1.0
  O  O139  1  0.90542000  0.33000000  0.92542000  1.0
  F  F140  1  0.54931000  0.89374000  0.48348000  1.0
  F  F141  1  0.45070000  0.39375000  0.01652000  1.0
  F  F142  1  0.45070000  0.10625000  0.51652000  1.0
  F  F143  1  0.54930000  0.60626000  0.98348000  1.0
