# generated using pymatgen
data_Zn4H26C50I2O13
_symmetry_space_group_name_H-M   'P 1'
_cell_length_a   20.80350000
_cell_length_b   20.86196848
_cell_length_c   20.87240000
_cell_angle_alpha   112.15882915
_cell_angle_beta   112.04700000
_cell_angle_gamma   104.23613975
_symmetry_Int_Tables_number   1
_chemical_formula_structural   Zn4H26C50I2O13
_chemical_formula_sum   'Zn8 H52 C100 I4 O26'
_cell_volume   6938.77146732
_cell_formula_units_Z   2
loop_
 _symmetry_equiv_pos_site_id
 _symmetry_equiv_pos_as_xyz
  1  'x, y, z'
loop_
 _atom_site_type_symbol
 _atom_site_label
 _atom_site_symmetry_multiplicity
 _atom_site_fract_x
 _atom_site_fract_y
 _atom_site_fract_z
 _atom_site_occupancy
  Zn  Zn0  1  0.11767000  0.55103000  0.07749000  1.0
  Zn  Zn1  1  0.95977000  0.52643000  0.07747000  1.0
  Zn  Zn2  1  0.52581000  0.95909000  0.07673000  1.0
  Zn  Zn3  1  0.55086000  0.11761000  0.07669000  1.0
  Zn  Zn4  1  0.96237000  0.39164000  0.93667000  1.0
  Zn  Zn5  1  0.97429000  0.54500000  0.93666000  1.0
  Zn  Zn6  1  0.54547000  0.97382000  0.93702000  1.0
  Zn  Zn7  1  0.39153000  0.96319000  0.93705000  1.0
  H  H8  1  0.25259000  0.77081000  0.11623000  1.0
  H  H9  1  0.86346000  0.34549000  0.11623000  1.0
  H  H10  1  0.33259000  0.06274000  0.26975000  1.0
  H  H11  1  0.28747000  0.11399000  0.17960000  1.0
  H  H12  1  0.24585000  0.03637000  0.03396000  1.0
  H  H13  1  0.24677000  0.91085000  0.97880000  1.0
  H  H14  1  0.87963000  0.27826000  0.21456000  1.0
  H  H15  1  0.93711000  0.20725000  0.26995000  1.0
  H  H16  1  0.89211000  0.06583000  0.17994000  1.0
  H  H17  1  0.78815000  0.99770000  0.03429000  1.0
  H  H18  1  0.73205000  0.06794000  0.97892000  1.0
  H  H19  1  0.17500000  0.77018000  0.16086000  1.0
  H  H20  1  0.34577000  0.84814000  0.11783000  1.0
  H  H21  1  0.06532000  0.79137000  0.16820000  1.0
  H  H22  1  0.98481000  0.82410000  0.07401000  1.0
  H  H23  1  0.01670000  0.83628000  0.97406000  1.0
  H  H24  1  0.12582000  0.81614000  0.96740000  1.0
  H  H25  1  0.98574000  0.39095000  0.16100000  1.0
  H  H26  1  0.10288000  0.37729000  0.16856000  1.0
  H  H27  1  0.08947000  0.25043000  0.07460000  1.0
  H  H28  1  0.95774000  0.13817000  0.97461000  1.0
  H  H29  1  0.84181000  0.15144000  0.96771000  1.0
  H  H30  1  0.33486000  0.93641000  0.21456000  1.0
  H  H31  1  0.77193000  0.26966000  0.11780000  1.0
  H  H32  1  0.22573000  0.60560000  0.83245000  1.0
  H  H33  1  0.15788000  0.48150000  0.70410000  1.0
  H  H34  1  0.01286000  0.40983000  0.62400000  1.0
  H  H35  1  0.93749000  0.46641000  0.67598000  1.0
  H  H36  1  0.00630000  0.59106000  0.80570000  1.0
  H  H37  1  0.60682000  0.22679000  0.83227000  1.0
  H  H38  1  0.54649000  0.22239000  0.70381000  1.0
  H  H39  1  0.61150000  0.21378000  0.62380000  1.0
  H  H40  1  0.73886000  0.20919000  0.67598000  1.0
  H  H41  1  0.79961000  0.21443000  0.80583000  1.0
  H  H42  1  0.31159000  0.73478000  0.84436000  1.0
  H  H43  1  0.27744000  0.70182000  0.70641000  1.0
  H  H44  1  0.14964000  0.68487000  0.60987000  1.0
  H  H45  1  0.05724000  0.70319000  0.65612000  1.0
  H  H46  1  0.09201000  0.73666000  0.79519000  1.0
  H  H47  1  0.53280000  0.10940000  0.84415000  1.0
  H  H48  1  0.42918000  0.00436000  0.70614000  1.0
  H  H49  1  0.46065000  0.92476000  0.60982000  1.0
  H  H50  1  0.59934000  0.95271000  0.65639000  1.0
  H  H51  1  0.70346000  0.05839000  0.79546000  1.0
  H  H52  1  0.29924000  0.69548000  0.07613000  1.0
  H  H53  1  0.77669000  0.38059000  0.07596000  1.0
  H  H54  1  0.38410000  0.77524000  0.06797000  1.0
  H  H55  1  0.68368000  0.29264000  0.06780000  1.0
  H  H56  1  0.11018000  0.69738000  0.90537000  1.0
  H  H57  1  0.79533000  0.20799000  0.90550000  1.0
  H  H58  1  0.19674000  0.79955000  0.92911000  1.0
  H  H59  1  0.73248000  0.12957000  0.92922000  1.0
  C  C60  1  0.85739000  0.36216000  0.99747000  1.0
  C  C61  1  0.14004000  0.63532000  0.99748000  1.0
  C  C62  1  0.65927000  0.85241000  0.01314000  1.0
  C  C63  1  0.85214000  0.65821000  0.01303000  1.0
  C  C64  1  0.16090000  0.35485000  0.01311000  1.0
  C  C65  1  0.35383000  0.16071000  0.01313000  1.0
  C  C66  1  0.81444000  0.69508000  0.01282000  1.0
  C  C67  1  0.19837000  0.31775000  0.01291000  1.0
  C  C68  1  0.31667000  0.19811000  0.01288000  1.0
  C  C69  1  0.69618000  0.81476000  0.01287000  1.0
  C  C70  1  0.63674000  0.13996000  0.99816000  1.0
  C  C71  1  0.36143000  0.85820000  0.99821000  1.0
  C  C72  1  0.77372000  0.73584000  0.01277000  1.0
  C  C73  1  0.23903000  0.27693000  0.01284000  1.0
  C  C74  1  0.27625000  0.23915000  0.01287000  1.0
  C  C75  1  0.73656000  0.77369000  0.01283000  1.0
  C  C76  1  0.11575000  0.39718000  0.01157000  1.0
  C  C77  1  0.89576000  0.61435000  0.01151000  1.0
  C  C78  1  0.61486000  0.89544000  0.01136000  1.0
  C  C79  1  0.39645000  0.11590000  0.01136000  1.0
  C  C80  1  0.89338000  0.39336000  0.78680000  1.0
  C  C81  1  0.39405000  0.89405000  0.78813000  1.0
  C  C82  1  0.11389000  0.61393000  0.22790000  1.0
  C  C83  1  0.61330000  0.11330000  0.22653000  1.0
  C  C84  1  0.15746000  0.65752000  0.31507000  1.0
  C  C85  1  0.35047000  0.85045000  0.70095000  1.0
  C  C86  1  0.65687000  0.15688000  0.31367000  1.0
  C  C87  1  0.19466000  0.69470000  0.38942000  1.0
  C  C88  1  0.69405000  0.19403000  0.38802000  1.0
  C  C89  1  0.23527000  0.73530000  0.47061000  1.0
  C  C90  1  0.73465000  0.23463000  0.46926000  1.0
  C  C91  1  0.84975000  0.34974000  0.69959000  1.0
  C  C92  1  0.27268000  0.77269000  0.54542000  1.0
  C  C93  1  0.77203000  0.27200000  0.54405000  1.0
  C  C94  1  0.31328000  0.81328000  0.62661000  1.0
  C  C95  1  0.81261000  0.31259000  0.62526000  1.0
  C  C96  1  0.15828000  0.79017000  0.06289000  1.0
  C  C97  1  0.13998000  0.78445000  0.11947000  1.0
  C  C98  1  0.07812000  0.79626000  0.12362000  1.0
  C  C99  1  0.03325000  0.81478000  0.07116000  1.0
  C  C100  1  0.05102000  0.82135000  0.01502000  1.0
  C  C101  1  0.11273000  0.80915000  0.01090000  1.0
  C  C102  1  0.90466000  0.27293000  0.06310000  1.0
  C  C103  1  0.97948000  0.33531000  0.11971000  1.0
  C  C104  1  0.04556000  0.32776000  0.12399000  1.0
  C  C105  1  0.03813000  0.25682000  0.07165000  1.0
  C  C106  1  0.96428000  0.19404000  0.01549000  1.0
  C  C107  1  0.89835000  0.20199000  0.01122000  1.0
  C  C108  1  0.29000000  0.91274000  0.09216000  1.0
  C  C109  1  0.31466000  0.95798000  0.17439000  1.0
  C  C110  1  0.31346000  0.02933000  0.20576000  1.0
  C  C111  1  0.28833000  0.05805000  0.15542000  1.0
  C  C112  1  0.26481000  0.01456000  0.07402000  1.0
  C  C113  1  0.26520000  0.94250000  0.04252000  1.0
  C  C114  1  0.80216000  0.17949000  0.09221000  1.0
  C  C115  1  0.85972000  0.21654000  0.17447000  1.0
  C  C116  1  0.89229000  0.17662000  0.20594000  1.0
  C  C117  1  0.86706000  0.09754000  0.15567000  1.0
  C  C118  1  0.80925000  0.05960000  0.07427000  1.0
  C  C119  1  0.77733000  0.10009000  0.04266000  1.0
  C  C120  1  0.22475000  0.77324000  0.06140000  1.0
  C  C121  1  0.83659000  0.28823000  0.06144000  1.0
  C  C122  1  0.29148000  0.83454000  0.06645000  1.0
  C  C123  1  0.77491000  0.23192000  0.06645000  1.0
  C  C124  1  0.12123000  0.60686000  0.83041000  1.0
  C  C125  1  0.16255000  0.57513000  0.79975000  1.0
  C  C126  1  0.12405000  0.50482000  0.72631000  1.0
  C  C127  1  0.04300000  0.46477000  0.68149000  1.0
  C  C128  1  0.00085000  0.49626000  0.71052000  1.0
  C  C129  1  0.03980000  0.56662000  0.78393000  1.0
  C  C130  1  0.70932000  0.22342000  0.83039000  1.0
  C  C131  1  0.63737000  0.22454000  0.79965000  1.0
  C  C132  1  0.60254000  0.22133000  0.72614000  1.0
  C  C133  1  0.63880000  0.21639000  0.68134000  1.0
  C  C134  1  0.70999000  0.21394000  0.71047000  1.0
  C  C135  1  0.74434000  0.21709000  0.78395000  1.0
  C  C136  1  0.20441000  0.73785000  0.83072000  1.0
  C  C137  1  0.25561000  0.72818000  0.80400000  1.0
  C  C138  1  0.23621000  0.70933000  0.72538000  1.0
  C  C139  1  0.16483000  0.69982000  0.67137000  1.0
  C  C140  1  0.11332000  0.71017000  0.69732000  1.0
  C  C141  1  0.13327000  0.72929000  0.77607000  1.0
  C  C142  1  0.62646000  0.09275000  0.83073000  1.0
  C  C143  1  0.54853000  0.07569000  0.80385000  1.0
  C  C144  1  0.48940000  0.01589000  0.72523000  1.0
  C  C145  1  0.50688000  0.97136000  0.67133000  1.0
  C  C146  1  0.58436000  0.98698000  0.69743000  1.0
  C  C147  1  0.64307000  0.04665000  0.77619000  1.0
  C  C148  1  0.27293000  0.68006000  0.01288000  1.0
  C  C149  1  0.73982000  0.33272000  0.01272000  1.0
  C  C150  1  0.33105000  0.73818000  0.00809000  1.0
  C  C151  1  0.67694000  0.26981000  0.00795000  1.0
  C  C152  1  0.15910000  0.68509000  0.90776000  1.0
  C  C153  1  0.74873000  0.22261000  0.90778000  1.0
  C  C154  1  0.21693000  0.75521000  0.91340000  1.0
  C  C155  1  0.69654000  0.15813000  0.91341000  1.0
  C  C156  1  0.19745000  0.68910000  0.98965000  1.0
  C  C157  1  0.79216000  0.30052000  0.98962000  1.0
  C  C158  1  0.29894000  0.79346000  0.99007000  1.0
  C  C159  1  0.69111000  0.19655000  0.99002000  1.0
  I  I160  1  0.25564000  0.55967000  0.96144000  1.0
  I  I161  1  0.70565000  0.40159000  0.96117000  1.0
  I  I162  1  0.38799000  0.69392000  0.94410000  1.0
  I  I163  1  0.55599000  0.24994000  0.94377000  1.0
  O  O164  1  0.00407000  0.50407000  0.00816000  1.0
  O  O165  1  0.16954000  0.62584000  0.05694000  1.0
  O  O166  1  0.33932000  0.88144000  0.94963000  1.0
  O  O167  1  0.87954000  0.33915000  0.94793000  1.0
  O  O168  1  0.06837000  0.60875000  0.94791000  1.0
  O  O169  1  0.61030000  0.06815000  0.94960000  1.0
  O  O170  1  0.62535000  0.17034000  0.05602000  1.0
  O  O171  1  0.43067000  0.88573000  0.05609000  1.0
  O  O172  1  0.88730000  0.43109000  0.05689000  1.0
  O  O173  1  0.04353000  0.35715000  0.95778000  1.0
  O  O174  1  0.91419000  0.60059000  0.95774000  1.0
  O  O175  1  0.60689000  0.91959000  0.96237000  1.0
  O  O176  1  0.35546000  0.04278000  0.96238000  1.0
  O  O177  1  0.50409000  0.00410000  0.00821000  1.0
  O  O178  1  0.91600000  0.35715000  0.82083000  1.0
  O  O179  1  0.90481000  0.46359000  0.82083000  1.0
  O  O180  1  0.46269000  0.90085000  0.82233000  1.0
  O  O181  1  0.35963000  0.92143000  0.82233000  1.0
  O  O182  1  0.04009000  0.58362000  0.19391000  1.0
  O  O183  1  0.15371000  0.61027000  0.19393000  1.0
  O  O184  1  0.60578000  0.15287000  0.19267000  1.0
  O  O185  1  0.58695000  0.03988000  0.19267000  1.0
  O  O186  1  0.15275000  0.46974000  0.06385000  1.0
  O  O187  1  0.91105000  0.59409000  0.06383000  1.0
  O  O188  1  0.58829000  0.90459000  0.05834000  1.0
  O  O189  1  0.47001000  0.15374000  0.05834000  1.0
