# generated using pymatgen
data_ZnH50C28(NO)4
_symmetry_space_group_name_H-M   'P 1'
_cell_length_a   8.86072000
_cell_length_b   10.11110000
_cell_length_c   10.30440000
_cell_angle_alpha   63.87300000
_cell_angle_beta   88.06870000
_cell_angle_gamma   66.62870000
_symmetry_Int_Tables_number   1
_chemical_formula_structural   ZnH50C28(NO)4
_chemical_formula_sum   'Zn1 H50 C28 N4 O4'
_cell_volume   749.63661717
_cell_formula_units_Z   1
loop_
 _symmetry_equiv_pos_site_id
 _symmetry_equiv_pos_as_xyz
  1  'x, y, z'
loop_
 _atom_site_type_symbol
 _atom_site_label
 _atom_site_symmetry_multiplicity
 _atom_site_fract_x
 _atom_site_fract_y
 _atom_site_fract_z
 _atom_site_occupancy
  Zn  Zn0  1  0.50000000  0.50000000  0.50000000  1.0
  H  H1  1  0.23035000  0.48890000  0.48150000  1.0
  H  H2  1  0.76965000  0.51110000  0.51850000  1.0
  H  H3  1  0.47629000  0.58606000  0.69869000  1.0
  H  H4  1  0.52371000  0.41394000  0.30132000  1.0
  H  H5  1  0.32293000  0.40731000  0.78663000  1.0
  H  H6  1  0.67707000  0.59269000  0.21337000  1.0
  H  H7  1  0.98214000  0.56021000  0.59617000  1.0
  H  H8  1  0.01786000  0.43979000  0.40383000  1.0
  H  H9  1  0.07263000  0.36306000  0.74781000  1.0
  H  H10  1  0.92737000  0.63694000  0.25219000  1.0
  H  H11  1  0.86648000  0.55611000  0.82323000  1.0
  H  H12  1  0.13352000  0.44389000  0.17676000  1.0
  H  H13  1  0.06985000  0.48068000  0.91520000  1.0
  H  H14  1  0.93015000  0.51933000  0.08480000  1.0
  H  H15  1  0.92648000  0.78137000  0.82262000  1.0
  H  H16  1  0.07352000  0.21863000  0.17737000  1.0
  H  H17  1  0.88991000  0.81061000  0.64251000  1.0
  H  H18  1  0.11009000  0.18939000  0.35749000  1.0
  H  H19  1  0.23365000  0.65917000  0.83071000  1.0
  H  H20  1  0.76635000  0.34083000  0.16929000  1.0
  H  H21  1  0.13803000  0.85547000  0.67816000  1.0
  H  H22  1  0.86197000  0.14453000  0.32183000  1.0
  H  H23  1  0.14733000  0.73380000  0.51226000  1.0
  H  H24  1  0.85267000  0.26620000  0.48774000  1.0
  H  H25  1  0.34716000  0.88797000  0.57206000  1.0
  H  H26  1  0.65285000  0.11203000  0.42794000  1.0
  H  H27  1  0.31574000  0.87661000  0.40902000  1.0
  H  H28  1  0.68426000  0.12339000  0.59098000  1.0
  H  H29  1  0.65967000  0.71005000  0.60125000  1.0
  H  H30  1  0.34033000  0.28995000  0.39875000  1.0
  H  H31  1  0.57512000  0.91596000  0.46819000  1.0
  H  H32  1  0.42488000  0.08404000  0.53181000  1.0
  H  H33  1  0.77046000  0.76835000  0.37022000  1.0
  H  H34  1  0.22954000  0.23165000  0.62978000  1.0
  H  H35  1  0.51067000  0.99691000  0.20015000  1.0
  H  H36  1  0.48934000  0.00309000  0.79985000  1.0
  H  H37  1  0.42824000  0.85491000  0.21967000  1.0
  H  H38  1  0.57176000  0.14510000  0.78033000  1.0
  H  H39  1  0.60821000  0.85180000  0.13688000  1.0
  H  H40  1  0.39179000  0.14820000  0.86312000  1.0
  H  H41  1  0.03926000  0.77488000  0.04523000  1.0
  H  H42  1  0.96074000  0.22512000  0.95477000  1.0
  H  H43  1  0.23565000  0.97770000  0.99330000  1.0
  H  H44  1  0.76435000  0.02229000  0.00671000  1.0
  H  H45  1  0.24217000  0.86098000  0.90425000  1.0
  H  H46  1  0.75783000  0.13902000  0.09575000  1.0
  H  H47  1  0.93744000  0.03440000  0.79879000  1.0
  H  H48  1  0.06257000  0.96560000  0.20121000  1.0
  H  H49  1  0.04643000  0.15661000  0.74807000  1.0
  H  H50  1  0.95357000  0.84339000  0.25194000  1.0
  C  C51  1  0.23650000  0.48462000  0.68096000  1.0
  C  C52  1  0.76350000  0.51538000  0.31904000  1.0
  C  C53  1  0.06425000  0.48683000  0.70446000  1.0
  C  C54  1  0.93575000  0.51317000  0.29554000  1.0
  C  C55  1  0.98886000  0.55854000  0.80684000  1.0
  C  C56  1  0.01114000  0.44146000  0.19315000  1.0
  C  C57  1  0.97767000  0.73029000  0.74765000  1.0
  C  C58  1  0.02232000  0.26972000  0.25235000  1.0
  C  C59  1  0.14904000  0.73044000  0.72412000  1.0
  C  C60  1  0.85096000  0.26956000  0.27587000  1.0
  C  C61  1  0.22699000  0.65789000  0.62181000  1.0
  C  C62  1  0.77301000  0.34211000  0.37819000  1.0
  C  C63  1  0.39798000  0.81259000  0.51559000  1.0
  C  C64  1  0.60202000  0.18741000  0.48441000  1.0
  C  C65  1  0.57537000  0.79789000  0.49517000  1.0
  C  C66  1  0.42463000  0.20211000  0.50483000  1.0
  C  C67  1  0.65216000  0.75447000  0.37511000  1.0
  C  C68  1  0.34784000  0.24553000  0.62489000  1.0
  C  C69  1  0.54312000  0.87075000  0.22404000  1.0
  C  C70  1  0.45688000  0.12925000  0.77596000  1.0
  C  C71  1  0.26204000  0.67672000  0.19358000  1.0
  C  C72  1  0.73796000  0.32328000  0.80642000  1.0
  C  C73  1  0.10719000  0.82321000  0.08677000  1.0
  C  C74  1  0.89281000  0.17679000  0.91323000  1.0
  C  C75  1  0.16074000  0.93331000  0.95419000  1.0
  C  C76  1  0.83926000  0.06668000  0.04581000  1.0
  C  C77  1  0.00844000  0.07774000  0.84326000  1.0
  C  C78  1  0.99156000  0.92226000  0.15674000  1.0
  N  N79  1  0.31016000  0.41774000  0.58021000  1.0
  N  N80  1  0.68984000  0.58226000  0.41979000  1.0
  N  N81  1  0.39427000  0.65291000  0.59873000  1.0
  N  N82  1  0.60573000  0.34709000  0.40127000  1.0
  O  O83  1  0.30143000  0.68183000  0.30971000  1.0
  O  O84  1  0.69857000  0.31817000  0.69028000  1.0
  O  O85  1  0.34080000  0.56420000  0.16034000  1.0
  O  O86  1  0.65919000  0.43579000  0.83966000  1.0
