# generated using pymatgen
data_CaH14(C3N2)4
_symmetry_space_group_name_H-M   'P 1'
_cell_length_a   8.65490000
_cell_length_b   9.02477000
_cell_length_c   10.30010000
_cell_angle_alpha   114.96100000
_cell_angle_beta   90.00000000
_cell_angle_gamma   90.00000000
_symmetry_Int_Tables_number   1
_chemical_formula_structural   CaH14(C3N2)4
_chemical_formula_sum   'Ca2 H28 C24 N16'
_cell_volume   729.37869670
_cell_formula_units_Z   2
loop_
 _symmetry_equiv_pos_site_id
 _symmetry_equiv_pos_as_xyz
  1  'x, y, z'
loop_
 _atom_site_type_symbol
 _atom_site_label
 _atom_site_symmetry_multiplicity
 _atom_site_fract_x
 _atom_site_fract_y
 _atom_site_fract_z
 _atom_site_occupancy
  Ca  Ca0  1  0.50000000  0.50000000  0.50000000  1.0
  Ca  Ca1  1  0.00000000  0.50000000  0.00000000  1.0
  H  H2  1  0.79140000  0.92006000  0.41597000  1.0
  H  H3  1  0.29140000  0.07994000  0.08403000  1.0
  H  H4  1  0.20860000  0.07993000  0.58403000  1.0
  H  H5  1  0.70860000  0.92007000  0.91597000  1.0
  H  H6  1  0.13877000  0.48362000  0.32665000  1.0
  H  H7  1  0.63877000  0.51638000  0.17335000  1.0
  H  H8  1  0.86123000  0.51638000  0.67335000  1.0
  H  H9  1  0.36123000  0.48362000  0.82665000  1.0
  H  H10  1  0.54509000  0.25135000  0.11526000  1.0
  H  H11  1  0.04510000  0.74865000  0.38474000  1.0
  H  H12  1  0.45490000  0.74865000  0.88474000  1.0
  H  H13  1  0.95491000  0.25135000  0.61526000  1.0
  H  H14  1  0.32433000  0.23470000  0.91372000  1.0
  H  H15  1  0.82433000  0.76530000  0.58628000  1.0
  H  H16  1  0.67567000  0.76530000  0.08629000  1.0
  H  H17  1  0.17567000  0.23470000  0.41372000  1.0
  H  H18  1  0.57167000  0.12987000  0.53090000  1.0
  H  H19  1  0.07167000  0.87013000  0.96910000  1.0
  H  H20  1  0.42833000  0.87013000  0.46910000  1.0
  H  H21  1  0.92833000  0.12987000  0.03090000  1.0
  H  H22  1  0.83466000  0.29527000  0.27454000  1.0
  H  H23  1  0.33466000  0.70473000  0.22546000  1.0
  H  H24  1  0.16534000  0.70473000  0.72546000  1.0
  H  H25  1  0.66534000  0.29527000  0.77454000  1.0
  H  H26  1  0.95661000  0.99723000  0.25167000  1.0
  H  H27  1  0.45661000  0.00277000  0.24834000  1.0
  H  H28  1  0.04339000  0.00277000  0.74834000  1.0
  H  H29  1  0.54339000  0.99723000  0.75166000  1.0
  C  C30  1  0.21990000  0.41739000  0.24106000  1.0
  C  C31  1  0.71990000  0.58261000  0.25894000  1.0
  C  C32  1  0.78010000  0.58261000  0.75894000  1.0
  C  C33  1  0.28010000  0.41739000  0.74106000  1.0
  C  C34  1  0.42759000  0.29799000  0.13069000  1.0
  C  C35  1  0.92759000  0.70201000  0.36931000  1.0
  C  C36  1  0.57241000  0.70201000  0.86931000  1.0
  C  C37  1  0.07241000  0.29799000  0.63069000  1.0
  C  C38  1  0.31679000  0.28787000  0.02974000  1.0
  C  C39  1  0.81679000  0.71214000  0.47026000  1.0
  C  C40  1  0.68320000  0.71213000  0.97026000  1.0
  C  C41  1  0.18321000  0.28787000  0.52974000  1.0
  C  C42  1  0.65865000  0.13588000  0.45753000  1.0
  C  C43  1  0.15865000  0.86413000  0.04247000  1.0
  C  C44  1  0.34135000  0.86413000  0.54246000  1.0
  C  C45  1  0.84135000  0.13588000  0.95753000  1.0
  C  C46  1  0.79731000  0.21583000  0.32347000  1.0
  C  C47  1  0.29732000  0.78417000  0.17653000  1.0
  C  C48  1  0.20268000  0.78417000  0.67653000  1.0
  C  C49  1  0.70269000  0.21583000  0.82347000  1.0
  C  C50  1  0.85935000  0.06982000  0.31111000  1.0
  C  C51  1  0.35935000  0.93018000  0.18889000  1.0
  C  C52  1  0.14065000  0.93018000  0.68889000  1.0
  C  C53  1  0.64065000  0.06982000  0.81111000  1.0
  N  N54  1  0.36531000  0.38103000  0.26589000  1.0
  N  N55  1  0.86531000  0.61897000  0.23411000  1.0
  N  N56  1  0.63468000  0.61897000  0.73411000  1.0
  N  N57  1  0.13469000  0.38103000  0.76589000  1.0
  N  N58  1  0.18367000  0.36484000  0.10075000  1.0
  N  N59  1  0.68367000  0.63516000  0.39925000  1.0
  N  N60  1  0.81633000  0.63516000  0.89925000  1.0
  N  N61  1  0.31633000  0.36484000  0.60075000  1.0
  N  N62  1  0.67157000  0.25572000  0.41482000  1.0
  N  N63  1  0.17157000  0.74428000  0.08518000  1.0
  N  N64  1  0.32843000  0.74428000  0.58518000  1.0
  N  N65  1  0.82843000  0.25572000  0.91482000  1.0
  N  N66  1  0.76958000  0.02125000  0.39656000  1.0
  N  N67  1  0.26958000  0.97875000  0.10344000  1.0
  N  N68  1  0.23042000  0.97875000  0.60344000  1.0
  N  N69  1  0.73042000  0.02125000  0.89656000  1.0
