# generated using pymatgen
data_HgH26C16(SBr)2
_symmetry_space_group_name_H-M   'P 1'
_cell_length_a   9.05479000
_cell_length_b   9.05479000
_cell_length_c   12.81040000
_cell_angle_alpha   93.53630000
_cell_angle_beta   93.53620000
_cell_angle_gamma   90.97530000
_symmetry_Int_Tables_number   1
_chemical_formula_structural   HgH26C16(SBr)2
_chemical_formula_sum   'Hg2 H52 C32 S4 Br4'
_cell_volume   1046.09022125
_cell_formula_units_Z   2
loop_
 _symmetry_equiv_pos_site_id
 _symmetry_equiv_pos_as_xyz
  1  'x, y, z'
loop_
 _atom_site_type_symbol
 _atom_site_label
 _atom_site_symmetry_multiplicity
 _atom_site_fract_x
 _atom_site_fract_y
 _atom_site_fract_z
 _atom_site_occupancy
  Hg  Hg0  1  0.21699000  0.78302000  0.25000000  1.0
  Hg  Hg1  1  0.78303000  0.21699000  0.75000000  1.0
  H  H2  1  0.16360000  0.35098000  0.06114000  1.0
  H  H3  1  0.64904000  0.83638000  0.43886000  1.0
  H  H4  1  0.83637000  0.64904000  0.93886000  1.0
  H  H5  1  0.35098000  0.16360000  0.56114000  1.0
  H  H6  1  0.13265000  0.54529000  0.05303000  1.0
  H  H7  1  0.45473000  0.86734000  0.44697000  1.0
  H  H8  1  0.86733000  0.45473000  0.94697000  1.0
  H  H9  1  0.54529000  0.13266000  0.55303000  1.0
  H  H10  1  0.30525000  0.68449000  0.96676000  1.0
  H  H11  1  0.31551000  0.69474000  0.53325000  1.0
  H  H12  1  0.69473000  0.31552000  0.03324000  1.0
  H  H13  1  0.68449000  0.30526000  0.46676000  1.0
  H  H14  1  0.44823000  0.28724000  0.10645000  1.0
  H  H15  1  0.71276000  0.55175000  0.39355000  1.0
  H  H16  1  0.55175000  0.71277000  0.89354000  1.0
  H  H17  1  0.28724000  0.44825000  0.60646000  1.0
  H  H18  1  0.95803000  0.38724000  0.41426000  1.0
  H  H19  1  0.61275000  0.04197000  0.08574000  1.0
  H  H20  1  0.04197000  0.61275000  0.58574000  1.0
  H  H21  1  0.38724000  0.95802000  0.91426000  1.0
  H  H22  1  0.05289000  0.55976000  0.40306000  1.0
  H  H23  1  0.44024000  0.94710000  0.09694000  1.0
  H  H24  1  0.94710000  0.44024000  0.59694000  1.0
  H  H25  1  0.55976000  0.05289000  0.90307000  1.0
  H  H26  1  0.15397000  0.39565000  0.42376000  1.0
  H  H27  1  0.60435000  0.84603000  0.07624000  1.0
  H  H28  1  0.84603000  0.60435000  0.57624000  1.0
  H  H29  1  0.39565000  0.15397000  0.92376000  1.0
  H  H30  1  0.96211000  0.18552000  0.27710000  1.0
  H  H31  1  0.81449000  0.03790000  0.22289000  1.0
  H  H32  1  0.03790000  0.81448000  0.72289000  1.0
  H  H33  1  0.18552000  0.96211000  0.77710000  1.0
  H  H34  1  0.15675000  0.19004000  0.27858000  1.0
  H  H35  1  0.80997000  0.84325000  0.22142000  1.0
  H  H36  1  0.84326000  0.80996000  0.72142000  1.0
  H  H37  1  0.19004000  0.15675000  0.77858000  1.0
  H  H38  1  0.04895000  0.20426000  0.15810000  1.0
  H  H39  1  0.79575000  0.95105000  0.34190000  1.0
  H  H40  1  0.95105000  0.79574000  0.84190000  1.0
  H  H41  1  0.20427000  0.04896000  0.65810000  1.0
  H  H42  1  0.81629000  0.42260000  0.23702000  1.0
  H  H43  1  0.57740000  0.18371000  0.26298000  1.0
  H  H44  1  0.18371000  0.57739000  0.76298000  1.0
  H  H45  1  0.42260000  0.81629000  0.73702000  1.0
  H  H46  1  0.91564000  0.44873000  0.12481000  1.0
  H  H47  1  0.55127000  0.08436000  0.37519000  1.0
  H  H48  1  0.08436000  0.55126000  0.87519000  1.0
  H  H49  1  0.44873000  0.91564000  0.62481000  1.0
  H  H50  1  0.91565000  0.59199000  0.22665000  1.0
  H  H51  1  0.40801000  0.08434000  0.27335000  1.0
  H  H52  1  0.08434000  0.40800000  0.77335000  1.0
  H  H53  1  0.59199000  0.91565000  0.72665000  1.0
  C  C54  1  0.20974000  0.46276000  0.08214000  1.0
  C  C55  1  0.53725000  0.79025000  0.41786000  1.0
  C  C56  1  0.79025000  0.53725000  0.91786000  1.0
  C  C57  1  0.46277000  0.20974000  0.58214000  1.0
  C  C58  1  0.35962000  0.48261000  0.04000000  1.0
  C  C59  1  0.51739000  0.64037000  0.45999000  1.0
  C  C60  1  0.64036000  0.51739000  0.95999000  1.0
  C  C61  1  0.48261000  0.35963000  0.54001000  1.0
  C  C62  1  0.39035000  0.60273000  0.98032000  1.0
  C  C63  1  0.39728000  0.60964000  0.51968000  1.0
  C  C64  1  0.60963000  0.39727000  0.01967000  1.0
  C  C65  1  0.60273000  0.39035000  0.48033000  1.0
  C  C66  1  0.47105000  0.38072000  0.05956000  1.0
  C  C67  1  0.61928000  0.52895000  0.44043000  1.0
  C  C68  1  0.52893000  0.61929000  0.94043000  1.0
  C  C69  1  0.38072000  0.47106000  0.55957000  1.0
  C  C70  1  0.05217000  0.40407000  0.26550000  1.0
  C  C71  1  0.59594000  0.94782000  0.23450000  1.0
  C  C72  1  0.94783000  0.59593000  0.73450000  1.0
  C  C73  1  0.40407000  0.05217000  0.76550000  1.0
  C  C74  1  0.05530000  0.43998000  0.38364000  1.0
  C  C75  1  0.56003000  0.94470000  0.11636000  1.0
  C  C76  1  0.94470000  0.56002000  0.61636000  1.0
  C  C77  1  0.43998000  0.05530000  0.88364000  1.0
  C  C78  1  0.05655000  0.23674000  0.24226000  1.0
  C  C79  1  0.76326000  0.94345000  0.25774000  1.0
  C  C80  1  0.94345000  0.76326000  0.75774000  1.0
  C  C81  1  0.23674000  0.05655000  0.74226000  1.0
  C  C82  1  0.91810000  0.47160000  0.20993000  1.0
  C  C83  1  0.52841000  0.08190000  0.29007000  1.0
  C  C84  1  0.08190000  0.52840000  0.79007000  1.0
  C  C85  1  0.47160000  0.91810000  0.70993000  1.0
  S  S86  1  0.22781000  0.48466000  0.22519000  1.0
  S  S87  1  0.51534000  0.77219000  0.27481000  1.0
  S  S88  1  0.77219000  0.51534000  0.77480000  1.0
  S  S89  1  0.48467000  0.22781000  0.72520000  1.0
  Br  Br90  1  0.14007000  0.90136000  0.42741000  1.0
  Br  Br91  1  0.09864000  0.85993000  0.07259000  1.0
  Br  Br92  1  0.85993000  0.09864000  0.57259000  1.0
  Br  Br93  1  0.90137000  0.14008000  0.92741000  1.0
