# generated using pymatgen
data_AlH7C15ClO7
_symmetry_space_group_name_H-M   'P 1'
_cell_length_a   6.56953000
_cell_length_b   11.10791712
_cell_length_c   17.58050000
_cell_angle_alpha   91.17934547
_cell_angle_beta   98.25340000
_cell_angle_gamma   106.87616289
_symmetry_Int_Tables_number   1
_chemical_formula_structural   AlH7C15ClO7
_chemical_formula_sum   'Al2 H14 C30 Cl2 O14'
_cell_volume   1212.32316642
_cell_formula_units_Z   2
loop_
 _symmetry_equiv_pos_site_id
 _symmetry_equiv_pos_as_xyz
  1  'x, y, z'
loop_
 _atom_site_type_symbol
 _atom_site_label
 _atom_site_symmetry_multiplicity
 _atom_site_fract_x
 _atom_site_fract_y
 _atom_site_fract_z
 _atom_site_occupancy
  Al  Al0  1  0.02207000  0.50707000  0.50440000  1.0
  Al  Al1  1  0.51850000  0.50405000  0.50019000  1.0
  H  H2  1  0.36850000  0.65873000  0.54271000  1.0
  H  H3  1  0.71326000  0.44658000  0.40809000  1.0
  H  H4  1  0.82120000  0.39477000  0.27656000  1.0
  H  H5  1  0.72699000  0.38584000  0.13402000  1.0
  H  H6  1  0.48913000  0.57020000  0.25912000  1.0
  H  H7  1  0.50276000  0.40396000  0.72864000  1.0
  H  H8  1  0.18233000  0.58066000  0.73586000  1.0
  H  H9  1  0.23889000  0.57322000  0.87945000  1.0
  H  H10  1  0.56985000  0.76670000  0.39171000  1.0
  H  H11  1  0.76374000  0.23429000  0.42593000  1.0
  H  H12  1  0.37327000  0.12794000  0.55879000  1.0
  H  H13  1  0.25903000  0.89236000  0.55292000  1.0
  H  H14  1  0.47296000  0.85446000  0.22909000  1.0
  H  H15  1  0.41156000  0.25031000  0.40499000  1.0
  C  C16  1  0.88651000  0.73299000  0.49283000  1.0
  C  C17  1  0.80732000  0.49910000  0.63909000  1.0
  C  C18  1  0.14611000  0.27852000  0.50588000  1.0
  C  C19  1  0.21400000  0.49406000  0.36181000  1.0
  C  C20  1  0.16051000  0.48441000  0.27669000  1.0
  C  C21  1  0.94577000  0.43201000  0.24130000  1.0
  C  C22  1  0.89296000  0.42670000  0.16197000  1.0
  C  C23  1  0.05271000  0.47623000  0.11557000  1.0
  C  C24  1  0.26899000  0.52739000  0.15226000  1.0
  C  C25  1  0.32255000  0.52998000  0.23175000  1.0
  C  C26  1  0.99593000  0.47556000  0.03517000  1.0
  C  C27  1  0.94465000  0.47588000  0.96567000  1.0
  C  C28  1  0.90483000  0.48108000  0.88510000  1.0
  C  C29  1  0.69630000  0.43269000  0.84127000  1.0
  C  C30  1  0.66374000  0.44006000  0.76178000  1.0
  C  C31  1  0.83983000  0.49303000  0.72406000  1.0
  C  C32  1  0.04778000  0.54035000  0.76635000  1.0
  C  C33  1  0.07904000  0.53584000  0.84567000  1.0
  C  C34  1  0.94789000  0.87274000  0.48864000  1.0
  C  C35  1  0.80425000  0.93504000  0.45001000  1.0
  C  C36  1  0.14974000  0.94200000  0.52593000  1.0
  C  C37  1  0.61311000  0.86903000  0.39937000  1.0
  C  C38  1  0.48571000  0.93233000  0.35825000  1.0
  C  C39  1  0.07139000  0.13803000  0.49892000  1.0
  C  C40  1  0.21312000  0.07431000  0.52997000  1.0
  C  C41  1  0.86385000  0.07026000  0.45775000  1.0
  C  C42  1  0.72172000  0.13206000  0.41892000  1.0
  C  C43  1  0.53786000  0.06580000  0.36968000  1.0
  C  C44  1  0.28761000  0.85830000  0.30379000  1.0
  C  C45  1  0.41177000  0.13379000  0.31857000  1.0
  Cl  Cl46  1  0.46906000  0.59018000  0.09800000  1.0
  Cl  Cl47  1  0.48023000  0.36367000  0.88730000  1.0
  O  O48  1  0.03122000  0.67959000  0.48714000  1.0
  O  O49  1  0.61542000  0.47535000  0.60358000  1.0
  O  O50  1  0.33590000  0.33075000  0.49082000  1.0
  O  O51  1  0.05599000  0.47464000  0.39938000  1.0
  O  O52  1  0.02012000  0.33710000  0.52494000  1.0
  O  O53  1  0.41146000  0.52067000  0.39299000  1.0
  O  O54  1  0.69587000  0.67813000  0.50552000  1.0
  O  O55  1  0.97522000  0.52916000  0.60668000  1.0
  O  O56  1  0.31618000  0.56752000  0.53531000  1.0
  O  O57  1  0.72856000  0.44775000  0.46401000  1.0
  O  O58  1  0.32317000  0.81517000  0.23561000  1.0
  O  O59  1  0.10688000  0.83149000  0.32030000  1.0
  O  O60  1  0.38131000  0.23949000  0.34808000  1.0
  O  O61  1  0.34594000  0.09863000  0.25088000  1.0
