# generated using pymatgen
data_ZnH10(C5N2)2
_symmetry_space_group_name_H-M   'P 1'
_cell_length_a   7.29884000
_cell_length_b   11.65441407
_cell_length_c   13.56830000
_cell_angle_alpha   83.58550901
_cell_angle_beta   74.45570000
_cell_angle_gamma   71.76890229
_symmetry_Int_Tables_number   1
_chemical_formula_structural   ZnH10(C5N2)2
_chemical_formula_sum   'Zn4 H40 C40 N16'
_cell_volume   1055.64658026
_cell_formula_units_Z   4
loop_
 _symmetry_equiv_pos_site_id
 _symmetry_equiv_pos_as_xyz
  1  'x, y, z'
loop_
 _atom_site_type_symbol
 _atom_site_label
 _atom_site_symmetry_multiplicity
 _atom_site_fract_x
 _atom_site_fract_y
 _atom_site_fract_z
 _atom_site_occupancy
  Zn  Zn0  1  0.05415000  0.66887000  0.12296000  1.0
  Zn  Zn1  1  0.34633000  0.83085000  0.37757000  1.0
  Zn  Zn2  1  0.94584000  0.33114000  0.87703000  1.0
  Zn  Zn3  1  0.65368000  0.16914000  0.62243000  1.0
  H  H4  1  0.73520000  0.82094000  0.01854000  1.0
  H  H5  1  0.07481000  0.67872000  0.48219000  1.0
  H  H6  1  0.26478000  0.17907000  0.98146000  1.0
  H  H7  1  0.92519000  0.32128000  0.51781000  1.0
  H  H8  1  0.71535000  0.97275000  0.87118000  1.0
  H  H9  1  0.05981000  0.52729000  0.62993000  1.0
  H  H10  1  0.28465000  0.02726000  0.12881000  1.0
  H  H11  1  0.94019000  0.47271000  0.37008000  1.0
  H  H12  1  0.02136000  0.03030000  0.78012000  1.0
  H  H13  1  0.33277000  0.47000000  0.72081000  1.0
  H  H14  1  0.97865000  0.96970000  0.21988000  1.0
  H  H15  1  0.66724000  0.53000000  0.27919000  1.0
  H  H16  1  0.33941000  0.92834000  0.83419000  1.0
  H  H17  1  0.60314000  0.57167000  0.66625000  1.0
  H  H18  1  0.66059000  0.07166000  0.16580000  1.0
  H  H19  1  0.39687000  0.42833000  0.33374000  1.0
  H  H20  1  0.51977000  0.76416000  0.93137000  1.0
  H  H21  1  0.71595000  0.73595000  0.56882000  1.0
  H  H22  1  0.48021000  0.23585000  0.06863000  1.0
  H  H23  1  0.28405000  0.26405000  0.43117000  1.0
  H  H24  1  0.38179000  0.79424000  0.06069000  1.0
  H  H25  1  0.73662000  0.70565000  0.43960000  1.0
  H  H26  1  0.61820000  0.20576000  0.93931000  1.0
  H  H27  1  0.26340000  0.29434000  0.56039000  1.0
  H  H28  1  0.56963000  0.57824000  0.86292000  1.0
  H  H29  1  0.51134000  0.92213000  0.63714000  1.0
  H  H30  1  0.43037000  0.42176000  0.13708000  1.0
  H  H31  1  0.48867000  0.07786000  0.36286000  1.0
  H  H32  1  0.30637000  0.60882000  0.88019000  1.0
  H  H33  1  0.29595000  0.89123000  0.62003000  1.0
  H  H34  1  0.69362000  0.39119000  0.11981000  1.0
  H  H35  1  0.70406000  0.10877000  0.37997000  1.0
  H  H36  1  0.51290000  0.60973000  0.13948000  1.0
  H  H37  1  0.76183000  0.89014000  0.36071000  1.0
  H  H38  1  0.48708000  0.39028000  0.86052000  1.0
  H  H39  1  0.23817000  0.10986000  0.63930000  1.0
  H  H40  1  0.69521000  0.57755000  0.02131000  1.0
  H  H41  1  0.79390000  0.92264000  0.47886000  1.0
  H  H42  1  0.30479000  0.42245000  0.97869000  1.0
  H  H43  1  0.20610000  0.07736000  0.52114000  1.0
  C  C44  1  0.86413000  0.84834000  0.97493000  1.0
  C  C45  1  0.18769000  0.65145000  0.52579000  1.0
  C  C46  1  0.13585000  0.15167000  0.02507000  1.0
  C  C47  1  0.81231000  0.34855000  0.47421000  1.0
  C  C48  1  0.85387000  0.93331000  0.89479000  1.0
  C  C49  1  0.18252000  0.56666000  0.60611000  1.0
  C  C50  1  0.14613000  0.06670000  0.10521000  1.0
  C  C51  1  0.81749000  0.43334000  0.39390000  1.0
  C  C52  1  0.02540000  0.96434000  0.84349000  1.0
  C  C53  1  0.33402000  0.53578000  0.65733000  1.0
  C  C54  1  0.97459000  0.03566000  0.15651000  1.0
  C  C55  1  0.66598000  0.46422000  0.34268000  1.0
  C  C56  1  0.20154000  0.90768000  0.87329000  1.0
  C  C57  1  0.48341000  0.59230000  0.62731000  1.0
  C  C58  1  0.79846000  0.09232000  0.12671000  1.0
  C  C59  1  0.51660000  0.40770000  0.37269000  1.0
  C  C60  1  0.20152000  0.82218000  0.95367000  1.0
  C  C61  1  0.47786000  0.67770000  0.54682000  1.0
  C  C62  1  0.79846000  0.17783000  0.04633000  1.0
  C  C63  1  0.52216000  0.32229000  0.45317000  1.0
  C  C64  1  0.38580000  0.75479000  0.98957000  1.0
  C  C65  1  0.63046000  0.74517000  0.51072000  1.0
  C  C66  1  0.61420000  0.24521000  0.01043000  1.0
  C  C67  1  0.36954000  0.25483000  0.48927000  1.0
  C  C68  1  0.43146000  0.56652000  0.91567000  1.0
  C  C69  1  0.41399000  0.93359000  0.58443000  1.0
  C  C70  1  0.56854000  0.43348000  0.08433000  1.0
  C  C71  1  0.58602000  0.06641000  0.41557000  1.0
  C  C72  1  0.55107000  0.56671000  0.06566000  1.0
  C  C73  1  0.68328000  0.93327000  0.43444000  1.0
  C  C74  1  0.44893000  0.43329000  0.93434000  1.0
  C  C75  1  0.31673000  0.06673000  0.56556000  1.0
  C  C76  1  0.02320000  0.40689000  0.13689000  1.0
  C  C77  1  0.06772000  0.09274000  0.36343000  1.0
  C  C78  1  0.97679000  0.59313000  0.86312000  1.0
  C  C79  1  0.93232000  0.90725000  0.63657000  1.0
  C  C80  1  0.59437000  0.78546000  0.26367000  1.0
  C  C81  1  0.14322000  0.71444000  0.23679000  1.0
  C  C82  1  0.40564000  0.21453000  0.73632000  1.0
  C  C83  1  0.85678000  0.28556000  0.76321000  1.0
  N  N84  1  0.03375000  0.79473000  0.00419000  1.0
  N  N85  1  0.33288000  0.70503000  0.49640000  1.0
  N  N86  1  0.96623000  0.20528000  0.99581000  1.0
  N  N87  1  0.66713000  0.29496000  0.50360000  1.0
  N  N88  1  0.39300000  0.62767000  0.01236000  1.0
  N  N89  1  0.53312000  0.87224000  0.48783000  1.0
  N  N90  1  0.60699000  0.37233000  0.98765000  1.0
  N  N91  1  0.46688000  0.12776000  0.51217000  1.0
  N  N92  1  0.02921000  0.50745000  0.13034000  1.0
  N  N93  1  0.16699000  0.99202000  0.37003000  1.0
  N  N94  1  0.97079000  0.49253000  0.86966000  1.0
  N  N95  1  0.83304000  0.00796000  0.62996000  1.0
  N  N96  1  0.73754000  0.75398000  0.19725000  1.0
  N  N97  1  0.18907000  0.74565000  0.30323000  1.0
  N  N98  1  0.26246000  0.24601000  0.80274000  1.0
  N  N99  1  0.81092000  0.25434000  0.69677000  1.0
