# generated using pymatgen
data_ScH5C6(NO3)2
_symmetry_space_group_name_H-M   'P 1'
_cell_length_a   6.62014000
_cell_length_b   9.73710000
_cell_length_c   13.21060000
_cell_angle_alpha   90.00010000
_cell_angle_beta   90.00070000
_cell_angle_gamma   77.83000000
_symmetry_Int_Tables_number   1
_chemical_formula_structural   ScH5C6(NO3)2
_chemical_formula_sum   'Sc4 H20 C24 N8 O24'
_cell_volume   832.43023579
_cell_formula_units_Z   4
loop_
 _symmetry_equiv_pos_site_id
 _symmetry_equiv_pos_as_xyz
  1  'x, y, z'
loop_
 _atom_site_type_symbol
 _atom_site_label
 _atom_site_symmetry_multiplicity
 _atom_site_fract_x
 _atom_site_fract_y
 _atom_site_fract_z
 _atom_site_occupancy
  Sc  Sc0  1  0.10879000  0.62580000  0.04552000  1.0
  Sc  Sc1  1  0.89121000  0.87420000  0.54553000  1.0
  Sc  Sc2  1  0.89121000  0.37420000  0.95447000  1.0
  Sc  Sc3  1  0.10879000  0.12580000  0.45448000  1.0
  H  H4  1  0.93722000  0.82217000  0.26925000  1.0
  H  H5  1  0.06278000  0.67783000  0.76925000  1.0
  H  H6  1  0.06276000  0.17783000  0.73076000  1.0
  H  H7  1  0.93723000  0.32218000  0.23076000  1.0
  H  H8  1  0.40132000  0.40326000  0.39853000  1.0
  H  H9  1  0.59869000  0.09674000  0.89853000  1.0
  H  H10  1  0.59869000  0.59674000  0.60147000  1.0
  H  H11  1  0.40130000  0.90325000  0.10147000  1.0
  H  H12  1  0.75057000  0.56430000  0.11107000  1.0
  H  H13  1  0.24943000  0.93570000  0.61107000  1.0
  H  H14  1  0.24943000  0.43569000  0.88893000  1.0
  H  H15  1  0.75057000  0.06431000  0.38893000  1.0
  H  H16  1  0.33515000  0.81048000  0.96342000  1.0
  H  H17  1  0.66486000  0.68952000  0.46342000  1.0
  H  H18  1  0.66486000  0.18953000  0.03657000  1.0
  H  H19  1  0.33515000  0.31048000  0.53657000  1.0
  H  H20  1  0.47754000  0.65290000  0.96568000  1.0
  H  H21  1  0.52247000  0.84710000  0.46568000  1.0
  H  H22  1  0.52247000  0.34711000  0.03432000  1.0
  H  H23  1  0.47753000  0.15290000  0.53432000  1.0
  C  C24  1  0.04289000  0.73033000  0.29942000  1.0
  C  C25  1  0.95711000  0.76967000  0.79942000  1.0
  C  C26  1  0.95710000  0.26967000  0.70058000  1.0
  C  C27  1  0.04289000  0.23033000  0.20058000  1.0
  C  C28  1  0.18466000  0.59820000  0.43571000  1.0
  C  C29  1  0.81534000  0.90179000  0.93571000  1.0
  C  C30  1  0.81534000  0.40179000  0.56429000  1.0
  C  C31  1  0.18465000  0.09821000  0.06430000  1.0
  C  C32  1  0.30011000  0.49878000  0.37182000  1.0
  C  C33  1  0.69989000  0.00122000  0.87182000  1.0
  C  C34  1  0.69989000  0.50122000  0.62818000  1.0
  C  C35  1  0.30010000  0.99878000  0.12818000  1.0
  C  C36  1  0.27676000  0.52435000  0.26881000  1.0
  C  C37  1  0.72324000  0.97565000  0.76881000  1.0
  C  C38  1  0.72323000  0.47564000  0.73119000  1.0
  C  C39  1  0.27675000  0.02435000  0.23119000  1.0
  C  C40  1  0.39818000  0.42374000  0.19335000  1.0
  C  C41  1  0.60182000  0.07627000  0.69335000  1.0
  C  C42  1  0.60182000  0.57627000  0.80665000  1.0
  C  C43  1  0.39817000  0.92373000  0.30666000  1.0
  C  C44  1  0.18091000  0.57885000  0.54898000  1.0
  C  C45  1  0.81911000  0.92115000  0.04898000  1.0
  C  C46  1  0.81910000  0.42114000  0.45103000  1.0
  C  C47  1  0.18090000  0.07885000  0.95102000  1.0
  N  N48  1  0.14529000  0.63746000  0.23204000  1.0
  N  N49  1  0.85471000  0.86254000  0.73203000  1.0
  N  N50  1  0.85471000  0.36254000  0.76797000  1.0
  N  N51  1  0.14528000  0.13746000  0.26797000  1.0
  N  N52  1  0.06095000  0.71625000  0.40008000  1.0
  N  N53  1  0.93905000  0.78375000  0.90008000  1.0
  N  N54  1  0.93904000  0.28374000  0.59992000  1.0
  N  N55  1  0.06095000  0.21626000  0.09992000  1.0
  O  O56  1  0.36026000  0.46133000  0.09892000  1.0
  O  O57  1  0.63976000  0.03867000  0.59892000  1.0
  O  O58  1  0.63975000  0.53868000  0.90108000  1.0
  O  O59  1  0.36023000  0.96132000  0.40108000  1.0
  O  O60  1  0.52025000  0.31711000  0.22236000  1.0
  O  O61  1  0.47975000  0.18289000  0.72236000  1.0
  O  O62  1  0.47976000  0.68290000  0.77764000  1.0
  O  O63  1  0.52024000  0.81710000  0.27764000  1.0
  O  O64  1  0.07346000  0.68311000  0.59758000  1.0
  O  O65  1  0.92655000  0.81688000  0.09757000  1.0
  O  O66  1  0.92654000  0.31689000  0.40242000  1.0
  O  O67  1  0.07345000  0.18312000  0.90243000  1.0
  O  O68  1  0.27200000  0.46620000  0.58845000  1.0
  O  O69  1  0.72802000  0.03380000  0.08845000  1.0
  O  O70  1  0.72801000  0.53380000  0.41154000  1.0
  O  O71  1  0.27198000  0.96620000  0.91155000  1.0
  O  O72  1  0.87552000  0.51914000  0.07560000  1.0
  O  O73  1  0.12448000  0.98087000  0.57560000  1.0
  O  O74  1  0.12448000  0.48086000  0.92440000  1.0
  O  O75  1  0.87552000  0.01913000  0.42440000  1.0
  O  O76  1  0.36340000  0.71959000  0.00248000  1.0
  O  O77  1  0.63660000  0.78041000  0.50249000  1.0
  O  O78  1  0.63660000  0.28042000  0.99751000  1.0
  O  O79  1  0.36340000  0.21959000  0.49751000  1.0
