# generated using pymatgen
data_MgH6C5(NO3)2
_symmetry_space_group_name_H-M   'P 1'
_cell_length_a   9.12642000
_cell_length_b   9.12639000
_cell_length_c   11.72250000
_cell_angle_alpha   74.63500000
_cell_angle_beta   74.63590000
_cell_angle_gamma   79.41130000
_symmetry_Int_Tables_number   1
_chemical_formula_structural   MgH6C5(NO3)2
_chemical_formula_sum   'Mg4 H24 C20 N8 O24'
_cell_volume   901.04069058
_cell_formula_units_Z   4
loop_
 _symmetry_equiv_pos_site_id
 _symmetry_equiv_pos_as_xyz
  1  'x, y, z'
loop_
 _atom_site_type_symbol
 _atom_site_label
 _atom_site_symmetry_multiplicity
 _atom_site_fract_x
 _atom_site_fract_y
 _atom_site_fract_z
 _atom_site_occupancy
  Mg  Mg0  1  0.47597000  0.98329000  0.23189000  1.0
  Mg  Mg1  1  0.01671000  0.52403000  0.26811000  1.0
  Mg  Mg2  1  0.52403000  0.01671000  0.76811000  1.0
  Mg  Mg3  1  0.98329000  0.47597000  0.73189000  1.0
  H  H4  1  0.62329000  0.16961000  0.41018000  1.0
  H  H5  1  0.83039000  0.37672000  0.08981000  1.0
  H  H6  1  0.37671000  0.83039000  0.58982000  1.0
  H  H7  1  0.16961000  0.62328000  0.91018000  1.0
  H  H8  1  0.87582000  0.04266000  0.46652000  1.0
  H  H9  1  0.95734000  0.12418000  0.03347000  1.0
  H  H10  1  0.12418000  0.95734000  0.53348000  1.0
  H  H11  1  0.04266000  0.87582000  0.96653000  1.0
  H  H12  1  0.29321000  0.79974000  0.40013000  1.0
  H  H13  1  0.20026000  0.70679000  0.09986000  1.0
  H  H14  1  0.70679000  0.20026000  0.59987000  1.0
  H  H15  1  0.79974000  0.29321000  0.90014000  1.0
  H  H16  1  0.44581000  0.69720000  0.35598000  1.0
  H  H17  1  0.30280000  0.55419000  0.14403000  1.0
  H  H18  1  0.55419000  0.30280000  0.64402000  1.0
  H  H19  1  0.69720000  0.44581000  0.85598000  1.0
  H  H20  1  0.48116000  0.17508000  0.01162000  1.0
  H  H21  1  0.82492000  0.51884000  0.48838000  1.0
  H  H22  1  0.51884000  0.82491000  0.98839000  1.0
  H  H23  1  0.17508000  0.48116000  0.51162000  1.0
  H  H24  1  0.64348000  0.14715000  0.03604000  1.0
  H  H25  1  0.85285000  0.35651000  0.46397000  1.0
  H  H26  1  0.35652000  0.85284000  0.96396000  1.0
  H  H27  1  0.14715000  0.64349000  0.53603000  1.0
  C  C28  1  0.88401000  0.88499000  0.35720000  1.0
  C  C29  1  0.11500000  0.11599000  0.14279000  1.0
  C  C30  1  0.11599000  0.11501000  0.64280000  1.0
  C  C31  1  0.88499000  0.88401000  0.85721000  1.0
  C  C32  1  0.77956000  0.88149000  0.28945000  1.0
  C  C33  1  0.11851000  0.22044000  0.21055000  1.0
  C  C34  1  0.22044000  0.11851000  0.71055000  1.0
  C  C35  1  0.88149000  0.77956000  0.78945000  1.0
  C  C36  1  0.69429000  0.07335000  0.37728000  1.0
  C  C37  1  0.92665000  0.30572000  0.12271000  1.0
  C  C38  1  0.30571000  0.92665000  0.62272000  1.0
  C  C39  1  0.07335000  0.69428000  0.87728000  1.0
  C  C40  1  0.02593000  0.79065000  0.38388000  1.0
  C  C41  1  0.20936000  0.97407000  0.11612000  1.0
  C  C42  1  0.97407000  0.20936000  0.61612000  1.0
  C  C43  1  0.79064000  0.02593000  0.88388000  1.0
  C  C44  1  0.76834000  0.78569000  0.20646000  1.0
  C  C45  1  0.21432000  0.23163000  0.29354000  1.0
  C  C46  1  0.23166000  0.21431000  0.79354000  1.0
  C  C47  1  0.78568000  0.76837000  0.70645000  1.0
  N  N48  1  0.82658000  0.00820000  0.40959000  1.0
  N  N49  1  0.99180000  0.17342000  0.09041000  1.0
  N  N50  1  0.17342000  0.99180000  0.59041000  1.0
  N  N51  1  0.00820000  0.82658000  0.90960000  1.0
  N  N52  1  0.66305000  0.99972000  0.30434000  1.0
  N  N53  1  0.00029000  0.33695000  0.19566000  1.0
  N  N54  1  0.33696000  0.00029000  0.69566000  1.0
  N  N55  1  0.99971000  0.66305000  0.80434000  1.0
  O  O56  1  0.09600000  0.83548000  0.44799000  1.0
  O  O57  1  0.16451000  0.90400000  0.05200000  1.0
  O  O58  1  0.90401000  0.16452000  0.55200000  1.0
  O  O59  1  0.83548000  0.09600000  0.94800000  1.0
  O  O60  1  0.07399000  0.66919000  0.34652000  1.0
  O  O61  1  0.33079000  0.92600000  0.15347000  1.0
  O  O62  1  0.92601000  0.33081000  0.65347000  1.0
  O  O63  1  0.66920000  0.07400000  0.84653000  1.0
  O  O64  1  0.87211000  0.67855000  0.18248000  1.0
  O  O65  1  0.32142000  0.12790000  0.31752000  1.0
  O  O66  1  0.12789000  0.32145000  0.81752000  1.0
  O  O67  1  0.67857000  0.87210000  0.68247000  1.0
  O  O68  1  0.64914000  0.82311000  0.16257000  1.0
  O  O69  1  0.17688000  0.35087000  0.33743000  1.0
  O  O70  1  0.35086000  0.17689000  0.83743000  1.0
  O  O71  1  0.82312000  0.64913000  0.66257000  1.0
  O  O72  1  0.40728000  0.79355000  0.38053000  1.0
  O  O73  1  0.20645000  0.59272000  0.11947000  1.0
  O  O74  1  0.59272000  0.20645000  0.61948000  1.0
  O  O75  1  0.79356000  0.40728000  0.88053000  1.0
  O  O76  1  0.53373000  0.16434000  0.07659000  1.0
  O  O77  1  0.83566000  0.46627000  0.42341000  1.0
  O  O78  1  0.46627000  0.83565000  0.92341000  1.0
  O  O79  1  0.16434000  0.53373000  0.57659000  1.0
