# generated using pymatgen
data_Cu2H10C15N4Cl3O2
_symmetry_space_group_name_H-M   'P 1'
_cell_length_a   8.81150000
_cell_length_b   10.35850000
_cell_length_c   10.51285789
_cell_angle_alpha   119.18695413
_cell_angle_beta   95.05736788
_cell_angle_gamma   96.58540000
_symmetry_Int_Tables_number   1
_chemical_formula_structural   Cu2H10C15N4Cl3O2
_chemical_formula_sum   'Cu4 H20 C30 N8 Cl6 O4'
_cell_volume   820.62725195
_cell_formula_units_Z   2
loop_
 _symmetry_equiv_pos_site_id
 _symmetry_equiv_pos_as_xyz
  1  'x, y, z'
loop_
 _atom_site_type_symbol
 _atom_site_label
 _atom_site_symmetry_multiplicity
 _atom_site_fract_x
 _atom_site_fract_y
 _atom_site_fract_z
 _atom_site_occupancy
  Cu  Cu0  1  0.26646000  0.30897000  0.98849000  1.0
  Cu  Cu1  1  0.73350000  0.69104000  0.01152000  1.0
  Cu  Cu2  1  0.56728000  0.93626000  0.60079000  1.0
  Cu  Cu3  1  0.43272000  0.06373000  0.39920000  1.0
  H  H4  1  0.43549000  0.16155000  0.12563000  1.0
  H  H5  1  0.56446000  0.83852000  0.87443000  1.0
  H  H6  1  0.39620000  0.90556000  0.09959000  1.0
  H  H7  1  0.60382000  0.09451000  0.90047000  1.0
  H  H8  1  0.15860000  0.71757000  0.93066000  1.0
  H  H9  1  0.84148000  0.28243000  0.06935000  1.0
  H  H10  1  0.98154000  0.78513000  0.78801000  1.0
  H  H11  1  0.01848000  0.21482000  0.21197000  1.0
  H  H12  1  0.07426000  0.76314000  0.55058000  1.0
  H  H13  1  0.92573000  0.23686000  0.44943000  1.0
  H  H14  1  0.96834000  0.49662000  0.36327000  1.0
  H  H15  1  0.03169000  0.50337000  0.63671000  1.0
  H  H16  1  0.67694000  0.40788000  0.30181000  1.0
  H  H17  1  0.32307000  0.59211000  0.69815000  1.0
  H  H18  1  0.50629000  0.59683000  0.42220000  1.0
  H  H19  1  0.49372000  0.40316000  0.57778000  1.0
  H  H20  1  0.74162000  0.27159000  0.70986000  1.0
  H  H21  1  0.25838000  0.72839000  0.29009000  1.0
  H  H22  1  0.01651000  0.40310000  0.84295000  1.0
  H  H23  1  0.98349000  0.59689000  0.15703000  1.0
  C  C24  1  0.34032000  0.07305000  0.04717000  1.0
  C  C25  1  0.65967000  0.92699000  0.95287000  1.0
  C  C26  1  0.31520000  0.93175000  0.03472000  1.0
  C  C27  1  0.68482000  0.06828000  0.96530000  1.0
  C  C28  1  0.18510000  0.82746000  0.93972000  1.0
  C  C29  1  0.81493000  0.17256000  0.06030000  1.0
  C  C30  1  0.08704000  0.86455000  0.85619000  1.0
  C  C31  1  0.91298000  0.13544000  0.14381000  1.0
  C  C32  1  0.12454000  0.00408000  0.86572000  1.0
  C  C33  1  0.87544000  0.99592000  0.13429000  1.0
  C  C34  1  0.02963000  0.06178000  0.78943000  1.0
  C  C35  1  0.97036000  0.93820000  0.21056000  1.0
  C  C36  1  0.89342000  0.98302000  0.68379000  1.0
  C  C37  1  0.10656000  0.01696000  0.31622000  1.0
  C  C38  1  0.84644000  0.81962000  0.58577000  1.0
  C  C39  1  0.15356000  0.18036000  0.41423000  1.0
  C  C40  1  0.94930000  0.72220000  0.52176000  1.0
  C  C41  1  0.05069000  0.27779000  0.47824000  1.0
  C  C42  1  0.88880000  0.57237000  0.41736000  1.0
  C  C43  1  0.11122000  0.42762000  0.58262000  1.0
  C  C44  1  0.72879000  0.52401000  0.38149000  1.0
  C  C45  1  0.27122000  0.47598000  0.61848000  1.0
  C  C46  1  0.63247000  0.62757000  0.44836000  1.0
  C  C47  1  0.36754000  0.37241000  0.55161000  1.0
  C  C48  1  0.82794000  0.21103000  0.72561000  1.0
  C  C49  1  0.17205000  0.78896000  0.27437000  1.0
  C  C50  1  0.97644000  0.28471000  0.80481000  1.0
  C  C51  1  0.02356000  0.71529000  0.19517000  1.0
  C  C52  1  0.44240000  0.53543000  0.97359000  1.0
  C  C53  1  0.55759000  0.46460000  0.02644000  1.0
  N  N54  1  0.24836000  0.10657000  0.96340000  1.0
  N  N55  1  0.75161000  0.89344000  0.03662000  1.0
  N  N56  1  0.07071000  0.21151000  0.84151000  1.0
  N  N57  1  0.92929000  0.78847000  0.15846000  1.0
  N  N58  1  0.78934000  0.06224000  0.66633000  1.0
  N  N59  1  0.21065000  0.93775000  0.33368000  1.0
  N  N60  1  0.69107000  0.77205000  0.54630000  1.0
  N  N61  1  0.30893000  0.22794000  0.45370000  1.0
  Cl  Cl62  1  0.20183000  0.43604000  0.22925000  1.0
  Cl  Cl63  1  0.79817000  0.56395000  0.77077000  1.0
  Cl  Cl64  1  0.36232000  0.80620000  0.62555000  1.0
  Cl  Cl65  1  0.63766000  0.19380000  0.37442000  1.0
  Cl  Cl66  1  0.45593000  0.14171000  0.67982000  1.0
  Cl  Cl67  1  0.54407000  0.85829000  0.32020000  1.0
  O  O68  1  0.29917000  0.48230000  0.95236000  1.0
  O  O69  1  0.70081000  0.51770000  0.04765000  1.0
  O  O70  1  0.49660000  0.64147000  0.95404000  1.0
  O  O71  1  0.50337000  0.35856000  0.04600000  1.0
