# generated using pymatgen
data_CuH6C8O5
_symmetry_space_group_name_H-M   'P 1'
_cell_length_a   6.03151000
_cell_length_b   10.10562643
_cell_length_c   10.85860000
_cell_angle_alpha   117.38205311
_cell_angle_beta   103.09590000
_cell_angle_gamma   90.53796739
_symmetry_Int_Tables_number   1
_chemical_formula_structural   CuH6C8O5
_chemical_formula_sum   'Cu2 H12 C16 O10'
_cell_volume   567.45670468
_cell_formula_units_Z   2
loop_
 _symmetry_equiv_pos_site_id
 _symmetry_equiv_pos_as_xyz
  1  'x, y, z'
loop_
 _atom_site_type_symbol
 _atom_site_label
 _atom_site_symmetry_multiplicity
 _atom_site_fract_x
 _atom_site_fract_y
 _atom_site_fract_z
 _atom_site_occupancy
  Cu  Cu0  1  0.00000000  0.50000000  0.50000000  1.0
  Cu  Cu1  1  0.50000000  0.50000000  0.50000000  1.0
  H  H2  1  0.68309000  0.26560000  0.42358000  1.0
  H  H3  1  0.31690000  0.73440000  0.57642000  1.0
  H  H4  1  0.78206000  0.35119000  0.60043000  1.0
  H  H5  1  0.21795000  0.64881000  0.39958000  1.0
  H  H6  1  0.59635000  0.57355000  0.82755000  1.0
  H  H7  1  0.40364000  0.42646000  0.17245000  1.0
  H  H8  1  0.10998000  0.37083000  0.94584000  1.0
  H  H9  1  0.89001000  0.62919000  0.05417000  1.0
  H  H10  1  0.36073000  0.16960000  0.07416000  1.0
  H  H11  1  0.63928000  0.83041000  0.92585000  1.0
  H  H12  1  0.75589000  0.05286000  0.16971000  1.0
  H  H13  1  0.24411000  0.94714000  0.83029000  1.0
  C  C14  1  0.13139000  0.26101000  0.28094000  1.0
  C  C15  1  0.86862000  0.73898000  0.71905000  1.0
  C  C16  1  0.15504000  0.44026000  0.74063000  1.0
  C  C17  1  0.84496000  0.55973000  0.25937000  1.0
  C  C18  1  0.55498000  0.54211000  0.90368000  1.0
  C  C19  1  0.44502000  0.45788000  0.09631000  1.0
  C  C20  1  0.06554000  0.12461000  0.13691000  1.0
  C  C21  1  0.93445000  0.87539000  0.86308000  1.0
  C  C22  1  0.33546000  0.46919000  0.87317000  1.0
  C  C23  1  0.66456000  0.53080000  0.12682000  1.0
  C  C24  1  0.28134000  0.42698000  0.97028000  1.0
  C  C25  1  0.71867000  0.57300000  0.02970000  1.0
  C  C26  1  0.20366000  0.09452000  0.04128000  1.0
  C  C27  1  0.79635000  0.90548000  0.95872000  1.0
  C  C28  1  0.86170000  0.02925000  0.09485000  1.0
  C  C29  1  0.13830000  0.97076000  0.90516000  1.0
  O  O30  1  0.31234000  0.34752000  0.30927000  1.0
  O  O31  1  0.68767000  0.65248000  0.69073000  1.0
  O  O32  1  0.21026000  0.49125000  0.66060000  1.0
  O  O33  1  0.78973000  0.50876000  0.33941000  1.0
  O  O34  1  0.63960000  0.33135000  0.51146000  1.0
  O  O35  1  0.36040000  0.66866000  0.48855000  1.0
  O  O36  1  0.00064000  0.28564000  0.36470000  1.0
  O  O37  1  0.99937000  0.71437000  0.63529000  1.0
  O  O38  1  0.96079000  0.37268000  0.71788000  1.0
  O  O39  1  0.03921000  0.62732000  0.28213000  1.0
