# generated using pymatgen
data_CdH12(C2N)10
_symmetry_space_group_name_H-M   'P 1'
_cell_length_a   7.79757000
_cell_length_b   9.71191000
_cell_length_c   14.55560000
_cell_angle_alpha   101.10800000
_cell_angle_beta   90.04160000
_cell_angle_gamma   113.65300000
_symmetry_Int_Tables_number   1
_chemical_formula_structural   CdH12(C2N)10
_chemical_formula_sum   'Cd2 H24 C40 N20'
_cell_volume   987.02937242
_cell_formula_units_Z   2
loop_
 _symmetry_equiv_pos_site_id
 _symmetry_equiv_pos_as_xyz
  1  'x, y, z'
loop_
 _atom_site_type_symbol
 _atom_site_label
 _atom_site_symmetry_multiplicity
 _atom_site_fract_x
 _atom_site_fract_y
 _atom_site_fract_z
 _atom_site_occupancy
  Cd  Cd0  1  0.88650000  0.99994000  0.74997000  1.0
  Cd  Cd1  1  0.11349000  0.00006000  0.25004000  1.0
  H  H2  1  0.81207000  0.87672000  0.93489000  1.0
  H  H3  1  0.93505000  0.12321000  0.56500000  1.0
  H  H4  1  0.18792000  0.12328000  0.06511000  1.0
  H  H5  1  0.06495000  0.87679000  0.43501000  1.0
  H  H6  1  0.66886000  0.64067000  0.00434000  1.0
  H  H7  1  0.02834000  0.35922000  0.49548000  1.0
  H  H8  1  0.33112000  0.35932000  0.99566000  1.0
  H  H9  1  0.97165000  0.64078000  0.50452000  1.0
  H  H10  1  0.48014000  0.22894000  0.75255000  1.0
  H  H11  1  0.25128000  0.77098000  0.74713000  1.0
  H  H12  1  0.51985000  0.77106000  0.24744000  1.0
  H  H13  1  0.74873000  0.22902000  0.25288000  1.0
  H  H14  1  0.48688000  0.20170000  0.57849000  1.0
  H  H15  1  0.28439000  0.79834000  0.92132000  1.0
  H  H16  1  0.51312000  0.79829000  0.42151000  1.0
  H  H17  1  0.71561000  0.20167000  0.07868000  1.0
  H  H18  1  0.61901000  0.43277000  0.50922000  1.0
  H  H19  1  0.18482000  0.56727000  0.99063000  1.0
  H  H20  1  0.38099000  0.56723000  0.49078000  1.0
  H  H21  1  0.81518000  0.43273000  0.00937000  1.0
  H  H22  1  0.74319000  0.69515000  0.61215000  1.0
  H  H23  1  0.04696000  0.30486000  0.88771000  1.0
  H  H24  1  0.25680000  0.30485000  0.38784000  1.0
  H  H25  1  0.95305000  0.69514000  0.11229000  1.0
  C  C26  1  0.75305000  0.76224000  0.88967000  1.0
  C  C27  1  0.99050000  0.23773000  0.61020000  1.0
  C  C28  1  0.24694000  0.23776000  0.11033000  1.0
  C  C29  1  0.00950000  0.76227000  0.38981000  1.0
  C  C30  1  0.67463000  0.62927000  0.92841000  1.0
  C  C31  1  0.04531000  0.37069000  0.57144000  1.0
  C  C32  1  0.32536000  0.37073000  0.07159000  1.0
  C  C33  1  0.95470000  0.62931000  0.42857000  1.0
  C  C34  1  0.60950000  0.47651000  0.78090000  1.0
  C  C35  1  0.13277000  0.52349000  0.71891000  1.0
  C  C36  1  0.39050000  0.52349000  0.21910000  1.0
  C  C37  1  0.86724000  0.47651000  0.28109000  1.0
  C  C38  1  0.53761000  0.32899000  0.72064000  1.0
  C  C39  1  0.20841000  0.67101000  0.77913000  1.0
  C  C40  1  0.46239000  0.67101000  0.27936000  1.0
  C  C41  1  0.79160000  0.32899000  0.22087000  1.0
  C  C42  1  0.54124000  0.31508000  0.62472000  1.0
  C  C43  1  0.22547000  0.68500000  0.87508000  1.0
  C  C44  1  0.45876000  0.68492000  0.37528000  1.0
  C  C45  1  0.77454000  0.31500000  0.12493000  1.0
  C  C46  1  0.61607000  0.44723000  0.58525000  1.0
  C  C47  1  0.16773000  0.55285000  0.91456000  1.0
  C  C48  1  0.38393000  0.55277000  0.41474000  1.0
  C  C49  1  0.83227000  0.44716000  0.08544000  1.0
  C  C50  1  0.68620000  0.59267000  0.64170000  1.0
  C  C51  1  0.09256000  0.40735000  0.85813000  1.0
  C  C52  1  0.31379000  0.40733000  0.35830000  1.0
  C  C53  1  0.90745000  0.59265000  0.14187000  1.0
  C  C54  1  0.68538000  0.61041000  0.74049000  1.0
  C  C55  1  0.07435000  0.38957000  0.75935000  1.0
  C  C56  1  0.31461000  0.38959000  0.25951000  1.0
  C  C57  1  0.92566000  0.61043000  0.24065000  1.0
  C  C58  1  0.27970000  0.07680000  0.88848000  1.0
  C  C59  1  0.20317000  0.92311000  0.61159000  1.0
  C  C60  1  0.72031000  0.92320000  0.11152000  1.0
  C  C61  1  0.79683000  0.07689000  0.38841000  1.0
  C  C62  1  0.57845000  0.08290000  0.88962000  1.0
  C  C63  1  0.49565000  0.91673000  0.61022000  1.0
  C  C64  1  0.42155000  0.91710000  0.11039000  1.0
  C  C65  1  0.50435000  0.08328000  0.38979000  1.0
  N  N66  1  0.75768000  0.75361000  0.79797000  1.0
  N  N67  1  0.00346000  0.24636000  0.70192000  1.0
  N  N68  1  0.24232000  0.24639000  0.20203000  1.0
  N  N69  1  0.99654000  0.75365000  0.29808000  1.0
  N  N70  1  0.60474000  0.48874000  0.87576000  1.0
  N  N71  1  0.11610000  0.51124000  0.62404000  1.0
  N  N72  1  0.39525000  0.51126000  0.12423000  1.0
  N  N73  1  0.88391000  0.48876000  0.37595000  1.0
  N  N74  1  0.13510000  0.07389000  0.86188000  1.0
  N  N75  1  0.06167000  0.92616000  0.63830000  1.0
  N  N76  1  0.86491000  0.92610000  0.13811000  1.0
  N  N77  1  0.93831000  0.07383000  0.36169000  1.0
  N  N78  1  0.42926000  0.08068000  0.92870000  1.0
  N  N79  1  0.34859000  0.91913000  0.57124000  1.0
  N  N80  1  0.57074000  0.91932000  0.07130000  1.0
  N  N81  1  0.65142000  0.08087000  0.42877000  1.0
  N  N82  1  0.72200000  0.08553000  0.86262000  1.0
  N  N83  1  0.63663000  0.91398000  0.63713000  1.0
  N  N84  1  0.27800000  0.91447000  0.13739000  1.0
  N  N85  1  0.36337000  0.08602000  0.36288000  1.0
