# generated using pymatgen
data_CdH6C12(NO2)2
_symmetry_space_group_name_H-M   'P 1'
_cell_length_a   8.24701000
_cell_length_b   8.24700000
_cell_length_c   16.36840000
_cell_angle_alpha   90.00000000
_cell_angle_beta   90.00000000
_cell_angle_gamma   89.99990000
_symmetry_Int_Tables_number   1
_chemical_formula_structural   CdH6C12(NO2)2
_chemical_formula_sum   'Cd4 H24 C48 N8 O16'
_cell_volume   1113.26548642
_cell_formula_units_Z   4
loop_
 _symmetry_equiv_pos_site_id
 _symmetry_equiv_pos_as_xyz
  1  'x, y, z'
loop_
 _atom_site_type_symbol
 _atom_site_label
 _atom_site_symmetry_multiplicity
 _atom_site_fract_x
 _atom_site_fract_y
 _atom_site_fract_z
 _atom_site_occupancy
  Cd  Cd0  1  0.21117000  0.71117000  0.75000000  1.0
  Cd  Cd1  1  0.78883000  0.28883000  0.75000000  1.0
  Cd  Cd2  1  0.71117000  0.78883000  0.25000000  1.0
  Cd  Cd3  1  0.28883000  0.21117000  0.25000000  1.0
  H  H4  1  0.18539000  0.10969000  0.97371000  1.0
  H  H5  1  0.81461000  0.89031000  0.97371000  1.0
  H  H6  1  0.10969000  0.81461000  0.02629000  1.0
  H  H7  1  0.89031000  0.18539000  0.02629000  1.0
  H  H8  1  0.31461000  0.60969000  0.47371000  1.0
  H  H9  1  0.68539000  0.39030000  0.47371000  1.0
  H  H10  1  0.39030000  0.31461000  0.52629000  1.0
  H  H11  1  0.60970000  0.68539000  0.52629000  1.0
  H  H12  1  0.18973000  0.39555000  0.02792000  1.0
  H  H13  1  0.81027000  0.60445000  0.02792000  1.0
  H  H14  1  0.39555000  0.81027000  0.97208000  1.0
  H  H15  1  0.60445000  0.18973000  0.97208000  1.0
  H  H16  1  0.31027000  0.89555000  0.52792000  1.0
  H  H17  1  0.68973000  0.10445000  0.52792000  1.0
  H  H18  1  0.10445000  0.31027000  0.47208000  1.0
  H  H19  1  0.89555000  0.68973000  0.47208000  1.0
  H  H20  1  0.19678000  0.62416000  0.92551000  1.0
  H  H21  1  0.80322000  0.37584000  0.92551000  1.0
  H  H22  1  0.62416000  0.80322000  0.07449000  1.0
  H  H23  1  0.37584000  0.19678000  0.07449000  1.0
  H  H24  1  0.30322000  0.12416000  0.42551000  1.0
  H  H25  1  0.69678000  0.87584000  0.42551000  1.0
  H  H26  1  0.87584000  0.30322000  0.57449000  1.0
  H  H27  1  0.12416000  0.69678000  0.57449000  1.0
  C  C28  1  0.19341000  0.32018000  0.79570000  1.0
  C  C29  1  0.80659000  0.67982000  0.79570000  1.0
  C  C30  1  0.32018000  0.80659000  0.20430000  1.0
  C  C31  1  0.67982000  0.19341000  0.20430000  1.0
  C  C32  1  0.30659000  0.82018000  0.29570000  1.0
  C  C33  1  0.69341000  0.17982000  0.29570000  1.0
  C  C34  1  0.17982000  0.30659000  0.70430000  1.0
  C  C35  1  0.82018000  0.69341000  0.70430000  1.0
  C  C36  1  0.19173000  0.18550000  0.84840000  1.0
  C  C37  1  0.80828000  0.81450000  0.84840000  1.0
  C  C38  1  0.18550000  0.80828000  0.15160000  1.0
  C  C39  1  0.81450000  0.19173000  0.15160000  1.0
  C  C40  1  0.30827000  0.68550000  0.34840000  1.0
  C  C41  1  0.69172000  0.31450000  0.34840000  1.0
  C  C42  1  0.31450000  0.30827000  0.65160000  1.0
  C  C43  1  0.68550000  0.69172000  0.65160000  1.0
  C  C44  1  0.19017000  0.21341000  0.93257000  1.0
  C  C45  1  0.80983000  0.78659000  0.93257000  1.0
  C  C46  1  0.21341000  0.80983000  0.06743000  1.0
  C  C47  1  0.78659000  0.19017000  0.06743000  1.0
  C  C48  1  0.30983000  0.71341000  0.43257000  1.0
  C  C49  1  0.69017000  0.28659000  0.43257000  1.0
  C  C50  1  0.28659000  0.30983000  0.56743000  1.0
  C  C51  1  0.71341000  0.69017000  0.56743000  1.0
  C  C52  1  0.19307000  0.37133000  0.96250000  1.0
  C  C53  1  0.80693000  0.62867000  0.96250000  1.0
  C  C54  1  0.37133000  0.80693000  0.03750000  1.0
  C  C55  1  0.62867000  0.19307000  0.03750000  1.0
  C  C56  1  0.30693000  0.87133000  0.46250000  1.0
  C  C57  1  0.69307000  0.12867000  0.46250000  1.0
  C  C58  1  0.12867000  0.30693000  0.53750000  1.0
  C  C59  1  0.87133000  0.69307000  0.53750000  1.0
  C  C60  1  0.19611000  0.49773000  0.90651000  1.0
  C  C61  1  0.80389000  0.50227000  0.90651000  1.0
  C  C62  1  0.49773000  0.80389000  0.09349000  1.0
  C  C63  1  0.50227000  0.19611000  0.09349000  1.0
  C  C64  1  0.30389000  0.99773000  0.40651000  1.0
  C  C65  1  0.69611000  0.00227000  0.40651000  1.0
  C  C66  1  0.00227000  0.30389000  0.59349000  1.0
  C  C67  1  0.99773000  0.69611000  0.59349000  1.0
  C  C68  1  0.19524000  0.01520000  0.81625000  1.0
  C  C69  1  0.80476000  0.98480000  0.81625000  1.0
  C  C70  1  0.01520000  0.80476000  0.18375000  1.0
  C  C71  1  0.98481000  0.19524000  0.18375000  1.0
  C  C72  1  0.30476000  0.51520000  0.31625000  1.0
  C  C73  1  0.69524000  0.48480000  0.31625000  1.0
  C  C74  1  0.48480000  0.30476000  0.68375000  1.0
  C  C75  1  0.51520000  0.69524000  0.68375000  1.0
  N  N76  1  0.19393000  0.47296000  0.82527000  1.0
  N  N77  1  0.80608000  0.52704000  0.82528000  1.0
  N  N78  1  0.47296000  0.80608000  0.17472000  1.0
  N  N79  1  0.52704000  0.19392000  0.17472000  1.0
  N  N80  1  0.30607000  0.97296000  0.32528000  1.0
  N  N81  1  0.69392000  0.02704000  0.32527000  1.0
  N  N82  1  0.02704000  0.30608000  0.67472000  1.0
  N  N83  1  0.97296000  0.69392000  0.67473000  1.0
  O  O84  1  0.18954000  0.89779000  0.86694000  1.0
  O  O85  1  0.81046000  0.10221000  0.86694000  1.0
  O  O86  1  0.89779000  0.81046000  0.13306000  1.0
  O  O87  1  0.10221000  0.18954000  0.13306000  1.0
  O  O88  1  0.31046000  0.39779000  0.36694000  1.0
  O  O89  1  0.68954000  0.60221000  0.36694000  1.0
  O  O90  1  0.60221000  0.31046000  0.63306000  1.0
  O  O91  1  0.39779000  0.68954000  0.63306000  1.0
  O  O92  1  0.20383000  0.99546000  0.73927000  1.0
  O  O93  1  0.79617000  0.00454000  0.73927000  1.0
  O  O94  1  0.99546000  0.79617000  0.26073000  1.0
  O  O95  1  0.00454000  0.20383000  0.26073000  1.0
  O  O96  1  0.29617000  0.49546000  0.23927000  1.0
  O  O97  1  0.70383000  0.50454000  0.23927000  1.0
  O  O98  1  0.50454000  0.29617000  0.76073000  1.0
  O  O99  1  0.49546000  0.70383000  0.76073000  1.0
