# generated using pymatgen
data_FeH8Au2C14(BrN3)2
_symmetry_space_group_name_H-M   'P 1'
_cell_length_a   10.04100000
_cell_length_b   10.04100000
_cell_length_c   10.17920000
_cell_angle_alpha   75.98330000
_cell_angle_beta   75.98330000
_cell_angle_gamma   79.85890000
_symmetry_Int_Tables_number   1
_chemical_formula_structural   FeH8Au2C14(BrN3)2
_chemical_formula_sum   'Fe2 H16 Au4 C28 Br4 N12'
_cell_volume   958.53506363
_cell_formula_units_Z   2
loop_
 _symmetry_equiv_pos_site_id
 _symmetry_equiv_pos_as_xyz
  1  'x, y, z'
loop_
 _atom_site_type_symbol
 _atom_site_label
 _atom_site_symmetry_multiplicity
 _atom_site_fract_x
 _atom_site_fract_y
 _atom_site_fract_z
 _atom_site_occupancy
  Fe  Fe0  1  0.24251000  0.24252000  0.65593000  1.0
  Fe  Fe1  1  0.75749000  0.75749000  0.34407000  1.0
  H  H2  1  0.03093000  0.35193000  0.87115000  1.0
  H  H3  1  0.64807000  0.96907000  0.12885000  1.0
  H  H4  1  0.96907000  0.64807000  0.12885000  1.0
  H  H5  1  0.35193000  0.03093000  0.87115000  1.0
  H  H6  1  0.97032000  0.30602000  0.12949000  1.0
  H  H7  1  0.69398000  0.02968000  0.87051000  1.0
  H  H8  1  0.02968000  0.69398000  0.87051000  1.0
  H  H9  1  0.30602000  0.97032000  0.12949000  1.0
  H  H10  1  0.13538000  0.45710000  0.43931000  1.0
  H  H11  1  0.54290000  0.86462000  0.56069000  1.0
  H  H12  1  0.86462000  0.54290000  0.56069000  1.0
  H  H13  1  0.45710000  0.13538000  0.43931000  1.0
  H  H14  1  0.18495000  0.52070000  0.18267000  1.0
  H  H15  1  0.47930000  0.81505000  0.81733000  1.0
  H  H16  1  0.81505000  0.47930000  0.81733000  1.0
  H  H17  1  0.52070000  0.18495000  0.18267000  1.0
  Au  Au18  1  0.24725000  0.74138000  0.65503000  1.0
  Au  Au19  1  0.25862000  0.75275000  0.34497000  1.0
  Au  Au20  1  0.75275000  0.25862000  0.34497000  1.0
  Au  Au21  1  0.74138000  0.24725000  0.65503000  1.0
  C  C22  1  0.23418000  0.54571000  0.66390000  1.0
  C  C23  1  0.45429000  0.76582000  0.33610000  1.0
  C  C24  1  0.76582000  0.45429000  0.33610000  1.0
  C  C25  1  0.54571000  0.23418000  0.66390000  1.0
  C  C26  1  0.25693000  0.93677000  0.65221000  1.0
  C  C27  1  0.06322000  0.74308000  0.34780000  1.0
  C  C28  1  0.74308000  0.06322000  0.34780000  1.0
  C  C29  1  0.93678000  0.25692000  0.65221000  1.0
  C  C30  1  0.08840000  0.26783000  0.93235000  1.0
  C  C31  1  0.73217000  0.91160000  0.06765000  1.0
  C  C32  1  0.91160000  0.73217000  0.06765000  1.0
  C  C33  1  0.26783000  0.08840000  0.93235000  1.0
  C  C34  1  0.05561000  0.24236000  0.07598000  1.0
  C  C35  1  0.75764000  0.94438000  0.92401000  1.0
  C  C36  1  0.94438000  0.75764000  0.92401000  1.0
  C  C37  1  0.24236000  0.05561000  0.07598000  1.0
  C  C38  1  0.13435000  0.13435000  0.14904000  1.0
  C  C39  1  0.86565000  0.86565000  0.85096000  1.0
  C  C40  1  0.21978000  0.39925000  0.37894000  1.0
  C  C41  1  0.60075000  0.78022000  0.62106000  1.0
  C  C42  1  0.78022000  0.60075000  0.62106000  1.0
  C  C43  1  0.39925000  0.21978000  0.37894000  1.0
  C  C44  1  0.24756000  0.43401000  0.23511000  1.0
  C  C45  1  0.56599000  0.75244000  0.76489000  1.0
  C  C46  1  0.75244000  0.56599000  0.76489000  1.0
  C  C47  1  0.43401000  0.24756000  0.23511000  1.0
  C  C48  1  0.35561000  0.35561000  0.16185000  1.0
  C  C49  1  0.64439000  0.64439000  0.83815000  1.0
  Br  Br50  1  0.09921000  0.09921000  0.34415000  1.0
  Br  Br51  1  0.90079000  0.90079000  0.65585000  1.0
  Br  Br52  1  0.39218000  0.39218000  0.96642000  1.0
  Br  Br53  1  0.60782000  0.60782000  0.03357000  1.0
  N  N54  1  0.22892000  0.43030000  0.66271000  1.0
  N  N55  1  0.56970000  0.77108000  0.33729000  1.0
  N  N56  1  0.77108000  0.56970000  0.33729000  1.0
  N  N57  1  0.43030000  0.22892000  0.66271000  1.0
  N  N58  1  0.25770000  0.05390000  0.65031000  1.0
  N  N59  1  0.94611000  0.74230000  0.34969000  1.0
  N  N60  1  0.74230000  0.94611000  0.34969000  1.0
  N  N61  1  0.05389000  0.25770000  0.65031000  1.0
  N  N62  1  0.19325000  0.19325000  0.86028000  1.0
  N  N63  1  0.80675000  0.80675000  0.13972000  1.0
  N  N64  1  0.29299000  0.29299000  0.45088000  1.0
  N  N65  1  0.70701000  0.70701000  0.54911000  1.0
