# generated using pymatgen
data_Cd2CuH12C10N4Cl4O7
_symmetry_space_group_name_H-M   'P 1'
_cell_length_a   6.50757000
_cell_length_b   9.81833000
_cell_length_c   17.78690000
_cell_angle_alpha   104.99620000
_cell_angle_beta   90.34850000
_cell_angle_gamma   105.85630000
_symmetry_Int_Tables_number   1
_chemical_formula_structural   Cd2CuH12C10N4Cl4O7
_chemical_formula_sum   'Cd4 Cu2 H24 C20 N8 Cl8 O14'
_cell_volume   1052.38085278
_cell_formula_units_Z   2
loop_
 _symmetry_equiv_pos_site_id
 _symmetry_equiv_pos_as_xyz
  1  'x, y, z'
loop_
 _atom_site_type_symbol
 _atom_site_label
 _atom_site_symmetry_multiplicity
 _atom_site_fract_x
 _atom_site_fract_y
 _atom_site_fract_z
 _atom_site_occupancy
  Cd  Cd0  1  0.21617000  0.40950000  0.00949000  1.0
  Cd  Cd1  1  0.78382000  0.59049000  0.99051000  1.0
  Cd  Cd2  1  0.78991000  0.59055000  0.49694000  1.0
  Cd  Cd3  1  0.21008000  0.40946000  0.50307000  1.0
  Cu  Cu4  1  0.47843000  0.98896000  0.24961000  1.0
  Cu  Cu5  1  0.52157000  0.01104000  0.75039000  1.0
  H  H6  1  0.53851000  0.21856000  0.03197000  1.0
  H  H7  1  0.46147000  0.78142000  0.96802000  1.0
  H  H8  1  0.12405000  0.36364000  0.18948000  1.0
  H  H9  1  0.87596000  0.63638000  0.81053000  1.0
  H  H10  1  0.21231000  0.21775000  0.27900000  1.0
  H  H11  1  0.78772000  0.78227000  0.72100000  1.0
  H  H12  1  0.45621000  0.77992000  0.47435000  1.0
  H  H13  1  0.54381000  0.22009000  0.52565000  1.0
  H  H14  1  0.89307000  0.65537000  0.32183000  1.0
  H  H15  1  0.10692000  0.34463000  0.67817000  1.0
  H  H16  1  0.80357000  0.80078000  0.23294000  1.0
  H  H17  1  0.19643000  0.19921000  0.76706000  1.0
  H  H18  1  0.18908000  0.71829000  0.16279000  1.0
  H  H19  1  0.81095000  0.28171000  0.83721000  1.0
  H  H20  1  0.12104000  0.83527000  0.13314000  1.0
  H  H21  1  0.87894000  0.16472000  0.86686000  1.0
  H  H22  1  0.89635000  0.12845000  0.99354000  1.0
  H  H23  1  0.10364000  0.87154000  0.00646000  1.0
  H  H24  1  0.08402000  0.08879000  0.94462000  1.0
  H  H25  1  0.91597000  0.91120000  0.05537000  1.0
  H  H26  1  0.10973000  0.86209000  0.51442000  1.0
  H  H27  1  0.89027000  0.13791000  0.48558000  1.0
  H  H28  1  0.92530000  0.89951000  0.56214000  1.0
  H  H29  1  0.07471000  0.10050000  0.43786000  1.0
  C  C30  1  0.51750000  0.14011000  0.13610000  1.0
  C  C31  1  0.48250000  0.85988000  0.86389000  1.0
  C  C32  1  0.46666000  0.21807000  0.08708000  1.0
  C  C33  1  0.53333000  0.78192000  0.91292000  1.0
  C  C34  1  0.23644000  0.29811000  0.17437000  1.0
  C  C35  1  0.76357000  0.70189000  0.82563000  1.0
  C  C36  1  0.28331000  0.21845000  0.22371000  1.0
  C  C37  1  0.71672000  0.78156000  0.77629000  1.0
  C  C38  1  0.67659000  0.05204000  0.12151000  1.0
  C  C39  1  0.32342000  0.94797000  0.87848000  1.0
  C  C40  1  0.48141000  0.86456000  0.37220000  1.0
  C  C41  1  0.51860000  0.13545000  0.62780000  1.0
  C  C42  1  0.53290000  0.78536000  0.42052000  1.0
  C  C43  1  0.46710000  0.21465000  0.57949000  1.0
  C  C44  1  0.77450000  0.71625000  0.33562000  1.0
  C  C45  1  0.22549000  0.28375000  0.66437000  1.0
  C  C46  1  0.72543000  0.79539000  0.28652000  1.0
  C  C47  1  0.27457000  0.20461000  0.71349000  1.0
  C  C48  1  0.31977000  0.95012000  0.38736000  1.0
  C  C49  1  0.68024000  0.04989000  0.61264000  1.0
  N  N50  1  0.42137000  0.13905000  0.20301000  1.0
  N  N51  1  0.57863000  0.86095000  0.79699000  1.0
  N  N52  1  0.32416000  0.29515000  0.10615000  1.0
  N  N53  1  0.67585000  0.70484000  0.89385000  1.0
  N  N54  1  0.57935000  0.86879000  0.30599000  1.0
  N  N55  1  0.42066000  0.13121000  0.69401000  1.0
  N  N56  1  0.68035000  0.71257000  0.40211000  1.0
  N  N57  1  0.31966000  0.28744000  0.59789000  1.0
  Cl  Cl58  1  0.07784000  0.52580000  0.90423000  1.0
  Cl  Cl59  1  0.92216000  0.47419000  0.09577000  1.0
  Cl  Cl60  1  0.49957000  0.34295000  0.91861000  1.0
  Cl  Cl61  1  0.50042000  0.65704000  0.08138000  1.0
  Cl  Cl62  1  0.92103000  0.47244000  0.59885000  1.0
  Cl  Cl63  1  0.07896000  0.52757000  0.40116000  1.0
  Cl  Cl64  1  0.48831000  0.65309000  0.58324000  1.0
  Cl  Cl65  1  0.51168000  0.34692000  0.41677000  1.0
  O  O66  1  0.70316000  0.99122000  0.17477000  1.0
  O  O67  1  0.29683000  0.00877000  0.82523000  1.0
  O  O68  1  0.77466000  0.04084000  0.06021000  1.0
  O  O69  1  0.22533000  0.95915000  0.93978000  1.0
  O  O70  1  0.29067000  0.01207000  0.33444000  1.0
  O  O71  1  0.70933000  0.98793000  0.66556000  1.0
  O  O72  1  0.22186000  0.96003000  0.44810000  1.0
  O  O73  1  0.77814000  0.03997000  0.55190000  1.0
  O  O74  1  0.17754000  0.81863000  0.18100000  1.0
  O  O75  1  0.82246000  0.18137000  0.81900000  1.0
  O  O76  1  0.99375000  0.15855000  0.95422000  1.0
  O  O77  1  0.00622000  0.84143000  0.04578000  1.0
  O  O78  1  0.01503000  0.83110000  0.55392000  1.0
  O  O79  1  0.98497000  0.16890000  0.44608000  1.0
