# generated using pymatgen
data_Zn2H16C41N12O13
_symmetry_space_group_name_H-M   'P 1'
_cell_length_a   19.52400000
_cell_length_b   19.71010000
_cell_length_c   19.93870000
_cell_angle_alpha   110.74700000
_cell_angle_beta   105.52200000
_cell_angle_gamma   110.74800000
_symmetry_Int_Tables_number   1
_chemical_formula_structural   Zn2H16C41N12O13
_chemical_formula_sum   'Zn4 H32 C82 N24 O26'
_cell_volume   5993.80200303
_cell_formula_units_Z   2
loop_
 _symmetry_equiv_pos_site_id
 _symmetry_equiv_pos_as_xyz
  1  'x, y, z'
loop_
 _atom_site_type_symbol
 _atom_site_label
 _atom_site_symmetry_multiplicity
 _atom_site_fract_x
 _atom_site_fract_y
 _atom_site_fract_z
 _atom_site_occupancy
  Zn  Zn0  1  0.39465000  0.89427000  0.01525000  1.0
  Zn  Zn1  1  0.61666000  0.12251000  0.99884000  1.0
  Zn  Zn2  1  0.49680000  0.11416000  0.11380000  1.0
  Zn  Zn3  1  0.50857000  0.89797000  0.90498000  1.0
  H  H4  1  0.23620000  0.86358000  0.87808000  1.0
  H  H5  1  0.77168000  0.12860000  0.95978000  1.0
  H  H6  1  0.51488000  0.30250000  0.17049000  1.0
  H  H7  1  0.65713000  0.90226000  0.02106000  1.0
  H  H8  1  0.64407000  0.30279000  0.02438000  1.0
  H  H9  1  0.51060000  0.88360000  0.15011000  1.0
  H  H10  1  0.35310000  0.85951000  0.75033000  1.0
  H  H11  1  0.43698000  0.14184000  0.26774000  1.0
  H  H12  1  0.37740000  0.13372000  0.99105000  1.0
  H  H13  1  0.62595000  0.85766000  0.82609000  1.0
  H  H14  1  0.02516000  0.53397000  0.55713000  1.0
  H  H15  1  0.03651000  0.27357000  0.46442000  1.0
  H  H16  1  0.21031000  0.93201000  0.39874000  1.0
  H  H17  1  0.49764000  0.03397000  0.57190000  1.0
  H  H18  1  0.39921000  0.89043000  0.41543000  1.0
  H  H19  1  0.30872000  0.07576000  0.55488000  1.0
  H  H20  1  0.54116000  0.53097000  0.99711000  1.0
  H  H21  1  0.72210000  0.74654000  0.28142000  1.0
  H  H22  1  0.95807000  0.06785000  0.78180000  1.0
  H  H23  1  0.02050000  0.91143000  0.91046000  1.0
  H  H24  1  0.01094000  0.05800000  0.98567000  1.0
  H  H25  1  0.96851000  0.92199000  0.70698000  1.0
  H  H26  1  0.08221000  0.51681000  0.41587000  1.0
  H  H27  1  0.02640000  0.38491000  0.67786000  1.0
  H  H28  1  0.79165000  0.59878000  0.14172000  1.0
  H  H29  1  0.46591000  0.66895000  0.13821000  1.0
  H  H30  1  0.53807000  0.15449000  0.80626000  1.0
  H  H31  1  0.31663000  0.82211000  0.16257000  1.0
  H  H32  1  0.37964000  0.64874000  0.69531000  1.0
  H  H33  1  0.69292000  0.20611000  0.36043000  1.0
  H  H34  1  0.15821000  0.63502000  0.83493000  1.0
  H  H35  1  0.85418000  0.24530000  0.17318000  1.0
  C  C36  1  0.28299000  0.92917000  0.91175000  1.0
  C  C37  1  0.72606000  0.06325000  0.93173000  1.0
  C  C38  1  0.48997000  0.05888000  0.83884000  1.0
  C  C39  1  0.37070000  0.94058000  0.16220000  1.0
  C  C40  1  0.54431000  0.28905000  0.13233000  1.0
  C  C41  1  0.61450000  0.90348000  0.04641000  1.0
  C  C42  1  0.36536000  0.71924000  0.79926000  1.0
  C  C43  1  0.66555000  0.16051000  0.23397000  1.0
  C  C44  1  0.61037000  0.28894000  0.05745000  1.0
  C  C45  1  0.53930000  0.89406000  0.11239000  1.0
  C  C46  1  0.28135000  0.71630000  0.85639000  1.0
  C  C47  1  0.73216000  0.17080000  0.16011000  1.0
  C  C48  1  0.40061000  0.92486000  0.78744000  1.0
  C  C49  1  0.41666000  0.07751000  0.22628000  1.0
  C  C50  1  0.35505000  0.06753000  0.96997000  1.0
  C  C51  1  0.65178000  0.92452000  0.86311000  1.0
  C  C52  1  0.27629000  0.99862000  0.91331000  1.0
  C  C53  1  0.72640000  0.99136000  0.88275000  1.0
  C  C54  1  0.42134000  0.98783000  0.76681000  1.0
  C  C55  1  0.37910000  0.00516000  0.23111000  1.0
  C  C56  1  0.58454000  0.33794000  0.10333000  1.0
  C  C57  1  0.60494000  0.88277000  0.10542000  1.0
  C  C58  1  0.28581000  0.66798000  0.78710000  1.0
  C  C59  1  0.74547000  0.18995000  0.23965000  1.0
  C  C60  1  0.02695000  0.42748000  0.45388000  1.0
  C  C61  1  0.03096000  0.37602000  0.56535000  1.0
  C  C62  1  0.02701000  0.47571000  0.53638000  1.0
  C  C63  1  0.03242000  0.33060000  0.48462000  1.0
  C  C64  1  0.22293000  0.59254000  0.71849000  1.0
  C  C65  1  0.82040000  0.23714000  0.30887000  1.0
  C  C66  1  0.09697000  0.41623000  0.50015000  1.0
  C  C67  1  0.96370000  0.39241000  0.52306000  1.0
  C  C68  1  0.09857000  0.46491000  0.58273000  1.0
  C  C69  1  0.96087000  0.34162000  0.43863000  1.0
  C  C70  1  0.16695000  0.53019000  0.65625000  1.0
  C  C71  1  0.88706000  0.28185000  0.36782000  1.0
  C  C72  1  0.27433000  0.95561000  0.43746000  1.0
  C  C73  1  0.43389000  0.01069000  0.53265000  1.0
  C  C74  1  0.30673000  0.90460000  0.46676000  1.0
  C  C75  1  0.40166000  0.06179000  0.50405000  1.0
  C  C76  1  0.39060000  0.98250000  0.69191000  1.0
  C  C77  1  0.36094000  0.99774000  0.29241000  1.0
  C  C78  1  0.32815000  0.03414000  0.52361000  1.0
  C  C79  1  0.37994000  0.93205000  0.44693000  1.0
  C  C80  1  0.36076000  0.98308000  0.55572000  1.0
  C  C81  1  0.34776000  0.98334000  0.41483000  1.0
  C  C82  1  0.37158000  0.98183000  0.62807000  1.0
  C  C83  1  0.34868000  0.98848000  0.34626000  1.0
  C  C84  1  0.70693000  0.64377000  0.16392000  1.0
  C  C85  1  0.55555000  0.63259000  0.11476000  1.0
  C  C86  1  0.66559000  0.65565000  0.09350000  1.0
  C  C87  1  0.59742000  0.62170000  0.18534000  1.0
  C  C88  1  0.63524000  0.83884000  0.13439000  1.0
  C  C89  1  0.59659000  0.41647000  0.11476000  1.0
  C  C90  1  0.68198000  0.69910000  0.21827000  1.0
  C  C91  1  0.58096000  0.57829000  0.06037000  1.0
  C  C92  1  0.64271000  0.71530000  0.14939000  1.0
  C  C93  1  0.62026000  0.56182000  0.12928000  1.0
  C  C94  1  0.64819000  0.78932000  0.15127000  1.0
  C  C95  1  0.60800000  0.48404000  0.12144000  1.0
  C  C96  1  0.97181000  0.03278000  0.80994000  1.0
  C  C97  1  0.00694000  0.94688000  0.88272000  1.0
  C  C98  1  0.05053000  0.06935000  0.88676000  1.0
  C  C99  1  0.92858000  0.91050000  0.80557000  1.0
  C  C100  1  0.20283000  0.99766000  0.87840000  1.0
  C  C101  1  0.78978000  0.98869000  0.86331000  1.0
  C  C102  1  0.97834000  0.95281000  0.76895000  1.0
  C  C103  1  0.00150000  0.02704000  0.92385000  1.0
  C  C104  1  0.06007000  0.98922000  0.84622000  1.0
  C  C105  1  0.91946000  0.99067000  0.84711000  1.0
  C  C106  1  0.13564000  0.99245000  0.85482000  1.0
  C  C107  1  0.84776000  0.98908000  0.85081000  1.0
  C  C108  1  0.02671000  0.45641000  0.39400000  1.0
  C  C109  1  0.03508000  0.34885000  0.62651000  1.0
  C  C110  1  0.78718000  0.64634000  0.18865000  1.0
  C  C111  1  0.47639000  0.63194000  0.08900000  1.0
  C  C112  1  0.55082000  0.13709000  0.85341000  1.0
  C  C113  1  0.34159000  0.85234000  0.13071000  1.0
  C  C114  1  0.40914000  0.70963000  0.75114000  1.0
  C  C115  1  0.64584000  0.18643000  0.30101000  1.0
  C  C116  1  0.21117000  0.70002000  0.87412000  1.0
  C  C117  1  0.78757000  0.21103000  0.13312000  1.0
  N  N118  1  0.35880000  0.95541000  0.96406000  1.0
  N  N119  1  0.65743000  0.04100000  0.94117000  1.0
  N  N120  1  0.50538000  0.03760000  0.89638000  1.0
  N  N121  1  0.40128000  0.97428000  0.12154000  1.0
  N  N122  1  0.54641000  0.21724000  0.10520000  1.0
  N  N123  1  0.55748000  0.92322000  0.01973000  1.0
  N  N124  1  0.40324000  0.79134000  0.87032000  1.0
  N  N125  1  0.60998000  0.12236000  0.15540000  1.0
  N  N126  1  0.58683000  0.21678000  0.05832000  1.0
  N  N127  1  0.51113000  0.91712000  0.06019000  1.0
  N  N128  1  0.35354000  0.78957000  0.90482000  1.0
  N  N129  1  0.65014000  0.12770000  0.11145000  1.0
  N  N130  1  0.45274000  0.95646000  0.86516000  1.0
  N  N131  1  0.42957000  0.05679000  0.16004000  1.0
  N  N132  1  0.40337000  0.04043000  0.00027000  1.0
  N  N133  1  0.61144000  0.95526000  0.89820000  1.0
  N  N134  1  0.88791000  0.37545000  0.53125000  1.0
  N  N135  1  0.16914000  0.42690000  0.48560000  1.0
  N  N136  1  0.25605000  0.82096000  0.45268000  1.0
  N  N137  1  0.45207000  0.14510000  0.51750000  1.0
  N  N138  1  0.70156000  0.67828000  0.04368000  1.0
  N  N139  1  0.56017000  0.59745000  0.23378000  1.0
  N  N140  1  0.12132000  0.15373000  0.93090000  1.0
  N  N141  1  0.85798000  0.82599000  0.76269000  1.0
  O  O142  1  0.97037000  0.41873000  0.32683000  1.0
  O  O143  1  0.04934000  0.29246000  0.62216000  1.0
  O  O144  1  0.86232000  0.42463000  0.53159000  1.0
  O  O145  1  0.85387000  0.31019000  0.53316000  1.0
  O  O146  1  0.15855000  0.40907000  0.41611000  1.0
  O  O147  1  0.23313000  0.45066000  0.54293000  1.0
  O  O148  1  0.28430000  0.77286000  0.44232000  1.0
  O  O149  1  0.19004000  0.80629000  0.45567000  1.0
  O  O150  1  0.52148000  0.16280000  0.52240000  1.0
  O  O151  1  0.42011000  0.18957000  0.51911000  1.0
  O  O152  1  0.77399000  0.69587000  0.06192000  1.0
  O  O153  1  0.65633000  0.68022000  0.98826000  1.0
  O  O154  1  0.48470000  0.56705000  0.20698000  1.0
  O  O155  1  0.60696000  0.60614000  0.29590000  1.0
  O  O156  1  0.84382000  0.69544000  0.25598000  1.0
  O  O157  1  0.42706000  0.59607000  0.01857000  1.0
  O  O158  1  0.17041000  0.17582000  0.99904000  1.0
  O  O159  1  0.12892000  0.19530000  0.89630000  1.0
  O  O160  1  0.84223000  0.79380000  0.80390000  1.0
  O  O161  1  0.81737000  0.79461000  0.68939000  1.0
  O  O162  1  0.61754000  0.18257000  0.91527000  1.0
  O  O163  1  0.34547000  0.81067000  0.06945000  1.0
  O  O164  1  0.47695000  0.76761000  0.77203000  1.0
  O  O165  1  0.58368000  0.19170000  0.29408000  1.0
  O  O166  1  0.20871000  0.75402000  0.92676000  1.0
  O  O167  1  0.76131000  0.21256000  0.06997000  1.0
