# generated using pymatgen
data_CuH14C15(NO2)2
_symmetry_space_group_name_H-M   'P 1'
_cell_length_a   7.43769000
_cell_length_b   7.87337000
_cell_length_c   12.98040000
_cell_angle_alpha   97.12850000
_cell_angle_beta   98.50840000
_cell_angle_gamma   92.51240000
_symmetry_Int_Tables_number   1
_chemical_formula_structural   CuH14C15(NO2)2
_chemical_formula_sum   'Cu2 H28 C30 N4 O8'
_cell_volume   744.45176854
_cell_formula_units_Z   2
loop_
 _symmetry_equiv_pos_site_id
 _symmetry_equiv_pos_as_xyz
  1  'x, y, z'
loop_
 _atom_site_type_symbol
 _atom_site_label
 _atom_site_symmetry_multiplicity
 _atom_site_fract_x
 _atom_site_fract_y
 _atom_site_fract_z
 _atom_site_occupancy
  Cu  Cu0  1  0.92646000  0.44269000  0.57398000  1.0
  Cu  Cu1  1  0.07353000  0.55730000  0.42601000  1.0
  H  H2  1  0.54367000  0.20459000  0.00099000  1.0
  H  H3  1  0.45634000  0.79541000  0.99902000  1.0
  H  H4  1  0.32510000  0.35700000  0.09854000  1.0
  H  H5  1  0.67490000  0.64302000  0.90147000  1.0
  H  H6  1  0.53348000  0.36731000  0.59385000  1.0
  H  H7  1  0.46652000  0.63264000  0.40614000  1.0
  H  H8  1  0.33583000  0.28132000  0.72247000  1.0
  H  H9  1  0.66417000  0.71865000  0.27752000  1.0
  H  H10  1  0.00593000  0.34106000  0.80253000  1.0
  H  H11  1  0.99408000  0.65894000  0.19747000  1.0
  H  H12  1  0.13876000  0.29561000  0.23641000  1.0
  H  H13  1  0.86126000  0.70440000  0.76361000  1.0
  H  H14  1  0.89824000  0.05998000  0.19874000  1.0
  H  H15  1  0.10178000  0.94004000  0.80128000  1.0
  H  H16  1  0.82987000  0.26650000  0.94297000  1.0
  H  H17  1  0.17014000  0.73351000  0.05703000  1.0
  H  H18  1  0.81172000  0.01927000  0.60167000  1.0
  H  H19  1  0.18829000  0.98073000  0.39832000  1.0
  H  H20  1  0.59441000  0.91131000  0.55397000  1.0
  H  H21  1  0.40560000  0.08868000  0.44603000  1.0
  H  H22  1  0.72364000  0.00906000  0.46714000  1.0
  H  H23  1  0.27635000  0.99093000  0.53285000  1.0
  H  H24  1  0.60797000  0.10792000  0.28243000  1.0
  H  H25  1  0.39201000  0.89208000  0.71756000  1.0
  H  H26  1  0.60445000  0.27509000  0.20092000  1.0
  H  H27  1  0.39552000  0.72492000  0.79907000  1.0
  H  H28  1  0.46170000  0.27618000  0.30167000  1.0
  H  H29  1  0.53829000  0.72383000  0.69832000  1.0
  C  C30  1  0.82368000  0.77340000  0.51638000  1.0
  C  C31  1  0.17632000  0.22660000  0.48362000  1.0
  C  C32  1  0.19440000  0.15141000  0.98439000  1.0
  C  C33  1  0.80561000  0.84861000  0.01562000  1.0
  C  C34  1  0.94647000  0.98410000  0.03976000  1.0
  C  C35  1  0.05353000  0.01592000  0.96025000  1.0
  C  C36  1  0.56847000  0.26606000  0.84342000  1.0
  C  C37  1  0.43153000  0.73393000  0.15658000  1.0
  C  C38  1  0.46441000  0.21727000  0.92355000  1.0
  C  C39  1  0.53560000  0.78273000  0.07645000  1.0
  C  C40  1  0.74378000  0.34525000  0.35980000  1.0
  C  C41  1  0.25621000  0.65475000  0.64019000  1.0
  C  C42  1  0.22248000  0.25002000  0.08272000  1.0
  C  C43  1  0.77752000  0.75000000  0.91730000  1.0
  C  C44  1  0.59229000  0.34067000  0.67186000  1.0
  C  C45  1  0.40771000  0.65930000  0.32813000  1.0
  C  C46  1  0.48365000  0.29415000  0.74328000  1.0
  C  C47  1  0.51636000  0.70583000  0.25671000  1.0
  C  C48  1  0.85727000  0.32835000  0.78852000  1.0
  C  C49  1  0.14273000  0.67165000  0.21148000  1.0
  C  C50  1  0.11549000  0.21755000  0.15983000  1.0
  C  C51  1  0.88452000  0.78247000  0.84018000  1.0
  C  C52  1  0.98023000  0.08668000  0.13906000  1.0
  C  C53  1  0.01978000  0.91334000  0.86096000  1.0
  C  C54  1  0.75897000  0.28564000  0.86602000  1.0
  C  C55  1  0.24103000  0.71436000  0.13398000  1.0
  C  C56  1  0.73029000  0.93793000  0.53458000  1.0
  C  C57  1  0.26971000  0.06206000  0.46542000  1.0
  C  C58  1  0.59505000  0.24607000  0.28024000  1.0
  C  C59  1  0.40493000  0.75393000  0.71975000  1.0
  N  N60  1  0.77590000  0.35638000  0.69322000  1.0
  N  N61  1  0.22410000  0.64360000  0.30678000  1.0
  N  N62  1  0.29078000  0.18699000  0.90438000  1.0
  N  N63  1  0.70923000  0.81304000  0.09563000  1.0
  O  O64  1  0.73636000  0.33115000  0.45587000  1.0
  O  O65  1  0.26362000  0.66886000  0.54412000  1.0
  O  O66  1  0.92333000  0.75975000  0.44420000  1.0
  O  O67  1  0.07665000  0.24023000  0.55579000  1.0
  O  O68  1  0.79786000  0.66111000  0.57667000  1.0
  O  O69  1  0.20215000  0.33890000  0.42334000  1.0
  O  O70  1  0.86422000  0.43316000  0.32522000  1.0
  O  O71  1  0.13578000  0.56682000  0.67477000  1.0
