# generated using pymatgen
data_Zn3P2H12C4(SO6)2
_symmetry_space_group_name_H-M   'P 1'
_cell_length_a   5.43742000
_cell_length_b   6.05900296
_cell_length_c   23.84390000
_cell_angle_alpha   94.55651498
_cell_angle_beta   90.00740000
_cell_angle_gamma   116.65010492
_symmetry_Int_Tables_number   1
_chemical_formula_structural   Zn3P2H12C4(SO6)2
_chemical_formula_sum   'Zn6 P4 H24 C8 S4 O24'
_cell_volume   699.30792351
_cell_formula_units_Z   2
loop_
 _symmetry_equiv_pos_site_id
 _symmetry_equiv_pos_as_xyz
  1  'x, y, z'
loop_
 _atom_site_type_symbol
 _atom_site_label
 _atom_site_symmetry_multiplicity
 _atom_site_fract_x
 _atom_site_fract_y
 _atom_site_fract_z
 _atom_site_occupancy
  Zn  Zn0  1  0.73230000  0.99988000  0.74998000  1.0
  Zn  Zn1  1  0.26770000  0.00012000  0.25002000  1.0
  Zn  Zn2  1  0.21123000  0.45591000  0.70244000  1.0
  Zn  Zn3  1  0.75525000  0.54395000  0.79754000  1.0
  Zn  Zn4  1  0.78878000  0.54409000  0.29756000  1.0
  Zn  Zn5  1  0.24475000  0.45606000  0.20246000  1.0
  P  P6  1  0.23292000  0.95110000  0.66524000  1.0
  P  P7  1  0.28175000  0.04852000  0.83470000  1.0
  P  P8  1  0.76707000  0.04889000  0.33476000  1.0
  P  P9  1  0.71826000  0.95148000  0.16530000  1.0
  H  H10  1  0.31132000  0.83656000  0.56943000  1.0
  H  H11  1  0.47464000  0.16330000  0.93058000  1.0
  H  H12  1  0.68867000  0.16344000  0.43057000  1.0
  H  H13  1  0.52536000  0.83671000  0.06942000  1.0
  H  H14  1  0.00917000  0.88495000  0.57333000  1.0
  H  H15  1  0.12416000  0.11503000  0.92656000  1.0
  H  H16  1  0.99083000  0.11505000  0.42667000  1.0
  H  H17  1  0.87585000  0.88498000  0.07344000  1.0
  H  H18  1  0.85443000  0.47512000  0.53991000  1.0
  H  H19  1  0.37862000  0.52438000  0.96009000  1.0
  H  H20  1  0.14558000  0.52487000  0.46008000  1.0
  H  H21  1  0.62135000  0.47562000  0.03992000  1.0
  H  H22  1  0.75956000  0.14848000  0.53938000  1.0
  H  H23  1  0.61050000  0.85095000  0.96061000  1.0
  H  H24  1  0.24043000  0.85151000  0.46062000  1.0
  H  H25  1  0.38950000  0.14906000  0.03939000  1.0
  H  H26  1  0.82570000  0.33820000  0.60560000  1.0
  H  H27  1  0.48688000  0.66124000  0.89438000  1.0
  H  H28  1  0.17431000  0.66180000  0.39440000  1.0
  H  H29  1  0.51311000  0.33875000  0.10562000  1.0
  H  H30  1  0.72747000  0.61825000  0.69788000  1.0
  H  H31  1  0.10912000  0.38144000  0.80208000  1.0
  H  H32  1  0.27253000  0.38175000  0.30212000  1.0
  H  H33  1  0.89089000  0.61856000  0.19791000  1.0
  C  C34  1  0.22375000  0.95510000  0.58884000  1.0
  C  C35  1  0.26872000  0.04489000  0.91111000  1.0
  C  C36  1  0.77623000  0.04488000  0.41116000  1.0
  C  C37  1  0.73129000  0.95512000  0.08888000  1.0
  C  C38  1  0.74762000  0.30790000  0.56200000  1.0
  C  C39  1  0.43913000  0.69156000  0.93798000  1.0
  C  C40  1  0.25237000  0.69210000  0.43800000  1.0
  C  C41  1  0.56086000  0.30844000  0.06202000  1.0
  S  S42  1  0.39996000  0.25136000  0.56183000  1.0
  S  S43  1  0.14832000  0.74859000  0.93816000  1.0
  S  S44  1  0.60005000  0.74865000  0.43818000  1.0
  S  S45  1  0.85168000  0.25142000  0.06184000  1.0
  O  O46  1  0.06591000  0.67307000  0.67446000  1.0
  O  O47  1  0.39288000  0.32655000  0.82544000  1.0
  O  O48  1  0.93410000  0.32692000  0.32553000  1.0
  O  O49  1  0.60713000  0.67347000  0.17456000  1.0
  O  O50  1  0.06865000  0.09050000  0.68744000  1.0
  O  O51  1  0.97797000  0.90930000  0.81255000  1.0
  O  O52  1  0.93133000  0.90948000  0.31256000  1.0
  O  O53  1  0.02203000  0.09069000  0.18745000  1.0
  O  O54  1  0.53131000  0.07077000  0.68638000  1.0
  O  O55  1  0.46008000  0.92841000  0.81355000  1.0
  O  O56  1  0.46867000  0.92921000  0.31362000  1.0
  O  O57  1  0.53994000  0.07159000  0.18645000  1.0
  O  O58  1  0.30075000  0.22242000  0.50357000  1.0
  O  O59  1  0.07837000  0.77764000  0.99643000  1.0
  O  O60  1  0.69926000  0.77759000  0.49643000  1.0
  O  O61  1  0.92164000  0.22239000  0.00358000  1.0
  O  O62  1  0.37304000  0.44011000  0.59989000  1.0
  O  O63  1  0.93226000  0.56002000  0.90014000  1.0
  O  O64  1  0.62696000  0.55989000  0.40011000  1.0
  O  O65  1  0.06774000  0.43999000  0.09986000  1.0
  O  O66  1  0.60125000  0.62661000  0.72697000  1.0
  O  O67  1  0.97448000  0.37319000  0.77301000  1.0
  O  O68  1  0.39875000  0.37338000  0.27302000  1.0
  O  O69  1  0.02552000  0.62681000  0.22699000  1.0
