# generated using pymatgen
data_CuH2C6N7
_symmetry_space_group_name_H-M   'P 1'
_cell_length_a   31.91320000
_cell_length_b   32.59430000
_cell_length_c   32.62020000
_cell_angle_alpha   90.05050000
_cell_angle_beta   89.99370000
_cell_angle_gamma   89.77990000
_symmetry_Int_Tables_number   1
_chemical_formula_structural   CuH2C6N7
_chemical_formula_sum   'Cu12 H24 C72 N84'
_cell_volume   33930.89037075
_cell_formula_units_Z   12
loop_
 _symmetry_equiv_pos_site_id
 _symmetry_equiv_pos_as_xyz
  1  'x, y, z'
loop_
 _atom_site_type_symbol
 _atom_site_label
 _atom_site_symmetry_multiplicity
 _atom_site_fract_x
 _atom_site_fract_y
 _atom_site_fract_z
 _atom_site_occupancy
  Cu  Cu0  1  0.12458000  0.83628000  0.91388000  1.0
  Cu  Cu1  1  0.16423000  0.91668000  0.87548000  1.0
  Cu  Cu2  1  0.08499000  0.87456000  0.83303000  1.0
  Cu  Cu3  1  0.87513000  0.33652000  0.58611000  1.0
  Cu  Cu4  1  0.83429000  0.41663000  0.62529000  1.0
  Cu  Cu5  1  0.91523000  0.37543000  0.66621000  1.0
  Cu  Cu6  1  0.62582000  0.66394000  0.08726000  1.0
  Cu  Cu7  1  0.66502000  0.58238000  0.12471000  1.0
  Cu  Cu8  1  0.58440000  0.62411000  0.16605000  1.0
  Cu  Cu9  1  0.37585000  0.16334000  0.41439000  1.0
  Cu  Cu10  1  0.33497000  0.08412000  0.37466000  1.0
  Cu  Cu11  1  0.41458000  0.12583000  0.33261000  1.0
  H  H12  1  0.19048000  0.81777000  0.98487000  1.0
  H  H13  1  0.23496000  0.93586000  0.94213000  1.0
  H  H14  1  0.01423000  0.80796000  0.81398000  1.0
  H  H15  1  0.05878000  0.76566000  0.93235000  1.0
  H  H16  1  0.18199000  0.98852000  0.81199000  1.0
  H  H17  1  0.06759000  0.93825000  0.76099000  1.0
  H  H18  1  0.81114000  0.31932000  0.51359000  1.0
  H  H19  1  0.76161000  0.43444000  0.56013000  1.0
  H  H20  1  0.98771000  0.30999000  0.68441000  1.0
  H  H21  1  0.93978000  0.26404000  0.56875000  1.0
  H  H22  1  0.81672000  0.48857000  0.68917000  1.0
  H  H23  1  0.93285000  0.43909000  0.73795000  1.0
  H  H24  1  0.69179000  0.68252000  0.01678000  1.0
  H  H25  1  0.73593000  0.56339000  0.05784000  1.0
  H  H26  1  0.51144000  0.68930000  0.18392000  1.0
  H  H27  1  0.56159000  0.73678000  0.06986000  1.0
  H  H28  1  0.68274000  0.51072000  0.18868000  1.0
  H  H29  1  0.56680000  0.56049000  0.23771000  1.0
  H  H30  1  0.31170000  0.18054000  0.48723000  1.0
  H  H31  1  0.26272000  0.06590000  0.43988000  1.0
  H  H32  1  0.48516000  0.19246000  0.31360000  1.0
  H  H33  1  0.44177000  0.23388000  0.43276000  1.0
  H  H34  1  0.31738000  0.01214000  0.31125000  1.0
  H  H35  1  0.43206000  0.06206000  0.26056000  1.0
  C  C36  1  0.65333000  0.37586000  0.40244000  1.0
  C  C37  1  0.62469000  0.40369000  0.34585000  1.0
  C  C38  1  0.59645000  0.34707000  0.37373000  1.0
  C  C39  1  0.34601000  0.87642000  0.09740000  1.0
  C  C40  1  0.40304000  0.84757000  0.12613000  1.0
  C  C41  1  0.37444000  0.90430000  0.15399000  1.0
  C  C42  1  0.15407000  0.12339000  0.59777000  1.0
  C  C43  1  0.12543000  0.09561000  0.65426000  1.0
  C  C44  1  0.09704000  0.15239000  0.62642000  1.0
  C  C45  1  0.84680000  0.62400000  0.90289000  1.0
  C  C46  1  0.90366000  0.65271000  0.87405000  1.0
  C  C47  1  0.87518000  0.59615000  0.84612000  1.0
  C  C48  1  0.19598000  0.84642000  0.96891000  1.0
  C  C49  1  0.22603000  0.87683000  0.97690000  1.0
  C  C50  1  0.21862000  0.90718000  0.94713000  1.0
  C  C51  1  0.03057000  0.80304000  0.84273000  1.0
  C  C52  1  0.02321000  0.77340000  0.87318000  1.0
  C  C53  1  0.05325000  0.78149000  0.90362000  1.0
  C  C54  1  0.15422000  0.97080000  0.80487000  1.0
  C  C55  1  0.12484000  0.97661000  0.77328000  1.0
  C  C56  1  0.09534000  0.94519000  0.77887000  1.0
  C  C57  1  0.80438000  0.34726000  0.53046000  1.0
  C  C58  1  0.77304000  0.37688000  0.52340000  1.0
  C  C59  1  0.77915000  0.40649000  0.55419000  1.0
  C  C60  1  0.97053000  0.30422000  0.65631000  1.0
  C  C61  1  0.97712000  0.27359000  0.62658000  1.0
  C  C62  1  0.94612000  0.28079000  0.59679000  1.0
  C  C63  1  0.84492000  0.47108000  0.69575000  1.0
  C  C64  1  0.87481000  0.47709000  0.72683000  1.0
  C  C65  1  0.90465000  0.44585000  0.72062000  1.0
  C  C66  1  0.69723000  0.65359000  0.03233000  1.0
  C  C67  1  0.72718000  0.62299000  0.02388000  1.0
  C  C68  1  0.71969000  0.59231000  0.05325000  1.0
  C  C69  1  0.52915000  0.69544000  0.15622000  1.0
  C  C70  1  0.52316000  0.72650000  0.12686000  1.0
  C  C71  1  0.55472000  0.71966000  0.09753000  1.0
  C  C72  1  0.65458000  0.52827000  0.19531000  1.0
  C  C73  1  0.62476000  0.52241000  0.22648000  1.0
  C  C74  1  0.59492000  0.55363000  0.22029000  1.0
  C  C75  1  0.30510000  0.15273000  0.47016000  1.0
  C  C76  1  0.27393000  0.12314000  0.47702000  1.0
  C  C77  1  0.28016000  0.09374000  0.44601000  1.0
  C  C78  1  0.46908000  0.19718000  0.34253000  1.0
  C  C79  1  0.47678000  0.22655000  0.37320000  1.0
  C  C80  1  0.44701000  0.21827000  0.40383000  1.0
  C  C81  1  0.34521000  0.02977000  0.30419000  1.0
  C  C82  1  0.37470000  0.02381000  0.27271000  1.0
  C  C83  1  0.40423000  0.05522000  0.27834000  1.0
  C  C84  1  0.31343000  0.87664000  0.06484000  1.0
  C  C85  1  0.25746000  0.87682000  0.00861000  1.0
  C  C86  1  0.68587000  0.37624000  0.43512000  1.0
  C  C87  1  0.74167000  0.37674000  0.49156000  1.0
  C  C88  1  0.81438000  0.62366000  0.93564000  1.0
  C  C89  1  0.75860000  0.62318000  0.99211000  1.0
  C  C90  1  0.18672000  0.12312000  0.56522000  1.0
  C  C91  1  0.24257000  0.12304000  0.50885000  1.0
  C  C92  1  0.93611000  0.68533000  0.87371000  1.0
  C  C93  1  0.99187000  0.74164000  0.87328000  1.0
  C  C94  1  0.56403000  0.31443000  0.37351000  1.0
  C  C95  1  0.50823000  0.25817000  0.37326000  1.0
  C  C96  1  0.06449000  0.18518000  0.62658000  1.0
  C  C97  1  0.00862000  0.24175000  0.62663000  1.0
  C  C98  1  0.43568000  0.81484000  0.12643000  1.0
  C  C99  1  0.49169000  0.75838000  0.12680000  1.0
  C  C100  1  0.12530000  0.06333000  0.68650000  1.0
  C  C101  1  0.12500000  0.00787000  0.74201000  1.0
  C  C102  1  0.62467000  0.43590000  0.31352000  1.0
  C  C103  1  0.62474000  0.49126000  0.25787000  1.0
  C  C104  1  0.37448000  0.93666000  0.18620000  1.0
  C  C105  1  0.37465000  0.99238000  0.24156000  1.0
  C  C106  1  0.87510000  0.56388000  0.81378000  1.0
  C  C107  1  0.87490000  0.50837000  0.75817000  1.0
  N  N108  1  0.65496000  0.40575000  0.37427000  1.0
  N  N109  1  0.59447000  0.37531000  0.34389000  1.0
  N  N110  1  0.62504000  0.34561000  0.40383000  1.0
  N  N111  1  0.37464000  0.84623000  0.09590000  1.0
  N  N112  1  0.40474000  0.87576000  0.15605000  1.0
  N  N113  1  0.34413000  0.90633000  0.12562000  1.0
  N  N114  1  0.15577000  0.09345000  0.62590000  1.0
  N  N115  1  0.09517000  0.12419000  0.65627000  1.0
  N  N116  1  0.12561000  0.15371000  0.59632000  1.0
  N  N117  1  0.87525000  0.65414000  0.90430000  1.0
  N  N118  1  0.90545000  0.62449000  0.84412000  1.0
  N  N119  1  0.84495000  0.59418000  0.87458000  1.0
  N  N120  1  0.18671000  0.89550000  0.92308000  1.0
  N  N121  1  0.17231000  0.85800000  0.93695000  1.0
  N  N122  1  0.07685000  0.81339000  0.89198000  1.0
  N  N123  1  0.06244000  0.82712000  0.85439000  1.0
  N  N124  1  0.10654000  0.92225000  0.81124000  1.0
  N  N125  1  0.14286000  0.93846000  0.82768000  1.0
  N  N126  1  0.81155000  0.39517000  0.57790000  1.0
  N  N127  1  0.82747000  0.35858000  0.56288000  1.0
  N  N128  1  0.92275000  0.31316000  0.60811000  1.0
  N  N129  1  0.93819000  0.32800000  0.64486000  1.0
  N  N130  1  0.89319000  0.42287000  0.68840000  1.0
  N  N131  1  0.85630000  0.43880000  0.67267000  1.0
  N  N132  1  0.68781000  0.60397000  0.07748000  1.0
  N  N133  1  0.67354000  0.64182000  0.06415000  1.0
  N  N134  1  0.57785000  0.68711000  0.10878000  1.0
  N  N135  1  0.56170000  0.67179000  0.14500000  1.0
  N  N136  1  0.60631000  0.57649000  0.18799000  1.0
  N  N137  1  0.64314000  0.56046000  0.17219000  1.0
  N  N138  1  0.31247000  0.10516000  0.42237000  1.0
  N  N139  1  0.32824000  0.14158000  0.43765000  1.0
  N  N140  1  0.42324000  0.18650000  0.39210000  1.0
  N  N141  1  0.43728000  0.17307000  0.35424000  1.0
  N  N142  1  0.39294000  0.07827000  0.31064000  1.0
  N  N143  1  0.35652000  0.06218000  0.32697000  1.0
  N  N144  1  0.29414000  0.84073000  0.05702000  1.0
  N  N145  1  0.30586000  0.91267000  0.04588000  1.0
  N  N146  1  0.27737000  0.91276000  0.01663000  1.0
  N  N147  1  0.26502000  0.84082000  0.02839000  1.0
  N  N148  1  0.69106000  0.41163000  0.45590000  1.0
  N  N149  1  0.70749000  0.34113000  0.44117000  1.0
  N  N150  1  0.73659000  0.34145000  0.46984000  1.0
  N  N151  1  0.71941000  0.41183000  0.48532000  1.0
  N  N152  1  0.80710000  0.58752000  0.95438000  1.0
  N  N153  1  0.79496000  0.65957000  0.94386000  1.0
  N  N154  1  0.76595000  0.65933000  0.97262000  1.0
  N  N155  1  0.77870000  0.58727000  0.98374000  1.0
  N  N156  1  0.19245000  0.08777000  0.54444000  1.0
  N  N157  1  0.20784000  0.15837000  0.55924000  1.0
  N  N158  1  0.23698000  0.15827000  0.53060000  1.0
  N  N159  1  0.22084000  0.08778000  0.51505000  1.0
  N  N160  1  0.94334000  0.70428000  0.83768000  1.0
  N  N161  1  0.95569000  0.69317000  0.90951000  1.0
  N  N162  1  0.98468000  0.72185000  0.90928000  1.0
  N  N163  1  0.97172000  0.73357000  0.83745000  1.0
  N  N164  1  0.55657000  0.29552000  0.33745000  1.0
  N  N165  1  0.54484000  0.30641000  0.40945000  1.0
  N  N166  1  0.51583000  0.27776000  0.40933000  1.0
  N  N167  1  0.52817000  0.26626000  0.33732000  1.0
  N  N168  1  0.05854000  0.20568000  0.66203000  1.0
  N  N169  1  0.04371000  0.19165000  0.59116000  1.0
  N  N170  1  0.01457000  0.22041000  0.59124000  1.0
  N  N171  1  0.03015000  0.23518000  0.66201000  1.0
  N  N172  1  0.44101000  0.79399000  0.16173000  1.0
  N  N173  1  0.45726000  0.80890000  0.09137000  1.0
  N  N174  1  0.48648000  0.78021000  0.09163000  1.0
  N  N175  1  0.46947000  0.76454000  0.16186000  1.0
  N  N176  1  0.08942000  0.04224000  0.69160000  1.0
  N  N177  1  0.16103000  0.05796000  0.70790000  1.0
  N  N178  1  0.16079000  0.02979000  0.73689000  1.0
  N  N179  1  0.08935000  0.01328000  0.71980000  1.0
  N  N180  1  0.66064000  0.44119000  0.29254000  1.0
  N  N181  1  0.58877000  0.45712000  0.30801000  1.0
  N  N182  1  0.58888000  0.48602000  0.27974000  1.0
  N  N183  1  0.66061000  0.46931000  0.26349000  1.0
  N  N184  1  0.41027000  0.95793000  0.19116000  1.0
  N  N185  1  0.33881000  0.94189000  0.20776000  1.0
  N  N186  1  0.33900000  0.97019000  0.23667000  1.0
  N  N187  1  0.41028000  0.98702000  0.21928000  1.0
  N  N188  1  0.83921000  0.55881000  0.79261000  1.0
  N  N189  1  0.91089000  0.54243000  0.80842000  1.0
  N  N190  1  0.91071000  0.51345000  0.78018000  1.0
  N  N191  1  0.83919000  0.53062000  0.76359000  1.0
