# generated using pymatgen
data_AlH12C24S3(NO5)3
_symmetry_space_group_name_H-M   'P 1'
_cell_length_a   4.27435000
_cell_length_b   15.66120000
_cell_length_c   15.68348710
_cell_angle_alpha   119.94323672
_cell_angle_beta   90.57216569
_cell_angle_gamma   93.10570000
_symmetry_Int_Tables_number   1
_chemical_formula_structural   AlH12C24S3(NO5)3
_chemical_formula_sum   'Al1 H12 C24 S3 N3 O15'
_cell_volume   907.56998412
_cell_formula_units_Z   1
loop_
 _symmetry_equiv_pos_site_id
 _symmetry_equiv_pos_as_xyz
  1  'x, y, z'
loop_
 _atom_site_type_symbol
 _atom_site_label
 _atom_site_symmetry_multiplicity
 _atom_site_fract_x
 _atom_site_fract_y
 _atom_site_fract_z
 _atom_site_occupancy
  Al  Al0  1  0.01643000  0.99907000  0.50014000  1.0
  H  H1  1  0.46669000  0.08425000  0.95823000  1.0
  H  H2  1  0.48371000  0.37106000  0.41182000  1.0
  H  H3  1  0.40853000  0.53796000  0.12521000  1.0
  H  H4  1  0.39014000  0.73718000  0.49024000  1.0
  H  H5  1  0.32503000  0.55331000  0.40563000  1.0
  H  H6  1  0.44562000  0.00434000  0.24712000  1.0
  H  H7  1  0.37280000  0.08688000  0.14782000  1.0
  H  H8  1  0.46284000  0.25100000  0.75882000  1.0
  H  H9  1  0.38512000  0.34717000  0.93964000  1.0
  H  H10  1  0.02467000  0.90625000  0.69464000  1.0
  H  H11  1  0.98608000  0.80779000  0.21484000  1.0
  H  H12  1  0.06842000  0.28779000  0.59301000  1.0
  C  C13  1  0.53025000  0.05774000  0.64677000  1.0
  C  C14  1  0.48161000  0.85163000  0.41081000  1.0
  C  C15  1  0.52789000  0.08754000  0.44164000  1.0
  C  C16  1  0.49902000  0.11299000  0.75622000  1.0
  C  C17  1  0.49641000  0.14105000  0.38547000  1.0
  C  C18  1  0.42964000  0.74123000  0.35542000  1.0
  C  C19  1  0.49709000  0.06659000  0.81322000  1.0
  C  C20  1  0.45619000  0.12006000  0.91414000  1.0
  C  C21  1  0.50652000  0.24457000  0.43131000  1.0
  C  C22  1  0.46414000  0.29084000  0.37631000  1.0
  C  C23  1  0.42816000  0.68421000  0.25215000  1.0
  C  C24  1  0.39293000  0.58159000  0.20475000  1.0
  C  C25  1  0.38735000  0.69317000  0.41006000  1.0
  C  C26  1  0.35054000  0.59060000  0.36294000  1.0
  C  C27  1  0.44803000  0.08465000  0.28296000  1.0
  C  C28  1  0.40622000  0.13054000  0.22762000  1.0
  C  C29  1  0.45844000  0.21451000  0.80264000  1.0
  C  C30  1  0.41439000  0.26816000  0.90341000  1.0
  C  C31  1  0.41333000  0.22133000  0.95990000  1.0
  C  C32  1  0.38652000  0.27818000  0.06792000  1.0
  C  C33  1  0.41231000  0.23395000  0.27398000  1.0
  C  C34  1  0.38626000  0.28402000  0.21571000  1.0
  C  C35  1  0.35704000  0.53400000  0.25991000  1.0
  C  C36  1  0.35603000  0.42511000  0.20918000  1.0
  S  S37  1  0.58013000  0.94037000  0.76454000  1.0
  S  S38  1  0.52298000  0.73572000  0.17557000  1.0
  S  S39  1  0.62319000  0.32378000  0.55822000  1.0
  N  N40  1  0.39873000  0.22865000  0.11740000  1.0
  N  N41  1  0.36340000  0.38241000  0.26513000  1.0
  N  N42  1  0.36306000  0.37611000  0.11030000  1.0
  O  O43  1  0.76203000  0.03556000  0.42365000  1.0
  O  O44  1  0.77910000  0.07651000  0.61405000  1.0
  O  O45  1  0.73344000  0.88618000  0.46382000  1.0
  O  O46  1  0.30786000  0.09682000  0.49939000  1.0
  O  O47  1  0.26478000  0.89961000  0.40187000  1.0
  O  O48  1  0.29533000  0.99925000  0.59728000  1.0
  O  O49  1  0.29819000  0.87530000  0.71584000  1.0
  O  O50  1  0.72942000  0.93120000  0.84160000  1.0
  O  O51  1  0.80011000  0.92344000  0.68069000  1.0
  O  O52  1  0.25602000  0.78187000  0.16057000  1.0
  O  O53  1  0.65733000  0.66088000  0.08869000  1.0
  O  O54  1  0.76020000  0.82293000  0.24293000  1.0
  O  O55  1  0.35742000  0.34087000  0.62160000  1.0
  O  O56  1  0.79077000  0.40987000  0.56712000  1.0
  O  O57  1  0.83330000  0.25783000  0.57838000  1.0
