# generated using pymatgen
data_ZnH14C20(N2O3)2
_symmetry_space_group_name_H-M   'P 1'
_cell_length_a   8.60844000
_cell_length_b   10.22080000
_cell_length_c   13.57680000
_cell_angle_alpha   71.41000000
_cell_angle_beta   89.99950000
_cell_angle_gamma   89.99690000
_symmetry_Int_Tables_number   1
_chemical_formula_structural   ZnH14C20(N2O3)2
_chemical_formula_sum   'Zn2 H28 C40 N8 O12'
_cell_volume   1132.22958207
_cell_formula_units_Z   2
loop_
 _symmetry_equiv_pos_site_id
 _symmetry_equiv_pos_as_xyz
  1  'x, y, z'
loop_
 _atom_site_type_symbol
 _atom_site_label
 _atom_site_symmetry_multiplicity
 _atom_site_fract_x
 _atom_site_fract_y
 _atom_site_fract_z
 _atom_site_occupancy
  Zn  Zn0  1  0.68101000  0.25000000  0.75002000  1.0
  Zn  Zn1  1  0.31899000  0.75000000  0.24999000  1.0
  H  H2  1  0.62980000  0.59076000  0.64999000  1.0
  H  H3  1  0.62979000  0.90926000  0.85001000  1.0
  H  H4  1  0.37020000  0.40925000  0.35000000  1.0
  H  H5  1  0.37023000  0.09077000  0.14999000  1.0
  H  H6  1  0.37980000  0.68367000  0.54611000  1.0
  H  H7  1  0.37979000  0.81631000  0.95388000  1.0
  H  H8  1  0.62021000  0.31633000  0.45389000  1.0
  H  H9  1  0.62022000  0.18365000  0.04611000  1.0
  H  H10  1  0.35814000  0.24758000  0.64908000  1.0
  H  H11  1  0.35815000  0.25242000  0.85092000  1.0
  H  H12  1  0.64185000  0.75242000  0.35091000  1.0
  H  H13  1  0.64185000  0.74755000  0.14907000  1.0
  H  H14  1  0.09354000  0.67039000  0.58233000  1.0
  H  H15  1  0.09354000  0.82964000  0.91763000  1.0
  H  H16  1  0.90646000  0.32963000  0.41766000  1.0
  H  H17  1  0.90647000  0.17035000  0.08234000  1.0
  H  H18  1  0.16909000  0.30571000  0.49420000  1.0
  H  H19  1  0.16910000  0.19429000  0.00580000  1.0
  H  H20  1  0.83090000  0.69431000  0.50579000  1.0
  H  H21  1  0.83090000  0.80571000  0.99417000  1.0
  H  H22  1  0.01373000  0.09879000  0.70148000  1.0
  H  H23  1  0.01370000  0.40118000  0.79855000  1.0
  H  H24  1  0.98628000  0.90121000  0.29855000  1.0
  H  H25  1  0.98627000  0.59881000  0.20146000  1.0
  H  H26  1  0.72861000  0.05106000  0.43761000  1.0
  H  H27  1  0.72861000  0.44894000  0.06241000  1.0
  H  H28  1  0.27139000  0.94896000  0.56239000  1.0
  H  H29  1  0.27139000  0.55105000  0.93760000  1.0
  C  C30  1  0.53353000  0.52921000  0.63812000  1.0
  C  C31  1  0.53352000  0.97080000  0.86187000  1.0
  C  C32  1  0.46648000  0.47080000  0.36187000  1.0
  C  C33  1  0.46649000  0.02920000  0.13812000  1.0
  C  C34  1  0.30610000  0.47229000  0.58654000  1.0
  C  C35  1  0.30613000  0.02772000  0.91346000  1.0
  C  C36  1  0.69387000  0.52772000  0.41345000  1.0
  C  C37  1  0.69390000  0.97228000  0.08653000  1.0
  C  C38  1  0.39079000  0.35458000  0.63414000  1.0
  C  C39  1  0.39080000  0.14544000  0.86586000  1.0
  C  C40  1  0.60920000  0.64544000  0.36585000  1.0
  C  C41  1  0.60922000  0.85457000  0.13412000  1.0
  C  C42  1  0.15107000  0.48779000  0.54205000  1.0
  C  C43  1  0.15109000  0.01221000  0.95795000  1.0
  C  C44  1  0.84891000  0.51221000  0.45796000  1.0
  C  C45  1  0.84892000  0.98778000  0.04203000  1.0
  C  C46  1  0.05363000  0.59677000  0.54489000  1.0
  C  C47  1  0.05360000  0.90323000  0.95511000  1.0
  C  C48  1  0.94639000  0.40323000  0.45512000  1.0
  C  C49  1  0.94636000  0.09675000  0.04488000  1.0
  C  C50  1  0.09487000  0.39088000  0.49696000  1.0
  C  C51  1  0.09486000  0.10911000  0.00306000  1.0
  C  C52  1  0.90514000  0.60913000  0.50305000  1.0
  C  C53  1  0.90509000  0.89088000  0.99693000  1.0
  C  C54  1  0.78336000  0.12940000  0.60295000  1.0
  C  C55  1  0.78339000  0.37060000  0.89706000  1.0
  C  C56  1  0.21663000  0.87061000  0.39705000  1.0
  C  C57  1  0.21662000  0.62939000  0.10294000  1.0
  C  C58  1  0.89587000  0.05980000  0.55289000  1.0
  C  C59  1  0.89585000  0.44021000  0.94713000  1.0
  C  C60  1  0.10416000  0.94021000  0.44714000  1.0
  C  C61  1  0.10413000  0.55979000  0.05289000  1.0
  C  C62  1  0.05075000  0.03042000  0.58981000  1.0
  C  C63  1  0.05074000  0.46958000  0.91020000  1.0
  C  C64  1  0.94928000  0.96959000  0.41020000  1.0
  C  C65  1  0.94925000  0.53042000  0.08981000  1.0
  C  C66  1  0.84799000  0.02844000  0.46436000  1.0
  C  C67  1  0.84797000  0.47156000  0.03564000  1.0
  C  C68  1  0.15205000  0.97157000  0.53565000  1.0
  C  C69  1  0.15202000  0.52843000  0.96438000  1.0
  N  N70  1  0.53141000  0.39161000  0.66608000  1.0
  N  N71  1  0.53138000  0.10838000  0.83393000  1.0
  N  N72  1  0.46860000  0.60839000  0.33391000  1.0
  N  N73  1  0.46857000  0.89160000  0.16609000  1.0
  N  N74  1  0.39920000  0.58147000  0.59032000  1.0
  N  N75  1  0.39922000  0.91853000  0.90966000  1.0
  N  N76  1  0.60079000  0.41853000  0.40966000  1.0
  N  N77  1  0.60081000  0.08146000  0.09033000  1.0
  O  O78  1  0.83052000  0.14810000  0.68944000  1.0
  O  O79  1  0.83057000  0.35189000  0.81057000  1.0
  O  O80  1  0.16946000  0.85189000  0.31057000  1.0
  O  O81  1  0.16943000  0.64811000  0.18943000  1.0
  O  O82  1  0.65288000  0.16891000  0.56370000  1.0
  O  O83  1  0.65292000  0.33107000  0.93633000  1.0
  O  O84  1  0.34711000  0.83110000  0.43632000  1.0
  O  O85  1  0.34709000  0.66890000  0.06368000  1.0
  O  O86  1  0.10490000  0.05893000  0.67472000  1.0
  O  O87  1  0.10489000  0.44106000  0.82529000  1.0
  O  O88  1  0.89509000  0.94110000  0.32528000  1.0
  O  O89  1  0.89511000  0.55893000  0.17472000  1.0
