# generated using pymatgen
data_CdH22C18S(NO)6
_symmetry_space_group_name_H-M   'P 1'
_cell_length_a   8.90995000
_cell_length_b   12.01210000
_cell_length_c   12.71700000
_cell_angle_alpha   89.86000000
_cell_angle_beta   79.80870000
_cell_angle_gamma   69.39130000
_symmetry_Int_Tables_number   1
_chemical_formula_structural   CdH22C18S(NO)6
_chemical_formula_sum   'Cd2 H44 C36 S2 N12 O12'
_cell_volume   1251.21761784
_cell_formula_units_Z   2
loop_
 _symmetry_equiv_pos_site_id
 _symmetry_equiv_pos_as_xyz
  1  'x, y, z'
loop_
 _atom_site_type_symbol
 _atom_site_label
 _atom_site_symmetry_multiplicity
 _atom_site_fract_x
 _atom_site_fract_y
 _atom_site_fract_z
 _atom_site_occupancy
  Cd  Cd0  1  0.21791000  0.26136000  0.30049000  1.0
  Cd  Cd1  1  0.78209000  0.73864000  0.69951000  1.0
  H  H2  1  0.00618000  0.49778000  0.41872000  1.0
  H  H3  1  0.99382000  0.50222000  0.58129000  1.0
  H  H4  1  0.91303000  0.40561000  0.40531000  1.0
  H  H5  1  0.08697000  0.59439000  0.59469000  1.0
  H  H6  1  0.40615000  0.36242000  0.43228000  1.0
  H  H7  1  0.59385000  0.63758000  0.56772000  1.0
  H  H8  1  0.53826000  0.28147000  0.33424000  1.0
  H  H9  1  0.46174000  0.71854000  0.66575000  1.0
  H  H10  1  0.28120000  0.75122000  0.23305000  1.0
  H  H11  1  0.71880000  0.24878000  0.76695000  1.0
  H  H12  1  0.82786000  0.02786000  0.20718000  1.0
  H  H13  1  0.17214000  0.97214000  0.79282000  1.0
  H  H14  1  0.07684000  0.75605000  0.94972000  1.0
  H  H15  1  0.92316000  0.24395000  0.05028000  1.0
  H  H16  1  0.35887000  0.62906000  0.95316000  1.0
  H  H17  1  0.64113000  0.37094000  0.04684000  1.0
  H  H18  1  0.44346000  0.62295000  0.07201000  1.0
  H  H19  1  0.55654000  0.37705000  0.92799000  1.0
  H  H20  1  0.37802000  0.48228000  0.21843000  1.0
  H  H21  1  0.62198000  0.51772000  0.78157000  1.0
  H  H22  1  0.11646000  0.32955000  0.05646000  1.0
  H  H23  1  0.88353000  0.67045000  0.94353000  1.0
  H  H24  1  0.18132000  0.50953000  0.93511000  1.0
  H  H25  1  0.81867000  0.49047000  0.06489000  1.0
  H  H26  1  0.15974000  0.91381000  0.36655000  1.0
  H  H27  1  0.84026000  0.08619000  0.63345000  1.0
  H  H28  1  0.01259000  0.04716000  0.33352000  1.0
  H  H29  1  0.98741000  0.95284000  0.66648000  1.0
  H  H30  1  0.06145000  0.77292000  0.49036000  1.0
  H  H31  1  0.93856000  0.22708000  0.50964000  1.0
  H  H32  1  0.56410000  0.98824000  0.57864000  1.0
  H  H33  1  0.43590000  0.01176000  0.42136000  1.0
  H  H34  1  0.71042000  0.08701000  0.40724000  1.0
  H  H35  1  0.28957000  0.91299000  0.59276000  1.0
  H  H36  1  0.81067000  0.03301000  0.97559000  1.0
  H  H37  1  0.18933000  0.96699000  0.02441000  1.0
  H  H38  1  0.80550000  0.89153000  0.94488000  1.0
  H  H39  1  0.19451000  0.10847000  0.05512000  1.0
  H  H40  1  0.58728000  0.17416000  0.11477000  1.0
  H  H41  1  0.41272000  0.82584000  0.88523000  1.0
  H  H42  1  0.32809000  0.95400000  0.23682000  1.0
  H  H43  1  0.67191000  0.04600000  0.76318000  1.0
  H  H44  1  0.60917000  0.81711000  0.09395000  1.0
  H  H45  1  0.39083000  0.18288000  0.90605000  1.0
  C  C46  1  0.19305000  0.74256000  0.08669000  1.0
  C  C47  1  0.80695000  0.25744000  0.91331000  1.0
  C  C48  1  0.18369000  0.79210000  0.18809000  1.0
  C  C49  1  0.81631000  0.20790000  0.81191000  1.0
  C  C50  1  0.05128000  0.89391000  0.23197000  1.0
  C  C51  1  0.94872000  0.10609000  0.76804000  1.0
  C  C52  1  0.92735000  0.94561000  0.17390000  1.0
  C  C53  1  0.07265000  0.05439000  0.82611000  1.0
  C  C54  1  0.93404000  0.89542000  0.07334000  1.0
  C  C55  1  0.06596000  0.10457000  0.92666000  1.0
  C  C56  1  0.06768000  0.79439000  0.02946000  1.0
  C  C57  1  0.93232000  0.20561000  0.97054000  1.0
  C  C58  1  0.33318000  0.63038000  0.04092000  1.0
  C  C59  1  0.66682000  0.36962000  0.95908000  1.0
  C  C60  1  0.31232000  0.46556000  0.15969000  1.0
  C  C61  1  0.68768000  0.53444000  0.84031000  1.0
  C  C62  1  0.18140000  0.38729000  0.07131000  1.0
  C  C63  1  0.81860000  0.61271000  0.92869000  1.0
  C  C64  1  0.20955000  0.47583000  0.01141000  1.0
  C  C65  1  0.79045000  0.52417000  0.98859000  1.0
  C  C66  1  0.04245000  0.95078000  0.33962000  1.0
  C  C67  1  0.95756000  0.04922000  0.66038000  1.0
  C  C68  1  0.94386000  0.84273000  0.49054000  1.0
  C  C69  1  0.05614000  0.15727000  0.50946000  1.0
  C  C70  1  0.68824000  0.95731000  0.53391000  1.0
  C  C71  1  0.31176000  0.04269000  0.46609000  1.0
  C  C72  1  0.75685000  0.00737000  0.45008000  1.0
  C  C73  1  0.24315000  0.99263000  0.54992000  1.0
  C  C74  1  0.79942000  0.95227000  0.01110000  1.0
  C  C75  1  0.20058000  0.04773000  0.98890000  1.0
  C  C76  1  0.54984000  0.09777000  0.12804000  1.0
  C  C77  1  0.45016000  0.90222000  0.87196000  1.0
  C  C78  1  0.42336000  0.97971000  0.19063000  1.0
  C  C79  1  0.57664000  0.02028000  0.80937000  1.0
  C  C80  1  0.56059000  0.91099000  0.12006000  1.0
  C  C81  1  0.43941000  0.08900000  0.87993000  1.0
  S  S82  1  0.81514000  0.29973000  0.27301000  1.0
  S  S83  1  0.18486000  0.70027000  0.72699000  1.0
  N  N84  1  0.29268000  0.52428000  0.06869000  1.0
  N  N85  1  0.70732000  0.47572000  0.93131000  1.0
  N  N86  1  0.24600000  0.38170000  0.16311000  1.0
  N  N87  1  0.75400000  0.61829000  0.83689000  1.0
  N  N88  1  0.91894000  0.93354000  0.42402000  1.0
  N  N89  1  0.08106000  0.06646000  0.57598000  1.0
  N  N90  1  0.80575000  0.85528000  0.55824000  1.0
  N  N91  1  0.19426000  0.14471000  0.44176000  1.0
  N  N92  1  0.63888000  0.98748000  0.08043000  1.0
  N  N93  1  0.36112000  0.01252000  0.91957000  1.0
  N  N94  1  0.41774000  0.09604000  0.19499000  1.0
  N  N95  1  0.58226000  0.90396000  0.80501000  1.0
  O  O96  1  0.01726000  0.41427000  0.42179000  1.0
  O  O97  1  0.98274000  0.58572000  0.57821000  1.0
  O  O98  1  0.41700000  0.32011000  0.36484000  1.0
  O  O99  1  0.58299000  0.67990000  0.63516000  1.0
  O  O100  1  0.99513000  0.22701000  0.24203000  1.0
  O  O101  1  0.00487000  0.77300000  0.75797000  1.0
  O  O102  1  0.78010000  0.36110000  0.38205000  1.0
  O  O103  1  0.21989000  0.63890000  0.61795000  1.0
  O  O104  1  0.76349000  0.38655000  0.19222000  1.0
  O  O105  1  0.23651000  0.61345000  0.80778000  1.0
  O  O106  1  0.72399000  0.21479000  0.27944000  1.0
  O  O107  1  0.27601000  0.78521000  0.72056000  1.0
