# generated using pymatgen
data_Zn4H16C34O13F4
_symmetry_space_group_name_H-M   'P 1'
_cell_length_a   22.23780000
_cell_length_b   22.23800000
_cell_length_c   22.32500000
_cell_angle_alpha   109.58600000
_cell_angle_beta   109.58600000
_cell_angle_gamma   109.08700000
_symmetry_Int_Tables_number   1
_chemical_formula_structural   Zn4H16C34O13F4
_chemical_formula_sum   'Zn8 H32 C68 O26 F8'
_cell_volume   8514.81244199
_cell_formula_units_Z   2
loop_
 _symmetry_equiv_pos_site_id
 _symmetry_equiv_pos_as_xyz
  1  'x, y, z'
loop_
 _atom_site_type_symbol
 _atom_site_label
 _atom_site_symmetry_multiplicity
 _atom_site_fract_x
 _atom_site_fract_y
 _atom_site_fract_z
 _atom_site_occupancy
  Zn  Zn0  1  0.45650000  0.01791000  0.06373000  1.0
  Zn  Zn1  1  0.01791000  0.45650000  0.06373000  1.0
  Zn  Zn2  1  0.04583000  0.60723000  0.06373000  1.0
  Zn  Zn3  1  0.60723000  0.04583000  0.06372000  1.0
  Zn  Zn4  1  0.48047000  0.04245000  0.93668000  1.0
  Zn  Zn5  1  0.04245000  0.48047000  0.93668000  1.0
  Zn  Zn6  1  0.89424000  0.45622000  0.93669000  1.0
  Zn  Zn7  1  0.45622000  0.89424000  0.93669000  1.0
  H  H8  1  0.81792000  0.24200000  0.43123000  1.0
  H  H9  1  0.24200000  0.81792000  0.43123000  1.0
  H  H10  1  0.18922000  0.61331000  0.43121000  1.0
  H  H11  1  0.61331000  0.18923000  0.43121000  1.0
  H  H12  1  0.68205000  0.61325000  0.92764000  1.0
  H  H13  1  0.61325000  0.68205000  0.92764000  1.0
  H  H14  1  0.31193000  0.24312000  0.92529000  1.0
  H  H15  1  0.24312000  0.31193000  0.92529000  1.0
  H  H16  1  0.88656000  0.31056000  0.56848000  1.0
  H  H17  1  0.31057000  0.88656000  0.56848000  1.0
  H  H18  1  0.25791000  0.68192000  0.56847000  1.0
  H  H19  1  0.68192000  0.25792000  0.56846000  1.0
  H  H20  1  0.33650000  0.86705000  0.11366000  1.0
  H  H21  1  0.86704000  0.33650000  0.11366000  1.0
  H  H22  1  0.24662000  0.77717000  0.11366000  1.0
  H  H23  1  0.77716000  0.24662000  0.11366000  1.0
  H  H24  1  0.24322000  0.85804000  0.01042000  1.0
  H  H25  1  0.85805000  0.24322000  0.01043000  1.0
  H  H26  1  0.15239000  0.76721000  0.01042000  1.0
  H  H27  1  0.76721000  0.15240000  0.01043000  1.0
  H  H28  1  0.26629000  0.71563000  0.89199000  1.0
  H  H29  1  0.71563000  0.26628000  0.89198000  1.0
  H  H30  1  0.17636000  0.62570000  0.89199000  1.0
  H  H31  1  0.62570000  0.17635000  0.89198000  1.0
  H  H32  1  0.21320000  0.79620000  0.91886000  1.0
  H  H33  1  0.79620000  0.21319000  0.91887000  1.0
  H  H34  1  0.12267000  0.70566000  0.91886000  1.0
  H  H35  1  0.70567000  0.12266000  0.91887000  1.0
  H  H36  1  0.81794000  0.88675000  0.07315000  1.0
  H  H37  1  0.88675000  0.81794000  0.07315000  1.0
  H  H38  1  0.18873000  0.25754000  0.07531000  1.0
  H  H39  1  0.25754000  0.18873000  0.07531000  1.0
  C  C40  1  0.63952000  0.14012000  0.00044000  1.0
  C  C41  1  0.14012000  0.63952000  0.00044000  1.0
  C  C42  1  0.86033000  0.36093000  0.00045000  1.0
  C  C43  1  0.36093000  0.86033000  0.00045000  1.0
  C  C44  1  0.67262000  0.17262000  0.34522000  1.0
  C  C45  1  0.17262000  0.67262000  0.34522000  1.0
  C  C46  1  0.63920000  0.13920000  0.27838000  1.0
  C  C47  1  0.13920000  0.63921000  0.27838000  1.0
  C  C48  1  0.86070000  0.36072000  0.72142000  1.0
  C  C49  1  0.36072000  0.86070000  0.72142000  1.0
  C  C50  1  0.32724000  0.81253000  0.07912000  1.0
  C  C51  1  0.81253000  0.32724000  0.07912000  1.0
  C  C52  1  0.26660000  0.75189000  0.07912000  1.0
  C  C53  1  0.75189000  0.26660000  0.07912000  1.0
  C  C54  1  0.23122000  0.80293000  0.97408000  1.0
  C  C55  1  0.80293000  0.23122000  0.97408000  1.0
  C  C56  1  0.17115000  0.74286000  0.97408000  1.0
  C  C57  1  0.74286000  0.17116000  0.97408000  1.0
  C  C58  1  0.28543000  0.72273000  0.94747000  1.0
  C  C59  1  0.72273000  0.28542000  0.94747000  1.0
  C  C60  1  0.22475000  0.66205000  0.94747000  1.0
  C  C61  1  0.66205000  0.22474000  0.94747000  1.0
  C  C62  1  0.30337000  0.79942000  0.00067000  1.0
  C  C63  1  0.79942000  0.30337000  0.00067000  1.0
  C  C64  1  0.20125000  0.69730000  0.00066000  1.0
  C  C65  1  0.69730000  0.20125000  0.00066000  1.0
  C  C66  1  0.82696000  0.78872000  0.04137000  1.0
  C  C67  1  0.78872000  0.82696000  0.04137000  1.0
  C  C68  1  0.25392000  0.21568000  0.04254000  1.0
  C  C69  1  0.21568000  0.25392000  0.04254000  1.0
  C  C70  1  0.78881000  0.71122000  0.00017000  1.0
  C  C71  1  0.71122000  0.78881000  0.00017000  1.0
  C  C72  1  0.28886000  0.21128000  0.00007000  1.0
  C  C73  1  0.21128000  0.28886000  0.00007000  1.0
  C  C74  1  0.71130000  0.67305000  0.95916000  1.0
  C  C75  1  0.67305000  0.71130000  0.95916000  1.0
  C  C76  1  0.28464000  0.24638000  0.95775000  1.0
  C  C77  1  0.24639000  0.28464000  0.95775000  1.0
  C  C78  1  0.40003000  0.09788000  0.99990000  1.0
  C  C79  1  0.09788000  0.40003000  0.99990000  1.0
  C  C80  1  0.90202000  0.59987000  0.99989000  1.0
  C  C81  1  0.59987000  0.90202000  0.99989000  1.0
  C  C82  1  0.82802000  0.67241000  0.00009000  1.0
  C  C83  1  0.67242000  0.82802000  0.00009000  1.0
  C  C84  1  0.32764000  0.17203000  0.00005000  1.0
  C  C85  1  0.17203000  0.32764000  0.00005000  1.0
  C  C86  1  0.63934000  0.86220000  0.00014000  1.0
  C  C87  1  0.86220000  0.63934000  0.00014000  1.0
  C  C88  1  0.13793000  0.36079000  0.00013000  1.0
  C  C89  1  0.36079000  0.13794000  0.00013000  1.0
  C  C90  1  0.40016000  0.90014000  0.80029000  1.0
  C  C91  1  0.90013000  0.40015000  0.80030000  1.0
  C  C92  1  0.59977000  0.09976000  0.19952000  1.0
  C  C93  1  0.09976000  0.59977000  0.19952000  1.0
  C  C94  1  0.82683000  0.28385000  0.53789000  1.0
  C  C95  1  0.28385000  0.82683000  0.53789000  1.0
  C  C96  1  0.25404000  0.71106000  0.53788000  1.0
  C  C97  1  0.71106000  0.25405000  0.53788000  1.0
  C  C98  1  0.78847000  0.28847000  0.57694000  1.0
  C  C99  1  0.28847000  0.78847000  0.57694000  1.0
  C  C100  1  0.67304000  0.21600000  0.46182000  1.0
  C  C101  1  0.21599000  0.67304000  0.46182000  1.0
  C  C102  1  0.24584000  0.78878000  0.46183000  1.0
  C  C103  1  0.78879000  0.24583000  0.46183000  1.0
  C  C104  1  0.71139000  0.21139000  0.42277000  1.0
  C  C105  1  0.21139000  0.71139000  0.42278000  1.0
  C  C106  1  0.82727000  0.32728000  0.65454000  1.0
  C  C107  1  0.32728000  0.82727000  0.65454000  1.0
  O  O108  1  0.50051000  0.00052000  0.00103000  1.0
  O  O109  1  0.00052000  0.50052000  0.00103000  1.0
  O  O110  1  0.66360000  0.12448000  0.05017000  1.0
  O  O111  1  0.12448000  0.66360000  0.05017000  1.0
  O  O112  1  0.92570000  0.38658000  0.05016000  1.0
  O  O113  1  0.38657000  0.92571000  0.05016000  1.0
  O  O114  1  0.42653000  0.09328000  0.95690000  1.0
  O  O115  1  0.09328000  0.42653000  0.95689000  1.0
  O  O116  1  0.86358000  0.53035000  0.95692000  1.0
  O  O117  1  0.53035000  0.86359000  0.95693000  1.0
  O  O118  1  0.42322000  0.96915000  0.83140000  1.0
  O  O119  1  0.96915000  0.42321000  0.83140000  1.0
  O  O120  1  0.86222000  0.40820000  0.83140000  1.0
  O  O121  1  0.40820000  0.86223000  0.83140000  1.0
  O  O122  1  0.63793000  0.09275000  0.16851000  1.0
  O  O123  1  0.09275000  0.63793000  0.16851000  1.0
  O  O124  1  0.07576000  0.53059000  0.16852000  1.0
  O  O125  1  0.53059000  0.07576000  0.16852000  1.0
  O  O126  1  0.40414000  0.07079000  0.04245000  1.0
  O  O127  1  0.07079000  0.40413000  0.04245000  1.0
  O  O128  1  0.97166000  0.63832000  0.04239000  1.0
  O  O129  1  0.63832000  0.97167000  0.04239000  1.0
  O  O130  1  0.57361000  0.10878000  0.94953000  1.0
  O  O131  1  0.10878000  0.57362000  0.94954000  1.0
  O  O132  1  0.84076000  0.37591000  0.94953000  1.0
  O  O133  1  0.37591000  0.84076000  0.94953000  1.0
  F  F134  1  0.39422000  0.81417000  0.10983000  1.0
  F  F135  1  0.81416000  0.39422000  0.10983000  1.0
  F  F136  1  0.29568000  0.71563000  0.10984000  1.0
  F  F137  1  0.71562000  0.29568000  0.10983000  1.0
  F  F138  1  0.34785000  0.71498000  0.96583000  1.0
  F  F139  1  0.71497000  0.34784000  0.96581000  1.0
  F  F140  1  0.25086000  0.61799000  0.96583000  1.0
  F  F141  1  0.61798000  0.25084000  0.96581000  1.0
