# generated using pymatgen
data_Cd3H52C56S6(N5O9)2
_symmetry_space_group_name_H-M   'P 1'
_cell_length_a   8.44212000
_cell_length_b   11.64680000
_cell_length_c   15.70950000
_cell_angle_alpha   95.48930000
_cell_angle_beta   104.69300000
_cell_angle_gamma   99.14260000
_symmetry_Int_Tables_number   1
_chemical_formula_structural   Cd3H52C56S6(N5O9)2
_chemical_formula_sum   'Cd3 H52 C56 S6 N10 O18'
_cell_volume   1460.09828513
_cell_formula_units_Z   1
loop_
 _symmetry_equiv_pos_site_id
 _symmetry_equiv_pos_as_xyz
  1  'x, y, z'
loop_
 _atom_site_type_symbol
 _atom_site_label
 _atom_site_symmetry_multiplicity
 _atom_site_fract_x
 _atom_site_fract_y
 _atom_site_fract_z
 _atom_site_occupancy
  Cd  Cd0  1  0.50000000  0.50000000  0.00000000  1.0
  Cd  Cd1  1  0.47761000  0.45022000  0.32442000  1.0
  Cd  Cd2  1  0.52239000  0.54978000  0.67558000  1.0
  H  H3  1  0.03025000  0.56781000  0.42337000  1.0
  H  H4  1  0.96975000  0.43219000  0.57663000  1.0
  H  H5  1  0.93189000  0.41826000  0.40991000  1.0
  H  H6  1  0.06811000  0.58174000  0.59009000  1.0
  H  H7  1  0.14614000  0.59502000  0.19162000  1.0
  H  H8  1  0.85386000  0.40498000  0.80838000  1.0
  H  H9  1  0.98080000  0.55192000  0.09110000  1.0
  H  H10  1  0.01920000  0.44808000  0.90890000  1.0
  H  H11  1  0.02824000  0.43478000  0.26231000  1.0
  H  H12  1  0.97176000  0.56522000  0.73769000  1.0
  H  H13  1  0.88054000  0.36844000  0.15907000  1.0
  H  H14  1  0.11946000  0.63156000  0.84093000  1.0
  H  H15  1  0.51699000  0.64141000  0.19386000  1.0
  H  H16  1  0.48301000  0.35859000  0.80614000  1.0
  H  H17  1  0.37761000  0.65743000  0.42919000  1.0
  H  H18  1  0.62239000  0.34257000  0.57080000  1.0
  H  H19  1  0.34873000  0.86482000  0.42630000  1.0
  H  H20  1  0.65128000  0.13517000  0.57370000  1.0
  H  H21  1  0.49984000  0.84794000  0.18194000  1.0
  H  H22  1  0.50016000  0.15206000  0.81806000  1.0
  H  H23  1  0.33505000  0.02806000  0.42162000  1.0
  H  H24  1  0.66496000  0.97194000  0.57838000  1.0
  H  H25  1  0.52219000  0.02337000  0.18888000  1.0
  H  H26  1  0.47781000  0.97663000  0.81112000  1.0
  H  H27  1  0.36217000  0.24356000  0.42556000  1.0
  H  H28  1  0.63784000  0.75644000  0.57444000  1.0
  H  H29  1  0.76750000  0.94905000  0.02155000  1.0
  H  H30  1  0.23250000  0.05096000  0.97845000  1.0
  H  H31  1  0.23221000  0.88362000  0.98565000  1.0
  H  H32  1  0.76779000  0.11638000  0.01435000  1.0
  H  H33  1  0.75584000  0.73622000  0.02366000  1.0
  H  H34  1  0.24416000  0.26378000  0.97634000  1.0
  H  H35  1  0.24342000  0.67396000  0.98751000  1.0
  H  H36  1  0.75658000  0.32603000  0.01249000  1.0
  H  H37  1  0.53967000  0.23889000  0.20280000  1.0
  H  H38  1  0.46033000  0.76111000  0.79720000  1.0
  H  H39  1  0.07558000  0.79213000  0.11020000  1.0
  H  H40  1  0.92442000  0.20787000  0.88980000  1.0
  H  H41  1  0.76367000  0.86671000  0.47199000  1.0
  H  H42  1  0.23633000  0.13329000  0.52801000  1.0
  H  H43  1  0.82809000  0.22590000  0.46521000  1.0
  H  H44  1  0.17192000  0.77410000  0.53479000  1.0
  H  H45  1  0.96635000  0.81072000  0.24115000  1.0
  H  H46  1  0.03365000  0.18928000  0.75885000  1.0
  H  H47  1  0.01444000  0.18414000  0.22411000  1.0
  H  H48  1  0.98556000  0.81586000  0.77589000  1.0
  H  H49  1  0.87063000  0.83181000  0.34353000  1.0
  H  H50  1  0.12937000  0.16819000  0.65647000  1.0
  H  H51  1  0.94552000  0.20792000  0.33714000  1.0
  H  H52  1  0.05448000  0.79208000  0.66286000  1.0
  H  H53  1  0.11794000  0.14826000  0.09422000  1.0
  H  H54  1  0.88205000  0.85175000  0.90578000  1.0
  C  C55  1  0.02262000  0.48916000  0.45670000  1.0
  C  C56  1  0.97738000  0.51084000  0.54330000  1.0
  C  C57  1  0.05707000  0.52040000  0.14849000  1.0
  C  C58  1  0.94293000  0.47960000  0.85151000  1.0
  C  C59  1  0.95194000  0.45188000  0.19871000  1.0
  C  C60  1  0.04806000  0.54812000  0.80129000  1.0
  C  C61  1  0.48060000  0.69382000  0.24423000  1.0
  C  C62  1  0.51940000  0.30618000  0.75577000  1.0
  C  C63  1  0.40183000  0.70290000  0.37498000  1.0
  C  C64  1  0.59817000  0.29709000  0.62502000  1.0
  C  C65  1  0.38741000  0.81977000  0.37302000  1.0
  C  C66  1  0.61259000  0.18023000  0.62698000  1.0
  C  C67  1  0.47004000  0.81058000  0.23812000  1.0
  C  C68  1  0.52996000  0.18942000  0.76188000  1.0
  C  C69  1  0.42560000  0.87771000  0.30425000  1.0
  C  C70  1  0.57440000  0.12229000  0.69575000  1.0
  C  C71  1  0.42886000  0.00517000  0.30521000  1.0
  C  C72  1  0.57114000  0.99483000  0.69479000  1.0
  C  C73  1  0.38283000  0.07042000  0.37177000  1.0
  C  C74  1  0.61717000  0.92958000  0.62823000  1.0
  C  C75  1  0.48499000  0.06727000  0.24287000  1.0
  C  C76  1  0.51502000  0.93273000  0.75713000  1.0
  C  C77  1  0.39787000  0.19127000  0.37463000  1.0
  C  C78  1  0.60213000  0.80873000  0.62537000  1.0
  C  C79  1  0.64787000  0.89226000  0.01399000  1.0
  C  C80  1  0.35213000  0.10774000  0.98601000  1.0
  C  C81  1  0.35129000  0.85591000  0.99148000  1.0
  C  C82  1  0.64871000  0.14409000  0.00852000  1.0
  C  C83  1  0.49967000  0.93663000  0.00120000  1.0
  C  C84  1  0.50032000  0.06337000  0.99880000  1.0
  C  C85  1  0.64245000  0.77252000  0.01451000  1.0
  C  C86  1  0.35755000  0.22748000  0.98549000  1.0
  C  C87  1  0.35632000  0.73749000  0.99288000  1.0
  C  C88  1  0.64368000  0.26251000  0.00712000  1.0
  C  C89  1  0.49586000  0.18827000  0.25000000  1.0
  C  C90  1  0.50415000  0.81173000  0.75000000  1.0
  C  C91  1  0.06075000  0.87821000  0.13786000  1.0
  C  C92  1  0.93925000  0.12179000  0.86214000  1.0
  C  C93  1  0.08433000  0.07466000  0.12840000  1.0
  C  C94  1  0.91566000  0.92534000  0.87160000  1.0
  C  C95  1  0.80184000  0.94127000  0.43983000  1.0
  C  C96  1  0.19815000  0.05872000  0.56017000  1.0
  C  C97  1  0.83874000  0.13940000  0.43604000  1.0
  C  C98  1  0.16126000  0.86060000  0.56396000  1.0
  C  C99  1  0.99816000  0.88918000  0.21167000  1.0
  C  C100  1  0.00184000  0.11082000  0.78833000  1.0
  C  C101  1  0.02346000  0.09454000  0.20192000  1.0
  C  C102  1  0.97654000  0.90546000  0.79808000  1.0
  C  C103  1  0.97884000  0.00038000  0.24627000  1.0
  C  C104  1  0.02116000  0.99962000  0.75373000  1.0
  C  C105  1  0.91545000  0.01703000  0.32548000  1.0
  C  C106  1  0.08455000  0.98297000  0.67452000  1.0
  C  C107  1  0.86401000  0.92161000  0.36679000  1.0
  C  C108  1  0.13599000  0.07839000  0.63321000  1.0
  C  C109  1  0.90393000  0.12879000  0.36333000  1.0
  C  C110  1  0.09608000  0.87121000  0.63667000  1.0
  S  S111  1  0.22167000  0.44602000  0.47406000  1.0
  S  S112  1  0.77833000  0.55398000  0.52594000  1.0
  S  S113  1  0.17427000  0.42729000  0.10361000  1.0
  S  S114  1  0.82573000  0.57271000  0.89639000  1.0
  S  S115  1  0.80205000  0.53214000  0.22406000  1.0
  S  S116  1  0.19795000  0.46786000  0.77594000  1.0
  N  N117  1  0.49907000  0.69591000  0.00296000  1.0
  N  N118  1  0.50093000  0.30409000  0.99704000  1.0
  N  N119  1  0.44896000  0.64045000  0.31213000  1.0
  N  N120  1  0.55104000  0.35955000  0.68787000  1.0
  N  N121  1  0.45467000  0.24982000  0.31526000  1.0
  N  N122  1  0.54533000  0.75018000  0.68474000  1.0
  N  N123  1  0.10414000  0.96838000  0.09592000  1.0
  N  N124  1  0.89585000  0.03163000  0.90408000  1.0
  N  N125  1  0.78618000  0.04765000  0.47423000  1.0
  N  N126  1  0.21381000  0.95234000  0.52576000  1.0
  O  O127  1  0.24373000  0.43230000  0.38299000  1.0
  O  O128  1  0.75627000  0.56770000  0.61701000  1.0
  O  O129  1  0.21619000  0.33816000  0.51382000  1.0
  O  O130  1  0.78381000  0.66184000  0.48618000  1.0
  O  O131  1  0.34339000  0.54761000  0.53204000  1.0
  O  O132  1  0.65661000  0.45238000  0.46796000  1.0
  O  O133  1  0.27588000  0.50666000  0.06094000  1.0
  O  O134  1  0.72412000  0.49334000  0.93906000  1.0
  O  O135  1  0.27769000  0.38129000  0.17826000  1.0
  O  O136  1  0.72231000  0.61871000  0.82174000  1.0
  O  O137  1  0.05248000  0.33436000  0.04003000  1.0
  O  O138  1  0.94753000  0.66564000  0.95997000  1.0
  O  O139  1  0.70671000  0.56158000  0.13869000  1.0
  O  O140  1  0.29329000  0.43842000  0.86131000  1.0
  O  O141  1  0.69812000  0.44629000  0.26125000  1.0
  O  O142  1  0.30189000  0.55371000  0.73876000  1.0
  O  O143  1  0.89309000  0.63634000  0.28672000  1.0
  O  O144  1  0.10692000  0.36366000  0.71328000  1.0
