# generated using pymatgen
data_CaH12C12(NO4)2
_symmetry_space_group_name_H-M   'P 1'
_cell_length_a   7.84370000
_cell_length_b   8.87870000
_cell_length_c   9.89710000
_cell_angle_alpha   90.00010000
_cell_angle_beta   90.00050000
_cell_angle_gamma   95.13530000
_symmetry_Int_Tables_number   1
_chemical_formula_structural   CaH12C12(NO4)2
_chemical_formula_sum   'Ca2 H24 C24 N4 O16'
_cell_volume   686.48586003
_cell_formula_units_Z   2
loop_
 _symmetry_equiv_pos_site_id
 _symmetry_equiv_pos_as_xyz
  1  'x, y, z'
loop_
 _atom_site_type_symbol
 _atom_site_label
 _atom_site_symmetry_multiplicity
 _atom_site_fract_x
 _atom_site_fract_y
 _atom_site_fract_z
 _atom_site_occupancy
  Ca  Ca0  1  0.50000000  0.00000000  0.50000000  1.0
  Ca  Ca1  1  0.50000000  0.50000000  0.00000000  1.0
  H  H2  1  0.11930000  0.88928000  0.48409000  1.0
  H  H3  1  0.88070000  0.61072000  0.98409000  1.0
  H  H4  1  0.88070000  0.11072000  0.51591000  1.0
  H  H5  1  0.11930000  0.38928000  0.01591000  1.0
  H  H6  1  0.14711000  0.05578000  0.42388000  1.0
  H  H7  1  0.85289000  0.44422000  0.92388000  1.0
  H  H8  1  0.85289000  0.94422000  0.57612000  1.0
  H  H9  1  0.14711000  0.55578000  0.07612000  1.0
  H  H10  1  0.01326000  0.25864000  0.67064000  1.0
  H  H11  1  0.98674000  0.24136000  0.17064000  1.0
  H  H12  1  0.98674000  0.74136000  0.32936000  1.0
  H  H13  1  0.01326000  0.75864000  0.82936000  1.0
  H  H14  1  0.22372000  0.41837000  0.30649000  1.0
  H  H15  1  0.77628000  0.08162000  0.80648000  1.0
  H  H16  1  0.77628000  0.58163000  0.69351000  1.0
  H  H17  1  0.22373000  0.91838000  0.19351000  1.0
  H  H18  1  0.17856000  0.46466000  0.80043000  1.0
  H  H19  1  0.82145000  0.03534000  0.30042000  1.0
  H  H20  1  0.82145000  0.53534000  0.19957000  1.0
  H  H21  1  0.17855000  0.96466000  0.69958000  1.0
  H  H22  1  0.39395000  0.63600000  0.42351000  1.0
  H  H23  1  0.60605000  0.86400000  0.92351000  1.0
  H  H24  1  0.60605000  0.36400000  0.57648000  1.0
  H  H25  1  0.39395000  0.13600000  0.07649000  1.0
  C  C26  1  0.10026000  0.34406000  0.62201000  1.0
  C  C27  1  0.89975000  0.15594000  0.12201000  1.0
  C  C28  1  0.89974000  0.65594000  0.37799000  1.0
  C  C29  1  0.10025000  0.84406000  0.87799000  1.0
  C  C30  1  0.30205000  0.56555000  0.62317000  1.0
  C  C31  1  0.69795000  0.93445000  0.12317000  1.0
  C  C32  1  0.69795000  0.43445000  0.37683000  1.0
  C  C33  1  0.30204000  0.06555000  0.87683000  1.0
  C  C34  1  0.41206000  0.68282000  0.70201000  1.0
  C  C35  1  0.58794000  0.81718000  0.20201000  1.0
  C  C36  1  0.58794000  0.31718000  0.29799000  1.0
  C  C37  1  0.41206000  0.18282000  0.79800000  1.0
  C  C38  1  0.22011000  0.43631000  0.41536000  1.0
  C  C39  1  0.77989000  0.06369000  0.91536000  1.0
  C  C40  1  0.77989000  0.56369000  0.58464000  1.0
  C  C41  1  0.22011000  0.93631000  0.08464000  1.0
  C  C42  1  0.19183000  0.45921000  0.69137000  1.0
  C  C43  1  0.80817000  0.04079000  0.19137000  1.0
  C  C44  1  0.80817000  0.54079000  0.30863000  1.0
  C  C45  1  0.19183000  0.95921000  0.80863000  1.0
  C  C46  1  0.31160000  0.55450000  0.48217000  1.0
  C  C47  1  0.68839000  0.94550000  0.98217000  1.0
  C  C48  1  0.68840000  0.44550000  0.51783000  1.0
  C  C49  1  0.31161000  0.05450000  0.01783000  1.0
  N  N50  1  0.11815000  0.33138000  0.48583000  1.0
  N  N51  1  0.88185000  0.16861000  0.98583000  1.0
  N  N52  1  0.88185000  0.66862000  0.51417000  1.0
  N  N53  1  0.11815000  0.83139000  0.01417000  1.0
  O  O54  1  0.48065000  0.79620000  0.63863000  1.0
  O  O55  1  0.51935000  0.70380000  0.13863000  1.0
  O  O56  1  0.51936000  0.20380000  0.36137000  1.0
  O  O57  1  0.48065000  0.29620000  0.86137000  1.0
  O  O58  1  0.03521000  0.21645000  0.42064000  1.0
  O  O59  1  0.96479000  0.28355000  0.92064000  1.0
  O  O60  1  0.96479000  0.78355000  0.57936000  1.0
  O  O61  1  0.03521000  0.71645000  0.07936000  1.0
  O  O62  1  0.20305000  0.95992000  0.43399000  1.0
  O  O63  1  0.79695000  0.54008000  0.93399000  1.0
  O  O64  1  0.79695000  0.04008000  0.56601000  1.0
  O  O65  1  0.20305000  0.45992000  0.06601000  1.0
  O  O66  1  0.43040000  0.65913000  0.82720000  1.0
  O  O67  1  0.56960000  0.84088000  0.32720000  1.0
  O  O68  1  0.56960000  0.34087000  0.17280000  1.0
  O  O69  1  0.43040000  0.15912000  0.67280000  1.0
