# generated using pymatgen
data_Cu2H15C14SBr2N3
_symmetry_space_group_name_H-M   'P 1'
_cell_length_a   8.62381000
_cell_length_b   9.67935000
_cell_length_c   10.33770000
_cell_angle_alpha   97.17570000
_cell_angle_beta   101.04700000
_cell_angle_gamma   93.41400000
_symmetry_Int_Tables_number   1
_chemical_formula_structural   Cu2H15C14SBr2N3
_chemical_formula_sum   'Cu4 H30 C28 S2 Br4 N6'
_cell_volume   837.20079622
_cell_formula_units_Z   2
loop_
 _symmetry_equiv_pos_site_id
 _symmetry_equiv_pos_as_xyz
  1  'x, y, z'
loop_
 _atom_site_type_symbol
 _atom_site_label
 _atom_site_symmetry_multiplicity
 _atom_site_fract_x
 _atom_site_fract_y
 _atom_site_fract_z
 _atom_site_occupancy
  Cu  Cu0  1  0.49887000  0.32640000  0.40746000  1.0
  Cu  Cu1  1  0.50113000  0.67360000  0.59254000  1.0
  Cu  Cu2  1  0.09261000  0.40564000  0.50325000  1.0
  Cu  Cu3  1  0.90740000  0.59436000  0.49676000  1.0
  H  H4  1  0.84295000  0.23899000  0.45329000  1.0
  H  H5  1  0.15705000  0.76101000  0.54671000  1.0
  H  H6  1  0.82259000  0.05270000  0.44099000  1.0
  H  H7  1  0.17741000  0.94731000  0.55900000  1.0
  H  H8  1  0.51801000  0.05835000  0.38737000  1.0
  H  H9  1  0.48199000  0.94165000  0.61264000  1.0
  H  H10  1  0.66772000  0.26914000  0.23301000  1.0
  H  H11  1  0.33228000  0.73086000  0.76698000  1.0
  H  H12  1  0.47100000  0.16669000  0.18238000  1.0
  H  H13  1  0.52899000  0.83331000  0.81762000  1.0
  H  H14  1  0.89259000  0.43307000  0.98538000  1.0
  H  H15  1  0.10740000  0.56693000  0.01463000  1.0
  H  H16  1  0.95097000  0.29983000  0.87572000  1.0
  H  H17  1  0.04903000  0.70017000  0.12428000  1.0
  H  H18  1  0.84328000  0.21105000  0.06919000  1.0
  H  H19  1  0.15671000  0.78895000  0.93081000  1.0
  H  H20  1  0.54875000  0.18764000  0.84008000  1.0
  H  H21  1  0.45124000  0.81237000  0.15991000  1.0
  H  H22  1  0.57837000  0.09042000  0.98476000  1.0
  H  H23  1  0.42161000  0.90957000  0.01523000  1.0
  H  H24  1  0.81374000  0.76958000  0.78153000  1.0
  H  H25  1  0.18625000  0.23042000  0.21848000  1.0
  H  H26  1  0.87638000  0.96975000  0.96305000  1.0
  H  H27  1  0.12362000  0.03025000  0.03695000  1.0
  H  H28  1  0.83224000  0.94149000  0.19096000  1.0
  H  H29  1  0.16776000  0.05851000  0.80904000  1.0
  H  H30  1  0.72126000  0.71320000  0.23414000  1.0
  H  H31  1  0.27874000  0.28680000  0.76586000  1.0
  H  H32  1  0.64784000  0.51516000  0.05067000  1.0
  H  H33  1  0.35217000  0.48484000  0.94933000  1.0
  C  C34  1  0.68713000  0.51491000  0.79403000  1.0
  C  C35  1  0.31287000  0.48510000  0.20597000  1.0
  C  C36  1  0.69991000  0.31268000  0.67486000  1.0
  C  C37  1  0.30010000  0.68733000  0.32514000  1.0
  C  C38  1  0.76399000  0.14867000  0.46263000  1.0
  C  C39  1  0.23602000  0.85133000  0.53737000  1.0
  C  C40  1  0.60382000  0.14093000  0.37432000  1.0
  C  C41  1  0.39618000  0.85907000  0.62568000  1.0
  C  C42  1  0.57474000  0.20325000  0.25970000  1.0
  C  C43  1  0.42526000  0.79675000  0.74030000  1.0
  C  C44  1  0.84811000  0.34034000  0.91216000  1.0
  C  C45  1  0.15190000  0.65966000  0.08784000  1.0
  C  C46  1  0.76975000  0.23317000  0.97687000  1.0
  C  C47  1  0.23023000  0.76682000  0.02312000  1.0
  C  C48  1  0.62564000  0.16768000  0.93125000  1.0
  C  C49  1  0.37437000  0.83233000  0.06874000  1.0
  C  C50  1  0.72422000  0.63036000  0.90379000  1.0
  C  C51  1  0.27578000  0.36964000  0.09622000  1.0
  C  C52  1  0.79161000  0.75846000  0.88039000  1.0
  C  C53  1  0.20839000  0.24154000  0.11961000  1.0
  C  C54  1  0.82817000  0.87002000  0.98321000  1.0
  C  C55  1  0.17182000  0.12998000  0.01679000  1.0
  C  C56  1  0.80196000  0.85441000  0.11019000  1.0
  C  C57  1  0.19804000  0.14559000  0.88981000  1.0
  C  C58  1  0.73847000  0.72629000  0.13445000  1.0
  C  C59  1  0.26153000  0.27371000  0.86555000  1.0
  C  C60  1  0.69853000  0.61466000  0.03141000  1.0
  C  C61  1  0.30147000  0.38534000  0.96859000  1.0
  S  S62  1  0.75720000  0.14655000  0.63744000  1.0
  S  S63  1  0.24281000  0.85345000  0.36257000  1.0
  Br  Br64  1  0.24439000  0.21296000  0.49010000  1.0
  Br  Br65  1  0.75560000  0.78703000  0.50989000  1.0
  Br  Br66  1  0.06397000  0.54149000  0.70614000  1.0
  Br  Br67  1  0.93603000  0.45851000  0.29387000  1.0
  N  N68  1  0.60794000  0.51883000  0.67077000  1.0
  N  N69  1  0.39206000  0.48117000  0.32923000  1.0
  N  N70  1  0.61463000  0.39120000  0.59580000  1.0
  N  N71  1  0.38538000  0.60881000  0.40420000  1.0
  N  N72  1  0.74388000  0.38599000  0.80023000  1.0
  N  N73  1  0.25613000  0.61401000  0.19977000  1.0
