# generated using pymatgen
data_ZnH9C7BrN2O5
_symmetry_space_group_name_H-M   'P 1'
_cell_length_a   6.20096000
_cell_length_b   9.99348000
_cell_length_c   19.01820000
_cell_angle_alpha   101.07400000
_cell_angle_beta   90.00000000
_cell_angle_gamma   89.99990000
_symmetry_Int_Tables_number   1
_chemical_formula_structural   ZnH9C7BrN2O5
_chemical_formula_sum   'Zn4 H36 C28 Br4 N8 O20'
_cell_volume   1156.59752429
_cell_formula_units_Z   4
loop_
 _symmetry_equiv_pos_site_id
 _symmetry_equiv_pos_as_xyz
  1  'x, y, z'
loop_
 _atom_site_type_symbol
 _atom_site_label
 _atom_site_symmetry_multiplicity
 _atom_site_fract_x
 _atom_site_fract_y
 _atom_site_fract_z
 _atom_site_occupancy
  Zn  Zn0  1  0.57643000  0.94168000  0.10615000  1.0
  Zn  Zn1  1  0.07640000  0.55831000  0.39384000  1.0
  Zn  Zn2  1  0.42359000  0.05832000  0.89385000  1.0
  Zn  Zn3  1  0.92358000  0.44168000  0.60615000  1.0
  H  H4  1  0.08642000  0.17007000  0.01435000  1.0
  H  H5  1  0.58640000  0.32994000  0.48565000  1.0
  H  H6  1  0.91359000  0.82993000  0.98564000  1.0
  H  H7  1  0.41357000  0.67007000  0.51435000  1.0
  H  H8  1  0.87211000  0.27004000  0.99099000  1.0
  H  H9  1  0.37209000  0.22998000  0.50901000  1.0
  H  H10  1  0.12791000  0.72996000  0.00901000  1.0
  H  H11  1  0.62790000  0.77003000  0.49099000  1.0
  H  H12  1  0.33382000  0.27620000  0.12249000  1.0
  H  H13  1  0.83382000  0.22381000  0.37752000  1.0
  H  H14  1  0.66618000  0.72379000  0.87751000  1.0
  H  H15  1  0.16617000  0.77621000  0.62249000  1.0
  H  H16  1  0.81495000  0.51198000  0.06434000  1.0
  H  H17  1  0.31494000  0.98803000  0.43566000  1.0
  H  H18  1  0.18507000  0.48802000  0.93566000  1.0
  H  H19  1  0.68505000  0.01198000  0.56434000  1.0
  H  H20  1  0.09068000  0.68226000  0.15610000  1.0
  H  H21  1  0.59067000  0.81774000  0.34390000  1.0
  H  H22  1  0.90934000  0.31773000  0.84390000  1.0
  H  H23  1  0.40934000  0.18228000  0.65610000  1.0
  H  H24  1  0.50316000  0.63218000  0.19110000  1.0
  H  H25  1  0.00316000  0.86783000  0.30891000  1.0
  H  H26  1  0.49685000  0.36781000  0.80890000  1.0
  H  H27  1  0.99686000  0.13220000  0.69110000  1.0
  H  H28  1  0.56617000  0.46017000  0.19418000  1.0
  H  H29  1  0.06616000  0.03983000  0.30583000  1.0
  H  H30  1  0.43384000  0.53982000  0.80582000  1.0
  H  H31  1  0.93384000  0.96019000  0.69418000  1.0
  H  H32  1  0.16744000  0.97716000  0.12543000  1.0
  H  H33  1  0.66743000  0.52284000  0.37457000  1.0
  H  H34  1  0.83257000  0.02284000  0.87457000  1.0
  H  H35  1  0.33255000  0.47715000  0.62543000  1.0
  H  H36  1  0.24288000  0.99557000  0.04628000  1.0
  H  H37  1  0.74287000  0.50442000  0.45372000  1.0
  H  H38  1  0.75712000  0.00442000  0.95372000  1.0
  H  H39  1  0.25712000  0.49557000  0.54628000  1.0
  C  C40  1  0.79312000  0.16861000  0.07688000  1.0
  C  C41  1  0.29311000  0.33138000  0.42311000  1.0
  C  C42  1  0.20689000  0.83138000  0.92311000  1.0
  C  C43  1  0.70686000  0.66860000  0.57689000  1.0
  C  C44  1  0.95643000  0.23945000  0.03627000  1.0
  C  C45  1  0.45643000  0.26055000  0.46373000  1.0
  C  C46  1  0.04357000  0.76055000  0.96373000  1.0
  C  C47  1  0.54357000  0.73945000  0.53627000  1.0
  C  C48  1  0.23019000  0.36247000  0.11928000  1.0
  C  C49  1  0.73017000  0.13753000  0.38072000  1.0
  C  C50  1  0.76984000  0.63752000  0.88071000  1.0
  C  C51  1  0.26981000  0.86248000  0.61928000  1.0
  C  C52  1  0.96265000  0.48975000  0.09033000  1.0
  C  C53  1  0.46264000  0.01026000  0.40967000  1.0
  C  C54  1  0.03737000  0.51025000  0.90967000  1.0
  C  C55  1  0.53735000  0.98975000  0.59033000  1.0
  C  C56  1  0.09774000  0.57321000  0.13572000  1.0
  C  C57  1  0.59773000  0.92680000  0.36429000  1.0
  C  C58  1  0.90227000  0.42678000  0.86429000  1.0
  C  C59  1  0.40227000  0.07322000  0.63572000  1.0
  C  C60  1  0.43695000  0.53689000  0.20294000  1.0
  C  C61  1  0.93694000  0.96311000  0.29707000  1.0
  C  C62  1  0.56306000  0.46309000  0.79706000  1.0
  C  C63  1  0.06306000  0.03691000  0.70294000  1.0
  C  C64  1  0.36520000  0.55959000  0.28134000  1.0
  C  C65  1  0.86523000  0.94041000  0.21866000  1.0
  C  C66  1  0.63478000  0.44040000  0.71866000  1.0
  C  C67  1  0.13478000  0.05960000  0.78134000  1.0
  Br  Br68  1  0.54062000  0.70709000  0.05046000  1.0
  Br  Br69  1  0.04058000  0.79293000  0.44954000  1.0
  Br  Br70  1  0.45939000  0.29290000  0.94954000  1.0
  Br  Br71  1  0.95939000  0.20708000  0.55045000  1.0
  N  N72  1  0.04855000  0.35988000  0.08068000  1.0
  N  N73  1  0.54855000  0.14013000  0.41932000  1.0
  N  N74  1  0.95147000  0.64012000  0.91931000  1.0
  N  N75  1  0.45145000  0.85988000  0.58069000  1.0
  N  N76  1  0.26286000  0.49175000  0.15280000  1.0
  N  N77  1  0.76285000  0.00825000  0.34721000  1.0
  N  N78  1  0.73714000  0.50824000  0.84720000  1.0
  N  N79  1  0.23714000  0.99177000  0.65279000  1.0
  O  O80  1  0.75280000  0.04279000  0.04473000  1.0
  O  O81  1  0.25280000  0.45720000  0.45526000  1.0
  O  O82  1  0.24720000  0.95719000  0.95526000  1.0
  O  O83  1  0.74719000  0.54279000  0.54474000  1.0
  O  O84  1  0.70980000  0.22678000  0.13357000  1.0
  O  O85  1  0.20981000  0.27322000  0.36643000  1.0
  O  O86  1  0.29019000  0.77322000  0.86643000  1.0
  O  O87  1  0.79016000  0.72677000  0.63357000  1.0
  O  O88  1  0.50645000  0.60131000  0.32788000  1.0
  O  O89  1  0.00652000  0.89871000  0.17214000  1.0
  O  O90  1  0.49351000  0.39868000  0.67212000  1.0
  O  O91  1  0.99352000  0.10131000  0.82788000  1.0
  O  O92  1  0.16702000  0.53574000  0.29291000  1.0
  O  O93  1  0.66704000  0.96425000  0.20708000  1.0
  O  O94  1  0.83297000  0.46423000  0.70708000  1.0
  O  O95  1  0.33297000  0.03575000  0.79291000  1.0
  O  O96  1  0.27727000  0.02152000  0.09863000  1.0
  O  O97  1  0.77725000  0.47847000  0.40137000  1.0
  O  O98  1  0.72275000  0.97847000  0.90137000  1.0
  O  O99  1  0.22274000  0.52152000  0.59863000  1.0
