# generated using pymatgen
data_CdH44C52N6(OF)8
_symmetry_space_group_name_H-M   'P 1'
_cell_length_a   12.96550000
_cell_length_b   13.26760000
_cell_length_c   16.39530000
_cell_angle_alpha   111.29600000
_cell_angle_beta   109.17100000
_cell_angle_gamma   93.02790000
_symmetry_Int_Tables_number   1
_chemical_formula_structural   CdH44C52N6(OF)8
_chemical_formula_sum   'Cd2 H88 C104 N12 O16 F16'
_cell_volume   2434.11050114
_cell_formula_units_Z   2
loop_
 _symmetry_equiv_pos_site_id
 _symmetry_equiv_pos_as_xyz
  1  'x, y, z'
loop_
 _atom_site_type_symbol
 _atom_site_label
 _atom_site_symmetry_multiplicity
 _atom_site_fract_x
 _atom_site_fract_y
 _atom_site_fract_z
 _atom_site_occupancy
  Cd  Cd0  1  0.61351000  0.37752000  0.24995000  1.0
  Cd  Cd1  1  0.38649000  0.62248000  0.75005000  1.0
  H  H2  1  0.52834000  0.22433000  0.02977000  1.0
  H  H3  1  0.47166000  0.77567000  0.97023000  1.0
  H  H4  1  0.84758000  0.32565000  0.23338000  1.0
  H  H5  1  0.15242000  0.67435000  0.76661000  1.0
  H  H6  1  0.59544000  0.11434000  0.90464000  1.0
  H  H7  1  0.40456000  0.88566000  0.09536000  1.0
  H  H8  1  0.92809000  0.22225000  0.11764000  1.0
  H  H9  1  0.07191000  0.77775000  0.88236000  1.0
  H  H10  1  0.74075000  0.02708000  0.86887000  1.0
  H  H11  1  0.25925000  0.97292000  0.13113000  1.0
  H  H12  1  0.83304000  0.14706000  0.89348000  1.0
  H  H13  1  0.16695000  0.85294000  0.10651000  1.0
  H  H14  1  0.36122000  0.25612000  0.09033000  1.0
  H  H15  1  0.63878000  0.74388000  0.90967000  1.0
  H  H16  1  0.55314000  0.56211000  0.17684000  1.0
  H  H17  1  0.44686000  0.43789000  0.82316000  1.0
  H  H18  1  0.20238000  0.29448000  0.97801000  1.0
  H  H19  1  0.79762000  0.70552000  0.02199000  1.0
  H  H20  1  0.40338000  0.61469000  0.06879000  1.0
  H  H21  1  0.59662000  0.38531000  0.93121000  1.0
  H  H22  1  0.22457000  0.56594000  0.94666000  1.0
  H  H23  1  0.77544000  0.43406000  0.05334000  1.0
  H  H24  1  0.17203000  0.42500000  0.87362000  1.0
  H  H25  1  0.82797000  0.57500000  0.12638000  1.0
  H  H26  1  0.44162000  0.43593000  0.35229000  1.0
  H  H27  1  0.55838000  0.56407000  0.64771000  1.0
  H  H28  1  0.72779000  0.63464000  0.39375000  1.0
  H  H29  1  0.27221000  0.36536000  0.60625000  1.0
  H  H30  1  0.38787000  0.59295000  0.45769000  1.0
  H  H31  1  0.61213000  0.40705000  0.54231000  1.0
  H  H32  1  0.68354000  0.80121000  0.49770000  1.0
  H  H33  1  0.31647000  0.19879000  0.50230000  1.0
  H  H34  1  0.55931000  0.83386000  0.62498000  1.0
  H  H35  1  0.44069000  0.16614000  0.37502000  1.0
  H  H36  1  0.41816000  0.78466000  0.55009000  1.0
  H  H37  1  0.58184000  0.21534000  0.44991000  1.0
  H  H38  1  0.68617000  0.15140000  0.25859000  1.0
  H  H39  1  0.31383000  0.84860000  0.74142000  1.0
  H  H40  1  0.76861000  0.46750000  0.46813000  1.0
  H  H41  1  0.23139000  0.53250000  0.53187000  1.0
  H  H42  1  0.79461000  0.07621000  0.37091000  1.0
  H  H43  1  0.20539000  0.92379000  0.62910000  1.0
  H  H44  1  0.87610000  0.40432000  0.59091000  1.0
  H  H45  1  0.12390000  0.59568000  0.40909000  1.0
  H  H46  1  0.97452000  0.26555000  0.62252000  1.0
  H  H47  1  0.02548000  0.73446000  0.37748000  1.0
  H  H48  1  0.85079000  0.18011000  0.60078000  1.0
  H  H49  1  0.14922000  0.81988000  0.39922000  1.0
  H  H50  1  0.12701000  0.20963000  0.74027000  1.0
  H  H51  1  0.87299000  0.79037000  0.25973000  1.0
  H  H52  1  0.99668000  0.07604000  0.75243000  1.0
  H  H53  1  0.00332000  0.92396000  0.24757000  1.0
  H  H54  1  0.07008000  0.94592000  0.82453000  1.0
  H  H55  1  0.92992000  0.05408000  0.17547000  1.0
  H  H56  1  0.27520000  0.95374000  0.88824000  1.0
  H  H57  1  0.72480000  0.04626000  0.11176000  1.0
  H  H58  1  0.40378000  0.08388000  0.87270000  1.0
  H  H59  1  0.59622000  0.91612000  0.12730000  1.0
  H  H60  1  0.36475000  0.31901000  0.86031000  1.0
  H  H61  1  0.63525000  0.68098000  0.13969000  1.0
  H  H62  1  0.31272000  0.25362000  0.73552000  1.0
  H  H63  1  0.68728000  0.74638000  0.26448000  1.0
  H  H64  1  0.54807000  0.12275000  0.74008000  1.0
  H  H65  1  0.45193000  0.87725000  0.25992000  1.0
  H  H66  1  0.43414000  0.16035000  0.66631000  1.0
  H  H67  1  0.56586000  0.83965000  0.33369000  1.0
  H  H68  1  0.40878000  0.05400000  0.70476000  1.0
  H  H69  1  0.59122000  0.94600000  0.29524000  1.0
  H  H70  1  0.77423000  0.74426000  0.78408000  1.0
  H  H71  1  0.22577000  0.25574000  0.21592000  1.0
  H  H72  1  0.77976000  0.88929000  0.72302000  1.0
  H  H73  1  0.22024000  0.11071000  0.27698000  1.0
  H  H74  1  0.89070000  0.88368000  0.62322000  1.0
  H  H75  1  0.10930000  0.11632000  0.37679000  1.0
  H  H76  1  0.99078000  0.72885000  0.58094000  1.0
  H  H77  1  0.00922000  0.27115000  0.41907000  1.0
  H  H78  1  0.98652000  0.58507000  0.64381000  1.0
  H  H79  1  0.01348000  0.41493000  0.35620000  1.0
  H  H80  1  0.94662000  0.52430000  0.75423000  1.0
  H  H81  1  0.05338000  0.47570000  0.24577000  1.0
  H  H82  1  0.89144000  0.61123000  0.83515000  1.0
  H  H83  1  0.10856000  0.38877000  0.16485000  1.0
  H  H84  1  0.67622000  0.37279000  0.70859000  1.0
  H  H85  1  0.32378000  0.62721000  0.29141000  1.0
  H  H86  1  0.76817000  0.46865000  0.82328000  1.0
  H  H87  1  0.23183000  0.53135000  0.17672000  1.0
  H  H88  1  0.82181000  0.36985000  0.74746000  1.0
  H  H89  1  0.17818000  0.63014000  0.25254000  1.0
  C  C90  1  0.61659000  0.22292000  0.04592000  1.0
  C  C91  1  0.38341000  0.77708000  0.95408000  1.0
  C  C92  1  0.79451000  0.27927000  0.15946000  1.0
  C  C93  1  0.20550000  0.72074000  0.84054000  1.0
  C  C94  1  0.65428000  0.16207000  0.97635000  1.0
  C  C95  1  0.34572000  0.83793000  0.02365000  1.0
  C  C96  1  0.83887000  0.22112000  0.09389000  1.0
  C  C97  1  0.16113000  0.77888000  0.90611000  1.0
  C  C98  1  0.76792000  0.16022000  0.99994000  1.0
  C  C99  1  0.23208000  0.83978000  0.00006000  1.0
  C  C100  1  0.80956000  0.09346000  0.92487000  1.0
  C  C101  1  0.19044000  0.90654000  0.07513000  1.0
  C  C102  1  0.90739000  0.04545000  0.96235000  1.0
  C  C103  1  0.09261000  0.95455000  0.03765000  1.0
  C  C104  1  0.01702000  0.10051000  0.99540000  1.0
  C  C105  1  0.98298000  0.89949000  0.00460000  1.0
  C  C106  1  0.10710000  0.05614000  0.03148000  1.0
  C  C107  1  0.89290000  0.94387000  0.96851000  1.0
  C  C108  1  0.36676000  0.33456000  0.08331000  1.0
  C  C109  1  0.63324000  0.66544000  0.91669000  1.0
  C  C110  1  0.47410000  0.50527000  0.13125000  1.0
  C  C111  1  0.52590000  0.49473000  0.86875000  1.0
  C  C112  1  0.27854000  0.35671000  0.02064000  1.0
  C  C113  1  0.72146000  0.64328000  0.97936000  1.0
  C  C114  1  0.39004000  0.53351000  0.07000000  1.0
  C  C115  1  0.60997000  0.46649000  0.93000000  1.0
  C  C116  1  0.28945000  0.45832000  0.01297000  1.0
  C  C117  1  0.71056000  0.54168000  0.98703000  1.0
  C  C118  1  0.19582000  0.48642000  0.94628000  1.0
  C  C119  1  0.80418000  0.51358000  0.05372000  1.0
  C  C120  1  0.09467000  0.49268000  0.97258000  1.0
  C  C121  1  0.90533000  0.50732000  0.02742000  1.0
  C  C122  1  0.08932000  0.58584000  0.04534000  1.0
  C  C123  1  0.91068000  0.41416000  0.95466000  1.0
  C  C124  1  0.99779000  0.59342000  0.07227000  1.0
  C  C125  1  0.00221000  0.40658000  0.92773000  1.0
  C  C126  1  0.49422000  0.51782000  0.38704000  1.0
  C  C127  1  0.50578000  0.48218000  0.61296000  1.0
  C  C128  1  0.65268000  0.62933000  0.40904000  1.0
  C  C129  1  0.34732000  0.37067000  0.59096000  1.0
  C  C130  1  0.46473000  0.60642000  0.44639000  1.0
  C  C131  1  0.53527000  0.39358000  0.55361000  1.0
  C  C132  1  0.62755000  0.72187000  0.46758000  1.0
  C  C133  1  0.37245000  0.27813000  0.53242000  1.0
  C  C134  1  0.53135000  0.71148000  0.48745000  1.0
  C  C135  1  0.46865000  0.28853000  0.51256000  1.0
  C  C136  1  0.50128000  0.80926000  0.55173000  1.0
  C  C137  1  0.49872000  0.19074000  0.44827000  1.0
  C  C138  1  0.50220000  0.90719000  0.52591000  1.0
  C  C139  1  0.49780000  0.09281000  0.47409000  1.0
  C  C140  1  0.41429000  0.91091000  0.45077000  1.0
  C  C141  1  0.58570000  0.08909000  0.54923000  1.0
  C  C142  1  0.41131000  0.00060000  0.42564000  1.0
  C  C143  1  0.58869000  0.99940000  0.57436000  1.0
  C  C144  1  0.72960000  0.20498000  0.33297000  1.0
  C  C145  1  0.27040000  0.79502000  0.66703000  1.0
  C  C146  1  0.77441000  0.38096000  0.44991000  1.0
  C  C147  1  0.22559000  0.61904000  0.55009000  1.0
  C  C148  1  0.78953000  0.16328000  0.39685000  1.0
  C  C149  1  0.21047000  0.83672000  0.60315000  1.0
  C  C150  1  0.83474000  0.34550000  0.51802000  1.0
  C  C151  1  0.16526000  0.65450000  0.48198000  1.0
  C  C152  1  0.84296000  0.23425000  0.49208000  1.0
  C  C153  1  0.15704000  0.76575000  0.50792000  1.0
  C  C154  1  0.90715000  0.19680000  0.56763000  1.0
  C  C155  1  0.09285000  0.80320000  0.43237000  1.0
  C  C156  1  0.95429000  0.09608000  0.53273000  1.0
  C  C157  1  0.04571000  0.90392000  0.46727000  1.0
  C  C158  1  0.06205000  0.10360000  0.53277000  1.0
  C  C159  1  0.93795000  0.89640000  0.46723000  1.0
  C  C160  1  0.10633000  0.01027000  0.50117000  1.0
  C  C161  1  0.89367000  0.98974000  0.49883000  1.0
  C  C162  1  0.27370000  0.15444000  0.80458000  1.0
  C  C163  1  0.72630000  0.84556000  0.19542000  1.0
  C  C164  1  0.15880000  0.15156000  0.77085000  1.0
  C  C165  1  0.84120000  0.84844000  0.22915000  1.0
  C  C166  1  0.08595000  0.07721000  0.77845000  1.0
  C  C167  1  0.91405000  0.92279000  0.22155000  1.0
  C  C168  1  0.12722000  0.00495000  0.81987000  1.0
  C  C169  1  0.87278000  0.99505000  0.18013000  1.0
  C  C170  1  0.24177000  0.00850000  0.85455000  1.0
  C  C171  1  0.75823000  0.99150000  0.14545000  1.0
  C  C172  1  0.31459000  0.08248000  0.84657000  1.0
  C  C173  1  0.68541000  0.91752000  0.15343000  1.0
  C  C174  1  0.35146000  0.23990000  0.80057000  1.0
  C  C175  1  0.64854000  0.76010000  0.19943000  1.0
  C  C176  1  0.46164000  0.13379000  0.72526000  1.0
  C  C177  1  0.53836000  0.86621000  0.27474000  1.0
  C  C178  1  0.88226000  0.65697000  0.72002000  1.0
  C  C179  1  0.11774000  0.34303000  0.27998000  1.0
  C  C180  1  0.82334000  0.74228000  0.74100000  1.0
  C  C181  1  0.17666000  0.25772000  0.25900000  1.0
  C  C182  1  0.82601000  0.82346000  0.70615000  1.0
  C  C183  1  0.17399000  0.17654000  0.29385000  1.0
  C  C184  1  0.88723000  0.81931000  0.64930000  1.0
  C  C185  1  0.11277000  0.18069000  0.35070000  1.0
  C  C186  1  0.94402000  0.73318000  0.62613000  1.0
  C  C187  1  0.05598000  0.26682000  0.37387000  1.0
  C  C188  1  0.94140000  0.65206000  0.66136000  1.0
  C  C189  1  0.05860000  0.34793000  0.33864000  1.0
  C  C190  1  0.87953000  0.57153000  0.75958000  1.0
  C  C191  1  0.12047000  0.42847000  0.24042000  1.0
  C  C192  1  0.75983000  0.42371000  0.74947000  1.0
  C  C193  1  0.24017000  0.57629000  0.25053000  1.0
  N  N194  1  0.68513000  0.28047000  0.13629000  1.0
  N  N195  1  0.31487000  0.71953000  0.86371000  1.0
  N  N196  1  0.46342000  0.40750000  0.13799000  1.0
  N  N197  1  0.53658000  0.59250000  0.86201000  1.0
  N  N198  1  0.58686000  0.52856000  0.36830000  1.0
  N  N199  1  0.41314000  0.47144000  0.63169000  1.0
  N  N200  1  0.72169000  0.31184000  0.35863000  1.0
  N  N201  1  0.27831000  0.68816000  0.64137000  1.0
  N  N202  1  0.45794000  0.16466000  0.21435000  1.0
  N  N203  1  0.54206000  0.83534000  0.78565000  1.0
  N  N204  1  0.83151000  0.54443000  0.28611000  1.0
  N  N205  1  0.16848000  0.45557000  0.71389000  1.0
  O  O206  1  0.46116000  0.26446000  0.26792000  1.0
  O  O207  1  0.53884000  0.73554000  0.73208000  1.0
  O  O208  1  0.50027000  0.14786000  0.15219000  1.0
  O  O209  1  0.49973000  0.85214000  0.84781000  1.0
  O  O210  1  0.41403000  0.08582000  0.22503000  1.0
  O  O211  1  0.58597000  0.91418000  0.77497000  1.0
  O  O212  1  0.72982000  0.53298000  0.23319000  1.0
  O  O213  1  0.27018000  0.46702000  0.76681000  1.0
  O  O214  1  0.85282000  0.50768000  0.34988000  1.0
  O  O215  1  0.14718000  0.49231000  0.65012000  1.0
  O  O216  1  0.90850000  0.59148000  0.27346000  1.0
  O  O217  1  0.09150000  0.40852000  0.72654000  1.0
  O  O218  1  0.45958000  0.21619000  0.80956000  1.0
  O  O219  1  0.54042000  0.78381000  0.19044000  1.0
  O  O220  1  0.77278000  0.49875000  0.70823000  1.0
  O  O221  1  0.22722000  0.50125000  0.29177000  1.0
  F  F222  1  0.03692000  0.20088000  0.99281000  1.0
  F  F223  1  0.96308000  0.79912000  0.00719000  1.0
  F  F224  1  0.21164000  0.11326000  0.06099000  1.0
  F  F225  1  0.78836000  0.88674000  0.93900000  1.0
  F  F226  1  0.17760000  0.67204000  0.09285000  1.0
  F  F227  1  0.82240000  0.32796000  0.90714000  1.0
  F  F228  1  0.00014000  0.68688000  0.14441000  1.0
  F  F229  1  0.99986000  0.31313000  0.85559000  1.0
  F  F230  1  0.32780000  0.82322000  0.39947000  1.0
  F  F231  1  0.67219000  0.17678000  0.60053000  1.0
  F  F232  1  0.32167000  0.99617000  0.35142000  1.0
  F  F233  1  0.67833000  0.00383000  0.64858000  1.0
  F  F234  1  0.12677000  0.20440000  0.56557000  1.0
  F  F235  1  0.87323000  0.79561000  0.43443000  1.0
  F  F236  1  0.21241000  0.02394000  0.50370000  1.0
  F  F237  1  0.78759000  0.97606000  0.49630000  1.0
