# generated using pymatgen
data_MgH16(C3O4)2
_symmetry_space_group_name_H-M   'P 1'
_cell_length_a   4.70808000
_cell_length_b   9.65889000
_cell_length_c   11.78840000
_cell_angle_alpha   90.00000000
_cell_angle_beta   99.07650000
_cell_angle_gamma   90.00000000
_symmetry_Int_Tables_number   1
_chemical_formula_structural   MgH16(C3O4)2
_chemical_formula_sum   'Mg2 H32 C12 O16'
_cell_volume   529.36302953
_cell_formula_units_Z   2
loop_
 _symmetry_equiv_pos_site_id
 _symmetry_equiv_pos_as_xyz
  1  'x, y, z'
loop_
 _atom_site_type_symbol
 _atom_site_label
 _atom_site_symmetry_multiplicity
 _atom_site_fract_x
 _atom_site_fract_y
 _atom_site_fract_z
 _atom_site_occupancy
  Mg  Mg0  1  0.00000000  0.00000000  0.50000000  1.0
  Mg  Mg1  1  0.00000000  0.50000000  0.00000000  1.0
  H  H2  1  0.34920000  0.03014000  0.17824000  1.0
  H  H3  1  0.65080000  0.53015000  0.32176000  1.0
  H  H4  1  0.65080000  0.96985000  0.82176000  1.0
  H  H5  1  0.34920000  0.46986000  0.67824000  1.0
  H  H6  1  0.72363000  0.88316000  0.02336000  1.0
  H  H7  1  0.27637000  0.38316000  0.47664000  1.0
  H  H8  1  0.27637000  0.11684000  0.97664000  1.0
  H  H9  1  0.72363000  0.61684000  0.52336000  1.0
  H  H10  1  0.77828000  0.05569000  0.07004000  1.0
  H  H11  1  0.22172000  0.55569000  0.42996000  1.0
  H  H12  1  0.22172000  0.94431000  0.92996000  1.0
  H  H13  1  0.77828000  0.44431000  0.57004000  1.0
  H  H14  1  0.32834000  0.85367000  0.13807000  1.0
  H  H15  1  0.67166000  0.35367000  0.36193000  1.0
  H  H16  1  0.67166000  0.14633000  0.86193000  1.0
  H  H17  1  0.32834000  0.64633000  0.63807000  1.0
  H  H18  1  0.88436000  0.19706000  0.62474000  1.0
  H  H19  1  0.11564000  0.69706000  0.87526000  1.0
  H  H20  1  0.11563000  0.80294000  0.37526000  1.0
  H  H21  1  0.88437000  0.30294000  0.12474000  1.0
  H  H22  1  0.59181000  0.17979000  0.52920000  1.0
  H  H23  1  0.40819000  0.67979000  0.97080000  1.0
  H  H24  1  0.40819000  0.82021000  0.47080000  1.0
  H  H25  1  0.59182000  0.32021000  0.02920000  1.0
  H  H26  1  0.80673000  0.80685000  0.64598000  1.0
  H  H27  1  0.19327000  0.30685000  0.85402000  1.0
  H  H28  1  0.19327000  0.19315000  0.35402000  1.0
  H  H29  1  0.80673000  0.69315000  0.14598000  1.0
  H  H30  1  0.58463000  0.93336000  0.62411000  1.0
  H  H31  1  0.41537000  0.43336000  0.87589000  1.0
  H  H32  1  0.41537000  0.06664000  0.37589000  1.0
  H  H33  1  0.58463000  0.56664000  0.12411000  1.0
  C  C34  1  0.69928000  0.90623000  0.25926000  1.0
  C  C35  1  0.30072000  0.40624000  0.24074000  1.0
  C  C36  1  0.30072000  0.09377000  0.74074000  1.0
  C  C37  1  0.69928000  0.59376000  0.75926000  1.0
  C  C38  1  0.47698000  0.94176000  0.15630000  1.0
  C  C39  1  0.52301000  0.44176000  0.34370000  1.0
  C  C40  1  0.52301000  0.05824000  0.84370000  1.0
  C  C41  1  0.47698000  0.55824000  0.65630000  1.0
  C  C42  1  0.61258000  0.97523000  0.04954000  1.0
  C  C43  1  0.38742000  0.47523000  0.45046000  1.0
  C  C44  1  0.38742000  0.02477000  0.95046000  1.0
  C  C45  1  0.61258000  0.52477000  0.54954000  1.0
  O  O46  1  0.88069000  0.81017000  0.25162000  1.0
  O  O47  1  0.11931000  0.31017000  0.24838000  1.0
  O  O48  1  0.11931000  0.18983000  0.74838000  1.0
  O  O49  1  0.88069000  0.68983000  0.75162000  1.0
  O  O50  1  0.69894000  0.97661000  0.35168000  1.0
  O  O51  1  0.30106000  0.47661000  0.14832000  1.0
  O  O52  1  0.30106000  0.02339000  0.64832000  1.0
  O  O53  1  0.69894000  0.52339000  0.85168000  1.0
  O  O54  1  0.80292000  0.18083000  0.54178000  1.0
  O  O55  1  0.19708000  0.68082000  0.95822000  1.0
  O  O56  1  0.19708000  0.81917000  0.45822000  1.0
  O  O57  1  0.80292000  0.31917000  0.04178000  1.0
  O  O58  1  0.73487000  0.88162000  0.58950000  1.0
  O  O59  1  0.26512000  0.38162000  0.91050000  1.0
  O  O60  1  0.26512000  0.11837000  0.41050000  1.0
  O  O61  1  0.73488000  0.61837000  0.08950000  1.0
