# generated using pymatgen
data_CdPH11(C4Cl)2
_symmetry_space_group_name_H-M   'P 1'
_cell_length_a   7.09170000
_cell_length_b   12.14460000
_cell_length_c   12.80320000
_cell_angle_alpha   89.99970000
_cell_angle_beta   93.49140000
_cell_angle_gamma   89.99930000
_symmetry_Int_Tables_number   1
_chemical_formula_structural   CdPH11(C4Cl)2
_chemical_formula_sum   'Cd4 P4 H44 C32 Cl8'
_cell_volume   1100.63996737
_cell_formula_units_Z   4
loop_
 _symmetry_equiv_pos_site_id
 _symmetry_equiv_pos_as_xyz
  1  'x, y, z'
loop_
 _atom_site_type_symbol
 _atom_site_label
 _atom_site_symmetry_multiplicity
 _atom_site_fract_x
 _atom_site_fract_y
 _atom_site_fract_z
 _atom_site_occupancy
  Cd  Cd0  1  0.74521000  0.02335000  0.94618000  1.0
  Cd  Cd1  1  0.75479000  0.52335000  0.55383000  1.0
  Cd  Cd2  1  0.25479000  0.97665000  0.05383000  1.0
  Cd  Cd3  1  0.24521000  0.47665000  0.44617000  1.0
  P  P4  1  0.73240000  0.08753000  0.75626000  1.0
  P  P5  1  0.76760000  0.58753000  0.74374000  1.0
  P  P6  1  0.26759000  0.91247000  0.24375000  1.0
  P  P7  1  0.23241000  0.41247000  0.25625000  1.0
  H  H8  1  0.61479000  0.96358000  0.55965000  1.0
  H  H9  1  0.88521000  0.46357000  0.94035000  1.0
  H  H10  1  0.38521000  0.03642000  0.44036000  1.0
  H  H11  1  0.11479000  0.53642000  0.05964000  1.0
  H  H12  1  0.78071000  0.81873000  0.46309000  1.0
  H  H13  1  0.71930000  0.31872000  0.03690000  1.0
  H  H14  1  0.21930000  0.18127000  0.53691000  1.0
  H  H15  1  0.28070000  0.68127000  0.96309000  1.0
  H  H16  1  0.10285000  0.75906000  0.52469000  1.0
  H  H17  1  0.39716000  0.25905000  0.97531000  1.0
  H  H18  1  0.89716000  0.24095000  0.47532000  1.0
  H  H19  1  0.60285000  0.74094000  0.02468000  1.0
  H  H20  1  0.26092000  0.84377000  0.68416000  1.0
  H  H21  1  0.23910000  0.34376000  0.81583000  1.0
  H  H22  1  0.73908000  0.15624000  0.31584000  1.0
  H  H23  1  0.76092000  0.65623000  0.18416000  1.0
  H  H24  1  0.09564000  0.98337000  0.78404000  1.0
  H  H25  1  0.40438000  0.48336000  0.71595000  1.0
  H  H26  1  0.90436000  0.01664000  0.21596000  1.0
  H  H27  1  0.59563000  0.51664000  0.28404000  1.0
  H  H28  1  0.00937000  0.20254000  0.76950000  1.0
  H  H29  1  0.49062000  0.70253000  0.73050000  1.0
  H  H30  1  0.99061000  0.79747000  0.23050000  1.0
  H  H31  1  0.50937000  0.29746000  0.26950000  1.0
  H  H32  1  0.79841000  0.28060000  0.77791000  1.0
  H  H33  1  0.70159000  0.78060000  0.72209000  1.0
  H  H34  1  0.20158000  0.71940000  0.22209000  1.0
  H  H35  1  0.29840000  0.21940000  0.27791000  1.0
  H  H36  1  0.86458000  0.23265000  0.65306000  1.0
  H  H37  1  0.63542000  0.73265000  0.84694000  1.0
  H  H38  1  0.13541000  0.76735000  0.34694000  1.0
  H  H39  1  0.36457000  0.26734000  0.15305000  1.0
  H  H40  1  0.41218000  0.03988000  0.69430000  1.0
  H  H41  1  0.08782000  0.53987000  0.80570000  1.0
  H  H42  1  0.58782000  0.96012000  0.30570000  1.0
  H  H43  1  0.91217000  0.46013000  0.19430000  1.0
  H  H44  1  0.51408000  0.14404000  0.61377000  1.0
  H  H45  1  0.98592000  0.64403000  0.88624000  1.0
  H  H46  1  0.48591000  0.85596000  0.38624000  1.0
  H  H47  1  0.01407000  0.35596000  0.11376000  1.0
  H  H48  1  0.43310000  0.17874000  0.73846000  1.0
  H  H49  1  0.06691000  0.67874000  0.76154000  1.0
  H  H50  1  0.56689000  0.82126000  0.26154000  1.0
  H  H51  1  0.93310000  0.32127000  0.23846000  1.0
  C  C52  1  0.84449000  0.98490000  0.67758000  1.0
  C  C53  1  0.65551000  0.48490000  0.82243000  1.0
  C  C54  1  0.15550000  0.01510000  0.32243000  1.0
  C  C55  1  0.34450000  0.51509000  0.17757000  1.0
  C  C56  1  0.75685000  0.93818000  0.58690000  1.0
  C  C57  1  0.74315000  0.43818000  0.91310000  1.0
  C  C58  1  0.24314000  0.06182000  0.41311000  1.0
  C  C59  1  0.25686000  0.56181000  0.08689000  1.0
  C  C60  1  0.84998000  0.85721000  0.53208000  1.0
  C  C61  1  0.65003000  0.35720000  0.96792000  1.0
  C  C62  1  0.15002000  0.14279000  0.46794000  1.0
  C  C63  1  0.34999000  0.64279000  0.03207000  1.0
  C  C64  1  0.03126000  0.82333000  0.56659000  1.0
  C  C65  1  0.46875000  0.32332000  0.93341000  1.0
  C  C66  1  0.96875000  0.17667000  0.43342000  1.0
  C  C67  1  0.53126000  0.67667000  0.06658000  1.0
  C  C68  1  0.11976000  0.87037000  0.65637000  1.0
  C  C69  1  0.38025000  0.37036000  0.84363000  1.0
  C  C70  1  0.88024000  0.12964000  0.34364000  1.0
  C  C71  1  0.61977000  0.62963000  0.15636000  1.0
  C  C72  1  0.02652000  0.94988000  0.71236000  1.0
  C  C73  1  0.47349000  0.44988000  0.78764000  1.0
  C  C74  1  0.97347000  0.05012000  0.28764000  1.0
  C  C75  1  0.52652000  0.55012000  0.21235000  1.0
  C  C76  1  0.86429000  0.21306000  0.73652000  1.0
  C  C77  1  0.63572000  0.71305000  0.76348000  1.0
  C  C78  1  0.13570000  0.78695000  0.26349000  1.0
  C  C79  1  0.36428000  0.28695000  0.23651000  1.0
  C  C80  1  0.50021000  0.11400000  0.69382000  1.0
  C  C81  1  0.99980000  0.61399000  0.80619000  1.0
  C  C82  1  0.49978000  0.88600000  0.30619000  1.0
  C  C83  1  0.00020000  0.38602000  0.19381000  1.0
  Cl  Cl84  1  0.58626000  0.09132000  0.10311000  1.0
  Cl  Cl85  1  0.91374000  0.59132000  0.39689000  1.0
  Cl  Cl86  1  0.41374000  0.90868000  0.89689000  1.0
  Cl  Cl87  1  0.08626000  0.40868000  0.60311000  1.0
  Cl  Cl88  1  0.93392000  0.85412000  0.00305000  1.0
  Cl  Cl89  1  0.56608000  0.35412000  0.49695000  1.0
  Cl  Cl90  1  0.06608000  0.14588000  0.99695000  1.0
  Cl  Cl91  1  0.43391000  0.64588000  0.50305000  1.0
