# generated using pymatgen
data_BiH8C10Br3N2
_symmetry_space_group_name_H-M   'P 1'
_cell_length_a   7.26644000
_cell_length_b   10.14230000
_cell_length_c   10.30290000
_cell_angle_alpha   117.00000000
_cell_angle_beta   91.02210000
_cell_angle_gamma   92.90870000
_symmetry_Int_Tables_number   1
_chemical_formula_structural   BiH8C10Br3N2
_chemical_formula_sum   'Bi2 H16 C20 Br6 N4'
_cell_volume   674.96299849
_cell_formula_units_Z   2
loop_
 _symmetry_equiv_pos_site_id
 _symmetry_equiv_pos_as_xyz
  1  'x, y, z'
loop_
 _atom_site_type_symbol
 _atom_site_label
 _atom_site_symmetry_multiplicity
 _atom_site_fract_x
 _atom_site_fract_y
 _atom_site_fract_z
 _atom_site_occupancy
  Bi  Bi0  1  0.95540000  0.39772000  0.26029000  1.0
  Bi  Bi1  1  0.04461000  0.60227000  0.73966000  1.0
  H  H2  1  0.60074000  0.73487000  0.32839000  1.0
  H  H3  1  0.39926000  0.26514000  0.67163000  1.0
  H  H4  1  0.32066000  0.02068000  0.14197000  1.0
  H  H5  1  0.67934000  0.97934000  0.85805000  1.0
  H  H6  1  0.53523000  0.21547000  0.13936000  1.0
  H  H7  1  0.46478000  0.78456000  0.86066000  1.0
  H  H8  1  0.12582000  0.92400000  0.23307000  1.0
  H  H9  1  0.87418000  0.07599000  0.76693000  1.0
  H  H10  1  0.73006000  0.95460000  0.41482000  1.0
  H  H11  1  0.26995000  0.04541000  0.58518000  1.0
  H  H12  1  0.93421000  0.71284000  0.22827000  1.0
  H  H13  1  0.06579000  0.28715000  0.77170000  1.0
  H  H14  1  0.92953000  0.15311000  0.39915000  1.0
  H  H15  1  0.07047000  0.84689000  0.60086000  1.0
  H  H16  1  0.38905000  0.53669000  0.32597000  1.0
  H  H17  1  0.61095000  0.46331000  0.67404000  1.0
  C  C18  1  0.45385000  0.73869000  0.30977000  1.0
  C  C19  1  0.54615000  0.26131000  0.69024000  1.0
  C  C20  1  0.50607000  0.96838000  0.27891000  1.0
  C  C21  1  0.49393000  0.03164000  0.72111000  1.0
  C  C22  1  0.45355000  0.04476000  0.20147000  1.0
  C  C23  1  0.54646000  0.95525000  0.79855000  1.0
  C  C24  1  0.38277000  0.85046000  0.28338000  1.0
  C  C25  1  0.61724000  0.14954000  0.71663000  1.0
  C  C26  1  0.57384000  0.15432000  0.19862000  1.0
  C  C27  1  0.42616000  0.84569000  0.80140000  1.0
  C  C28  1  0.19126000  0.84279000  0.25690000  1.0
  C  C29  1  0.80874000  0.15722000  0.74310000  1.0
  C  C30  1  0.68144000  0.00762000  0.35061000  1.0
  C  C31  1  0.31857000  0.99239000  0.64940000  1.0
  C  C32  1  0.08210000  0.72560000  0.25508000  1.0
  C  C33  1  0.91790000  0.27440000  0.74492000  1.0
  C  C34  1  0.79366000  0.11838000  0.34287000  1.0
  C  C35  1  0.20635000  0.88163000  0.65715000  1.0
  C  C36  1  0.33588000  0.62537000  0.30707000  1.0
  C  C37  1  0.66412000  0.37463000  0.69293000  1.0
  Br  Br38  1  0.77567000  0.62914000  0.52340000  1.0
  Br  Br39  1  0.22430000  0.37081000  0.47654000  1.0
  Br  Br40  1  0.70196000  0.44092000  0.08942000  1.0
  Br  Br41  1  0.29797000  0.55906000  0.91056000  1.0
  Br  Br42  1  0.14899000  0.20581000  0.03188000  1.0
  Br  Br43  1  0.85102000  0.79415000  0.96807000  1.0
  N  N44  1  0.74100000  0.19063000  0.26783000  1.0
  N  N45  1  0.25901000  0.80939000  0.73218000  1.0
  N  N46  1  0.15325000  0.61871000  0.27982000  1.0
  N  N47  1  0.84675000  0.38129000  0.72017000  1.0
