# generated using pymatgen
data_Al2H21C30(NO4)3
_symmetry_space_group_name_H-M   'P 1'
_cell_length_a   3.96063000
_cell_length_b   17.22290000
_cell_length_c   17.22290000
_cell_angle_alpha   60.00000000
_cell_angle_beta   89.99980000
_cell_angle_gamma   89.99990000
_symmetry_Int_Tables_number   1
_chemical_formula_structural   Al2H21C30(NO4)3
_chemical_formula_sum   'Al2 H21 C30 N3 O12'
_cell_volume   1017.43685313
_cell_formula_units_Z   1
loop_
 _symmetry_equiv_pos_site_id
 _symmetry_equiv_pos_as_xyz
  1  'x, y, z'
loop_
 _atom_site_type_symbol
 _atom_site_label
 _atom_site_symmetry_multiplicity
 _atom_site_fract_x
 _atom_site_fract_y
 _atom_site_fract_z
 _atom_site_occupancy
  Al  Al0  1  0.01087000  0.50000000  1.00000000  1.0
  Al  Al1  1  0.99067000  0.16667000  0.66666000  1.0
  H  H2  1  0.49176000  0.16455000  0.41709000  1.0
  H  H3  1  0.72973000  0.47283000  0.41509000  1.0
  H  H4  1  0.27948000  0.47195000  0.41713000  1.0
  H  H5  1  0.26941000  0.55421000  0.24869000  1.0
  H  H6  1  0.71995000  0.55478000  0.24700000  1.0
  H  H7  1  0.49175000  0.41836000  0.66456000  1.0
  H  H8  1  0.72973000  0.11208000  0.97282000  1.0
  H  H9  1  0.27948000  0.11092000  0.97195000  1.0
  H  H10  1  0.26941000  0.19710000  0.05422000  1.0
  H  H11  1  0.71995000  0.19822000  0.05477000  1.0
  H  H12  1  0.49176000  0.91708000  0.91837000  1.0
  H  H13  1  0.72973000  0.91510000  0.61207000  1.0
  H  H14  1  0.27948000  0.91713000  0.61092000  1.0
  H  H15  1  0.26941000  0.74868000  0.69711000  1.0
  H  H16  1  0.71995000  0.74701000  0.69821000  1.0
  H  H17  1  0.52542000  0.26777000  0.17538000  1.0
  H  H18  1  0.41943000  0.17442000  0.27210000  1.0
  H  H19  1  0.52542000  0.55685000  0.76777000  1.0
  H  H20  1  0.41943000  0.55348000  0.67441000  1.0
  H  H21  1  0.52543000  0.67538000  0.05685000  1.0
  H  H22  1  0.41944000  0.77211000  0.05347000  1.0
  C  C23  1  0.50962000  0.63796000  0.93246000  1.0
  C  C24  1  0.50961000  0.42958000  0.13797000  1.0
  C  C25  1  0.50961000  0.43245000  0.92959000  1.0
  C  C26  1  0.49080000  0.23321000  0.52892000  1.0
  C  C27  1  0.49080000  0.23787000  0.73321000  1.0
  C  C28  1  0.49080000  0.02892000  0.73787000  1.0
  C  C29  1  0.49429000  0.28290000  0.42926000  1.0
  C  C30  1  0.50816000  0.37836000  0.23695000  1.0
  C  C31  1  0.50273000  0.37628000  0.38000000  1.0
  C  C32  1  0.51755000  0.28298000  0.28610000  1.0
  C  C33  1  0.49611000  0.42160000  0.28689000  1.0
  C  C34  1  0.49571000  0.23772000  0.38058000  1.0
  C  C35  1  0.50254000  0.46153000  0.38545000  1.0
  C  C36  1  0.49593000  0.51336000  0.27929000  1.0
  C  C37  1  0.49429000  0.28784000  0.78290000  1.0
  C  C38  1  0.50816000  0.38469000  0.87836000  1.0
  C  C39  1  0.50272000  0.24372000  0.87627000  1.0
  C  C40  1  0.51755000  0.43091000  0.78298000  1.0
  C  C41  1  0.49611000  0.29151000  0.92160000  1.0
  C  C42  1  0.49570000  0.38170000  0.73772000  1.0
  C  C43  1  0.50254000  0.15302000  0.96153000  1.0
  C  C44  1  0.49593000  0.20735000  0.01336000  1.0
  C  C45  1  0.49429000  0.92926000  0.78784000  1.0
  C  C46  1  0.50817000  0.73695000  0.88469000  1.0
  C  C47  1  0.50272000  0.88001000  0.74371000  1.0
  C  C48  1  0.51756000  0.78611000  0.93091000  1.0
  C  C49  1  0.49611000  0.78689000  0.79151000  1.0
  C  C50  1  0.49571000  0.88058000  0.88170000  1.0
  C  C51  1  0.50253000  0.88545000  0.65302000  1.0
  C  C52  1  0.49593000  0.77929000  0.70735000  1.0
  N  N53  1  0.54949000  0.23302000  0.24317000  1.0
  N  N54  1  0.54949000  0.52381000  0.73302000  1.0
  N  N55  1  0.54950000  0.74318000  0.02380000  1.0
  O  O56  1  0.27701000  0.41342000  0.98790000  1.0
  O  O57  1  0.27701000  0.59868000  0.91341000  1.0
  O  O58  1  0.27701000  0.48791000  0.09867000  1.0
  O  O59  1  0.74347000  0.49024000  0.91247000  1.0
  O  O60  1  0.74347000  0.41247000  0.09729000  1.0
  O  O61  1  0.74347000  0.59729000  0.99024000  1.0
  O  O62  1  0.25584000  0.06886000  0.75484000  1.0
  O  O63  1  0.25584000  0.17630000  0.56885000  1.0
  O  O64  1  0.25584000  0.25485000  0.67629000  1.0
  O  O65  1  0.72491000  0.06771000  0.68019000  1.0
  O  O66  1  0.72490000  0.18019000  0.75210000  1.0
  O  O67  1  0.72491000  0.25210000  0.56771000  1.0
