# generated using pymatgen
data_Co3H16C14(N7O4)2
_symmetry_space_group_name_H-M   'P 1'
_cell_length_a   8.58717000
_cell_length_b   8.81370000
_cell_length_c   8.91089000
_cell_angle_alpha   107.02400000
_cell_angle_beta   100.86200000
_cell_angle_gamma   112.39500000
_symmetry_Int_Tables_number   1
_chemical_formula_structural   Co3H16C14(N7O4)2
_chemical_formula_sum   'Co3 H16 C14 N14 O8'
_cell_volume   560.85532948
_cell_formula_units_Z   1
loop_
 _symmetry_equiv_pos_site_id
 _symmetry_equiv_pos_as_xyz
  1  'x, y, z'
loop_
 _atom_site_type_symbol
 _atom_site_label
 _atom_site_symmetry_multiplicity
 _atom_site_fract_x
 _atom_site_fract_y
 _atom_site_fract_z
 _atom_site_occupancy
  Co  Co0  1  0.99979000  0.50541000  0.99696000  1.0
  Co  Co1  1  0.98596000  0.18849000  0.08141000  1.0
  Co  Co2  1  0.01140000  0.80106000  0.91821000  1.0
  H  H3  1  0.74433000  0.99710000  0.18524000  1.0
  H  H4  1  0.25569000  0.00318000  0.82009000  1.0
  H  H5  1  0.80625000  0.04276000  0.68773000  1.0
  H  H6  1  0.19403000  0.95638000  0.31467000  1.0
  H  H7  1  0.29068000  0.48625000  0.60285000  1.0
  H  H8  1  0.70695000  0.50997000  0.39027000  1.0
  H  H9  1  0.56151000  0.65972000  0.86203000  1.0
  H  H10  1  0.43351000  0.33358000  0.13244000  1.0
  H  H11  1  0.54056000  0.88034000  0.41371000  1.0
  H  H12  1  0.46215000  0.12165000  0.58687000  1.0
  H  H13  1  0.83257000  0.07790000  0.46187000  1.0
  H  H14  1  0.17104000  0.93128000  0.54541000  1.0
  H  H15  1  0.89293000  0.28302000  0.43284000  1.0
  H  H16  1  0.11241000  0.72309000  0.56846000  1.0
  H  H17  1  0.05709000  0.20961000  0.47750000  1.0
  H  H18  1  0.94617000  0.79420000  0.52546000  1.0
  C  C19  1  0.39502000  0.67094000  0.48771000  1.0
  C  C20  1  0.60467000  0.32818000  0.50846000  1.0
  C  C21  1  0.68723000  0.91860000  0.65685000  1.0
  C  C22  1  0.31263000  0.07989000  0.34339000  1.0
  C  C23  1  0.40003000  0.60899000  0.61553000  1.0
  C  C24  1  0.59791000  0.38799000  0.37927000  1.0
  C  C25  1  0.54736000  0.70109000  0.75903000  1.0
  C  C26  1  0.44939000  0.29461000  0.23686000  1.0
  C  C27  1  0.54050000  0.82977000  0.51154000  1.0
  C  C28  1  0.46033000  0.17009000  0.48761000  1.0
  C  C29  1  0.23958000  0.56067000  0.32711000  1.0
  C  C30  1  0.76020000  0.43927000  0.66779000  1.0
  C  C31  1  0.91611000  0.16543000  0.41241000  1.0
  C  C32  1  0.08725000  0.83970000  0.59154000  1.0
  N  N33  1  0.68860000  0.85122000  0.77552000  1.0
  N  N34  1  0.30901000  0.14522000  0.22316000  1.0
  N  N35  1  0.80574000  0.29322000  0.05745000  1.0
  N  N36  1  0.19740000  0.70628000  0.94132000  1.0
  N  N37  1  0.65119000  0.20153000  0.96917000  1.0
  N  N38  1  0.35144000  0.79758000  0.03116000  1.0
  N  N39  1  0.50080000  0.11370000  0.88472000  1.0
  N  N40  1  0.50160000  0.88572000  0.11593000  1.0
  N  N41  1  0.20433000  0.33471000  0.87948000  1.0
  N  N42  1  0.79454000  0.66960000  0.12714000  1.0
  N  N43  1  0.08080000  0.31416000  0.93199000  1.0
  N  N44  1  0.91098000  0.68451000  0.06562000  1.0
  N  N45  1  0.31859000  0.35123000  0.82326000  1.0
  N  N46  1  0.68507000  0.65631000  0.18910000  1.0
  O  O47  1  0.83562000  0.92706000  0.91036000  1.0
  O  O48  1  0.16008000  0.06720000  0.09062000  1.0
  O  O49  1  0.16466000  0.39349000  0.29441000  1.0
  O  O50  1  0.83846000  0.60568000  0.69838000  1.0
  O  O51  1  0.19741000  0.63790000  0.23892000  1.0
  O  O52  1  0.80018000  0.36346000  0.75889000  1.0
  O  O53  1  0.87623000  0.06669000  0.23860000  1.0
  O  O54  1  0.12405000  0.93330000  0.76566000  1.0
