# generated using pymatgen
data_ZnH28C32N8(O2F3)2
_symmetry_space_group_name_H-M   'P 1'
_cell_length_a   8.81223000
_cell_length_b   9.28250000
_cell_length_c   11.37630000
_cell_angle_alpha   82.48810000
_cell_angle_beta   68.09910000
_cell_angle_gamma   67.77050000
_symmetry_Int_Tables_number   1
_chemical_formula_structural   ZnH28C32N8(O2F3)2
_chemical_formula_sum   'Zn1 H28 C32 N8 O4 F6'
_cell_volume   799.18560753
_cell_formula_units_Z   1
loop_
 _symmetry_equiv_pos_site_id
 _symmetry_equiv_pos_as_xyz
  1  'x, y, z'
loop_
 _atom_site_type_symbol
 _atom_site_label
 _atom_site_symmetry_multiplicity
 _atom_site_fract_x
 _atom_site_fract_y
 _atom_site_fract_z
 _atom_site_occupancy
  Zn  Zn0  1  0.00000000  0.00000000  0.50000000  1.0
  H  H1  1  0.80023000  0.57180000  0.81679000  1.0
  H  H2  1  0.19977000  0.42820000  0.18321000  1.0
  H  H3  1  0.51728000  0.76170000  0.95166000  1.0
  H  H4  1  0.48272000  0.23829000  0.04834000  1.0
  H  H5  1  0.40105000  0.72332000  0.18313000  1.0
  H  H6  1  0.59895000  0.27668000  0.81687000  1.0
  H  H7  1  0.84138000  0.08898000  0.99482000  1.0
  H  H8  1  0.15863000  0.91102000  0.00518000  1.0
  H  H9  1  0.84949000  0.30323000  0.14806000  1.0
  H  H10  1  0.15051000  0.69677000  0.85194000  1.0
  H  H11  1  0.09019000  0.36131000  0.81937000  1.0
  H  H12  1  0.90981000  0.63869000  0.18063000  1.0
  H  H13  1  0.08872000  0.23768000  0.95184000  1.0
  H  H14  1  0.91128000  0.76232000  0.04816000  1.0
  H  H15  1  0.00382000  0.37567000  0.46201000  1.0
  H  H16  1  0.99618000  0.62433000  0.53799000  1.0
  H  H17  1  0.67476000  0.18057000  0.40572000  1.0
  H  H18  1  0.32524000  0.81943000  0.59428000  1.0
  H  H19  1  0.44958000  0.59772000  0.36891000  1.0
  H  H20  1  0.55042000  0.40228000  0.63109000  1.0
  H  H21  1  0.46381000  0.40836000  0.34079000  1.0
  H  H22  1  0.53619000  0.59164000  0.65921000  1.0
  H  H23  1  0.74657000  0.60869000  0.38601000  1.0
  H  H24  1  0.25343000  0.39132000  0.61399000  1.0
  H  H25  1  0.09227000  0.24406000  0.63318000  1.0
  H  H26  1  0.90773000  0.75594000  0.36682000  1.0
  H  H27  1  0.83145000  0.93222000  0.80612000  1.0
  H  H28  1  0.16855000  0.06778000  0.19388000  1.0
  C  C29  1  0.52694000  0.01738000  0.26931000  1.0
  C  C30  1  0.47306000  0.98262000  0.73069000  1.0
  C  C31  1  0.89239000  0.09552000  0.89246000  1.0
  C  C32  1  0.10761000  0.90448000  0.10754000  1.0
  C  C33  1  0.77545000  0.40380000  0.10508000  1.0
  C  C34  1  0.22455000  0.59620000  0.89492000  1.0
  C  C35  1  0.89749000  0.36973000  0.43894000  1.0
  C  C36  1  0.10251000  0.63027000  0.56106000  1.0
  C  C37  1  0.73315000  0.26246000  0.41015000  1.0
  C  C38  1  0.26685000  0.73754000  0.58985000  1.0
  C  C39  1  0.88782000  0.02004000  0.79830000  1.0
  C  C40  1  0.11218000  0.97996000  0.20170000  1.0
  C  C41  1  0.53909000  0.48561000  0.32149000  1.0
  C  C42  1  0.46091000  0.51439000  0.67851000  1.0
  C  C43  1  0.61600000  0.50980000  0.18089000  1.0
  C  C44  1  0.38400000  0.49021000  0.81911000  1.0
  C  C45  1  0.01915000  0.18233000  0.70515000  1.0
  C  C46  1  0.98086000  0.81767000  0.29485000  1.0
  C  C47  1  0.84229000  0.42509000  0.97450000  1.0
  C  C48  1  0.15772000  0.57491000  0.02550000  1.0
  C  C49  1  0.01032000  0.30561000  0.89409000  1.0
  C  C50  1  0.98968000  0.69440000  0.10591000  1.0
  C  C51  1  0.52399000  0.63856000  0.12453000  1.0
  C  C52  1  0.47601000  0.36144000  0.87547000  1.0
  C  C53  1  0.77646000  0.48453000  0.39666000  1.0
  C  C54  1  0.22354000  0.51547000  0.60334000  1.0
  C  C55  1  0.74869000  0.55438000  0.91880000  1.0
  C  C56  1  0.25131000  0.44562000  0.08120000  1.0
  C  C57  1  0.59004000  0.66050000  0.99411000  1.0
  C  C58  1  0.40996000  0.33950000  0.00589000  1.0
  C  C59  1  0.34983000  0.10008000  0.37827000  1.0
  C  C60  1  0.65017000  0.89992000  0.62173000  1.0
  N  N61  1  0.97675000  0.19787000  0.83174000  1.0
  N  N62  1  0.02325000  0.80213000  0.16826000  1.0
  N  N63  1  0.67348000  0.41445000  0.37860000  1.0
  N  N64  1  0.32652000  0.58555000  0.62141000  1.0
  N  N65  1  0.96689000  0.07554000  0.68208000  1.0
  N  N66  1  0.03310000  0.92446000  0.31792000  1.0
  N  N67  1  0.86875000  0.23184000  0.44714000  1.0
  N  N68  1  0.13125000  0.76816000  0.55286000  1.0
  O  O69  1  0.32413000  0.23009000  0.41676000  1.0
  O  O70  1  0.67587000  0.76991000  0.58324000  1.0
  O  O71  1  0.25698000  0.01621000  0.41137000  1.0
  O  O72  1  0.74302000  0.98379000  0.58863000  1.0
  F  F73  1  0.64170000  0.09512000  0.23314000  1.0
  F  F74  1  0.35830000  0.90488000  0.76687000  1.0
  F  F75  1  0.61311000  0.87164000  0.30434000  1.0
  F  F76  1  0.38689000  0.12836000  0.69566000  1.0
  F  F77  1  0.50017000  0.99918000  0.16187000  1.0
  F  F78  1  0.49983000  0.00082000  0.83813000  1.0
