# generated using pymatgen
data_AlH5C16O5F4
_symmetry_space_group_name_H-M   'P 1'
_cell_length_a   6.70340000
_cell_length_b   23.51830000
_cell_length_c   26.29200000
_cell_angle_alpha   101.53310000
_cell_angle_beta   89.99990000
_cell_angle_gamma   90.00000000
_symmetry_Int_Tables_number   1
_chemical_formula_structural   AlH5C16O5F4
_chemical_formula_sum   'Al4 H20 C64 O20 F16'
_cell_volume   4061.31121977
_cell_formula_units_Z   4
loop_
 _symmetry_equiv_pos_site_id
 _symmetry_equiv_pos_as_xyz
  1  'x, y, z'
loop_
 _atom_site_type_symbol
 _atom_site_label
 _atom_site_symmetry_multiplicity
 _atom_site_fract_x
 _atom_site_fract_y
 _atom_site_fract_z
 _atom_site_occupancy
  Al  Al0  1  0.19992000  0.75032000  0.75055000  1.0
  Al  Al1  1  0.80009000  0.24968000  0.24945000  1.0
  Al  Al2  1  0.69991000  0.74968000  0.74945000  1.0
  Al  Al3  1  0.30008000  0.25032000  0.25055000  1.0
  H  H4  1  0.73443000  0.36421000  0.15585000  1.0
  H  H5  1  0.26556000  0.63579000  0.84414000  1.0
  H  H6  1  0.23444000  0.13579000  0.34414000  1.0
  H  H7  1  0.76557000  0.86420000  0.65585000  1.0
  H  H8  1  0.71551000  0.42976000  0.09260000  1.0
  H  H9  1  0.28450000  0.57024000  0.90740000  1.0
  H  H10  1  0.21550000  0.07024000  0.40740000  1.0
  H  H11  1  0.78449000  0.92976000  0.59260000  1.0
  H  H12  1  0.23509000  0.58255000  0.00474000  1.0
  H  H13  1  0.76492000  0.41744000  0.99525000  1.0
  H  H14  1  0.73512000  0.91745000  0.49526000  1.0
  H  H15  1  0.26488000  0.08255000  0.50474000  1.0
  H  H16  1  0.66466000  0.52697000  0.53870000  1.0
  H  H17  1  0.33531000  0.47303000  0.46130000  1.0
  H  H18  1  0.16470000  0.97305000  0.96128000  1.0
  H  H19  1  0.83531000  0.02695000  0.03872000  1.0
  H  H20  1  0.44872000  0.67358000  0.73502000  1.0
  H  H21  1  0.55128000  0.32641000  0.26498000  1.0
  H  H22  1  0.94872000  0.82642000  0.76498000  1.0
  H  H23  1  0.05128000  0.17358000  0.23502000  1.0
  C  C24  1  0.45137000  0.82555000  0.82731000  1.0
  C  C25  1  0.54863000  0.17444000  0.17268000  1.0
  C  C26  1  0.95138000  0.67444000  0.67269000  1.0
  C  C27  1  0.04863000  0.32555000  0.32731000  1.0
  C  C28  1  0.44882000  0.81298000  0.68773000  1.0
  C  C29  1  0.55117000  0.18701000  0.31226000  1.0
  C  C30  1  0.94884000  0.68701000  0.81226000  1.0
  C  C31  1  0.05117000  0.31298000  0.18773000  1.0
  C  C32  1  0.86783000  0.37463000  0.13600000  1.0
  C  C33  1  0.13217000  0.62537000  0.86400000  1.0
  C  C34  1  0.36783000  0.12537000  0.36399000  1.0
  C  C35  1  0.63217000  0.87462000  0.63601000  1.0
  C  C36  1  0.85778000  0.41091000  0.10050000  1.0
  C  C37  1  0.14221000  0.58909000  0.89950000  1.0
  C  C38  1  0.35777000  0.08908000  0.39950000  1.0
  C  C39  1  0.64222000  0.91091000  0.60050000  1.0
  C  C40  1  0.02944000  0.42453000  0.07456000  1.0
  C  C41  1  0.97056000  0.57547000  0.92543000  1.0
  C  C42  1  0.52943000  0.07546000  0.42543000  1.0
  C  C43  1  0.47056000  0.92453000  0.57456000  1.0
  C  C44  1  0.20861000  0.39900000  0.08542000  1.0
  C  C45  1  0.79139000  0.60099000  0.91458000  1.0
  C  C46  1  0.70860000  0.10100000  0.41458000  1.0
  C  C47  1  0.29138000  0.89900000  0.58541000  1.0
  C  C48  1  0.21974000  0.36272000  0.12137000  1.0
  C  C49  1  0.78026000  0.63728000  0.87863000  1.0
  C  C50  1  0.71972000  0.13729000  0.37864000  1.0
  C  C51  1  0.28027000  0.86270000  0.62135000  1.0
  C  C52  1  0.04898000  0.35018000  0.14782000  1.0
  C  C53  1  0.95103000  0.64983000  0.85217000  1.0
  C  C54  1  0.54897000  0.14983000  0.35217000  1.0
  C  C55  1  0.45103000  0.85017000  0.64782000  1.0
  C  C56  1  0.14653000  0.50975000  0.03706000  1.0
  C  C57  1  0.85348000  0.49024000  0.96293000  1.0
  C  C58  1  0.64651000  0.99024000  0.46293000  1.0
  C  C59  1  0.35349000  0.00975000  0.53707000  1.0
  C  C60  1  0.13205000  0.54620000  0.00182000  1.0
  C  C61  1  0.86796000  0.45379000  0.99817000  1.0
  C  C62  1  0.63206000  0.95380000  0.49818000  1.0
  C  C63  1  0.36794000  0.04620000  0.50182000  1.0
  C  C64  1  0.98277000  0.53727000  0.96355000  1.0
  C  C65  1  0.01724000  0.46272000  0.03644000  1.0
  C  C66  1  0.48278000  0.96272000  0.53644000  1.0
  C  C67  1  0.51722000  0.03728000  0.46355000  1.0
  C  C68  1  0.81130000  0.51529000  0.52209000  1.0
  C  C69  1  0.18868000  0.48470000  0.47791000  1.0
  C  C70  1  0.31131000  0.98472000  0.97791000  1.0
  C  C71  1  0.68869000  0.01528000  0.02209000  1.0
  C  C72  1  0.98197000  0.54575000  0.54411000  1.0
  C  C73  1  0.01800000  0.45425000  0.45589000  1.0
  C  C74  1  0.48199000  0.95425000  0.95588000  1.0
  C  C75  1  0.51801000  0.04575000  0.04412000  1.0
  C  C76  1  0.16798000  0.52906000  0.52076000  1.0
  C  C77  1  0.83200000  0.47093000  0.47924000  1.0
  C  C78  1  0.66799000  0.97092000  0.97925000  1.0
  C  C79  1  0.33201000  0.02908000  0.02075000  1.0
  C  C80  1  0.96790000  0.59096000  0.58815000  1.0
  C  C81  1  0.03208000  0.40903000  0.41185000  1.0
  C  C82  1  0.46791000  0.90904000  0.91185000  1.0
  C  C83  1  0.53209000  0.09096000  0.08815000  1.0
  C  C84  1  0.04325000  0.37027000  0.37361000  1.0
  C  C85  1  0.95673000  0.62972000  0.62639000  1.0
  C  C86  1  0.54327000  0.12973000  0.12639000  1.0
  C  C87  1  0.45675000  0.87028000  0.87361000  1.0
  O  O88  1  0.61870000  0.79865000  0.70286000  1.0
  O  O89  1  0.38131000  0.20135000  0.29713000  1.0
  O  O90  1  0.11869000  0.70135000  0.79714000  1.0
  O  O91  1  0.88131000  0.29865000  0.20286000  1.0
  O  O92  1  0.28004000  0.80858000  0.80962000  1.0
  O  O93  1  0.71999000  0.19142000  0.19038000  1.0
  O  O94  1  0.78001000  0.69143000  0.69038000  1.0
  O  O95  1  0.21998000  0.30857000  0.30962000  1.0
  O  O96  1  0.28046000  0.79979000  0.70435000  1.0
  O  O97  1  0.71956000  0.20020000  0.29565000  1.0
  O  O98  1  0.78044000  0.70020000  0.79564000  1.0
  O  O99  1  0.21954000  0.29979000  0.20435000  1.0
  O  O100  1  0.12030000  0.69188000  0.69179000  1.0
  O  O101  1  0.87968000  0.30811000  0.30821000  1.0
  O  O102  1  0.62033000  0.80811000  0.80821000  1.0
  O  O103  1  0.37970000  0.19188000  0.19179000  1.0
  O  O104  1  0.44959000  0.71537000  0.74625000  1.0
  O  O105  1  0.55041000  0.28463000  0.25375000  1.0
  O  O106  1  0.94959000  0.78463000  0.75375000  1.0
  O  O107  1  0.05041000  0.21537000  0.24624000  1.0
  F  F108  1  0.37784000  0.40703000  0.05926000  1.0
  F  F109  1  0.62214000  0.59295000  0.94073000  1.0
  F  F110  1  0.87782000  0.09297000  0.44074000  1.0
  F  F111  1  0.12216000  0.90703000  0.55926000  1.0
  F  F112  1  0.40016000  0.33965000  0.12798000  1.0
  F  F113  1  0.59984000  0.66035000  0.87202000  1.0
  F  F114  1  0.90015000  0.16035000  0.37203000  1.0
  F  F115  1  0.09986000  0.83963000  0.62796000  1.0
  F  F116  1  0.28771000  0.52209000  0.07500000  1.0
  F  F117  1  0.71233000  0.47789000  0.92499000  1.0
  F  F118  1  0.78767000  0.97790000  0.42499000  1.0
  F  F119  1  0.21233000  0.02210000  0.57501000  1.0
  F  F120  1  0.66628000  0.44192000  0.45845000  1.0
  F  F121  1  0.33370000  0.55808000  0.54155000  1.0
  F  F122  1  0.16630000  0.05810000  0.04154000  1.0
  F  F123  1  0.83370000  0.94190000  0.95845000  1.0
