# generated using pymatgen
data_Cu3H6(CO4)2
_symmetry_space_group_name_H-M   'P 1'
_cell_length_a   5.83683000
_cell_length_b   6.95028000
_cell_length_c   9.19686000
_cell_angle_alpha   89.99750000
_cell_angle_beta   89.99970000
_cell_angle_gamma   74.01200000
_symmetry_Int_Tables_number   1
_chemical_formula_structural   Cu3H6(CO4)2
_chemical_formula_sum   'Cu6 H12 C4 O16'
_cell_volume   358.66304324
_cell_formula_units_Z   2
loop_
 _symmetry_equiv_pos_site_id
 _symmetry_equiv_pos_as_xyz
  1  'x, y, z'
loop_
 _atom_site_type_symbol
 _atom_site_label
 _atom_site_symmetry_multiplicity
 _atom_site_fract_x
 _atom_site_fract_y
 _atom_site_fract_z
 _atom_site_occupancy
  Cu  Cu0  1  0.03104000  0.02121000  0.33827000  1.0
  Cu  Cu1  1  0.46895000  0.97875000  0.83828000  1.0
  Cu  Cu2  1  0.96914000  0.97943000  0.66280000  1.0
  Cu  Cu3  1  0.53083000  0.02059000  0.16281000  1.0
  Cu  Cu4  1  1.00000000  0.99997000  0.99805000  1.0
  Cu  Cu5  1  0.49998000  0.00003000  0.49805000  1.0
  H  H6  1  0.31709000  0.50655000  0.12824000  1.0
  H  H7  1  0.18301000  0.49344000  0.62819000  1.0
  H  H8  1  0.68245000  0.49319000  0.87113000  1.0
  H  H9  1  0.81752000  0.50684000  0.37124000  1.0
  H  H10  1  0.83128000  0.28888000  0.16286000  1.0
  H  H11  1  0.66875000  0.71112000  0.66284000  1.0
  H  H12  1  0.16890000  0.70863000  0.83678000  1.0
  H  H13  1  0.33106000  0.29137000  0.33679000  1.0
  H  H14  1  0.26338000  0.73755000  0.47566000  1.0
  H  H15  1  0.23659000  0.26244000  0.97562000  1.0
  H  H16  1  0.73603000  0.26208000  0.52593000  1.0
  H  H17  1  0.76398000  0.73792000  0.02599000  1.0
  C  C18  1  0.27595000  0.60876000  0.22290000  1.0
  C  C19  1  0.22408000  0.39124000  0.72288000  1.0
  C  C20  1  0.72457000  0.39106000  0.77642000  1.0
  C  C21  1  0.77544000  0.60896000  0.27651000  1.0
  O  O22  1  0.84638000  0.14189000  0.17174000  1.0
  O  O23  1  0.65361000  0.85811000  0.67175000  1.0
  O  O24  1  0.15580000  0.85561000  0.82716000  1.0
  O  O25  1  0.34417000  0.14440000  0.32714000  1.0
  O  O26  1  0.29949000  0.53387000  0.34951000  1.0
  O  O27  1  0.20049000  0.46612000  0.84947000  1.0
  O  O28  1  0.70097000  0.46547000  0.64990000  1.0
  O  O29  1  0.79912000  0.53453000  0.14999000  1.0
  O  O30  1  0.21895000  0.88054000  0.50730000  1.0
  O  O31  1  0.28102000  0.11945000  0.00728000  1.0
  O  O32  1  0.78272000  0.11845000  0.49557000  1.0
  O  O33  1  0.71728000  0.88154000  0.99559000  1.0
  O  O34  1  0.20879000  0.79482000  0.19330000  1.0
  O  O35  1  0.29122000  0.20517000  0.69329000  1.0
  O  O36  1  0.79308000  0.20492000  0.80637000  1.0
  O  O37  1  0.70690000  0.79510000  0.30641000  1.0
