# generated using pymatgen
data_NiH14C20(NO)4
_symmetry_space_group_name_H-M   'P 1'
_cell_length_a   8.73302000
_cell_length_b   8.73300000
_cell_length_c   12.77920000
_cell_angle_alpha   75.12690000
_cell_angle_beta   75.12640000
_cell_angle_gamma   67.82100000
_symmetry_Int_Tables_number   1
_chemical_formula_structural   NiH14C20(NO)4
_chemical_formula_sum   'Ni2 H28 C40 N8 O8'
_cell_volume   858.24744794
_cell_formula_units_Z   2
loop_
 _symmetry_equiv_pos_site_id
 _symmetry_equiv_pos_as_xyz
  1  'x, y, z'
loop_
 _atom_site_type_symbol
 _atom_site_label
 _atom_site_symmetry_multiplicity
 _atom_site_fract_x
 _atom_site_fract_y
 _atom_site_fract_z
 _atom_site_occupancy
  Ni  Ni0  1  0.00000000  0.00000000  0.50000000  1.0
  Ni  Ni1  1  0.00000000  0.00000000  0.00000000  1.0
  H  H2  1  0.87861000  0.95432000  0.76479000  1.0
  H  H3  1  0.04568000  0.12138000  0.73520000  1.0
  H  H4  1  0.12139000  0.04568000  0.23521000  1.0
  H  H5  1  0.95432000  0.87862000  0.26480000  1.0
  H  H6  1  0.60252000  0.05899000  0.51270000  1.0
  H  H7  1  0.94100000  0.39748000  0.98730000  1.0
  H  H8  1  0.39749000  0.94100000  0.48730000  1.0
  H  H9  1  0.05900000  0.60252000  0.01270000  1.0
  H  H10  1  0.38513000  0.05639000  0.71575000  1.0
  H  H11  1  0.94361000  0.61486000  0.78425000  1.0
  H  H12  1  0.61487000  0.94361000  0.28425000  1.0
  H  H13  1  0.05639000  0.38514000  0.21575000  1.0
  H  H14  1  0.34115000  0.22603000  0.86558000  1.0
  H  H15  1  0.77397000  0.65885000  0.63443000  1.0
  H  H16  1  0.65885000  0.77397000  0.13442000  1.0
  H  H17  1  0.22603000  0.34115000  0.36557000  1.0
  H  H18  1  0.76108000  0.77841000  0.93377000  1.0
  H  H19  1  0.22160000  0.23892000  0.56623000  1.0
  H  H20  1  0.23892000  0.22159000  0.06623000  1.0
  H  H21  1  0.77840000  0.76108000  0.43377000  1.0
  H  H22  1  0.59197000  0.47654000  0.42816000  1.0
  H  H23  1  0.52348000  0.40804000  0.07184000  1.0
  H  H24  1  0.40803000  0.52347000  0.57184000  1.0
  H  H25  1  0.47652000  0.59196000  0.92815000  1.0
  H  H26  1  0.35029000  0.68043000  0.34139000  1.0
  H  H27  1  0.31957000  0.64972000  0.15861000  1.0
  H  H28  1  0.64971000  0.31957000  0.65860000  1.0
  H  H29  1  0.68043000  0.35029000  0.84139000  1.0
  C  C30  1  0.77659000  0.98296000  0.72127000  1.0
  C  C31  1  0.01704000  0.22340000  0.77873000  1.0
  C  C32  1  0.22341000  0.01704000  0.27873000  1.0
  C  C33  1  0.98296000  0.77660000  0.22127000  1.0
  C  C34  1  0.62716000  0.03817000  0.59493000  1.0
  C  C35  1  0.96182000  0.37283000  0.90508000  1.0
  C  C36  1  0.37285000  0.96183000  0.40507000  1.0
  C  C37  1  0.03818000  0.62717000  0.09492000  1.0
  C  C38  1  0.51810000  0.03941000  0.69393000  1.0
  C  C39  1  0.96058000  0.48189000  0.80608000  1.0
  C  C40  1  0.48190000  0.96059000  0.30607000  1.0
  C  C41  1  0.03942000  0.51811000  0.19392000  1.0
  C  C42  1  0.55605000  0.00157000  0.88838000  1.0
  C  C43  1  0.99843000  0.44394000  0.61162000  1.0
  C  C44  1  0.44395000  0.99843000  0.11162000  1.0
  C  C45  1  0.00157000  0.55606000  0.38838000  1.0
  C  C46  1  0.40965000  0.12678000  0.92471000  1.0
  C  C47  1  0.87321000  0.59034000  0.57529000  1.0
  C  C48  1  0.59035000  0.87322000  0.07529000  1.0
  C  C49  1  0.12678000  0.40966000  0.42471000  1.0
  C  C50  1  0.64688000  0.87515000  0.96313000  1.0
  C  C51  1  0.12485000  0.35312000  0.53687000  1.0
  C  C52  1  0.35312000  0.12485000  0.03687000  1.0
  C  C53  1  0.87515000  0.64688000  0.46313000  1.0
  C  C54  1  0.81605000  0.20241000  0.36788000  1.0
  C  C55  1  0.79759000  0.18395000  0.13212000  1.0
  C  C56  1  0.18394000  0.79759000  0.63212000  1.0
  C  C57  1  0.20241000  0.81605000  0.86788000  1.0
  C  C58  1  0.68978000  0.32795000  0.30123000  1.0
  C  C59  1  0.67207000  0.31024000  0.19876000  1.0
  C  C60  1  0.31022000  0.67206000  0.69877000  1.0
  C  C61  1  0.32793000  0.68976000  0.80124000  1.0
  C  C62  1  0.57442000  0.46391000  0.34985000  1.0
  C  C63  1  0.53610000  0.42559000  0.15015000  1.0
  C  C64  1  0.42558000  0.53609000  0.65015000  1.0
  C  C65  1  0.46390000  0.57441000  0.84985000  1.0
  C  C66  1  0.44051000  0.57852000  0.30033000  1.0
  C  C67  1  0.42149000  0.55950000  0.19967000  1.0
  C  C68  1  0.55949000  0.42148000  0.69967000  1.0
  C  C69  1  0.57851000  0.44050000  0.80033000  1.0
  N  N70  1  0.78756000  0.00341000  0.61303000  1.0
  N  N71  1  0.99658000  0.21243000  0.88697000  1.0
  N  N72  1  0.21244000  0.99659000  0.38697000  1.0
  N  N73  1  0.00342000  0.78757000  0.11303000  1.0
  N  N74  1  0.61454000  0.00397000  0.77340000  1.0
  N  N75  1  0.99603000  0.38545000  0.72660000  1.0
  N  N76  1  0.38546000  0.99603000  0.22660000  1.0
  N  N77  1  0.00397000  0.61455000  0.27340000  1.0
  O  O78  1  0.87371000  0.25334000  0.42941000  1.0
  O  O79  1  0.74666000  0.12630000  0.07059000  1.0
  O  O80  1  0.12629000  0.74666000  0.57059000  1.0
  O  O81  1  0.25334000  0.87370000  0.92941000  1.0
  O  O82  1  0.85618000  0.04432000  0.37028000  1.0
  O  O83  1  0.95570000  0.14381000  0.12972000  1.0
  O  O84  1  0.14382000  0.95568000  0.62972000  1.0
  O  O85  1  0.04430000  0.85619000  0.87028000  1.0
