# generated using pymatgen
data_CuH24Pd(C5N3)4
_symmetry_space_group_name_H-M   'P 1'
_cell_length_a   8.23667000
_cell_length_b   8.43469000
_cell_length_c   9.82795000
_cell_angle_alpha   72.04910000
_cell_angle_beta   73.84790000
_cell_angle_gamma   87.50840000
_symmetry_Int_Tables_number   1
_chemical_formula_structural   CuH24Pd(C5N3)4
_chemical_formula_sum   'Cu1 H24 Pd1 C20 N12'
_cell_volume   623.23973456
_cell_formula_units_Z   1
loop_
 _symmetry_equiv_pos_site_id
 _symmetry_equiv_pos_as_xyz
  1  'x, y, z'
loop_
 _atom_site_type_symbol
 _atom_site_label
 _atom_site_symmetry_multiplicity
 _atom_site_fract_x
 _atom_site_fract_y
 _atom_site_fract_z
 _atom_site_occupancy
  Cu  Cu0  1  0.50000000  0.50000000  0.50000000  1.0
  H  H1  1  0.76484000  0.78164000  0.21765000  1.0
  H  H2  1  0.23516000  0.21836000  0.78236000  1.0
  H  H3  1  0.55078000  0.74953000  0.66888000  1.0
  H  H4  1  0.44922000  0.25048000  0.33112000  1.0
  H  H5  1  0.89513000  0.04693000  0.27251000  1.0
  H  H6  1  0.10488000  0.95306000  0.72749000  1.0
  H  H7  1  0.87948000  0.11562000  0.50787000  1.0
  H  H8  1  0.12053000  0.88437000  0.49213000  1.0
  H  H9  1  0.76594000  0.97449000  0.68323000  1.0
  H  H10  1  0.23407000  0.02551000  0.31677000  1.0
  H  H11  1  0.65877000  0.13364000  0.57519000  1.0
  H  H12  1  0.34123000  0.86636000  0.42481000  1.0
  H  H13  1  0.41573000  0.31797000  0.86570000  1.0
  H  H14  1  0.58427000  0.68202000  0.13430000  1.0
  H  H15  1  0.87304000  0.44247000  0.52135000  1.0
  H  H16  1  0.12695000  0.55753000  0.47865000  1.0
  H  H17  1  0.94423000  0.27604000  0.79054000  1.0
  H  H18  1  0.05577000  0.72396000  0.20946000  1.0
  H  H19  1  0.50947000  0.14959000  0.07988000  1.0
  H  H20  1  0.49053000  0.85041000  0.92012000  1.0
  H  H21  1  0.69298000  0.25297000  0.08528000  1.0
  H  H22  1  0.30703000  0.74703000  0.91471000  1.0
  H  H23  1  0.71238000  0.06241000  0.03785000  1.0
  H  H24  1  0.28763000  0.93759000  0.96215000  1.0
  Pd  Pd25  1  0.00000000  0.50000000  0.00001000  1.0
  C  C26  1  0.73799000  0.81458000  0.31959000  1.0
  C  C27  1  0.26201000  0.18541000  0.68041000  1.0
  C  C28  1  0.62576000  0.79292000  0.55363000  1.0
  C  C29  1  0.37424000  0.20709000  0.44637000  1.0
  C  C30  1  0.80342000  0.94680000  0.34484000  1.0
  C  C31  1  0.19658000  0.05319000  0.65516000  1.0
  C  C32  1  0.75967000  0.04491000  0.57064000  1.0
  C  C33  1  0.24033000  0.95509000  0.42936000  1.0
  C  C34  1  0.54880000  0.33061000  0.80538000  1.0
  C  C35  1  0.45120000  0.66939000  0.19462000  1.0
  C  C36  1  0.78983000  0.39446000  0.63317000  1.0
  C  C37  1  0.21016000  0.60554000  0.36682000  1.0
  C  C38  1  0.82584000  0.31143000  0.76479000  1.0
  C  C39  1  0.17416000  0.68857000  0.23520000  1.0
  C  C40  1  0.64550000  0.17868000  0.02910000  1.0
  C  C41  1  0.35450000  0.82132000  0.97089000  1.0
  C  C42  1  0.83344000  0.44140000  0.19940000  1.0
  C  C43  1  0.16655000  0.55860000  0.80062000  1.0
  C  C44  1  0.11378000  0.28696000  0.05671000  1.0
  C  C45  1  0.88622000  0.71304000  0.94330000  1.0
  N  N46  1  0.62741000  0.71987000  0.45069000  1.0
  N  N47  1  0.37259000  0.28013000  0.54931000  1.0
  N  N48  1  0.73147000  0.93066000  0.49343000  1.0
  N  N49  1  0.26853000  0.06934000  0.50657000  1.0
  N  N50  1  0.61672000  0.40470000  0.66015000  1.0
  N  N51  1  0.38328000  0.59530000  0.33985000  1.0
  N  N52  1  0.67211000  0.27174000  0.87222000  1.0
  N  N53  1  0.32790000  0.72826000  0.12778000  1.0
  N  N54  1  0.73193000  0.41147000  0.31568000  1.0
  N  N55  1  0.26807000  0.58853000  0.68433000  1.0
  N  N56  1  0.18471000  0.16221000  0.08506000  1.0
  N  N57  1  0.81528000  0.83779000  0.91495000  1.0
