# generated using pymatgen
data_AlH17C21O5
_symmetry_space_group_name_H-M   'P 1'
_cell_length_a   6.62024000
_cell_length_b   25.05460000
_cell_length_c   26.96040000
_cell_angle_alpha   95.46950000
_cell_angle_beta   89.99930000
_cell_angle_gamma   89.99870000
_symmetry_Int_Tables_number   1
_chemical_formula_structural   AlH17C21O5
_chemical_formula_sum   'Al4 H68 C84 O20'
_cell_volume   4451.49320780
_cell_formula_units_Z   4
loop_
 _symmetry_equiv_pos_site_id
 _symmetry_equiv_pos_as_xyz
  1  'x, y, z'
loop_
 _atom_site_type_symbol
 _atom_site_label
 _atom_site_symmetry_multiplicity
 _atom_site_fract_x
 _atom_site_fract_y
 _atom_site_fract_z
 _atom_site_occupancy
  Al  Al0  1  0.20651000  0.24831000  0.25032000  1.0
  Al  Al1  1  0.79378000  0.75183000  0.75019000  1.0
  Al  Al2  1  0.70651000  0.25168000  0.24967000  1.0
  Al  Al3  1  0.29379000  0.74817000  0.74981000  1.0
  H  H4  1  0.80899000  0.62756000  0.96419000  1.0
  H  H5  1  0.25114000  0.45275000  0.10585000  1.0
  H  H6  1  0.30899000  0.87245000  0.53582000  1.0
  H  H7  1  0.75122000  0.04726000  0.39418000  1.0
  H  H8  1  0.22741000  0.52964000  0.87339000  1.0
  H  H9  1  0.68217000  0.38731000  0.05181000  1.0
  H  H10  1  0.72724000  0.97041000  0.62664000  1.0
  H  H11  1  0.18206000  0.11267000  0.44817000  1.0
  H  H12  1  0.24818000  0.60086000  0.81545000  1.0
  H  H13  1  0.68048000  0.32795000  0.12059000  1.0
  H  H14  1  0.74803000  0.89920000  0.68460000  1.0
  H  H15  1  0.18044000  0.17202000  0.37938000  1.0
  H  H16  1  0.31739000  0.51349000  0.95620000  1.0
  H  H17  1  0.65870000  0.47805000  0.03481000  1.0
  H  H18  1  0.81730000  0.98655000  0.54384000  1.0
  H  H19  1  0.15868000  0.02195000  0.46517000  1.0
  H  H20  1  0.29846000  0.44960000  0.02043000  1.0
  H  H21  1  0.67718000  0.54127000  0.96997000  1.0
  H  H22  1  0.79841000  0.05043000  0.47960000  1.0
  H  H23  1  0.17710000  0.95874000  0.53002000  1.0
  H  H24  1  0.67349000  0.45564000  0.42716000  1.0
  H  H25  1  0.32728000  0.53892000  0.57842000  1.0
  H  H26  1  0.17330000  0.04440000  0.07282000  1.0
  H  H27  1  0.82739000  0.96104000  0.92158000  1.0
  H  H28  1  0.65496000  0.38258000  0.35732000  1.0
  H  H29  1  0.33987000  0.61083000  0.64958000  1.0
  H  H30  1  0.15483000  0.11748000  0.14265000  1.0
  H  H31  1  0.83993000  0.88915000  0.85042000  1.0
  H  H32  1  0.28148000  0.34627000  0.37805000  1.0
  H  H33  1  0.72215000  0.65160000  0.62272000  1.0
  H  H34  1  0.78149000  0.15370000  0.12196000  1.0
  H  H35  1  0.22218000  0.84841000  0.87729000  1.0
  H  H36  1  0.30062000  0.41751000  0.44954000  1.0
  H  H37  1  0.70989000  0.58201000  0.54969000  1.0
  H  H38  1  0.80052000  0.08244000  0.05048000  1.0
  H  H39  1  0.20996000  0.91800000  0.95032000  1.0
  H  H40  1  0.70373000  0.81932000  0.94229000  1.0
  H  H41  1  0.81323000  0.79314000  0.99497000  1.0
  H  H42  1  0.94560000  0.84156000  0.96352000  1.0
  H  H43  1  0.08146000  0.74716000  0.94230000  1.0
  H  H44  1  0.99318000  0.77593000  0.88913000  1.0
  H  H45  1  0.69286000  0.72268000  0.88335000  1.0
  H  H46  1  0.70847000  0.70809000  0.94617000  1.0
  H  H47  1  0.44266000  0.39315000  0.28549000  1.0
  H  H48  1  0.51232000  0.45495000  0.26344000  1.0
  H  H49  1  0.32297000  0.45276000  0.31011000  1.0
  H  H50  1  0.15320000  0.46359000  0.22971000  1.0
  H  H51  1  0.09660000  0.39991000  0.24848000  1.0
  H  H52  1  0.37174000  0.36000000  0.18977000  1.0
  H  H53  1  0.41481000  0.42466000  0.17089000  1.0
  H  H54  1  0.20407000  0.68067000  0.55774000  1.0
  H  H55  1  0.31338000  0.70685000  0.50504000  1.0
  H  H56  1  0.44591000  0.65846000  0.53647000  1.0
  H  H57  1  0.58164000  0.75288000  0.55765000  1.0
  H  H58  1  0.49360000  0.72410000  0.61084000  1.0
  H  H59  1  0.19309000  0.77729000  0.61664000  1.0
  H  H60  1  0.20857000  0.79190000  0.55384000  1.0
  H  H61  1  0.94314000  0.10686000  0.21460000  1.0
  H  H62  1  0.01249000  0.04503000  0.23662000  1.0
  H  H63  1  0.82335000  0.04730000  0.18992000  1.0
  H  H64  1  0.65335000  0.03644000  0.27029000  1.0
  H  H65  1  0.59685000  0.10012000  0.25153000  1.0
  H  H66  1  0.87189000  0.14001000  0.31028000  1.0
  H  H67  1  0.91490000  0.07533000  0.32915000  1.0
  H  H68  1  0.44942000  0.32087000  0.25469000  1.0
  H  H69  1  0.55070000  0.68735000  0.77155000  1.0
  H  H70  1  0.94942000  0.17913000  0.24548000  1.0
  H  H71  1  0.05069000  0.81265000  0.72845000  1.0
  C  C72  1  0.45954000  0.18204000  0.17911000  1.0
  C  C73  1  0.53914000  0.82183000  0.81760000  1.0
  C  C74  1  0.95958000  0.31797000  0.32088000  1.0
  C  C75  1  0.03915000  0.67818000  0.68239000  1.0
  C  C76  1  0.45981000  0.18505000  0.31197000  1.0
  C  C77  1  0.54140000  0.80857000  0.68291000  1.0
  C  C78  1  0.95977000  0.31494000  0.18804000  1.0
  C  C79  1  0.04142000  0.69143000  0.81709000  1.0
  C  C80  1  0.90795000  0.66123000  0.89824000  1.0
  C  C81  1  0.13141000  0.39083000  0.14684000  1.0
  C  C82  1  0.40798000  0.83879000  0.60176000  1.0
  C  C83  1  0.63146000  0.10917000  0.35317000  1.0
  C  C84  1  0.90107000  0.62089000  0.93058000  1.0
  C  C85  1  0.12775000  0.42417000  0.10815000  1.0
  C  C86  1  0.40106000  0.87914000  0.56943000  1.0
  C  C87  1  0.62780000  0.07583000  0.39186000  1.0
  C  C88  1  0.01283000  0.57320000  0.92263000  1.0
  C  C89  1  0.96998000  0.42372000  0.07327000  1.0
  C  C90  1  0.51276000  0.92684000  0.57739000  1.0
  C  C91  1  0.46996000  0.07628000  0.42673000  1.0
  C  C92  1  0.14024000  0.56648000  0.88084000  1.0
  C  C93  1  0.80635000  0.38901000  0.07852000  1.0
  C  C94  1  0.64010000  0.93356000  0.61919000  1.0
  C  C95  1  0.30627000  0.11097000  0.42147000  1.0
  C  C96  1  0.15102000  0.60621000  0.84823000  1.0
  C  C97  1  0.80597000  0.35541000  0.11668000  1.0
  C  C98  1  0.65091000  0.89383000  0.65180000  1.0
  C  C99  1  0.30595000  0.14457000  0.38331000  1.0
  C  C100  1  0.03382000  0.65292000  0.85589000  1.0
  C  C101  1  0.96767000  0.35491000  0.15035000  1.0
  C  C102  1  0.53379000  0.84710000  0.64412000  1.0
  C  C103  1  0.46769000  0.14509000  0.34965000  1.0
  C  C104  1  0.17228000  0.50552000  0.97318000  1.0
  C  C105  1  0.80349000  0.48536000  0.01733000  1.0
  C  C106  1  0.67219000  0.99451000  0.52685000  1.0
  C  C107  1  0.30344000  0.01464000  0.48267000  1.0
  C  C108  1  0.16196000  0.47005000  0.00975000  1.0
  C  C109  1  0.81420000  0.52138000  0.98119000  1.0
  C  C110  1  0.66191000  0.02997000  0.49028000  1.0
  C  C111  1  0.31414000  0.97862000  0.51881000  1.0
  C  C112  1  0.97779000  0.45962000  0.03297000  1.0
  C  C113  1  0.99926000  0.53264000  0.95876000  1.0
  C  C114  1  0.47775000  0.04039000  0.46704000  1.0
  C  C115  1  0.49919000  0.96738000  0.54126000  1.0
  C  C116  1  0.80573000  0.43126000  0.41655000  1.0
  C  C117  1  0.19555000  0.56392000  0.58804000  1.0
  C  C118  1  0.30559000  0.06876000  0.08344000  1.0
  C  C119  1  0.69563000  0.93606000  0.91196000  1.0
  C  C120  1  0.79549000  0.39083000  0.37765000  1.0
  C  C121  1  0.20249000  0.60356000  0.62768000  1.0
  C  C122  1  0.29538000  0.10920000  0.12234000  1.0
  C  C123  1  0.70255000  0.89641000  0.87232000  1.0
  C  C124  1  0.96733000  0.36029000  0.36359000  1.0
  C  C125  1  0.03188000  0.63524000  0.64014000  1.0
  C  C126  1  0.46727000  0.13972000  0.13640000  1.0
  C  C127  1  0.53190000  0.86475000  0.85985000  1.0
  C  C128  1  0.14961000  0.37039000  0.38943000  1.0
  C  C129  1  0.85353000  0.62682000  0.61235000  1.0
  C  C130  1  0.64957000  0.12959000  0.11057000  1.0
  C  C131  1  0.35357000  0.87318000  0.88765000  1.0
  C  C132  1  0.16032000  0.41010000  0.42886000  1.0
  C  C133  1  0.84664000  0.58806000  0.57205000  1.0
  C  C134  1  0.66021000  0.08987000  0.07115000  1.0
  C  C135  1  0.34669000  0.91193000  0.92795000  1.0
  C  C136  1  0.98839000  0.44139000  0.44295000  1.0
  C  C137  1  0.01760000  0.55583000  0.55932000  1.0
  C  C138  1  0.48825000  0.05861000  0.05704000  1.0
  C  C139  1  0.51768000  0.94416000  0.94068000  1.0
  C  C140  1  0.99905000  0.48183000  0.48316000  1.0
  C  C141  1  0.00911000  0.51617000  0.51840000  1.0
  C  C142  1  0.49896000  0.01815000  0.01685000  1.0
  C  C143  1  0.50919000  0.98381000  0.98160000  1.0
  C  C144  1  0.79895000  0.71327000  0.91269000  1.0
  C  C145  1  0.94412000  0.76105000  0.92433000  1.0
  C  C146  1  0.84643000  0.80630000  0.95805000  1.0
  C  C147  1  0.29863000  0.39850000  0.18496000  1.0
  C  C148  1  0.22039000  0.42440000  0.23547000  1.0
  C  C149  1  0.38338000  0.43180000  0.27561000  1.0
  C  C150  1  0.29908000  0.78673000  0.58730000  1.0
  C  C151  1  0.44441000  0.73898000  0.57565000  1.0
  C  C152  1  0.34672000  0.69372000  0.54196000  1.0
  C  C153  1  0.79875000  0.10151000  0.31507000  1.0
  C  C154  1  0.72060000  0.07562000  0.26455000  1.0
  C  C155  1  0.88370000  0.06822000  0.22443000  1.0
  O  O156  1  0.62699000  0.20292000  0.29705000  1.0
  O  O157  1  0.37335000  0.79115000  0.69786000  1.0
  O  O158  1  0.12692000  0.29709000  0.20297000  1.0
  O  O159  1  0.87335000  0.70885000  0.80215000  1.0
  O  O160  1  0.28662000  0.19585000  0.19679000  1.0
  O  O161  1  0.71301000  0.80753000  0.80081000  1.0
  O  O162  1  0.78666000  0.30417000  0.30318000  1.0
  O  O163  1  0.21301000  0.69247000  0.69918000  1.0
  O  O164  1  0.28572000  0.19928000  0.29768000  1.0
  O  O165  1  0.71390000  0.79706000  0.69995000  1.0
  O  O166  1  0.78566000  0.30069000  0.20228000  1.0
  O  O167  1  0.21389000  0.70295000  0.80003000  1.0
  O  O168  1  0.12872000  0.29935000  0.30473000  1.0
  O  O169  1  0.87017000  0.69697000  0.69844000  1.0
  O  O170  1  0.62869000  0.20063000  0.19528000  1.0
  O  O171  1  0.37018000  0.80303000  0.80155000  1.0
  O  O172  1  0.45428000  0.28210000  0.25200000  1.0
  O  O173  1  0.54629000  0.71724000  0.75120000  1.0
  O  O174  1  0.95427000  0.21790000  0.24799000  1.0
  O  O175  1  0.04629000  0.78276000  0.74879000  1.0
