# generated using pymatgen
data_CuH2C2N8O
_symmetry_space_group_name_H-M   'P 1'
_cell_length_a   6.80395000
_cell_length_b   6.80427000
_cell_length_c   7.74865256
_cell_angle_alpha   105.76944641
_cell_angle_beta   106.55704988
_cell_angle_gamma   111.47200000
_symmetry_Int_Tables_number   1
_chemical_formula_structural   CuH2C2N8O
_chemical_formula_sum   'Cu2 H4 C4 N16 O2'
_cell_volume   290.16155743
_cell_formula_units_Z   2
loop_
 _symmetry_equiv_pos_site_id
 _symmetry_equiv_pos_as_xyz
  1  'x, y, z'
loop_
 _atom_site_type_symbol
 _atom_site_label
 _atom_site_symmetry_multiplicity
 _atom_site_fract_x
 _atom_site_fract_y
 _atom_site_fract_z
 _atom_site_occupancy
  Cu  Cu0  1  0.00000000  0.50000000  0.00000000  1.0
  Cu  Cu1  1  1.00000000  0.00000000  0.50000000  1.0
  H  H2  1  0.67133000  0.54763000  0.19850000  1.0
  H  H3  1  0.84899000  0.47301000  0.30138000  1.0
  H  H4  1  0.32866000  0.45236000  0.80149000  1.0
  H  H5  1  0.15101000  0.52699000  0.69862000  1.0
  C  C6  1  0.39306000  0.01452000  0.26410000  1.0
  C  C7  1  0.25030000  0.12896000  0.23590000  1.0
  C  C8  1  0.60696000  0.98548000  0.73591000  1.0
  C  C9  1  0.74969000  0.87105000  0.76410000  1.0
  N  N10  1  0.50593000  0.75528000  0.24023000  1.0
  N  N11  1  0.01502000  0.26579000  0.25978000  1.0
  N  N12  1  0.49407000  0.24472000  0.75977000  1.0
  N  N13  1  0.98497000  0.73421000  0.74022000  1.0
  N  N14  1  0.68431000  0.96310000  0.36139000  1.0
  N  N15  1  0.10168000  0.32295000  0.13860000  1.0
  N  N16  1  0.31569000  0.03690000  0.63861000  1.0
  N  N17  1  0.89832000  0.67705000  0.86140000  1.0
  N  N18  1  0.31839000  0.78282000  0.17655000  1.0
  N  N19  1  0.10622000  0.14192000  0.32348000  1.0
  N  N20  1  0.68161000  0.21718000  0.82345000  1.0
  N  N21  1  0.89379000  0.85808000  0.67652000  1.0
  N  N22  1  0.62299000  0.13100000  0.38043000  1.0
  N  N23  1  0.25051000  0.24254000  0.11956000  1.0
  N  N24  1  0.37701000  0.86900000  0.61957000  1.0
  N  N25  1  0.74950000  0.75746000  0.88045000  1.0
  O  O26  1  0.83710000  0.58729000  0.24992000  1.0
  O  O27  1  0.16290000  0.41271000  0.75008000  1.0
