# generated using pymatgen
data_SnH17C15SN4
_symmetry_space_group_name_H-M   'P 1'
_cell_length_a   10.69890000
_cell_length_b   11.78370000
_cell_length_c   16.31530000
_cell_angle_alpha   82.98210000
_cell_angle_beta   82.84920000
_cell_angle_gamma   77.90730000
_symmetry_Int_Tables_number   1
_chemical_formula_structural   SnH17C15SN4
_chemical_formula_sum   'Sn4 H68 C60 S4 N16'
_cell_volume   1985.81187736
_cell_formula_units_Z   4
loop_
 _symmetry_equiv_pos_site_id
 _symmetry_equiv_pos_as_xyz
  1  'x, y, z'
loop_
 _atom_site_type_symbol
 _atom_site_label
 _atom_site_symmetry_multiplicity
 _atom_site_fract_x
 _atom_site_fract_y
 _atom_site_fract_z
 _atom_site_occupancy
  Sn  Sn0  1  0.75963000  0.79589000  0.21999000  1.0
  Sn  Sn1  1  0.24037000  0.20410000  0.78001000  1.0
  Sn  Sn2  1  0.25122000  0.79532000  0.26473000  1.0
  Sn  Sn3  1  0.74878000  0.20468000  0.73528000  1.0
  H  H4  1  0.76460000  0.01492000  0.25412000  1.0
  H  H5  1  0.23540000  0.98508000  0.74587000  1.0
  H  H6  1  0.60129000  0.00242000  0.24841000  1.0
  H  H7  1  0.39871000  0.99758000  0.75158000  1.0
  H  H8  1  0.70631000  0.01923000  0.15531000  1.0
  H  H9  1  0.29368000  0.98077000  0.84468000  1.0
  H  H10  1  0.00000000  0.68324000  0.25405000  1.0
  H  H11  1  0.00000000  0.31676000  0.74595000  1.0
  H  H12  1  0.88365000  0.59840000  0.30001000  1.0
  H  H13  1  0.11635000  0.40160000  0.69999000  1.0
  H  H14  1  0.90431000  0.71902000  0.34897000  1.0
  H  H15  1  0.09569000  0.28098000  0.65103000  1.0
  H  H16  1  0.56053000  0.75665000  0.14476000  1.0
  H  H17  1  0.43947000  0.24334000  0.85524000  1.0
  H  H18  1  0.64858000  0.62060000  0.18755000  1.0
  H  H19  1  0.35142000  0.37939000  0.81245000  1.0
  H  H20  1  0.71113000  0.69084000  0.09247000  1.0
  H  H21  1  0.28887000  0.30916000  0.90753000  1.0
  H  H22  1  0.20135000  0.84263000  0.86525000  1.0
  H  H23  1  0.79865000  0.15737000  0.13475000  1.0
  H  H24  1  0.27855000  0.74278000  0.73848000  1.0
  H  H25  1  0.72145000  0.25722000  0.26151000  1.0
  H  H26  1  0.20464000  0.56257000  0.71876000  1.0
  H  H27  1  0.79536000  0.43743000  0.28124000  1.0
  H  H28  1  0.05133000  0.48224000  0.82835000  1.0
  H  H29  1  0.94867000  0.51776000  0.17165000  1.0
  H  H30  1  0.97398000  0.58353000  0.95543000  1.0
  H  H31  1  0.02602000  0.41648000  0.04457000  1.0
  H  H32  1  0.16790000  0.03114000  0.04530000  1.0
  H  H33  1  0.83210000  0.96887000  0.95471000  1.0
  H  H34  1  0.46184000  0.80538000  0.97687000  1.0
  H  H35  1  0.53816000  0.19463000  0.02313000  1.0
  H  H36  1  0.31516000  0.15591000  0.04129000  1.0
  H  H37  1  0.68484000  0.84409000  0.95871000  1.0
  H  H38  1  0.38619000  0.94866000  0.30155000  1.0
  H  H39  1  0.61381000  0.05135000  0.69845000  1.0
  H  H40  1  0.27660000  0.01988000  0.22625000  1.0
  H  H41  1  0.72339000  0.98012000  0.77376000  1.0
  H  H42  1  0.42577000  0.92792000  0.19435000  1.0
  H  H43  1  0.57423000  0.07208000  0.80565000  1.0
  H  H44  1  0.31464000  0.70728000  0.11510000  1.0
  H  H45  1  0.68535000  0.29274000  0.88490000  1.0
  H  H46  1  0.17576000  0.65669000  0.16545000  1.0
  H  H47  1  0.82423000  0.34333000  0.83455000  1.0
  H  H48  1  0.33040000  0.59063000  0.19803000  1.0
  H  H49  1  0.66960000  0.40937000  0.80196000  1.0
  H  H50  1  0.03866000  0.84355000  0.37674000  1.0
  H  H51  1  0.96134000  0.15645000  0.62326000  1.0
  H  H52  1  0.18279000  0.81205000  0.42834000  1.0
  H  H53  1  0.81721000  0.18794000  0.57167000  1.0
  H  H54  1  0.12077000  0.69549000  0.39819000  1.0
  H  H55  1  0.87923000  0.30451000  0.60181000  1.0
  H  H56  1  0.37683000  0.35573000  0.29903000  1.0
  H  H57  1  0.62317000  0.64426000  0.70098000  1.0
  H  H58  1  0.40044000  0.13960000  0.31698000  1.0
  H  H59  1  0.59955000  0.86039000  0.68302000  1.0
  H  H60  1  0.55325000  0.01921000  0.41204000  1.0
  H  H61  1  0.44675000  0.98078000  0.58796000  1.0
  H  H62  1  0.68106000  0.11648000  0.48918000  1.0
  H  H63  1  0.31895000  0.88351000  0.51082000  1.0
  H  H64  1  0.65791000  0.33070000  0.47150000  1.0
  H  H65  1  0.34211000  0.66929000  0.52849000  1.0
  H  H66  1  0.67682000  0.63343000  0.49483000  1.0
  H  H67  1  0.32318000  0.36656000  0.50518000  1.0
  H  H68  1  0.92769000  0.39832000  0.39470000  1.0
  H  H69  1  0.07232000  0.60168000  0.60530000  1.0
  H  H70  1  0.84439000  0.65319000  0.57238000  1.0
  H  H71  1  0.15561000  0.34681000  0.42762000  1.0
  C  C72  1  0.70034000  0.98144000  0.22010000  1.0
  C  C73  1  0.29965000  0.01856000  0.77990000  1.0
  C  C74  1  0.90546000  0.68603000  0.28906000  1.0
  C  C75  1  0.09454000  0.31397000  0.71094000  1.0
  C  C76  1  0.65666000  0.70502000  0.15307000  1.0
  C  C77  1  0.34334000  0.29497000  0.84693000  1.0
  C  C78  1  0.01567000  0.87085000  0.10789000  1.0
  C  C79  1  0.98433000  0.12915000  0.89211000  1.0
  C  C80  1  0.03506000  0.77369000  0.99533000  1.0
  C  C81  1  0.96494000  0.22632000  0.00467000  1.0
  C  C82  1  0.08384000  0.71882000  0.91922000  1.0
  C  C83  1  0.91616000  0.28118000  0.08078000  1.0
  C  C84  1  0.16958000  0.76330000  0.85766000  1.0
  C  C85  1  0.83042000  0.23670000  0.14234000  1.0
  C  C86  1  0.21230000  0.70705000  0.78604000  1.0
  C  C87  1  0.78770000  0.29295000  0.21396000  1.0
  C  C88  1  0.17021000  0.60598000  0.77501000  1.0
  C  C89  1  0.82979000  0.39402000  0.22499000  1.0
  C  C90  1  0.08405000  0.56158000  0.83597000  1.0
  C  C91  1  0.91595000  0.43842000  0.16403000  1.0
  C  C92  1  0.04084000  0.61745000  0.90749000  1.0
  C  C93  1  0.95916000  0.38255000  0.09251000  1.0
  C  C94  1  0.24239000  0.95930000  0.02374000  1.0
  C  C95  1  0.75761000  0.04072000  0.97627000  1.0
  C  C96  1  0.37423000  0.97819000  0.01030000  1.0
  C  C97  1  0.62576000  0.02181000  0.98970000  1.0
  C  C98  1  0.47924000  0.89041000  0.98655000  1.0
  C  C99  1  0.52077000  0.10960000  0.01345000  1.0
  C  C100  1  0.39691000  0.08781000  0.02366000  1.0
  C  C101  1  0.60310000  0.91219000  0.97634000  1.0
  C  C102  1  0.34685000  0.94148000  0.24400000  1.0
  C  C103  1  0.65316000  0.05852000  0.75600000  1.0
  C  C104  1  0.27039000  0.67222000  0.17439000  1.0
  C  C105  1  0.72961000  0.32779000  0.82561000  1.0
  C  C106  1  0.13259000  0.78580000  0.38127000  1.0
  C  C107  1  0.86742000  0.21420000  0.61873000  1.0
  C  C108  1  0.52391000  0.66980000  0.36252000  1.0
  C  C109  1  0.47609000  0.33019000  0.63748000  1.0
  C  C110  1  0.49612000  0.48483000  0.37050000  1.0
  C  C111  1  0.50388000  0.51516000  0.62950000  1.0
  C  C112  1  0.51559000  0.35791000  0.38376000  1.0
  C  C113  1  0.48442000  0.64208000  0.61624000  1.0
  C  C114  1  0.44275000  0.30231000  0.34086000  1.0
  C  C115  1  0.55726000  0.69768000  0.65914000  1.0
  C  C116  1  0.45627000  0.18159000  0.35128000  1.0
  C  C117  1  0.54373000  0.81840000  0.64872000  1.0
  C  C118  1  0.54268000  0.11389000  0.40426000  1.0
  C  C119  1  0.45733000  0.88610000  0.59574000  1.0
  C  C120  1  0.61476000  0.16843000  0.44696000  1.0
  C  C121  1  0.38524000  0.83157000  0.55304000  1.0
  C  C122  1  0.60173000  0.28949000  0.43720000  1.0
  C  C123  1  0.39828000  0.71050000  0.56279000  1.0
  C  C124  1  0.73945000  0.56307000  0.46288000  1.0
  C  C125  1  0.26055000  0.43692000  0.53712000  1.0
  C  C126  1  0.87208000  0.52867000  0.48175000  1.0
  C  C127  1  0.12792000  0.47133000  0.51825000  1.0
  C  C128  1  0.96008000  0.44198000  0.44087000  1.0
  C  C129  1  0.03992000  0.55802000  0.55913000  1.0
  C  C130  1  0.91340000  0.58624000  0.54094000  1.0
  C  C131  1  0.08661000  0.41376000  0.45906000  1.0
  S  S132  1  0.04571000  0.94527000  0.18387000  1.0
  S  S133  1  0.95428000  0.05473000  0.81613000  1.0
  S  S134  1  0.59042000  0.78730000  0.36692000  1.0
  S  S135  1  0.40958000  0.21269000  0.63308000  1.0
  N  N136  1  0.09265000  0.84573000  0.03341000  1.0
  N  N137  1  0.90735000  0.15428000  0.96659000  1.0
  N  N138  1  0.92606000  0.75985000  0.03981000  1.0
  N  N139  1  0.07394000  0.24015000  0.96019000  1.0
  N  N140  1  0.91532000  0.81832000  0.10874000  1.0
  N  N141  1  0.08468000  0.18168000  0.89126000  1.0
  N  N142  1  0.21728000  0.86043000  0.01078000  1.0
  N  N143  1  0.78272000  0.13958000  0.98922000  1.0
  N  N144  1  0.57663000  0.55370000  0.38916000  1.0
  N  N145  1  0.42337000  0.44630000  0.61083000  1.0
  N  N146  1  0.39587000  0.55275000  0.33805000  1.0
  N  N147  1  0.60413000  0.44724000  0.66195000  1.0
  N  N148  1  0.41427000  0.66545000  0.33174000  1.0
  N  N149  1  0.58574000  0.33454000  0.66826000  1.0
  N  N150  1  0.69972000  0.50953000  0.40954000  1.0
  N  N151  1  0.30028000  0.49046000  0.59047000  1.0
