# generated using pymatgen
data_Zn4H10C28S2Cl2O13F2
_symmetry_space_group_name_H-M   'P 1'
_cell_length_a   18.54170000
_cell_length_b   19.73570000
_cell_length_c   32.81940000
_cell_angle_alpha   85.96650000
_cell_angle_beta   73.59800000
_cell_angle_gamma   61.98360000
_symmetry_Int_Tables_number   1
_chemical_formula_structural   Zn4H10C28S2Cl2O13F2
_chemical_formula_sum   'Zn16 H40 C112 S8 Cl8 O52 F8'
_cell_volume   10143.30732695
_cell_formula_units_Z   4
loop_
 _symmetry_equiv_pos_site_id
 _symmetry_equiv_pos_as_xyz
  1  'x, y, z'
loop_
 _atom_site_type_symbol
 _atom_site_label
 _atom_site_symmetry_multiplicity
 _atom_site_fract_x
 _atom_site_fract_y
 _atom_site_fract_z
 _atom_site_occupancy
  Zn  Zn0  1  0.87217000  0.55623000  0.51893000  1.0
  Zn  Zn1  1  0.03820000  0.48416000  0.43890000  1.0
  Zn  Zn2  1  0.04221000  0.39917000  0.52420000  1.0
  Zn  Zn3  1  0.04690000  0.56038000  0.51765000  1.0
  Zn  Zn4  1  0.62622000  0.19196000  0.73249000  1.0
  Zn  Zn5  1  0.46342000  0.35045000  0.72556000  1.0
  Zn  Zn6  1  0.45747000  0.26477000  0.81260000  1.0
  Zn  Zn7  1  0.45408000  0.19286000  0.72931000  1.0
  Zn  Zn8  1  0.46254000  0.76299000  0.31253000  1.0
  Zn  Zn9  1  0.45345000  0.69141000  0.23149000  1.0
  Zn  Zn10  1  0.62622000  0.69374000  0.22950000  1.0
  Zn  Zn11  1  0.45742000  0.85119000  0.22613000  1.0
  Zn  Zn12  1  0.03700000  0.89946000  0.02452000  1.0
  Zn  Zn13  1  0.04989000  0.05666000  0.01877000  1.0
  Zn  Zn14  1  0.87543000  0.05838000  0.01957000  1.0
  Zn  Zn15  1  0.03779000  0.98515000  0.93748000  1.0
  H  H16  1  0.81137000  0.24371000  0.65297000  1.0
  H  H17  1  0.54279000  0.48542000  0.62058000  1.0
  H  H18  1  0.54809000  0.52560000  0.66589000  1.0
  H  H19  1  0.64763000  0.57048000  0.61774000  1.0
  H  H20  1  0.64209000  0.53049000  0.57246000  1.0
  H  H21  1  0.29245000  0.60179000  0.29595000  1.0
  H  H22  1  0.35142000  0.67371000  0.43316000  1.0
  H  H23  1  0.26082000  0.76195000  0.43054000  1.0
  H  H24  1  0.16411000  0.71265000  0.47704000  1.0
  H  H25  1  0.25461000  0.62438000  0.47963000  1.0
  H  H26  1  0.81079000  0.60155000  0.29564000  1.0
  H  H27  1  0.54685000  0.76214000  0.42989000  1.0
  H  H28  1  0.54172000  0.67399000  0.43246000  1.0
  H  H29  1  0.64090000  0.62460000  0.47914000  1.0
  H  H30  1  0.64609000  0.71267000  0.47658000  1.0
  H  H31  1  0.30613000  0.45701000  0.64616000  1.0
  H  H32  1  0.33161000  0.17821000  0.63031000  1.0
  H  H33  1  0.24094000  0.21839000  0.67570000  1.0
  H  H34  1  0.14481000  0.26967000  0.62740000  1.0
  H  H35  1  0.23554000  0.22942000  0.58210000  1.0
  H  H36  1  0.68941000  0.14844000  0.95475000  1.0
  H  H37  1  0.95711000  0.07662000  0.81742000  1.0
  H  H38  1  0.95206000  0.98842000  0.81989000  1.0
  H  H39  1  0.85231000  0.03818000  0.77354000  1.0
  H  H40  1  0.85735000  0.12631000  0.77108000  1.0
  H  H41  1  0.19410000  0.05208000  0.84457000  1.0
  H  H42  1  0.16850000  0.21541000  0.97608000  1.0
  H  H43  1  0.25937000  0.12735000  0.97856000  1.0
  H  H44  1  0.35516000  0.17426000  0.92872000  1.0
  H  H45  1  0.26433000  0.26236000  0.92634000  1.0
  H  H46  1  0.19418000  0.79346000  0.10361000  1.0
  H  H47  1  0.25925000  0.03224000  0.07423000  1.0
  H  H48  1  0.16831000  0.07243000  0.11950000  1.0
  H  H49  1  0.26405000  0.02136000  0.16788000  1.0
  H  H50  1  0.35496000  0.98112000  0.12266000  1.0
  H  H51  1  0.68871000  0.00630000  0.09712000  1.0
  H  H52  1  0.95219000  0.72437000  0.08414000  1.0
  H  H53  1  0.95707000  0.76462000  0.12956000  1.0
  H  H54  1  0.85768000  0.71957000  0.17745000  1.0
  H  H55  1  0.85290000  0.67908000  0.13209000  1.0
  C  C56  1  0.86137000  0.56853000  0.43118000  1.0
  C  C57  1  0.12349000  0.31588000  0.43885000  1.0
  C  C58  1  0.86297000  0.43008000  0.56860000  1.0
  C  C59  1  0.13871000  0.43174000  0.56853000  1.0
  C  C60  1  0.87542000  0.68385000  0.56072000  1.0
  C  C61  1  0.13789000  0.56924000  0.43110000  1.0
  C  C62  1  0.63902000  0.31822000  0.68127000  1.0
  C  C63  1  0.37720000  0.43424000  0.81062000  1.0
  C  C64  1  0.63662000  0.18143000  0.81971000  1.0
  C  C65  1  0.36139000  0.18125000  0.81843000  1.0
  C  C66  1  0.62421000  0.06635000  0.68876000  1.0
  C  C67  1  0.36294000  0.31928000  0.68069000  1.0
  C  C68  1  0.36271000  0.68055000  0.31924000  1.0
  C  C69  1  0.62260000  0.56621000  0.18865000  1.0
  C  C70  1  0.63842000  0.68071000  0.31847000  1.0
  C  C71  1  0.63688000  0.81938000  0.18069000  1.0
  C  C72  1  0.37685000  0.93264000  0.31188000  1.0
  C  C73  1  0.36138000  0.81898000  0.18115000  1.0
  C  C74  1  0.13808000  0.93082000  0.06876000  1.0
  C  C75  1  0.87966000  0.18364000  0.06111000  1.0
  C  C76  1  0.86115000  0.93192000  0.06910000  1.0
  C  C77  1  0.86176000  0.06922000  0.93138000  1.0
  C  C78  1  0.12169000  0.81582000  0.93934000  1.0
  C  C79  1  0.13823000  0.06823000  0.93074000  1.0
  C  C80  1  0.73829000  0.80325000  0.60101000  1.0
  C  C81  1  0.76124000  0.94660000  0.64902000  1.0
  C  C82  1  0.82588000  0.75831000  0.58591000  1.0
  C  C83  1  0.67361000  0.99167000  0.66394000  1.0
  C  C84  1  0.78561000  0.87784000  0.62598000  1.0
  C  C85  1  0.71396000  0.87205000  0.62399000  1.0
  C  C86  1  0.20198000  0.22587000  0.37010000  1.0
  C  C87  1  0.29835000  0.02280000  0.38062000  1.0
  C  C88  1  0.17272000  0.24127000  0.41399000  1.0
  C  C89  1  0.32764000  0.00726000  0.33675000  1.0
  C  C90  1  0.25252000  0.10222000  0.39315000  1.0
  C  C91  1  0.24791000  0.14640000  0.35757000  1.0
  C  C92  1  0.69571000  0.34646000  0.65270000  1.0
  C  C93  1  0.80915000  0.39884000  0.59729000  1.0
  C  C94  1  0.66514000  0.41853000  0.63629000  1.0
  C  C95  1  0.83989000  0.32528000  0.61429000  1.0
  C  C96  1  0.72034000  0.44309000  0.60965000  1.0
  C  C97  1  0.78462000  0.30052000  0.64093000  1.0
  C  C98  1  0.58586000  0.49218000  0.63510000  1.0
  C  C99  1  0.64808000  0.52029000  0.60496000  1.0
  C  C100  1  0.30564000  0.65254000  0.34759000  1.0
  C  C101  1  0.19436000  0.59650000  0.40127000  1.0
  C  C102  1  0.28015000  0.66424000  0.39180000  1.0
  C  C103  1  0.22050000  0.58489000  0.35597000  1.0
  C  C104  1  0.22657000  0.63702000  0.41733000  1.0
  C  C105  1  0.27431000  0.61217000  0.33037000  1.0
  C  C106  1  0.28707000  0.69908000  0.42925000  1.0
  C  C107  1  0.22648000  0.66821000  0.45833000  1.0
  C  C108  1  0.69491000  0.65251000  0.34699000  1.0
  C  C109  1  0.80787000  0.59616000  0.40112000  1.0
  C  C110  1  0.66409000  0.66425000  0.39122000  1.0
  C  C111  1  0.83903000  0.58461000  0.35582000  1.0
  C  C112  1  0.71908000  0.63686000  0.41692000  1.0
  C  C113  1  0.78385000  0.61201000  0.33005000  1.0
  C  C114  1  0.58469000  0.69927000  0.42861000  1.0
  C  C115  1  0.64677000  0.66833000  0.45782000  1.0
  C  C116  1  0.30561000  0.34789000  0.65260000  1.0
  C  C117  1  0.19525000  0.40623000  0.59715000  1.0
  C  C118  1  0.27264000  0.30495000  0.64002000  1.0
  C  C119  1  0.22902000  0.44988000  0.61029000  1.0
  C  C120  1  0.21958000  0.33358000  0.61334000  1.0
  C  C121  1  0.28212000  0.42126000  0.63706000  1.0
  C  C122  1  0.27001000  0.22921000  0.64351000  1.0
  C  C123  1  0.20989000  0.26132000  0.61331000  1.0
  C  C124  1  0.29840000  0.58248000  0.82152000  1.0
  C  C125  1  0.20161000  0.66763000  0.92845000  1.0
  C  C126  1  0.32794000  0.50883000  0.83558000  1.0
  C  C127  1  0.17175000  0.74129000  0.91440000  1.0
  C  C128  1  0.24784000  0.60928000  0.89489000  1.0
  C  C129  1  0.25224000  0.64082000  0.85508000  1.0
  C  C130  1  0.80485000  0.09750000  0.90306000  1.0
  C  C131  1  0.69077000  0.15419000  0.84951000  1.0
  C  C132  1  0.83505000  0.08602000  0.85883000  1.0
  C  C133  1  0.66039000  0.16552000  0.89478000  1.0
  C  C134  1  0.77959000  0.11364000  0.83336000  1.0
  C  C135  1  0.71596000  0.13803000  0.92033000  1.0
  C  C136  1  0.91416000  0.05131000  0.82132000  1.0
  C  C137  1  0.85168000  0.08245000  0.79232000  1.0
  C  C138  1  0.19479000  0.09682000  0.90234000  1.0
  C  C139  1  0.30459000  0.15135000  0.84545000  1.0
  C  C140  1  0.22742000  0.13750000  0.91752000  1.0
  C  C141  1  0.27094000  0.10972000  0.83017000  1.0
  C  C142  1  0.28021000  0.16345000  0.88985000  1.0
  C  C143  1  0.21806000  0.08366000  0.85788000  1.0
  C  C144  1  0.23008000  0.17021000  0.95711000  1.0
  C  C145  1  0.29001000  0.19959000  0.92593000  1.0
  C  C146  1  0.64431000  0.44682000  0.14901000  1.0
  C  C147  1  0.85813000  0.30286000  0.10083000  1.0
  C  C148  1  0.67254000  0.49155000  0.16380000  1.0
  C  C149  1  0.82995000  0.25819000  0.08597000  1.0
  C  C150  1  0.79109000  0.37176000  0.12384000  1.0
  C  C151  1  0.71144000  0.37791000  0.12601000  1.0
  C  C152  1  0.19487000  0.90249000  0.09708000  1.0
  C  C153  1  0.30470000  0.84450000  0.15268000  1.0
  C  C154  1  0.22750000  0.94564000  0.10976000  1.0
  C  C155  1  0.27116000  0.80062000  0.13953000  1.0
  C  C156  1  0.28028000  0.91716000  0.13656000  1.0
  C  C157  1  0.21818000  0.82922000  0.11269000  1.0
  C  C158  1  0.22996000  0.02145000  0.10638000  1.0
  C  C159  1  0.28986000  0.98943000  0.13668000  1.0
  C  C160  1  0.80438000  0.90344000  0.09734000  1.0
  C  C161  1  0.69084000  0.85074000  0.15226000  1.0
  C  C162  1  0.83491000  0.83126000  0.11360000  1.0
  C  C163  1  0.66015000  0.92447000  0.13547000  1.0
  C  C164  1  0.77967000  0.80652000  0.14003000  1.0
  C  C165  1  0.71547000  0.94938000  0.10902000  1.0
  C  C166  1  0.91421000  0.75776000  0.11492000  1.0
  C  C167  1  0.85199000  0.72949000  0.14490000  1.0
  S  S168  1  0.88042000  0.80048000  0.60005000  1.0
  S  S169  1  0.61911000  0.94951000  0.64975000  1.0
  S  S170  1  0.20158000  0.15726000  0.44082000  1.0
  S  S171  1  0.29884000  0.09129000  0.30991000  1.0
  S  S172  1  0.29918000  0.51026000  0.89100000  1.0
  S  S173  1  0.20060000  0.73984000  0.85897000  1.0
  S  S174  1  0.78335000  0.44901000  0.14949000  1.0
  S  S175  1  0.71908000  0.30078000  0.10032000  1.0
  Cl  Cl176  1  0.94718000  0.26009000  0.60392000  1.0
  Cl  Cl177  1  0.18845000  0.53721000  0.32857000  1.0
  Cl  Cl178  1  0.94624000  0.53660000  0.32856000  1.0
  Cl  Cl179  1  0.20822000  0.54135000  0.59451000  1.0
  Cl  Cl180  1  0.55320000  0.21379000  0.92231000  1.0
  Cl  Cl181  1  0.29152000  0.08782000  0.77655000  1.0
  Cl  Cl182  1  0.29191000  0.70928000  0.15528000  1.0
  Cl  Cl183  1  0.55289000  0.98975000  0.14594000  1.0
  O  O184  1  0.99773000  0.50098000  0.50122000  1.0
  O  O185  1  0.82136000  0.58470000  0.47093000  1.0
  O  O186  1  0.10275000  0.37565000  0.41788000  1.0
  O  O187  1  0.94326000  0.38830000  0.55815000  1.0
  O  O188  1  0.94161000  0.53127000  0.41544000  1.0
  O  O189  1  0.82251000  0.49764000  0.55678000  1.0
  O  O190  1  0.10625000  0.31347000  0.47939000  1.0
  O  O191  1  0.11726000  0.38268000  0.55979000  1.0
  O  O192  1  0.95641000  0.65675000  0.55074000  1.0
  O  O193  1  0.11630000  0.49855000  0.55509000  1.0
  O  O194  1  0.83399000  0.65390000  0.55132000  1.0
  O  O195  1  0.11354000  0.52918000  0.41553000  1.0
  O  O196  1  0.11858000  0.58853000  0.47075000  1.0
  O  O197  1  0.50097000  0.25004000  0.75007000  1.0
  O  O198  1  0.67437000  0.25143000  0.69459000  1.0
  O  O199  1  0.39828000  0.43555000  0.77023000  1.0
  O  O200  1  0.55629000  0.21846000  0.83528000  1.0
  O  O201  1  0.55918000  0.36422000  0.68992000  1.0
  O  O202  1  0.67699000  0.16463000  0.78003000  1.0
  O  O203  1  0.39396000  0.37491000  0.83231000  1.0
  O  O204  1  0.38246000  0.21940000  0.83848000  1.0
  O  O205  1  0.54314000  0.09537000  0.69720000  1.0
  O  O206  1  0.38456000  0.16715000  0.77834000  1.0
  O  O207  1  0.66559000  0.09504000  0.69948000  1.0
  O  O208  1  0.38829000  0.36433000  0.69033000  1.0
  O  O209  1  0.38187000  0.25142000  0.69264000  1.0
  O  O210  1  0.50111000  0.75005000  0.25003000  1.0
  O  O211  1  0.38766000  0.71713000  0.33763000  1.0
  O  O212  1  0.54187000  0.59456000  0.19891000  1.0
  O  O213  1  0.67392000  0.66702000  0.27842000  1.0
  O  O214  1  0.38181000  0.66577000  0.27925000  1.0
  O  O215  1  0.55857000  0.71651000  0.33710000  1.0
  O  O216  1  0.66559000  0.59543000  0.19756000  1.0
  O  O217  1  0.67725000  0.75108000  0.19171000  1.0
  O  O218  1  0.39411000  0.93561000  0.27136000  1.0
  O  O219  1  0.55662000  0.86152000  0.19178000  1.0
  O  O220  1  0.39746000  0.87261000  0.33267000  1.0
  O  O221  1  0.38457000  0.75172000  0.19403000  1.0
  O  O222  1  0.38247000  0.86802000  0.19035000  1.0
  O  O223  1  0.00029000  0.99995000  0.99993000  1.0
  O  O224  1  0.11153000  0.88624000  0.05980000  1.0
  O  O225  1  0.96051000  0.15411000  0.05113000  1.0
  O  O226  1  0.82579000  0.99949000  0.05661000  1.0
  O  O227  1  0.12086000  0.99789000  0.05592000  1.0
  O  O228  1  0.94095000  0.88561000  0.05983000  1.0
  O  O229  1  0.83597000  0.15551000  0.05186000  1.0
  O  O230  1  0.82643000  0.08489000  0.97135000  1.0
  O  O231  1  0.10281000  0.87523000  0.91764000  1.0
  O  O232  1  0.94154000  0.03153000  0.91286000  1.0
  O  O233  1  0.10186000  0.81457000  0.97974000  1.0
  O  O234  1  0.12076000  0.08297000  0.97065000  1.0
  O  O235  1  0.11223000  0.03183000  0.91301000  1.0
  F  F236  1  0.68080000  0.78484000  0.59482000  1.0
  F  F237  1  0.81860000  0.96510000  0.65526000  1.0
  F  F238  1  0.18916000  0.27959000  0.34168000  1.0
  F  F239  1  0.31113000  0.96901000  0.40909000  1.0
  F  F240  1  0.31113000  0.59851000  0.78044000  1.0
  F  F241  1  0.18877000  0.65165000  0.96953000  1.0
  F  F242  1  0.56223000  0.46550000  0.15531000  1.0
  F  F243  1  0.94040000  0.28398000  0.09444000  1.0
