# generated using pymatgen
data_CdH22C18S(N2O3)3
_symmetry_space_group_name_H-M   'P 1'
_cell_length_a   6.48732000
_cell_length_b   9.76027000
_cell_length_c   19.43130000
_cell_angle_alpha   89.99950000
_cell_angle_beta   89.99940000
_cell_angle_gamma   81.25630000
_symmetry_Int_Tables_number   1
_chemical_formula_structural   CdH22C18S(N2O3)3
_chemical_formula_sum   'Cd2 H44 C36 S2 N12 O18'
_cell_volume   1216.05209766
_cell_formula_units_Z   2
loop_
 _symmetry_equiv_pos_site_id
 _symmetry_equiv_pos_as_xyz
  1  'x, y, z'
loop_
 _atom_site_type_symbol
 _atom_site_label
 _atom_site_symmetry_multiplicity
 _atom_site_fract_x
 _atom_site_fract_y
 _atom_site_fract_z
 _atom_site_occupancy
  Cd  Cd0  1  0.55420000  0.83119000  0.73736000  1.0
  Cd  Cd1  1  0.44580000  0.16880000  0.23737000  1.0
  H  H2  1  0.31100000  0.97291000  0.35308000  1.0
  H  H3  1  0.68899000  0.02710000  0.85308000  1.0
  H  H4  1  0.42359000  0.87316000  0.46952000  1.0
  H  H5  1  0.57643000  0.12684000  0.96951000  1.0
  H  H6  1  0.73103000  0.94803000  0.52654000  1.0
  H  H7  1  0.26899000  0.05197000  0.02654000  1.0
  H  H8  1  0.76543000  0.22867000  0.35619000  1.0
  H  H9  1  0.23456000  0.77134000  0.85619000  1.0
  H  H10  1  0.24494000  0.46390000  0.41719000  1.0
  H  H11  1  0.75506000  0.53612000  0.91719000  1.0
  H  H12  1  0.52765000  0.60988000  0.42138000  1.0
  H  H13  1  0.47234000  0.39015000  0.92137000  1.0
  H  H14  1  0.79613000  0.57877000  0.51260000  1.0
  H  H15  1  0.20386000  0.42125000  0.01260000  1.0
  H  H16  1  0.50210000  0.24955000  0.59826000  1.0
  H  H17  1  0.49792000  0.75045000  0.09826000  1.0
  H  H18  1  0.34584000  0.24063000  0.76626000  1.0
  H  H19  1  0.65418000  0.75937000  0.26627000  1.0
  H  H20  1  0.67167000  0.30419000  0.81555000  1.0
  H  H21  1  0.32833000  0.69581000  0.31555000  1.0
  H  H22  1  0.74678000  0.54876000  0.79962000  1.0
  H  H23  1  0.25322000  0.45123000  0.29962000  1.0
  H  H24  1  0.20644000  0.65606000  0.68463000  1.0
  H  H25  1  0.79356000  0.34394000  0.18463000  1.0
  H  H26  1  0.05934000  0.29790000  0.69849000  1.0
  H  H27  1  0.94067000  0.70210000  0.19850000  1.0
  H  H28  1  0.81823000  0.29027000  0.63897000  1.0
  H  H29  1  0.18178000  0.70973000  0.13898000  1.0
  H  H30  1  0.22355000  0.19047000  0.55155000  1.0
  H  H31  1  0.77647000  0.80953000  0.05155000  1.0
  H  H32  1  0.98660000  0.07778000  0.52436000  1.0
  H  H33  1  0.01341000  0.92221000  0.02437000  1.0
  H  H34  1  0.00289000  0.83028000  0.74976000  1.0
  H  H35  1  0.99711000  0.16971000  0.24976000  1.0
  H  H36  1  0.92683000  0.76161000  0.81954000  1.0
  H  H37  1  0.07317000  0.23839000  0.31954000  1.0
  H  H38  1  0.73019000  0.07976000  0.70647000  1.0
  H  H39  1  0.26980000  0.92023000  0.20648000  1.0
  H  H40  1  0.48965000  0.07941000  0.68148000  1.0
  H  H41  1  0.51034000  0.92058000  0.18148000  1.0
  H  H42  1  0.74530000  0.71325000  0.61425000  1.0
  H  H43  1  0.25470000  0.28675000  0.11426000  1.0
  H  H44  1  0.50648000  0.73921000  0.59790000  1.0
  H  H45  1  0.49352000  0.26080000  0.09790000  1.0
  C  C46  1  0.44155000  0.00464000  0.38098000  1.0
  C  C47  1  0.55845000  0.99536000  0.88098000  1.0
  C  C48  1  0.50696000  0.94857000  0.44466000  1.0
  C  C49  1  0.49304000  0.05143000  0.94466000  1.0
  C  C50  1  0.67823000  0.99063000  0.47659000  1.0
  C  C51  1  0.32178000  0.00937000  0.97659000  1.0
  C  C52  1  0.78083000  0.09108000  0.44459000  1.0
  C  C53  1  0.21918000  0.90892000  0.94459000  1.0
  C  C54  1  0.69983000  0.14619000  0.38159000  1.0
  C  C55  1  0.30016000  0.85382000  0.88159000  1.0
  C  C56  1  0.06953000  0.23060000  0.45908000  1.0
  C  C57  1  0.93047000  0.76940000  0.95908000  1.0
  C  C58  1  0.35724000  0.34532000  0.50693000  1.0
  C  C59  1  0.64276000  0.65469000  0.00693000  1.0
  C  C60  1  0.36162000  0.44989000  0.45754000  1.0
  C  C61  1  0.63838000  0.55013000  0.95753000  1.0
  C  C62  1  0.51936000  0.53204000  0.46112000  1.0
  C  C63  1  0.48064000  0.46798000  0.96111000  1.0
  C  C64  1  0.67109000  0.51635000  0.51256000  1.0
  C  C65  1  0.32891000  0.48366000  0.01256000  1.0
  C  C66  1  0.66228000  0.41445000  0.56307000  1.0
  C  C67  1  0.33772000  0.58556000  0.06307000  1.0
  C  C68  1  0.50677000  0.32983000  0.55966000  1.0
  C  C69  1  0.49323000  0.67017000  0.05966000  1.0
  C  C70  1  0.94762000  0.46768000  0.64012000  1.0
  C  C71  1  0.05238000  0.53233000  0.14012000  1.0
  C  C72  1  0.25063000  0.44244000  0.72000000  1.0
  C  C73  1  0.74938000  0.55756000  0.22001000  1.0
  C  C74  1  0.38227000  0.34507000  0.75955000  1.0
  C  C75  1  0.61773000  0.65493000  0.25955000  1.0
  C  C76  1  0.56361000  0.38071000  0.78754000  1.0
  C  C77  1  0.43639000  0.61929000  0.28754000  1.0
  C  C78  1  0.60712000  0.51482000  0.77874000  1.0
  C  C79  1  0.39288000  0.48518000  0.27875000  1.0
  C  C80  1  0.30428000  0.57609000  0.71359000  1.0
  C  C81  1  0.69572000  0.42390000  0.21360000  1.0
  S  S82  1  0.10780000  0.02440000  0.65590000  1.0
  S  S83  1  0.89220000  0.97559000  0.15591000  1.0
  N  N84  1  0.47677000  0.60969000  0.74337000  1.0
  N  N85  1  0.52322000  0.39031000  0.24337000  1.0
  N  N86  1  0.07776000  0.39963000  0.68968000  1.0
  N  N87  1  0.92224000  0.60036000  0.18968000  1.0
  N  N88  1  0.80836000  0.38608000  0.61637000  1.0
  N  N89  1  0.19165000  0.61391000  0.11638000  1.0
  N  N90  1  0.21034000  0.25390000  0.50871000  1.0
  N  N91  1  0.78966000  0.74610000  0.00871000  1.0
  N  N92  1  0.95208000  0.13005000  0.47827000  1.0
  N  N93  1  0.04793000  0.86994000  0.97827000  1.0
  N  N94  1  0.53693000  0.10179000  0.35086000  1.0
  N  N95  1  0.46307000  0.89822000  0.85086000  1.0
  O  O96  1  0.04907000  0.29338000  0.40285000  1.0
  O  O97  1  0.95091000  0.70663000  0.90285000  1.0
  O  O98  1  0.90099000  0.77470000  0.76941000  1.0
  O  O99  1  0.09900000  0.22530000  0.26941000  1.0
  O  O100  1  0.59116000  0.05555000  0.71984000  1.0
  O  O101  1  0.40884000  0.94444000  0.21985000  1.0
  O  O102  1  0.95723000  0.58798000  0.62028000  1.0
  O  O103  1  0.04276000  0.41201000  0.12028000  1.0
  O  O104  1  0.18791000  0.91302000  0.70651000  1.0
  O  O105  1  0.81209000  0.08697000  0.20651000  1.0
  O  O106  1  0.61720000  0.78450000  0.61728000  1.0
  O  O107  1  0.38280000  0.21550000  0.11728000  1.0
  O  O108  1  0.28344000  0.09462000  0.63097000  1.0
  O  O109  1  0.71657000  0.90537000  0.13098000  1.0
  O  O110  1  0.95479000  0.13195000  0.69301000  1.0
  O  O111  1  0.04521000  0.86804000  0.19302000  1.0
  O  O112  1  0.00559000  0.96697000  0.59738000  1.0
  O  O113  1  0.99443000  0.03302000  0.09738000  1.0
