# generated using pymatgen
data_TlH23C14S(N2O)2
_symmetry_space_group_name_H-M   'P 1'
_cell_length_a   7.30733000
_cell_length_b   8.31340000
_cell_length_c   16.30790000
_cell_angle_alpha   95.06600000
_cell_angle_beta   95.23000000
_cell_angle_gamma   102.84500000
_symmetry_Int_Tables_number   1
_chemical_formula_structural   TlH23C14S(N2O)2
_chemical_formula_sum   'Tl2 H46 C28 S2 N8 O4'
_cell_volume   955.83920073
_cell_formula_units_Z   2
loop_
 _symmetry_equiv_pos_site_id
 _symmetry_equiv_pos_as_xyz
  1  'x, y, z'
loop_
 _atom_site_type_symbol
 _atom_site_label
 _atom_site_symmetry_multiplicity
 _atom_site_fract_x
 _atom_site_fract_y
 _atom_site_fract_z
 _atom_site_occupancy
  Tl  Tl0  1  0.01925000  0.23841000  0.00860000  1.0
  Tl  Tl1  1  0.98075000  0.76160000  0.99140000  1.0
  H  H2  1  0.12678000  0.52192000  0.81658000  1.0
  H  H3  1  0.87324000  0.47805000  0.18342000  1.0
  H  H4  1  0.66430000  0.95211000  0.39124000  1.0
  H  H5  1  0.33569000  0.04789000  0.60875000  1.0
  H  H6  1  0.53078000  0.09521000  0.42374000  1.0
  H  H7  1  0.46920000  0.90479000  0.57625000  1.0
  H  H8  1  0.72827000  0.16343000  0.36846000  1.0
  H  H9  1  0.27171000  0.83656000  0.63154000  1.0
  H  H10  1  0.13276000  0.13162000  0.75585000  1.0
  H  H11  1  0.86724000  0.86840000  0.24414000  1.0
  H  H12  1  0.21693000  0.34460000  0.74365000  1.0
  H  H13  1  0.78310000  0.65537000  0.25634000  1.0
  H  H14  1  0.60500000  0.34546000  0.78900000  1.0
  H  H15  1  0.39501000  0.65456000  0.21100000  1.0
  H  H16  1  0.62527000  0.25175000  0.68794000  1.0
  H  H17  1  0.37473000  0.74829000  0.31206000  1.0
  H  H18  1  0.47795000  0.13877000  0.75438000  1.0
  H  H19  1  0.52205000  0.86123000  0.24563000  1.0
  H  H20  1  0.18523000  0.52366000  0.66002000  1.0
  H  H21  1  0.81477000  0.47631000  0.33997000  1.0
  H  H22  1  0.09010000  0.56684000  0.56413000  1.0
  H  H23  1  0.90989000  0.43314000  0.43587000  1.0
  H  H24  1  0.46917000  0.92640000  0.79155000  1.0
  H  H25  1  0.53084000  0.07361000  0.20845000  1.0
  H  H26  1  0.57952000  0.83515000  0.87023000  1.0
  H  H27  1  0.42049000  0.16487000  0.12977000  1.0
  H  H28  1  0.74224000  0.70025000  0.76537000  1.0
  H  H29  1  0.25778000  0.29977000  0.23464000  1.0
  H  H30  1  0.62254000  0.78496000  0.68501000  1.0
  H  H31  1  0.37746000  0.21505000  0.31499000  1.0
  H  H32  1  0.49012000  0.50536000  0.72393000  1.0
  H  H33  1  0.50992000  0.49465000  0.27610000  1.0
  H  H34  1  0.91221000  0.94314000  0.65531000  1.0
  H  H35  1  0.08774000  0.05682000  0.34468000  1.0
  H  H36  1  0.64897000  0.21814000  0.96319000  1.0
  H  H37  1  0.35101000  0.78186000  0.03683000  1.0
  H  H38  1  0.67271000  0.05179000  0.02450000  1.0
  H  H39  1  0.32730000  0.94822000  0.97553000  1.0
  H  H40  1  0.69644000  0.25707000  0.07459000  1.0
  H  H41  1  0.30357000  0.74293000  0.92542000  1.0
  H  H42  1  0.39767000  0.35430000  0.04060000  1.0
  H  H43  1  0.60234000  0.64571000  0.95939000  1.0
  H  H44  1  0.30305000  0.47155000  0.96801000  1.0
  H  H45  1  0.69693000  0.52845000  0.03198000  1.0
  H  H46  1  0.33822000  0.26986000  0.93303000  1.0
  H  H47  1  0.66173000  0.73014000  0.06695000  1.0
  C  C48  1  0.90579000  0.04283000  0.61633000  1.0
  C  C49  1  0.09418000  0.95715000  0.38367000  1.0
  C  C50  1  0.79780000  0.12410000  0.49555000  1.0
  C  C51  1  0.20219000  0.87589000  0.50445000  1.0
  C  C52  1  0.67438000  0.08181000  0.41442000  1.0
  C  C53  1  0.32562000  0.91818000  0.58558000  1.0
  C  C54  1  0.99572000  0.32629000  0.59104000  1.0
  C  C55  1  0.00427000  0.67369000  0.40895000  1.0
  C  C56  1  0.00297000  0.20337000  0.64595000  1.0
  C  C57  1  0.99699000  0.79662000  0.35405000  1.0
  C  C58  1  0.09132000  0.24128000  0.73397000  1.0
  C  C59  1  0.90868000  0.75872000  0.26602000  1.0
  C  C60  1  0.99231000  0.44115000  0.82938000  1.0
  C  C61  1  0.00772000  0.55886000  0.17062000  1.0
  C  C62  1  0.77779000  0.17000000  0.78959000  1.0
  C  C63  1  0.22221000  0.83001000  0.21041000  1.0
  C  C64  1  0.61148000  0.22873000  0.75293000  1.0
  C  C65  1  0.38851000  0.77128000  0.24708000  1.0
  C  C66  1  0.77378000  0.02101000  0.81892000  1.0
  C  C67  1  0.22621000  0.97900000  0.18109000  1.0
  C  C68  1  0.59673000  0.88303000  0.81002000  1.0
  C  C69  1  0.40328000  0.11698000  0.18999000  1.0
  C  C70  1  0.61312000  0.74164000  0.74679000  1.0
  C  C71  1  0.38690000  0.25837000  0.25321000  1.0
  C  C72  1  0.71959000  0.18434000  0.01886000  1.0
  C  C73  1  0.28043000  0.81567000  0.98116000  1.0
  C  C74  1  0.30199000  0.34653000  0.98417000  1.0
  C  C75  1  0.69800000  0.65347000  0.01582000  1.0
  S  S76  1  0.97984000  0.97431000  0.86537000  1.0
  S  S77  1  0.02015000  0.02570000  0.13464000  1.0
  N  N78  1  0.80107000  0.99914000  0.54225000  1.0
  N  N79  1  0.19891000  0.00084000  0.45775000  1.0
  N  N80  1  0.89212000  0.28264000  0.51570000  1.0
  N  N81  1  0.10788000  0.71734000  0.48430000  1.0
  N  N82  1  0.08480000  0.48763000  0.61036000  1.0
  N  N83  1  0.91520000  0.51234000  0.38964000  1.0
  N  N84  1  0.95633000  0.28669000  0.78925000  1.0
  N  N85  1  0.04367000  0.71333000  0.21074000  1.0
  O  O86  1  0.44940000  0.60436000  0.74350000  1.0
  O  O87  1  0.55062000  0.39565000  0.25651000  1.0
  O  O88  1  0.88792000  0.49004000  0.87760000  1.0
  O  O89  1  0.11209000  0.50998000  0.12242000  1.0
