# generated using pymatgen
data_AgH6C6N3O2
_symmetry_space_group_name_H-M   'P 1'
_cell_length_a   12.07260000
_cell_length_b   12.07490000
_cell_length_c   13.24908433
_cell_angle_alpha   62.88805180
_cell_angle_beta   62.93804369
_cell_angle_gamma   90.01500000
_symmetry_Int_Tables_number   1
_chemical_formula_structural   AgH6C6N3O2
_chemical_formula_sum   'Ag8 H48 C48 N24 O16'
_cell_volume   1477.50553598
_cell_formula_units_Z   8
loop_
 _symmetry_equiv_pos_site_id
 _symmetry_equiv_pos_as_xyz
  1  'x, y, z'
loop_
 _atom_site_type_symbol
 _atom_site_label
 _atom_site_symmetry_multiplicity
 _atom_site_fract_x
 _atom_site_fract_y
 _atom_site_fract_z
 _atom_site_occupancy
  Ag  Ag0  1  0.67726000  0.50362000  0.91072000  1.0
  Ag  Ag1  1  0.00323000  0.41192000  0.41081000  1.0
  Ag  Ag2  1  0.08591000  0.17697000  0.41064000  1.0
  Ag  Ag3  1  0.91236000  0.58592000  0.91060000  1.0
  Ag  Ag4  1  0.32274000  0.49638000  0.08928000  1.0
  Ag  Ag5  1  0.99676000  0.58809000  0.58919000  1.0
  Ag  Ag6  1  0.91409000  0.82303000  0.58936000  1.0
  Ag  Ag7  1  0.08764000  0.41408000  0.08940000  1.0
  H  H8  1  0.54600000  0.53644000  0.11333000  1.0
  H  H9  1  0.03619000  0.34044000  0.61333000  1.0
  H  H10  1  0.85036000  0.04626000  0.61312000  1.0
  H  H11  1  0.84056000  0.35057000  0.11318000  1.0
  H  H12  1  0.45399000  0.46356000  0.88668000  1.0
  H  H13  1  0.96380000  0.65957000  0.38667000  1.0
  H  H14  1  0.14964000  0.95374000  0.38688000  1.0
  H  H15  1  0.15945000  0.64944000  0.88682000  1.0
  H  H16  1  0.66412000  0.21660000  0.03092000  1.0
  H  H17  1  0.71614000  0.30469000  0.53104000  1.0
  H  H18  1  0.25257000  0.16390000  0.53121000  1.0
  H  H19  1  0.80501000  0.75281000  0.03066000  1.0
  H  H20  1  0.33588000  0.78340000  0.96909000  1.0
  H  H21  1  0.28386000  0.69531000  0.46896000  1.0
  H  H22  1  0.74744000  0.83610000  0.46879000  1.0
  H  H23  1  0.19499000  0.24719000  0.96934000  1.0
  H  H24  1  0.55644000  0.01286000  0.25613000  1.0
  H  H25  1  0.51255000  0.18739000  0.75626000  1.0
  H  H26  1  0.23080000  0.05617000  0.75660000  1.0
  H  H27  1  0.68768000  0.73132000  0.25583000  1.0
  H  H28  1  0.44355000  0.98714000  0.74388000  1.0
  H  H29  1  0.48745000  0.81262000  0.24374000  1.0
  H  H30  1  0.76919000  0.94382000  0.24341000  1.0
  H  H31  1  0.31231000  0.26868000  0.74417000  1.0
  H  H32  1  0.40830000  0.03450000  0.45189000  1.0
  H  H33  1  0.53443000  0.14013000  0.95190000  1.0
  H  H34  1  0.01351000  0.90750000  0.95208000  1.0
  H  H35  1  0.64027000  0.51394000  0.45162000  1.0
  H  H36  1  0.59171000  0.96550000  0.54811000  1.0
  H  H37  1  0.46558000  0.85987000  0.04809000  1.0
  H  H38  1  0.98649000  0.09250000  0.04792000  1.0
  H  H39  1  0.35972000  0.48606000  0.54838000  1.0
  H  H40  1  0.45082000  0.56844000  0.28454000  1.0
  H  H41  1  0.06842000  0.26442000  0.78449000  1.0
  H  H42  1  0.64711000  0.95128000  0.78411000  1.0
  H  H43  1  0.76438000  0.14725000  0.28423000  1.0
  H  H44  1  0.54918000  0.43156000  0.71547000  1.0
  H  H45  1  0.93157000  0.73558000  0.21551000  1.0
  H  H46  1  0.35289000  0.04871000  0.21589000  1.0
  H  H47  1  0.23562000  0.85275000  0.71577000  1.0
  H  H48  1  0.44164000  0.40810000  0.39484000  1.0
  H  H49  1  0.90802000  0.16348000  0.89492000  1.0
  H  H50  1  0.69705000  0.94214000  0.89448000  1.0
  H  H51  1  0.66333000  0.19713000  0.39464000  1.0
  H  H52  1  0.55835000  0.59190000  0.60517000  1.0
  H  H53  1  0.09198000  0.83652000  0.10508000  1.0
  H  H54  1  0.30294000  0.05786000  0.10553000  1.0
  H  H55  1  0.33667000  0.80287000  0.60537000  1.0
  C  C56  1  0.50770000  0.33705000  0.21779000  1.0
  C  C57  1  0.83686000  0.27437000  0.71785000  1.0
  C  C58  1  0.94520000  0.00756000  0.71777000  1.0
  C  C59  1  0.77452000  0.44538000  0.21770000  1.0
  C  C60  1  0.49229000  0.66295000  0.78222000  1.0
  C  C61  1  0.16314000  0.72563000  0.28215000  1.0
  C  C62  1  0.05481000  0.99244000  0.28223000  1.0
  C  C63  1  0.22549000  0.55462000  0.78229000  1.0
  C  C64  1  0.60248000  0.21795000  0.12120000  1.0
  C  C65  1  0.71757000  0.27617000  0.62129000  1.0
  C  C66  1  0.16090000  0.10228000  0.62140000  1.0
  C  C67  1  0.77642000  0.66116000  0.12096000  1.0
  C  C68  1  0.39752000  0.78205000  0.87881000  1.0
  C  C69  1  0.28243000  0.72382000  0.37871000  1.0
  C  C70  1  0.83909000  0.89772000  0.37861000  1.0
  C  C71  1  0.22357000  0.33884000  0.87904000  1.0
  C  C72  1  0.54313000  0.10601000  0.24482000  1.0
  C  C73  1  0.60573000  0.21198000  0.74494000  1.0
  C  C74  1  0.14906000  0.04278000  0.74513000  1.0
  C  C75  1  0.71227000  0.64946000  0.24456000  1.0
  C  C76  1  0.45688000  0.89399000  0.75518000  1.0
  C  C77  1  0.39427000  0.78802000  0.25506000  1.0
  C  C78  1  0.85094000  0.95722000  0.25487000  1.0
  C  C79  1  0.28774000  0.35055000  0.75543000  1.0
  C  C80  1  0.46266000  0.11877000  0.35255000  1.0
  C  C81  1  0.61865000  0.18491000  0.85261000  1.0
  C  C82  1  0.02862000  0.96206000  0.85272000  1.0
  C  C83  1  0.68508000  0.52896000  0.35232000  1.0
  C  C84  1  0.53733000  0.88123000  0.64746000  1.0
  C  C85  1  0.38135000  0.81509000  0.14739000  1.0
  C  C86  1  0.97139000  0.03794000  0.14728000  1.0
  C  C87  1  0.31491000  0.47104000  0.64768000  1.0
  C  C88  1  0.41981000  0.46650000  0.31750000  1.0
  C  C89  1  0.96648000  0.26257000  0.81751000  1.0
  C  C90  1  0.71600000  0.92020000  0.81724000  1.0
  C  C91  1  0.76244000  0.21608000  0.31739000  1.0
  C  C92  1  0.58019000  0.53351000  0.68251000  1.0
  C  C93  1  0.03352000  0.73743000  0.18249000  1.0
  C  C94  1  0.28401000  0.07980000  0.18276000  1.0
  C  C95  1  0.23756000  0.78392000  0.68261000  1.0
  C  C96  1  0.27263000  0.43249000  0.38116000  1.0
  C  C97  1  0.93287000  0.34622000  0.88102000  1.0
  C  C98  1  0.68613000  0.77297000  0.88116000  1.0
  C  C99  1  0.84589000  0.18604000  0.38118000  1.0
  C  C100  1  0.72737000  0.56751000  0.61884000  1.0
  C  C101  1  0.06714000  0.65378000  0.11897000  1.0
  C  C102  1  0.31388000  0.22702000  0.11884000  1.0
  C  C103  1  0.15412000  0.81395000  0.61881000  1.0
  N  N104  1  0.44437000  0.23192000  0.34087000  1.0
  N  N105  1  0.73185000  0.21481000  0.84089000  1.0
  N  N106  1  0.92719000  0.94395000  0.84088000  1.0
  N  N107  1  0.71489000  0.42742000  0.34075000  1.0
  N  N108  1  0.55562000  0.76808000  0.65914000  1.0
  N  N109  1  0.26815000  0.78518000  0.15911000  1.0
  N  N110  1  0.07282000  0.05605000  0.15911000  1.0
  N  N111  1  0.28510000  0.57258000  0.65925000  1.0
  N  N112  1  0.49251000  0.45251000  0.20436000  1.0
  N  N113  1  0.95234000  0.30293000  0.70441000  1.0
  N  N114  1  0.84317000  0.99269000  0.70423000  1.0
  N  N115  1  0.80299000  0.34332000  0.20430000  1.0
  N  N116  1  0.50749000  0.54749000  0.79564000  1.0
  N  N117  1  0.04765000  0.69707000  0.29559000  1.0
  N  N118  1  0.15683000  0.00731000  0.29577000  1.0
  N  N119  1  0.19701000  0.65668000  0.79570000  1.0
  N  N120  1  0.58540000  0.33317000  0.10608000  1.0
  N  N121  1  0.83282000  0.30833000  0.60614000  1.0
  N  N122  1  0.06089000  0.08519000  0.60612000  1.0
  N  N123  1  0.80855000  0.56100000  0.10596000  1.0
  N  N124  1  0.41459000  0.66683000  0.89393000  1.0
  N  N125  1  0.16718000  0.69167000  0.39385000  1.0
  N  N126  1  0.93912000  0.91481000  0.39388000  1.0
  N  N127  1  0.19145000  0.43900000  0.89404000  1.0
  O  O128  1  0.22545000  0.44561000  0.30802000  1.0
  O  O129  1  0.94653000  0.46660000  0.80770000  1.0
  O  O130  1  0.74622000  0.72570000  0.80824000  1.0
  O  O131  1  0.96621000  0.24575000  0.30811000  1.0
  O  O132  1  0.77455000  0.55439000  0.69198000  1.0
  O  O133  1  0.05347000  0.53340000  0.19229000  1.0
  O  O134  1  0.25379000  0.27430000  0.19176000  1.0
  O  O135  1  0.03380000  0.75425000  0.69188000  1.0
  O  O136  1  0.20771000  0.39866000  0.50090000  1.0
  O  O137  1  0.89877000  0.29142000  0.00084000  1.0
  O  O138  1  0.60010000  0.70813000  0.00083000  1.0
  O  O139  1  0.79100000  0.10019000  0.50096000  1.0
  O  O140  1  0.79228000  0.60135000  0.49911000  1.0
  O  O141  1  0.10123000  0.70858000  0.99915000  1.0
  O  O142  1  0.39991000  0.29187000  0.99916000  1.0
  O  O143  1  0.20902000  0.89980000  0.49903000  1.0
