# generated using pymatgen
data_CoH14C12(N4O)2
_symmetry_space_group_name_H-M   'P 1'
_cell_length_a   6.96410000
_cell_length_b   7.03827000
_cell_length_c   8.41581895
_cell_angle_alpha   114.55412715
_cell_angle_beta   108.94926848
_cell_angle_gamma   90.07870000
_symmetry_Int_Tables_number   1
_chemical_formula_structural   CoH14C12(N4O)2
_chemical_formula_sum   'Co1 H14 C12 N8 O2'
_cell_volume   350.38333466
_cell_formula_units_Z   1
loop_
 _symmetry_equiv_pos_site_id
 _symmetry_equiv_pos_as_xyz
  1  'x, y, z'
loop_
 _atom_site_type_symbol
 _atom_site_label
 _atom_site_symmetry_multiplicity
 _atom_site_fract_x
 _atom_site_fract_y
 _atom_site_fract_z
 _atom_site_occupancy
  Co  Co0  1  0.50000000  0.00000000  0.00000000  1.0
  H  H1  1  0.91441000  0.33446000  0.66829000  1.0
  H  H2  1  0.08560000  0.66554000  0.33171000  1.0
  H  H3  1  0.02003000  0.97748000  0.20248000  1.0
  H  H4  1  0.01984000  0.22525000  0.20228000  1.0
  H  H5  1  0.97997000  0.02252000  0.79752000  1.0
  H  H6  1  0.98016000  0.77474000  0.79771000  1.0
  H  H7  1  0.35065000  0.34676000  0.44490000  1.0
  H  H8  1  0.35011000  0.09810000  0.44583000  1.0
  H  H9  1  0.64935000  0.65325000  0.55510000  1.0
  H  H10  1  0.64989000  0.90191000  0.55417000  1.0
  H  H11  1  0.27978000  0.23568000  0.72327000  1.0
  H  H12  1  0.27902000  0.48849000  0.72163000  1.0
  H  H13  1  0.72023000  0.76433000  0.27673000  1.0
  H  H14  1  0.72099000  0.51151000  0.27837000  1.0
  C  C15  1  0.89149000  0.19511000  0.39090000  1.0
  C  C16  1  0.10851000  0.80489000  0.60910000  1.0
  C  C17  1  0.04755000  0.14746000  0.29495000  1.0
  C  C18  1  0.95245000  0.85254000  0.70505000  1.0
  C  C19  1  0.25948000  0.22647000  0.45302000  1.0
  C  C20  1  0.74053000  0.77354000  0.54698000  1.0
  C  C21  1  0.21610000  0.31935000  0.63783000  1.0
  C  C22  1  0.78390000  0.68065000  0.36217000  1.0
  C  C23  1  0.30019000  0.39036000  0.10017000  1.0
  C  C24  1  0.30007000  0.70868000  0.10024000  1.0
  C  C25  1  0.69980000  0.60963000  0.89982000  1.0
  C  C26  1  0.69992000  0.29131000  0.89977000  1.0
  N  N27  1  0.99223000  0.28850000  0.57720000  1.0
  N  N28  1  0.00778000  0.71151000  0.42280000  1.0
  N  N29  1  0.34624000  0.22070000  0.05579000  1.0
  N  N30  1  0.34606000  0.83448000  0.05593000  1.0
  N  N31  1  0.65376000  0.77928000  0.94420000  1.0
  N  N32  1  0.65393000  0.16551000  0.94407000  1.0
  N  N33  1  0.24140000  0.57543000  0.15262000  1.0
  N  N34  1  0.75859000  0.42456000  0.84737000  1.0
  O  O35  1  0.69956000  0.15670000  0.31481000  1.0
  O  O36  1  0.30045000  0.84330000  0.68520000  1.0
