# generated using pymatgen
data_CdH8C8N5Cl
_symmetry_space_group_name_H-M   'P 1'
_cell_length_a   9.55247000
_cell_length_b   9.56123000
_cell_length_c   13.86020000
_cell_angle_alpha   108.44900000
_cell_angle_beta   102.62300000
_cell_angle_gamma   102.87800000
_symmetry_Int_Tables_number   1
_chemical_formula_structural   CdH8C8N5Cl
_chemical_formula_sum   'Cd4 H32 C32 N20 Cl4'
_cell_volume   1111.97111318
_cell_formula_units_Z   4
loop_
 _symmetry_equiv_pos_site_id
 _symmetry_equiv_pos_as_xyz
  1  'x, y, z'
loop_
 _atom_site_type_symbol
 _atom_site_label
 _atom_site_symmetry_multiplicity
 _atom_site_fract_x
 _atom_site_fract_y
 _atom_site_fract_z
 _atom_site_occupancy
  Cd  Cd0  1  0.30043000  0.52694000  0.98439000  1.0
  Cd  Cd1  1  0.54266000  0.81590000  0.51553000  1.0
  Cd  Cd2  1  0.69957000  0.47305000  0.01561000  1.0
  Cd  Cd3  1  0.45734000  0.18410000  0.48447000  1.0
  H  H4  1  0.13495000  0.66163000  0.11368000  1.0
  H  H5  1  0.54860000  0.52153000  0.38650000  1.0
  H  H6  1  0.86505000  0.33836000  0.88632000  1.0
  H  H7  1  0.45140000  0.47847000  0.61350000  1.0
  H  H8  1  0.31433000  0.77142000  0.17297000  1.0
  H  H9  1  0.59901000  0.64130000  0.32699000  1.0
  H  H10  1  0.68567000  0.22858000  0.82703000  1.0
  H  H11  1  0.40099000  0.35870000  0.67301000  1.0
  H  H12  1  0.44208000  0.65164000  0.82071000  1.0
  H  H13  1  0.83069000  0.12081000  0.67911000  1.0
  H  H14  1  0.55792000  0.34836000  0.17928000  1.0
  H  H15  1  0.16931000  0.87920000  0.32089000  1.0
  H  H16  1  0.45759000  0.87028000  0.75481000  1.0
  H  H17  1  0.11539000  0.20241000  0.74505000  1.0
  H  H18  1  0.54240000  0.12972000  0.24519000  1.0
  H  H19  1  0.88462000  0.79759000  0.25495000  1.0
  H  H20  1  0.35654000  0.08417000  0.84137000  1.0
  H  H21  1  0.24325000  0.01515000  0.65868000  1.0
  H  H22  1  0.64346000  0.91583000  0.15863000  1.0
  H  H23  1  0.75675000  0.98485000  0.34132000  1.0
  H  H24  1  0.23357000  0.06177000  0.97849000  1.0
  H  H25  1  0.08412000  0.75529000  0.52175000  1.0
  H  H26  1  0.76644000  0.93823000  0.02151000  1.0
  H  H27  1  0.91588000  0.24471000  0.47825000  1.0
  H  H28  1  0.22595000  0.94660000  0.11822000  1.0
  H  H29  1  0.82930000  0.60838000  0.38177000  1.0
  H  H30  1  0.77405000  0.05340000  0.88178000  1.0
  H  H31  1  0.17070000  0.39162000  0.61823000  1.0
  H  H32  1  0.07499000  0.79303000  0.01557000  1.0
  H  H33  1  0.77833000  0.55957000  0.48433000  1.0
  H  H34  1  0.92501000  0.20697000  0.98443000  1.0
  H  H35  1  0.22167000  0.44043000  0.51567000  1.0
  C  C36  1  0.39773000  0.74605000  0.85290000  1.0
  C  C37  1  0.89317000  0.04449000  0.64702000  1.0
  C  C38  1  0.60226000  0.25395000  0.14709000  1.0
  C  C39  1  0.10684000  0.95551000  0.35298000  1.0
  C  C40  1  0.40631000  0.86705000  0.81726000  1.0
  C  C41  1  0.04988000  0.08877000  0.68269000  1.0
  C  C42  1  0.59368000  0.13295000  0.18274000  1.0
  C  C43  1  0.95012000  0.91123000  0.31731000  1.0
  C  C44  1  0.34821000  0.98400000  0.86412000  1.0
  C  C45  1  0.12026000  0.98402000  0.63592000  1.0
  C  C46  1  0.65178000  0.01600000  0.13588000  1.0
  C  C47  1  0.87974000  0.01598000  0.36408000  1.0
  C  C48  1  0.28106000  0.97278000  0.94194000  1.0
  C  C49  1  0.03143000  0.83918000  0.55819000  1.0
  C  C50  1  0.71894000  0.02723000  0.05806000  1.0
  C  C51  1  0.96857000  0.16082000  0.44181000  1.0
  C  C52  1  0.27579000  0.84688000  0.97338000  1.0
  C  C53  1  0.87398000  0.80243000  0.52665000  1.0
  C  C54  1  0.72421000  0.15312000  0.02662000  1.0
  C  C55  1  0.12602000  0.19757000  0.47335000  1.0
  C  C56  1  0.19765000  0.83062000  0.05540000  1.0
  C  C57  1  0.77588000  0.64243000  0.44458000  1.0
  C  C58  1  0.80235000  0.16938000  0.94460000  1.0
  C  C59  1  0.22412000  0.35757000  0.55542000  1.0
  C  C60  1  0.99618000  0.46201000  0.77220000  1.0
  C  C61  1  0.68992000  0.72382000  0.72780000  1.0
  C  C62  1  0.00383000  0.53799000  0.22780000  1.0
  C  C63  1  0.31008000  0.27618000  0.27221000  1.0
  C  C64  1  0.81540000  0.40211000  0.61299000  1.0
  C  C65  1  0.78918000  0.70269000  0.88714000  1.0
  C  C66  1  0.18460000  0.59789000  0.38701000  1.0
  C  C67  1  0.21082000  0.29730000  0.11287000  1.0
  N  N68  1  0.33517000  0.73735000  0.92975000  1.0
  N  N69  1  0.80780000  0.90522000  0.57021000  1.0
  N  N70  1  0.66482000  0.26265000  0.07024000  1.0
  N  N71  1  0.19220000  0.09478000  0.42979000  1.0
  N  N72  1  0.22976000  0.71747000  0.10074000  1.0
  N  N73  1  0.61731000  0.62912000  0.39929000  1.0
  N  N74  1  0.77024000  0.28253000  0.89926000  1.0
  N  N75  1  0.38269000  0.37089000  0.60071000  1.0
  N  N76  1  0.05337000  0.44898000  0.85227000  1.0
  N  N77  1  0.59693000  0.70060000  0.64760000  1.0
  N  N78  1  0.94663000  0.55101000  0.14773000  1.0
  N  N79  1  0.40308000  0.29940000  0.35241000  1.0
  N  N80  1  0.94222000  0.48514000  0.68681000  1.0
  N  N81  1  0.79840000  0.75579000  0.81333000  1.0
  N  N82  1  0.05779000  0.51485000  0.31319000  1.0
  N  N83  1  0.20159000  0.24419000  0.18667000  1.0
  N  N84  1  0.70431000  0.33424000  0.53898000  1.0
  N  N85  1  0.79536000  0.66550000  0.96113000  1.0
  N  N86  1  0.29570000  0.66577000  0.46102000  1.0
  N  N87  1  0.20464000  0.33450000  0.03888000  1.0
  Cl  Cl88  1  0.42750000  0.38007000  0.85574000  1.0
  Cl  Cl89  1  0.52433000  0.07140000  0.64420000  1.0
  Cl  Cl90  1  0.57250000  0.61993000  0.14426000  1.0
  Cl  Cl91  1  0.47568000  0.92860000  0.35580000  1.0
