# generated using pymatgen
data_ZnH18C21N10
_symmetry_space_group_name_H-M   'P 1'
_cell_length_a   10.18860000
_cell_length_b   12.83240000
_cell_length_c   17.52370000
_cell_angle_alpha   90.00000000
_cell_angle_beta   89.99980000
_cell_angle_gamma   99.10890000
_symmetry_Int_Tables_number   1
_chemical_formula_structural   ZnH18C21N10
_chemical_formula_sum   'Zn4 H72 C84 N40'
_cell_volume   2262.22915545
_cell_formula_units_Z   4
loop_
 _symmetry_equiv_pos_site_id
 _symmetry_equiv_pos_as_xyz
  1  'x, y, z'
loop_
 _atom_site_type_symbol
 _atom_site_label
 _atom_site_symmetry_multiplicity
 _atom_site_fract_x
 _atom_site_fract_y
 _atom_site_fract_z
 _atom_site_occupancy
  Zn  Zn0  1  0.60137000  0.31279000  0.01153000  1.0
  Zn  Zn1  1  0.89863000  0.68721000  0.51153000  1.0
  Zn  Zn2  1  0.39864000  0.68721000  0.98847000  1.0
  Zn  Zn3  1  0.10137000  0.31279000  0.48847000  1.0
  H  H4  1  0.58616000  0.09364000  0.98260000  1.0
  H  H5  1  0.91383000  0.90636000  0.48260000  1.0
  H  H6  1  0.41383000  0.90635000  0.01740000  1.0
  H  H7  1  0.08617000  0.09364000  0.51739000  1.0
  H  H8  1  0.70124000  0.94324000  0.01195000  1.0
  H  H9  1  0.79876000  0.05676000  0.51194000  1.0
  H  H10  1  0.29876000  0.05675000  0.98805000  1.0
  H  H11  1  0.20124000  0.94324000  0.48805000  1.0
  H  H12  1  0.99031000  0.15945000  0.13932000  1.0
  H  H13  1  0.50969000  0.84055000  0.63932000  1.0
  H  H14  1  0.00970000  0.84055000  0.86068000  1.0
  H  H15  1  0.49031000  0.15945000  0.36068000  1.0
  H  H16  1  0.85896000  0.30107000  0.10634000  1.0
  H  H17  1  0.64104000  0.69894000  0.60634000  1.0
  H  H18  1  0.14104000  0.69894000  0.89366000  1.0
  H  H19  1  0.35897000  0.30106000  0.39366000  1.0
  H  H20  1  0.94198000  0.94717000  0.16040000  1.0
  H  H21  1  0.55802000  0.05283000  0.66039000  1.0
  H  H22  1  0.05802000  0.05283000  0.83961000  1.0
  H  H23  1  0.44199000  0.94717000  0.33960000  1.0
  H  H24  1  0.03584000  0.96882000  0.07693000  1.0
  H  H25  1  0.46416000  0.03118000  0.57693000  1.0
  H  H26  1  0.96416000  0.03118000  0.92307000  1.0
  H  H27  1  0.53584000  0.96882000  0.42307000  1.0
  H  H28  1  0.86150000  0.84219000  0.00543000  1.0
  H  H29  1  0.63850000  0.15781000  0.50542000  1.0
  H  H30  1  0.13850000  0.15781000  0.99458000  1.0
  H  H31  1  0.36150000  0.84219000  0.49458000  1.0
  H  H32  1  0.76546000  0.82408000  0.08926000  1.0
  H  H33  1  0.73453000  0.17593000  0.58925000  1.0
  H  H34  1  0.23454000  0.17592000  0.91075000  1.0
  H  H35  1  0.26547000  0.82408000  0.41075000  1.0
  H  H36  1  0.04064000  0.76133000  0.06478000  1.0
  H  H37  1  0.45935000  0.23867000  0.56478000  1.0
  H  H38  1  0.95936000  0.23867000  0.93522000  1.0
  H  H39  1  0.54064000  0.76133000  0.43522000  1.0
  H  H40  1  0.95951000  0.75428000  0.15476000  1.0
  H  H41  1  0.54049000  0.24572000  0.65475000  1.0
  H  H42  1  0.04049000  0.24572000  0.84525000  1.0
  H  H43  1  0.45951000  0.75428000  0.34525000  1.0
  H  H44  1  0.80914000  0.46109000  0.93185000  1.0
  H  H45  1  0.69087000  0.53892000  0.43185000  1.0
  H  H46  1  0.19088000  0.53892000  0.06815000  1.0
  H  H47  1  0.30913000  0.46108000  0.56815000  1.0
  H  H48  1  0.95529000  0.63003000  0.96268000  1.0
  H  H49  1  0.54472000  0.36998000  0.46268000  1.0
  H  H50  1  0.04472000  0.36998000  0.03732000  1.0
  H  H51  1  0.45528000  0.63002000  0.53732000  1.0
  H  H52  1  0.74019000  0.63663000  0.17460000  1.0
  H  H53  1  0.75980000  0.36336000  0.67459000  1.0
  H  H54  1  0.25981000  0.36336000  0.82541000  1.0
  H  H55  1  0.24019000  0.63663000  0.32541000  1.0
  H  H56  1  0.59953000  0.46913000  0.13483000  1.0
  H  H57  1  0.90048000  0.53086000  0.63483000  1.0
  H  H58  1  0.40048000  0.53086000  0.86516000  1.0
  H  H59  1  0.09952000  0.46913000  0.36517000  1.0
  H  H60  1  0.28503000  0.18791000  0.69718000  1.0
  H  H61  1  0.21497000  0.81209000  0.19718000  1.0
  H  H62  1  0.71497000  0.81209000  0.30282000  1.0
  H  H63  1  0.78502000  0.18790000  0.80282000  1.0
  H  H64  1  0.47041000  0.97924000  0.84009000  1.0
  H  H65  1  0.02959000  0.02076000  0.34009000  1.0
  H  H66  1  0.52959000  0.02077000  0.15991000  1.0
  H  H67  1  0.97040000  0.97923000  0.65990000  1.0
  H  H68  1  0.17120000  0.03340000  0.62555000  1.0
  H  H69  1  0.32880000  0.96660000  0.12555000  1.0
  H  H70  1  0.82880000  0.96660000  0.37445000  1.0
  H  H71  1  0.67120000  0.03339000  0.87445000  1.0
  H  H72  1  0.35856000  0.82593000  0.76752000  1.0
  H  H73  1  0.14144000  0.17406000  0.26752000  1.0
  H  H74  1  0.64144000  0.17407000  0.23249000  1.0
  H  H75  1  0.85856000  0.82593000  0.73248000  1.0
  C  C76  1  0.67637000  0.10444000  0.01709000  1.0
  C  C77  1  0.82362000  0.89556000  0.51708000  1.0
  C  C78  1  0.32363000  0.89556000  0.98292000  1.0
  C  C79  1  0.17637000  0.10444000  0.48291000  1.0
  C  C80  1  0.74293000  0.02096000  0.03351000  1.0
  C  C81  1  0.75706000  0.97904000  0.53350000  1.0
  C  C82  1  0.25706000  0.97903000  0.96650000  1.0
  C  C83  1  0.24293000  0.02096000  0.46649000  1.0
  C  C84  1  0.85877000  0.03781000  0.07758000  1.0
  C  C85  1  0.64122000  0.96219000  0.57758000  1.0
  C  C86  1  0.14123000  0.96219000  0.92242000  1.0
  C  C87  1  0.35878000  0.03781000  0.42241000  1.0
  C  C88  1  0.90174000  0.14115000  0.10382000  1.0
  C  C89  1  0.59825000  0.85885000  0.60382000  1.0
  C  C90  1  0.09826000  0.85884000  0.89618000  1.0
  C  C91  1  0.40174000  0.14115000  0.39618000  1.0
  C  C92  1  0.82962000  0.22070000  0.08533000  1.0
  C  C93  1  0.67038000  0.77931000  0.58533000  1.0
  C  C94  1  0.17038000  0.77930000  0.91467000  1.0
  C  C95  1  0.32962000  0.22070000  0.41467000  1.0
  C  C96  1  0.93276000  0.94924000  0.09775000  1.0
  C  C97  1  0.56724000  0.05076000  0.59775000  1.0
  C  C98  1  0.06725000  0.05075000  0.90225000  1.0
  C  C99  1  0.43276000  0.94924000  0.40225000  1.0
  C  C100  1  0.86833000  0.84150000  0.06821000  1.0
  C  C101  1  0.63167000  0.15851000  0.56820000  1.0
  C  C102  1  0.13167000  0.15850000  0.93179000  1.0
  C  C103  1  0.36833000  0.84150000  0.43179000  1.0
  C  C104  1  0.94273000  0.75173000  0.09270000  1.0
  C  C105  1  0.55727000  0.24827000  0.59270000  1.0
  C  C106  1  0.05727000  0.24827000  0.90730000  1.0
  C  C107  1  0.44273000  0.75173000  0.40730000  1.0
  C  C108  1  0.79861000  0.50185000  0.98557000  1.0
  C  C109  1  0.70139000  0.49816000  0.48557000  1.0
  C  C110  1  0.20140000  0.49816000  0.01443000  1.0
  C  C111  1  0.29861000  0.50184000  0.51443000  1.0
  C  C112  1  0.87968000  0.59600000  0.00333000  1.0
  C  C113  1  0.62032000  0.40401000  0.50333000  1.0
  C  C114  1  0.12033000  0.40400000  0.99667000  1.0
  C  C115  1  0.37968000  0.59599000  0.49667000  1.0
  C  C116  1  0.86238000  0.64723000  0.07230000  1.0
  C  C117  1  0.63762000  0.35277000  0.57229000  1.0
  C  C118  1  0.13763000  0.35277000  0.92770000  1.0
  C  C119  1  0.36238000  0.64723000  0.42770000  1.0
  C  C120  1  0.75995000  0.60014000  0.12052000  1.0
  C  C121  1  0.74005000  0.39986000  0.62052000  1.0
  C  C122  1  0.24006000  0.39986000  0.87948000  1.0
  C  C123  1  0.25995000  0.60014000  0.37948000  1.0
  C  C124  1  0.68176000  0.50623000  0.09934000  1.0
  C  C125  1  0.81823000  0.49377000  0.59933000  1.0
  C  C126  1  0.31824000  0.49377000  0.90066000  1.0
  C  C127  1  0.18176000  0.50623000  0.40067000  1.0
  C  C128  1  0.45595000  0.18529000  0.81513000  1.0
  C  C129  1  0.04404000  0.81471000  0.31512000  1.0
  C  C130  1  0.54405000  0.81471000  0.18487000  1.0
  C  C131  1  0.95595000  0.18529000  0.68487000  1.0
  C  C132  1  0.38701000  0.09471000  0.77307000  1.0
  C  C133  1  0.11299000  0.90529000  0.27306000  1.0
  C  C134  1  0.61299000  0.90530000  0.22693000  1.0
  C  C135  1  0.88700000  0.09470000  0.72693000  1.0
  C  C136  1  0.30130000  0.10852000  0.71239000  1.0
  C  C137  1  0.19870000  0.89147000  0.21238000  1.0
  C  C138  1  0.69870000  0.89148000  0.28761000  1.0
  C  C139  1  0.80130000  0.10852000  0.78762000  1.0
  C  C140  1  0.40584000  0.99186000  0.79272000  1.0
  C  C141  1  0.09416000  0.00814000  0.29271000  1.0
  C  C142  1  0.59416000  0.00815000  0.20728000  1.0
  C  C143  1  0.90583000  0.99185000  0.70728000  1.0
  C  C144  1  0.23752000  0.02169000  0.67224000  1.0
  C  C145  1  0.26248000  0.97831000  0.17224000  1.0
  C  C146  1  0.76248000  0.97831000  0.32776000  1.0
  C  C147  1  0.73752000  0.02169000  0.82776000  1.0
  C  C148  1  0.25791000  0.91897000  0.69098000  1.0
  C  C149  1  0.24209000  0.08103000  0.19098000  1.0
  C  C150  1  0.74209000  0.08103000  0.30902000  1.0
  C  C151  1  0.75791000  0.91896000  0.80902000  1.0
  C  C152  1  0.34303000  0.90531000  0.75199000  1.0
  C  C153  1  0.15697000  0.09469000  0.25199000  1.0
  C  C154  1  0.65697000  0.09469000  0.24801000  1.0
  C  C155  1  0.84303000  0.90530000  0.74801000  1.0
  C  C156  1  0.19022000  0.82768000  0.64917000  1.0
  C  C157  1  0.30978000  0.17232000  0.14917000  1.0
  C  C158  1  0.80978000  0.17232000  0.35083000  1.0
  C  C159  1  0.69022000  0.82767000  0.85083000  1.0
  N  N160  1  0.71902000  0.20346000  0.04171000  1.0
  N  N161  1  0.78098000  0.79654000  0.54171000  1.0
  N  N162  1  0.28098000  0.79654000  0.95829000  1.0
  N  N163  1  0.21902000  0.20346000  0.45829000  1.0
  N  N164  1  0.70175000  0.45665000  0.03313000  1.0
  N  N165  1  0.79826000  0.54335000  0.53313000  1.0
  N  N166  1  0.29826000  0.54335000  0.96687000  1.0
  N  N167  1  0.20174000  0.45665000  0.46687000  1.0
  N  N168  1  0.49583000  0.18018000  0.88791000  1.0
  N  N169  1  0.00417000  0.81982000  0.38791000  1.0
  N  N170  1  0.50417000  0.81982000  0.11209000  1.0
  N  N171  1  0.99583000  0.18018000  0.61209000  1.0
  N  N172  1  0.55326000  0.27951000  0.90338000  1.0
  N  N173  1  0.94674000  0.72049000  0.40338000  1.0
  N  N174  1  0.44674000  0.72049000  0.09663000  1.0
  N  N175  1  0.05326000  0.27951000  0.59662000  1.0
  N  N176  1  0.54955000  0.34274000  0.84317000  1.0
  N  N177  1  0.95045000  0.65726000  0.34317000  1.0
  N  N178  1  0.45045000  0.65727000  0.15683000  1.0
  N  N179  1  0.04955000  0.34273000  0.65683000  1.0
  N  N180  1  0.48823000  0.28481000  0.78677000  1.0
  N  N181  1  0.01177000  0.71519000  0.28677000  1.0
  N  N182  1  0.51177000  0.71519000  0.21323000  1.0
  N  N183  1  0.98822000  0.28480000  0.71323000  1.0
  N  N184  1  0.08749000  0.83088000  0.60140000  1.0
  N  N185  1  0.41252000  0.16912000  0.10140000  1.0
  N  N186  1  0.91251000  0.16912000  0.39860000  1.0
  N  N187  1  0.58749000  0.83088000  0.89861000  1.0
  N  N188  1  0.05518000  0.73041000  0.57847000  1.0
  N  N189  1  0.44482000  0.26960000  0.07847000  1.0
  N  N190  1  0.94482000  0.26959000  0.42153000  1.0
  N  N191  1  0.55518000  0.73040000  0.92154000  1.0
  N  N192  1  0.13416000  0.66848000  0.60999000  1.0
  N  N193  1  0.36583000  0.33152000  0.10999000  1.0
  N  N194  1  0.86583000  0.33152000  0.39001000  1.0
  N  N195  1  0.63417000  0.66847000  0.89001000  1.0
  N  N196  1  0.22041000  0.72837000  0.65479000  1.0
  N  N197  1  0.27959000  0.27163000  0.15479000  1.0
  N  N198  1  0.77959000  0.27163000  0.34521000  1.0
  N  N199  1  0.72041000  0.72836000  0.84521000  1.0
