# generated using pymatgen
data_Zn4H44C55O16
_symmetry_space_group_name_H-M   'P 1'
_cell_length_a   19.51010000
_cell_length_b   19.52970000
_cell_length_c   19.53800000
_cell_angle_alpha   84.68870000
_cell_angle_beta   85.30950000
_cell_angle_gamma   89.94850000
_symmetry_Int_Tables_number   1
_chemical_formula_structural   Zn4H44C55O16
_chemical_formula_sum   'Zn4 H44 C55 O16'
_cell_volume   7387.53880533
_cell_formula_units_Z   1
loop_
 _symmetry_equiv_pos_site_id
 _symmetry_equiv_pos_as_xyz
  1  'x, y, z'
loop_
 _atom_site_type_symbol
 _atom_site_label
 _atom_site_symmetry_multiplicity
 _atom_site_fract_x
 _atom_site_fract_y
 _atom_site_fract_z
 _atom_site_occupancy
  Zn  Zn0  1  0.55339000  0.44189000  0.55539000  1.0
  Zn  Zn1  1  0.43316000  0.55165000  0.55734000  1.0
  Zn  Zn2  1  0.44386000  0.44328000  0.44427000  1.0
  Zn  Zn3  1  0.55512000  0.56492000  0.43464000  1.0
  H  H4  1  0.75351000  0.46480000  0.60122000  1.0
  H  H5  1  0.58351000  0.00198000  0.49729000  1.0
  H  H6  1  0.43020000  0.10655000  0.44511000  1.0
  H  H7  1  0.23197000  0.47512000  0.40376000  1.0
  H  H8  1  0.37439000  0.89159000  0.52814000  1.0
  H  H9  1  0.45920000  0.41355000  0.23830000  1.0
  H  H10  1  0.45278000  0.58629000  0.76563000  1.0
  H  H11  1  0.52116000  0.37656000  0.76876000  1.0
  H  H12  1  0.49130000  0.41887000  0.00378000  1.0
  H  H13  1  0.53782000  0.62407000  0.09076000  1.0
  H  H14  1  0.45675000  0.58096000  0.89283000  1.0
  H  H15  1  0.09823000  0.47419000  0.63095000  1.0
  H  H16  1  0.54302000  0.61827000  0.21833000  1.0
  H  H17  1  0.50573000  0.57679000  0.99028000  1.0
  H  H18  1  0.45489000  0.41778000  0.11150000  1.0
  H  H19  1  0.22674000  0.48512000  0.62243000  1.0
  H  H20  1  0.89953000  0.58090000  0.40446000  1.0
  H  H21  1  0.77192000  0.58165000  0.40335000  1.0
  H  H22  1  0.00104000  0.55321000  0.45820000  1.0
  H  H23  1  0.88068000  0.46360000  0.60308000  1.0
  H  H24  1  0.59390000  0.30863000  0.96401000  1.0
  H  H25  1  0.60802000  0.39907000  0.94732000  1.0
  H  H26  1  0.42201000  0.23302000  0.44944000  1.0
  H  H27  1  0.63504000  0.29219000  0.84242000  1.0
  H  H28  1  0.64754000  0.38185000  0.82381000  1.0
  H  H29  1  0.73639000  0.38080000  0.91120000  1.0
  H  H30  1  0.75959000  0.32377000  0.84775000  1.0
  H  H31  1  0.72402000  0.29083000  0.93072000  1.0
  H  H32  1  0.98523000  0.32493000  0.62224000  1.0
  H  H33  1  0.05768000  0.34647000  0.56219000  1.0
  H  H34  1  0.90719000  0.33962000  0.52687000  1.0
  H  H35  1  0.97737000  0.36540000  0.46734000  1.0
  H  H36  1  0.03124000  0.24798000  0.48782000  1.0
  H  H37  1  0.58900000  0.77360000  0.45178000  1.0
  H  H38  1  0.94775000  0.24152000  0.45908000  1.0
  H  H39  1  0.96057000  0.22134000  0.54744000  1.0
  H  H40  1  0.16220000  0.41593000  0.33920000  1.0
  H  H41  1  0.16228000  0.50755000  0.31847000  1.0
  H  H42  1  0.09084000  0.45664000  0.29978000  1.0
  H  H43  1  0.37712000  0.76365000  0.53117000  1.0
  H  H44  1  0.42613000  0.00123000  0.49419000  1.0
  H  H45  1  0.62342000  0.10794000  0.53761000  1.0
  H  H46  1  0.58826000  0.90083000  0.45165000  1.0
  H  H47  1  0.61389000  0.23491000  0.54215000  1.0
  C  C48  1  0.48544000  0.68460000  0.49291000  1.0
  C  C49  1  0.97446000  0.51680000  0.49723000  1.0
  C  C50  1  0.01550000  0.47222000  0.53192000  1.0
  C  C51  1  0.51049000  0.31706000  0.49946000  1.0
  C  C52  1  0.23598000  0.48156000  0.51216000  1.0
  C  C53  1  0.51685000  0.24137000  0.49697000  1.0
  C  C54  1  0.46531000  0.20471000  0.46951000  1.0
  C  C55  1  0.47002000  0.13408000  0.46771000  1.0
  C  C56  1  0.52657000  0.09764000  0.49301000  1.0
  C  C57  1  0.57893000  0.13530000  0.51864000  1.0
  C  C58  1  0.57392000  0.20602000  0.52135000  1.0
  C  C59  1  0.89977000  0.51988000  0.50262000  1.0
  C  C60  1  0.54194000  0.87114000  0.46979000  1.0
  C  C61  1  0.54271000  0.80014000  0.46953000  1.0
  C  C62  1  0.42293000  0.79434000  0.51382000  1.0
  C  C63  1  0.48659000  0.48610000  0.68284000  1.0
  C  C64  1  0.42181000  0.86562000  0.51219000  1.0
  C  C65  1  0.48141000  0.90545000  0.49133000  1.0
  C  C66  1  0.53191000  0.02322000  0.49325000  1.0
  C  C67  1  0.47804000  0.97984000  0.49209000  1.0
  C  C68  1  0.48345000  0.76094000  0.49221000  1.0
  C  C69  1  0.50238000  0.51516000  0.23596000  1.0
  C  C70  1  0.86749000  0.55513000  0.44764000  1.0
  C  C71  1  0.47723000  0.45898000  0.20518000  1.0
  C  C72  1  0.47529000  0.46161000  0.13425000  1.0
  C  C73  1  0.49798000  0.52078000  0.09143000  1.0
  C  C74  1  0.52121000  0.57751000  0.12311000  1.0
  C  C75  1  0.50430000  0.51087000  0.31227000  1.0
  C  C76  1  0.52419000  0.57464000  0.19418000  1.0
  C  C77  1  0.47223000  0.53649000  0.86550000  1.0
  C  C78  1  0.46929000  0.53976000  0.79465000  1.0
  C  C79  1  0.50739000  0.42147000  0.79594000  1.0
  C  C80  1  0.50947000  0.41805000  0.86724000  1.0
  C  C81  1  0.79641000  0.55577000  0.44668000  1.0
  C  C82  1  0.49235000  0.47604000  0.90378000  1.0
  C  C83  1  0.49837000  0.52508000  0.01665000  1.0
  C  C84  1  0.49346000  0.47116000  0.97837000  1.0
  C  C85  1  0.48735000  0.48218000  0.75923000  1.0
  C  C86  1  0.31248000  0.48745000  0.50658000  1.0
  C  C87  1  0.67917000  0.51733000  0.49903000  1.0
  C  C88  1  0.75490000  0.52168000  0.50143000  1.0
  C  C89  1  0.78618000  0.48958000  0.55810000  1.0
  C  C90  1  0.85718000  0.48880000  0.55902000  1.0
  C  C91  1  0.59554000  0.35190000  0.92364000  1.0
  C  C92  1  0.12951000  0.47408000  0.45705000  1.0
  C  C93  1  0.64895000  0.33942000  0.86491000  1.0
  C  C94  1  0.72114000  0.33333333  0.89002000  1.0
  C  C95  1  0.00184000  0.35396000  0.57279000  1.0
  C  C96  1  0.96246000  0.33149000  0.51441000  1.0
  C  C97  1  0.97630000  0.25654000  0.50160000  1.0
  C  C98  1  0.12983000  0.46220000  0.33620000  1.0
  C  C99  1  0.20140000  0.47644000  0.45272000  1.0
  C  C100  1  0.19914000  0.48128000  0.57670000  1.0
  C  C101  1  0.12788000  0.47585000  0.58103000  1.0
  C  C102  1  0.09157000  0.47409000  0.52209000  1.0
  O  O103  1  0.49635000  0.50144000  0.49725000  1.0
  O  O104  1  0.33922000  0.51495000  0.55501000  1.0
  O  O105  1  0.65293000  0.54821000  0.44670000  1.0
  O  O106  1  0.34509000  0.46464000  0.45396000  1.0
  O  O107  1  0.64585000  0.48185000  0.54941000  1.0
  O  O108  1  0.52615000  0.35637000  0.90239000  1.0
  O  O109  1  0.98831000  0.42526000  0.58426000  1.0
  O  O110  1  0.09243000  0.47013000  0.40100000  1.0
  O  O111  1  0.51586000  0.43734000  0.65235000  1.0
  O  O112  1  0.53454000  0.55949000  0.33791000  1.0
  O  O113  1  0.43592000  0.65061000  0.52741000  1.0
  O  O114  1  0.45855000  0.34568000  0.47301000  1.0
  O  O115  1  0.53674000  0.65932000  0.45918000  1.0
  O  O116  1  0.55703000  0.34757000  0.52804000  1.0
  O  O117  1  0.45724000  0.53826000  0.65356000  1.0
  O  O118  1  0.47525000  0.45814000  0.34623000  1.0
