# generated using pymatgen
data_CdH32Au2C28(N5O2)2
_symmetry_space_group_name_H-M   'P 1'
_cell_length_a   7.22560000
_cell_length_b   9.38183000
_cell_length_c   12.68940000
_cell_angle_alpha   77.01280000
_cell_angle_beta   86.27610000
_cell_angle_gamma   69.85160000
_symmetry_Int_Tables_number   1
_chemical_formula_structural   CdH32Au2C28(N5O2)2
_chemical_formula_sum   'Cd1 H32 Au2 C28 N10 O4'
_cell_volume   786.83439775
_cell_formula_units_Z   1
loop_
 _symmetry_equiv_pos_site_id
 _symmetry_equiv_pos_as_xyz
  1  'x, y, z'
loop_
 _atom_site_type_symbol
 _atom_site_label
 _atom_site_symmetry_multiplicity
 _atom_site_fract_x
 _atom_site_fract_y
 _atom_site_fract_z
 _atom_site_occupancy
  Cd  Cd0  1  0.00000000  0.00000000  0.00000000  1.0
  H  H1  1  0.34636000  0.09456000  0.88299000  1.0
  H  H2  1  0.65363000  0.90544000  0.11701000  1.0
  H  H3  1  0.45108000  0.20622000  0.70087000  1.0
  H  H4  1  0.54892000  0.79378000  0.29913000  1.0
  H  H5  1  0.92802000  0.18123000  0.56792000  1.0
  H  H6  1  0.07199000  0.81876000  0.43208000  1.0
  H  H7  1  0.84704000  0.07127000  0.75531000  1.0
  H  H8  1  0.15295000  0.92873000  0.24469000  1.0
  H  H9  1  0.31187000  0.09289000  0.34362000  1.0
  H  H10  1  0.68813000  0.90711000  0.65638000  1.0
  H  H11  1  0.31386000  0.19454000  0.20623000  1.0
  H  H12  1  0.68616000  0.80546000  0.79377000  1.0
  H  H13  1  0.08655000  0.20889000  0.27173000  1.0
  H  H14  1  0.91346000  0.79111000  0.72826000  1.0
  H  H15  1  0.99064000  0.49297000  0.21664000  1.0
  H  H16  1  0.00937000  0.50702000  0.78336000  1.0
  H  H17  1  0.22346000  0.49348000  0.16365000  1.0
  H  H18  1  0.77654000  0.50651000  0.83635000  1.0
  H  H19  1  0.11731000  0.59732000  0.26639000  1.0
  H  H20  1  0.88268000  0.40268000  0.73360000  1.0
  H  H21  1  0.33368000  0.55824000  0.40789000  1.0
  H  H22  1  0.66632000  0.44176000  0.59212000  1.0
  H  H23  1  0.45908000  0.55721000  0.28189000  1.0
  H  H24  1  0.54092000  0.44279000  0.71811000  1.0
  H  H25  1  0.59639000  0.47197000  0.40484000  1.0
  H  H26  1  0.40360000  0.52804000  0.59515000  1.0
  H  H27  1  0.61241000  0.29858000  0.21766000  1.0
  H  H28  1  0.38761000  0.70142000  0.78234000  1.0
  H  H29  1  0.62212000  0.12141000  0.30918000  1.0
  H  H30  1  0.37789000  0.87859000  0.69082000  1.0
  H  H31  1  0.75488000  0.23664000  0.33903000  1.0
  H  H32  1  0.24513000  0.76336000  0.66097000  1.0
  Au  Au33  1  0.67600000  0.55213000  0.05429000  1.0
  Au  Au34  1  0.32399000  0.44787000  0.94570000  1.0
  C  C35  1  0.46222000  0.74978000  0.05621000  1.0
  C  C36  1  0.53776000  0.25022000  0.94379000  1.0
  C  C37  1  0.88552000  0.35225000  0.04968000  1.0
  C  C38  1  0.11448000  0.64774000  0.95032000  1.0
  C  C39  1  0.25823000  0.11650000  0.81090000  1.0
  C  C40  1  0.74176000  0.88350000  0.18910000  1.0
  C  C41  1  0.31610000  0.17852000  0.70961000  1.0
  C  C42  1  0.68389000  0.82148000  0.29040000  1.0
  C  C43  1  0.19779000  0.20411000  0.61901000  1.0
  C  C44  1  0.80221000  0.79589000  0.38099000  1.0
  C  C45  1  0.02585000  0.16385000  0.63485000  1.0
  C  C46  1  0.97415000  0.83614000  0.36516000  1.0
  C  C47  1  0.97976000  0.10249000  0.73924000  1.0
  C  C48  1  0.02024000  0.89751000  0.26076000  1.0
  C  C49  1  0.25432000  0.26528000  0.51110000  1.0
  C  C50  1  0.74568000  0.73471000  0.48891000  1.0
  C  C51  1  0.23761000  0.34572000  0.32099000  1.0
  C  C52  1  0.76239000  0.65428000  0.67901000  1.0
  C  C53  1  0.23912000  0.20030000  0.28404000  1.0
  C  C54  1  0.76089000  0.79970000  0.71596000  1.0
  C  C55  1  0.13599000  0.49186000  0.23766000  1.0
  C  C56  1  0.86401000  0.50814000  0.76234000  1.0
  C  C57  1  0.44309000  0.33260000  0.36118000  1.0
  C  C58  1  0.55692000  0.66740000  0.63882000  1.0
  C  C59  1  0.45759000  0.49064000  0.36485000  1.0
  C  C60  1  0.54241000  0.50936000  0.63514000  1.0
  C  C61  1  0.61862000  0.24041000  0.30338000  1.0
  C  C62  1  0.38139000  0.75959000  0.69662000  1.0
  N  N63  1  0.33288000  0.86716000  0.05518000  1.0
  N  N64  1  0.66712000  0.13283000  0.94482000  1.0
  N  N65  1  0.00295000  0.23165000  0.04406000  1.0
  N  N66  1  0.99704000  0.76835000  0.95594000  1.0
  N  N67  1  0.09293000  0.07982000  0.82570000  1.0
  N  N68  1  0.90706000  0.92019000  0.17430000  1.0
  N  N69  1  0.12632000  0.34398000  0.42640000  1.0
  N  N70  1  0.87367000  0.65602000  0.57360000  1.0
  N  N71  1  0.44154000  0.24550000  0.47724000  1.0
  N  N72  1  0.55848000  0.75450000  0.52277000  1.0
  O  O73  1  0.93839000  0.39162000  0.42982000  1.0
  O  O74  1  0.06162000  0.60839000  0.57018000  1.0
  O  O75  1  0.60004000  0.17218000  0.53393000  1.0
  O  O76  1  0.39996000  0.82781000  0.46607000  1.0
