# generated using pymatgen
data_CdH10C14S2(NO)4
_symmetry_space_group_name_H-M   'P 1'
_cell_length_a   7.64478000
_cell_length_b   9.70721000
_cell_length_c   12.43553213
_cell_angle_alpha   112.97217548
_cell_angle_beta   92.49991803
_cell_angle_gamma   90.00130000
_symmetry_Int_Tables_number   1
_chemical_formula_structural   CdH10C14S2(NO)4
_chemical_formula_sum   'Cd2 H20 C28 S4 N8 O8'
_cell_volume   848.69418535
_cell_formula_units_Z   2
loop_
 _symmetry_equiv_pos_site_id
 _symmetry_equiv_pos_as_xyz
  1  'x, y, z'
loop_
 _atom_site_type_symbol
 _atom_site_label
 _atom_site_symmetry_multiplicity
 _atom_site_fract_x
 _atom_site_fract_y
 _atom_site_fract_z
 _atom_site_occupancy
  Cd  Cd0  1  0.00000000  1.00000000  0.50000000  1.0
  Cd  Cd1  1  0.50000000  0.49999000  0.49999000  1.0
  H  H2  1  0.57147000  0.90437000  0.93045000  1.0
  H  H3  1  0.92907000  0.97389000  0.06982000  1.0
  H  H4  1  0.42860000  0.09560000  0.06957000  1.0
  H  H5  1  0.07096000  0.02615000  0.93018000  1.0
  H  H6  1  0.78552000  0.95742000  0.71032000  1.0
  H  H7  1  0.71500000  0.24710000  0.29005000  1.0
  H  H8  1  0.21450000  0.04257000  0.28969000  1.0
  H  H9  1  0.28500000  0.75292000  0.70994000  1.0
  H  H10  1  0.57910000  0.37855000  0.93697000  1.0
  H  H11  1  0.92121000  0.44134000  0.06318000  1.0
  H  H12  1  0.42087000  0.62141000  0.06302000  1.0
  H  H13  1  0.07878000  0.55872000  0.93684000  1.0
  H  H14  1  0.73027000  0.49997000  0.81805000  1.0
  H  H15  1  0.76995000  0.68170000  0.18199000  1.0
  H  H16  1  0.26968000  0.49999000  0.18194000  1.0
  H  H17  1  0.23002000  0.31835000  0.81802000  1.0
  H  H18  1  0.89950000  0.33591000  0.64759000  1.0
  H  H19  1  0.60071000  0.68821000  0.35245000  1.0
  H  H20  1  0.10048000  0.66407000  0.35241000  1.0
  H  H21  1  0.39925000  0.31181000  0.64755000  1.0
  C  C22  1  0.77024000  0.07759000  0.73654000  1.0
  C  C23  1  0.72996000  0.34095000  0.26366000  1.0
  C  C24  1  0.22977000  0.92238000  0.26346000  1.0
  C  C25  1  0.27004000  0.65909000  0.73634000  1.0
  C  C26  1  0.67170000  0.15994000  0.83211000  1.0
  C  C27  1  0.82839000  0.32765000  0.16803000  1.0
  C  C28  1  0.32832000  0.84003000  0.16790000  1.0
  C  C29  1  0.17161000  0.67238000  0.83196000  1.0
  C  C30  1  0.65592000  0.31403000  0.86268000  1.0
  C  C31  1  0.84419000  0.45111000  0.13738000  1.0
  C  C32  1  0.34407000  0.68593000  0.13732000  1.0
  C  C33  1  0.15580000  0.54893000  0.86262000  1.0
  C  C34  1  0.73881000  0.38024000  0.79728000  1.0
  C  C35  1  0.76134000  0.58273000  0.20274000  1.0
  C  C36  1  0.26116000  0.61973000  0.20272000  1.0
  C  C37  1  0.23864000  0.41730000  0.79725000  1.0
  C  C38  1  0.83347000  0.29004000  0.70265000  1.0
  C  C39  1  0.66660000  0.58721000  0.29737000  1.0
  C  C40  1  0.16651000  0.70994000  0.29735000  1.0
  C  C41  1  0.33333333  0.41281000  0.70263000  1.0
  C  C42  1  0.58848000  0.08826000  0.90307000  1.0
  C  C43  1  0.91169000  0.18502000  0.09719000  1.0
  C  C44  1  0.41157000  0.91171000  0.09695000  1.0
  C  C45  1  0.08833000  0.81501000  0.90280000  1.0
  C  C46  1  0.88116000  0.70615000  0.56630000  1.0
  C  C47  1  0.61877000  0.13951000  0.43354000  1.0
  C  C48  1  0.11882000  0.29384000  0.43370000  1.0
  C  C49  1  0.38121000  0.86048000  0.56644000  1.0
  S  S50  1  0.80539000  0.60645000  0.63344000  1.0
  S  S51  1  0.69459000  0.97266000  0.36645000  1.0
  S  S52  1  0.19460000  0.39354000  0.36655000  1.0
  S  S53  1  0.30543000  0.02733000  0.63354000  1.0
  N  N54  1  0.84908000  0.14182000  0.67325000  1.0
  N  N55  1  0.65099000  0.46845000  0.32685000  1.0
  N  N56  1  0.15091000  0.85816000  0.32675000  1.0
  N  N57  1  0.34899000  0.53156000  0.67315000  1.0
  N  N58  1  0.93725000  0.77845000  0.51737000  1.0
  N  N59  1  0.56275000  0.26076000  0.48249000  1.0
  N  N60  1  0.06273000  0.22155000  0.48263000  1.0
  N  N61  1  0.43723000  0.73921000  0.51749000  1.0
  O  O62  1  0.62377000  0.94572000  0.87318000  1.0
  O  O63  1  0.87687000  0.07247000  0.12728000  1.0
  O  O64  1  0.37632000  0.05426000  0.12686000  1.0
  O  O65  1  0.12316000  0.92756000  0.87272000  1.0
  O  O66  1  0.49742000  0.16276000  0.98657000  1.0
  O  O67  1  0.00237000  0.17598000  0.01352000  1.0
  O  O68  1  0.50259000  0.83721000  0.01344000  1.0
  O  O69  1  0.99764000  0.82406000  0.98648000  1.0
