# generated using pymatgen
data_Cu2H7C9Br2N3
_symmetry_space_group_name_H-M   'P 1'
_cell_length_a   8.31783000
_cell_length_b   8.70504000
_cell_length_c   8.54316000
_cell_angle_alpha   73.15610000
_cell_angle_beta   73.26450000
_cell_angle_gamma   74.24460000
_symmetry_Int_Tables_number   1
_chemical_formula_structural   Cu2H7C9Br2N3
_chemical_formula_sum   'Cu4 H14 C18 Br4 N6'
_cell_volume   554.90279726
_cell_formula_units_Z   2
loop_
 _symmetry_equiv_pos_site_id
 _symmetry_equiv_pos_as_xyz
  1  'x, y, z'
loop_
 _atom_site_type_symbol
 _atom_site_label
 _atom_site_symmetry_multiplicity
 _atom_site_fract_x
 _atom_site_fract_y
 _atom_site_fract_z
 _atom_site_occupancy
  Cu  Cu0  1  0.78131000  0.35892000  0.28489000  1.0
  Cu  Cu1  1  0.21868000  0.64110000  0.71513000  1.0
  Cu  Cu2  1  0.41737000  0.61671000  0.08617000  1.0
  Cu  Cu3  1  0.58262000  0.38331000  0.91383000  1.0
  H  H4  1  0.09517000  0.53511000  0.09260000  1.0
  H  H5  1  0.90482000  0.46488000  0.90741000  1.0
  H  H6  1  0.20986000  0.23747000  0.64010000  1.0
  H  H7  1  0.79015000  0.76251000  0.35990000  1.0
  H  H8  1  0.40811000  0.40979000  0.43087000  1.0
  H  H9  1  0.59190000  0.59020000  0.56912000  1.0
  H  H10  1  0.55034000  0.13012000  0.55096000  1.0
  H  H11  1  0.44966000  0.86989000  0.44904000  1.0
  H  H12  1  0.58067000  0.92508000  0.81899000  1.0
  H  H13  1  0.41933000  0.07493000  0.18101000  1.0
  H  H14  1  0.84025000  0.89022000  0.93144000  1.0
  H  H15  1  0.15974000  0.10977000  0.06856000  1.0
  H  H16  1  0.05995000  0.05611000  0.76720000  1.0
  H  H17  1  0.94005000  0.94386000  0.23280000  1.0
  C  C18  1  0.12188000  0.46443000  0.21391000  1.0
  C  C19  1  0.87811000  0.53556000  0.78609000  1.0
  C  C20  1  0.04219000  0.28593000  0.46873000  1.0
  C  C21  1  0.95781000  0.71408000  0.53127000  1.0
  C  C22  1  0.18430000  0.29908000  0.51661000  1.0
  C  C23  1  0.81571000  0.70091000  0.48339000  1.0
  C  C24  1  0.29386000  0.39557000  0.40268000  1.0
  C  C25  1  0.70614000  0.60443000  0.59732000  1.0
  C  C26  1  0.66075000  0.11214000  0.60357000  1.0
  C  C27  1  0.33926000  0.88786000  0.39642000  1.0
  C  C28  1  0.67892000  0.99721000  0.75286000  1.0
  C  C29  1  0.32109000  0.00279000  0.24713000  1.0
  C  C30  1  0.82253000  0.97875000  0.81491000  1.0
  C  C31  1  0.17746000  0.02126000  0.18510000  1.0
  C  C32  1  0.94395000  0.07353000  0.72390000  1.0
  C  C33  1  0.05605000  0.92646000  0.27610000  1.0
  C  C34  1  0.91765000  0.18607000  0.57465000  1.0
  C  C35  1  0.08234000  0.81393000  0.42535000  1.0
  Br  Br36  1  0.69391000  0.20019000  0.14211000  1.0
  Br  Br37  1  0.30610000  0.79983000  0.85788000  1.0
  Br  Br38  1  0.66081000  0.63975000  0.16343000  1.0
  Br  Br39  1  0.33919000  0.36026000  0.83658000  1.0
  N  N40  1  0.26291000  0.47931000  0.25007000  1.0
  N  N41  1  0.73709000  0.52068000  0.74993000  1.0
  N  N42  1  0.01308000  0.36956000  0.31405000  1.0
  N  N43  1  0.98692000  0.63044000  0.68595000  1.0
  N  N44  1  0.77466000  0.20772000  0.51656000  1.0
  N  N45  1  0.22533000  0.79230000  0.48344000  1.0
