# generated using pymatgen
data_HgH6C10Br4(NCl)2
_symmetry_space_group_name_H-M   'P 1'
_cell_length_a   3.91474000
_cell_length_b   14.03620000
_cell_length_c   14.03630000
_cell_angle_alpha   90.00000000
_cell_angle_beta   89.99970000
_cell_angle_gamma   89.99890000
_symmetry_Int_Tables_number   1
_chemical_formula_structural   HgH6C10Br4(NCl)2
_chemical_formula_sum   'Hg2 H12 C20 Br8 N4 Cl4'
_cell_volume   771.26764515
_cell_formula_units_Z   2
loop_
 _symmetry_equiv_pos_site_id
 _symmetry_equiv_pos_as_xyz
  1  'x, y, z'
loop_
 _atom_site_type_symbol
 _atom_site_label
 _atom_site_symmetry_multiplicity
 _atom_site_fract_x
 _atom_site_fract_y
 _atom_site_fract_z
 _atom_site_occupancy
  Hg  Hg0  1  0.50003000  0.50000000  1.00000000  1.0
  Hg  Hg1  1  0.49999000  0.00000000  0.50000000  1.0
  H  H2  1  0.26967000  0.52988000  0.78166000  1.0
  H  H3  1  0.26971000  0.47013000  0.21835000  1.0
  H  H4  1  0.73030000  0.21835000  0.52987000  1.0
  H  H5  1  0.73031000  0.78164000  0.47012000  1.0
  H  H6  1  0.26970000  0.02988000  0.71835000  1.0
  H  H7  1  0.26968000  0.97013000  0.28165000  1.0
  H  H8  1  0.73032000  0.71836000  0.97012000  1.0
  H  H9  1  0.73030000  0.28164000  0.02988000  1.0
  H  H10  1  0.49998000  0.81614000  0.68386000  1.0
  H  H11  1  0.49999000  0.18386000  0.31614000  1.0
  H  H12  1  0.50004000  0.31614000  0.81614000  1.0
  H  H13  1  0.49998000  0.68386000  0.18386000  1.0
  C  C14  1  0.37326000  0.60122000  0.79229000  1.0
  C  C15  1  0.37325000  0.39878000  0.20771000  1.0
  C  C16  1  0.62675000  0.20772000  0.60122000  1.0
  C  C17  1  0.62674000  0.79228000  0.39878000  1.0
  C  C18  1  0.37325000  0.10122000  0.70771000  1.0
  C  C19  1  0.37326000  0.89878000  0.29228000  1.0
  C  C20  1  0.62676000  0.70772000  0.89878000  1.0
  C  C21  1  0.62676000  0.29228000  0.10122000  1.0
  C  C22  1  0.37259000  0.67020000  0.72074000  1.0
  C  C23  1  0.37260000  0.32980000  0.27927000  1.0
  C  C24  1  0.62742000  0.27927000  0.67019000  1.0
  C  C25  1  0.62738000  0.72073000  0.32981000  1.0
  C  C26  1  0.37261000  0.17019000  0.77927000  1.0
  C  C27  1  0.37257000  0.82980000  0.22073000  1.0
  C  C28  1  0.62741000  0.77928000  0.82981000  1.0
  C  C29  1  0.62739000  0.22073000  0.17019000  1.0
  C  C30  1  0.50000000  0.76131000  0.73870000  1.0
  C  C31  1  0.49999000  0.23869000  0.26131000  1.0
  C  C32  1  0.50002000  0.26131000  0.76131000  1.0
  C  C33  1  0.49998000  0.73869000  0.23869000  1.0
  Br  Br34  1  0.19866000  0.63826000  0.59840000  1.0
  Br  Br35  1  0.19869000  0.36173000  0.40160000  1.0
  Br  Br36  1  0.80132000  0.40161000  0.63826000  1.0
  Br  Br37  1  0.80130000  0.59839000  0.36174000  1.0
  Br  Br38  1  0.19872000  0.13826000  0.90161000  1.0
  Br  Br39  1  0.19868000  0.86174000  0.09840000  1.0
  Br  Br40  1  0.80129000  0.90161000  0.86174000  1.0
  Br  Br41  1  0.80130000  0.09839000  0.13826000  1.0
  N  N42  1  0.50001000  0.62131000  0.87870000  1.0
  N  N43  1  0.50001000  0.37869000  0.12130000  1.0
  N  N44  1  0.50000000  0.12130000  0.62130000  1.0
  N  N45  1  0.49998000  0.87870000  0.37870000  1.0
  Cl  Cl46  1  0.00003000  0.40538000  0.90538000  1.0
  Cl  Cl47  1  0.00002000  0.59462000  0.09461000  1.0
  Cl  Cl48  1  1.00000000  0.09461000  0.40538000  1.0
  Cl  Cl49  1  0.99999000  0.90538000  0.59461000  1.0
