# generated using pymatgen
data_ZnH20C27(NO2)6
_symmetry_space_group_name_H-M   'P 1'
_cell_length_a   5.29315000
_cell_length_b   11.04570000
_cell_length_c   12.52660000
_cell_angle_alpha   112.64900000
_cell_angle_beta   102.16300000
_cell_angle_gamma   90.01870000
_symmetry_Int_Tables_number   1
_chemical_formula_structural   ZnH20C27(NO2)6
_chemical_formula_sum   'Zn1 H20 C27 N6 O12'
_cell_volume   658.03454378
_cell_formula_units_Z   1
loop_
 _symmetry_equiv_pos_site_id
 _symmetry_equiv_pos_as_xyz
  1  'x, y, z'
loop_
 _atom_site_type_symbol
 _atom_site_label
 _atom_site_symmetry_multiplicity
 _atom_site_fract_x
 _atom_site_fract_y
 _atom_site_fract_z
 _atom_site_occupancy
  Zn  Zn0  1  0.86815000  0.49997000  0.99997000  1.0
  H  H1  1  0.08277000  0.74431000  0.91240000  1.0
  H  H2  1  0.17014000  0.25556000  0.08760000  1.0
  H  H3  1  0.36694000  0.56172000  0.87466000  1.0
  H  H4  1  0.49205000  0.43814000  0.12514000  1.0
  H  H5  1  0.92867000  0.77397000  0.17703000  1.0
  H  H6  1  0.75243000  0.22570000  0.82296000  1.0
  H  H7  1  0.67238000  0.96868000  0.22654000  1.0
  H  H8  1  0.44663000  0.03096000  0.77357000  1.0
  H  H9  1  0.33625000  0.08180000  0.14251000  1.0
  H  H10  1  0.19318000  0.91798000  0.85742000  1.0
  H  H11  1  0.10397000  0.99460000  0.17340000  1.0
  H  H12  1  0.93056000  0.00559000  0.82698000  1.0
  H  H13  1  0.88276000  0.08573000  0.03615000  1.0
  H  H14  1  0.84665000  0.91423000  0.96421000  1.0
  H  H15  1  0.65018000  0.42620000  0.54656000  1.0
  H  H16  1  0.10311000  0.57400000  0.45342000  1.0
  H  H17  1  0.13670000  0.16762000  0.33952000  1.0
  H  H18  1  0.79664000  0.83246000  0.66047000  1.0
  H  H19  1  0.27453000  0.26618000  0.71689000  1.0
  H  H20  1  0.55734000  0.73415000  0.28305000  1.0
  C  C21  1  0.26803000  0.75669000  0.97484000  1.0
  C  C22  1  0.29339000  0.24307000  0.02523000  1.0
  C  C23  1  0.42460000  0.65280000  0.95260000  1.0
  C  C24  1  0.47211000  0.34699000  0.04734000  1.0
  C  C25  1  0.74031000  0.77230000  0.12089000  1.0
  C  C26  1  0.61995000  0.22738000  0.87908000  1.0
  C  C27  1  0.59607000  0.88025000  0.14733000  1.0
  C  C28  1  0.44920000  0.11942000  0.85271000  1.0
  C  C29  1  0.35327000  0.87488000  0.07329000  1.0
  C  C30  1  0.28029000  0.12488000  0.92680000  1.0
  C  C31  1  0.19850000  0.99303000  0.10249000  1.0
  C  C32  1  0.09603000  0.00688000  0.89768000  1.0
  C  C33  1  0.99067000  0.99996000  0.00015000  1.0
  C  C34  1  0.86460000  0.42317000  0.75812000  1.0
  C  C35  1  0.10614000  0.57685000  0.24185000  1.0
  C  C36  1  0.95697000  0.35601000  0.64462000  1.0
  C  C37  1  0.31189000  0.64426000  0.35534000  1.0
  C  C38  1  0.81517000  0.36723000  0.54170000  1.0
  C  C39  1  0.27299000  0.63295000  0.45826000  1.0
  C  C40  1  0.88186000  0.29916000  0.43379000  1.0
  C  C41  1  0.44746000  0.70102000  0.56617000  1.0
  C  C42  1  0.08792000  0.22076000  0.42438000  1.0
  C  C43  1  0.66303000  0.77942000  0.57560000  1.0
  C  C44  1  0.22519000  0.21094000  0.52784000  1.0
  C  C45  1  0.69682000  0.78932000  0.47214000  1.0
  C  C46  1  0.16489000  0.27732000  0.63802000  1.0
  C  C47  1  0.52646000  0.72297000  0.36194000  1.0
  N  N48  1  0.65700000  0.65952000  0.02441000  1.0
  N  N49  1  0.63289000  0.34020000  0.97551000  1.0
  N  N50  1  0.71708000  0.29983000  0.32373000  1.0
  N  N51  1  0.39272000  0.70028000  0.67622000  1.0
  N  N52  1  0.43687000  0.12399000  0.51733000  1.0
  N  N53  1  0.91906000  0.87623000  0.48256000  1.0
  O  O54  1  0.01394000  0.42209000  0.85426000  1.0
  O  O55  1  0.15929000  0.57795000  0.14567000  1.0
  O  O56  1  0.65204000  0.47156000  0.75144000  1.0
  O  O57  1  0.90048000  0.52827000  0.24861000  1.0
  O  O58  1  0.48295000  0.06702000  0.41744000  1.0
  O  O59  1  0.06493000  0.93325000  0.58240000  1.0
  O  O60  1  0.55904000  0.11242000  0.60823000  1.0
  O  O61  1  0.95042000  0.88767000  0.39156000  1.0
  O  O62  1  0.77990000  0.23498000  0.22922000  1.0
  O  O63  1  0.55041000  0.76484000  0.77064000  1.0
  O  O64  1  0.52058000  0.36093000  0.33143000  1.0
  O  O65  1  0.18816000  0.63949000  0.66868000  1.0
