# generated using pymatgen
data_NiH16C12(N2O3)2
_symmetry_space_group_name_H-M   'P 1'
_cell_length_a   7.58782000
_cell_length_b   8.58309000
_cell_length_c   11.93430000
_cell_angle_alpha   100.55900000
_cell_angle_beta   89.99950000
_cell_angle_gamma   89.99950000
_symmetry_Int_Tables_number   1
_chemical_formula_structural   NiH16C12(N2O3)2
_chemical_formula_sum   'Ni2 H32 C24 N8 O12'
_cell_volume   764.08317329
_cell_formula_units_Z   2
loop_
 _symmetry_equiv_pos_site_id
 _symmetry_equiv_pos_as_xyz
  1  'x, y, z'
loop_
 _atom_site_type_symbol
 _atom_site_label
 _atom_site_symmetry_multiplicity
 _atom_site_fract_x
 _atom_site_fract_y
 _atom_site_fract_z
 _atom_site_occupancy
  Ni  Ni0  1  0.49999000  0.00000000  0.50000000  1.0
  Ni  Ni1  1  0.00000000  0.50000000  0.00000000  1.0
  H  H2  1  0.75738000  0.70350000  0.43012000  1.0
  H  H3  1  0.25738000  0.79650000  0.06988000  1.0
  H  H4  1  0.24262000  0.29650000  0.56988000  1.0
  H  H5  1  0.74263000  0.20351000  0.93012000  1.0
  H  H6  1  0.40610000  0.83854000  0.70702000  1.0
  H  H7  1  0.90611000  0.66146000  0.79298000  1.0
  H  H8  1  0.59389000  0.16145000  0.29297000  1.0
  H  H9  1  0.09390000  0.33854000  0.20702000  1.0
  H  H10  1  0.85866000  0.41233000  0.47755000  1.0
  H  H11  1  0.35866000  0.08767000  0.02245000  1.0
  H  H12  1  0.14134000  0.58767000  0.52244000  1.0
  H  H13  1  0.64134000  0.91233000  0.97755000  1.0
  H  H14  1  0.69568000  0.32879000  0.55511000  1.0
  H  H15  1  0.19568000  0.17120000  0.94489000  1.0
  H  H16  1  0.30433000  0.67120000  0.44488000  1.0
  H  H17  1  0.80433000  0.82880000  0.05511000  1.0
  H  H18  1  0.88115000  0.42599000  0.62725000  1.0
  H  H19  1  0.38116000  0.07400000  0.87275000  1.0
  H  H20  1  0.11886000  0.57400000  0.37274000  1.0
  H  H21  1  0.61885000  0.92600000  0.12725000  1.0
  H  H22  1  0.55140000  0.25366000  0.74586000  1.0
  H  H23  1  0.05141000  0.24634000  0.75414000  1.0
  H  H24  1  0.44859000  0.74634000  0.25414000  1.0
  H  H25  1  0.94858000  0.75367000  0.24586000  1.0
  H  H26  1  0.69294000  0.11544000  0.72826000  1.0
  H  H27  1  0.19294000  0.38457000  0.77175000  1.0
  H  H28  1  0.30705000  0.88456000  0.27174000  1.0
  H  H29  1  0.80705000  0.61544000  0.22826000  1.0
  H  H30  1  0.52788000  0.56653000  0.72166000  1.0
  H  H31  1  0.02789000  0.93347000  0.77834000  1.0
  H  H32  1  0.47212000  0.43346000  0.27833000  1.0
  H  H33  1  0.97212000  0.06653000  0.22166000  1.0
  C  C34  1  0.12810000  0.99595000  0.52957000  1.0
  C  C35  1  0.62811000  0.50405000  0.97043000  1.0
  C  C36  1  0.87189000  0.00405000  0.47043000  1.0
  C  C37  1  0.37189000  0.49595000  0.02957000  1.0
  C  C38  1  0.04686000  0.98775000  0.41625000  1.0
  C  C39  1  0.54687000  0.51225000  0.08376000  1.0
  C  C40  1  0.95312000  0.01225000  0.58375000  1.0
  C  C41  1  0.45313000  0.48775000  0.91625000  1.0
  C  C42  1  0.68534000  0.69893000  0.50818000  1.0
  C  C43  1  0.18534000  0.80107000  0.99183000  1.0
  C  C44  1  0.31466000  0.30106000  0.49182000  1.0
  C  C45  1  0.81466000  0.19894000  0.00818000  1.0
  C  C46  1  0.68759000  0.58178000  0.57307000  1.0
  C  C47  1  0.18759000  0.91822000  0.92693000  1.0
  C  C48  1  0.31241000  0.41822000  0.42692000  1.0
  C  C49  1  0.81242000  0.08179000  0.07307000  1.0
  C  C50  1  0.50211000  0.77264000  0.65018000  1.0
  C  C51  1  0.00212000  0.72736000  0.84982000  1.0
  C  C52  1  0.49789000  0.22735000  0.34981000  1.0
  C  C53  1  0.99789000  0.27264000  0.15018000  1.0
  C  C54  1  0.78587000  0.42969000  0.55825000  1.0
  C  C55  1  0.28587000  0.07031000  0.94176000  1.0
  C  C56  1  0.21413000  0.57031000  0.44175000  1.0
  C  C57  1  0.71413000  0.92970000  0.05825000  1.0
  N  N58  1  0.56876000  0.81692000  0.55717000  1.0
  N  N59  1  0.06877000  0.68308000  0.94284000  1.0
  N  N60  1  0.43123000  0.18307000  0.44283000  1.0
  N  N61  1  0.93124000  0.31692000  0.05717000  1.0
  N  N62  1  0.57172000  0.63179000  0.66207000  1.0
  N  N63  1  0.07173000  0.86821000  0.83793000  1.0
  N  N64  1  0.42828000  0.36821000  0.33793000  1.0
  N  N65  1  0.92828000  0.13179000  0.16207000  1.0
  O  O66  1  0.27972000  0.99191000  0.57358000  1.0
  O  O67  1  0.77973000  0.50809000  0.92642000  1.0
  O  O68  1  0.72027000  0.00808000  0.42641000  1.0
  O  O69  1  0.22028000  0.49191000  0.07359000  1.0
  O  O70  1  0.58544000  0.15587000  0.77048000  1.0
  O  O71  1  0.08544000  0.34414000  0.72952000  1.0
  O  O72  1  0.41456000  0.84414000  0.22952000  1.0
  O  O73  1  0.91456000  0.65587000  0.27048000  1.0
  O  O74  1  0.09880000  0.97184000  0.31483000  1.0
  O  O75  1  0.59880000  0.52816000  0.18516000  1.0
  O  O76  1  0.90119000  0.02816000  0.68516000  1.0
  O  O77  1  0.40120000  0.47184000  0.81484000  1.0
