# generated using pymatgen
data_CdH16C26S2(N7O3)2
_symmetry_space_group_name_H-M   'P 1'
_cell_length_a   7.46076000
_cell_length_b   8.67500000
_cell_length_c   13.05740000
_cell_angle_alpha   104.22000000
_cell_angle_beta   101.64800000
_cell_angle_gamma   102.43400000
_symmetry_Int_Tables_number   1
_chemical_formula_structural   CdH16C26S2(N7O3)2
_chemical_formula_sum   'Cd1 H16 C26 S2 N14 O6'
_cell_volume   770.47067713
_cell_formula_units_Z   1
loop_
 _symmetry_equiv_pos_site_id
 _symmetry_equiv_pos_as_xyz
  1  'x, y, z'
loop_
 _atom_site_type_symbol
 _atom_site_label
 _atom_site_symmetry_multiplicity
 _atom_site_fract_x
 _atom_site_fract_y
 _atom_site_fract_z
 _atom_site_occupancy
  Cd  Cd0  1  0.00000000  0.00000000  0.50000000  1.0
  H  H1  1  0.50187000  0.46787000  0.30364000  1.0
  H  H2  1  0.49813000  0.53213000  0.69636000  1.0
  H  H3  1  0.60678000  0.23453000  0.34985000  1.0
  H  H4  1  0.39322000  0.76547000  0.65015000  1.0
  H  H5  1  0.42188000  0.06897000  0.44622000  1.0
  H  H6  1  0.57812000  0.93103000  0.55378000  1.0
  H  H7  1  0.03787000  0.35102000  0.44973000  1.0
  H  H8  1  0.96213000  0.64898000  0.55027000  1.0
  H  H9  1  0.13556000  0.88793000  0.98911000  1.0
  H  H10  1  0.86444000  0.11208000  0.01089000  1.0
  H  H11  1  0.16885000  0.83698000  0.79930000  1.0
  H  H12  1  0.83115000  0.16303000  0.20070000  1.0
  H  H13  1  0.33861000  0.41410000  0.80878000  1.0
  H  H14  1  0.66139000  0.58589000  0.19122000  1.0
  H  H15  1  0.30613000  0.44389000  0.99773000  1.0
  H  H16  1  0.69386000  0.55611000  0.00227000  1.0
  C  C17  1  0.19843000  0.57097000  0.36020000  1.0
  C  C18  1  0.80158000  0.42903000  0.63980000  1.0
  C  C19  1  0.19381000  0.68633000  0.11954000  1.0
  C  C20  1  0.80619000  0.31367000  0.88046000  1.0
  C  C21  1  0.12464000  0.76706000  0.29449000  1.0
  C  C22  1  0.87536000  0.23294000  0.70551000  1.0
  C  C23  1  0.26241000  0.42896000  0.37498000  1.0
  C  C24  1  0.73759000  0.57104000  0.62503000  1.0
  C  C25  1  0.42184000  0.39329000  0.34420000  1.0
  C  C26  1  0.57816000  0.60671000  0.65580000  1.0
  C  C27  1  0.48028000  0.26224000  0.36971000  1.0
  C  C28  1  0.51972000  0.73776000  0.63029000  1.0
  C  C29  1  0.37816000  0.17093000  0.42394000  1.0
  C  C30  1  0.62184000  0.82907000  0.57606000  1.0
  C  C31  1  0.16500000  0.32865000  0.42701000  1.0
  C  C32  1  0.83500000  0.67136000  0.57299000  1.0
  C  C33  1  0.21664000  0.66817000  0.00916000  1.0
  C  C34  1  0.78336000  0.33183000  0.99084000  1.0
  C  C35  1  0.17910000  0.77978000  0.95207000  1.0
  C  C36  1  0.82089000  0.22022000  0.04793000  1.0
  C  C37  1  0.19845000  0.75183000  0.84550000  1.0
  C  C38  1  0.80155000  0.24816000  0.15450000  1.0
  C  C39  1  0.29193000  0.51761000  0.85054000  1.0
  C  C40  1  0.70806000  0.48239000  0.14946000  1.0
  C  C41  1  0.27505000  0.53373000  0.95653000  1.0
  C  C42  1  0.72494000  0.46626000  0.04347000  1.0
  S  S43  1  0.10997000  0.84867000  0.18704000  1.0
  S  S44  1  0.89003000  0.15133000  0.81296000  1.0
  N  N45  1  0.09425000  0.79264000  0.39318000  1.0
  N  N46  1  0.90575000  0.20736000  0.60682000  1.0
  N  N47  1  0.14100000  0.66981000  0.43384000  1.0
  N  N48  1  0.85900000  0.33020000  0.56616000  1.0
  N  N49  1  0.19010000  0.62952000  0.27099000  1.0
  N  N50  1  0.80990000  0.37049000  0.72901000  1.0
  N  N51  1  0.22711000  0.58110000  0.17266000  1.0
  N  N52  1  0.77289000  0.41891000  0.82734000  1.0
  N  N53  1  0.22177000  0.20202000  0.45091000  1.0
  N  N54  1  0.77823000  0.79798000  0.54909000  1.0
  N  N55  1  0.25350000  0.62290000  0.79444000  1.0
  N  N56  1  0.74650000  0.37710000  0.20556000  1.0
  N  N57  1  0.32908000  0.08594000  0.72285000  1.0
  N  N58  1  0.67092000  0.91406000  0.27715000  1.0
  O  O59  1  0.15352000  0.99573000  0.67953000  1.0
  O  O60  1  0.84647000  0.00427000  0.32047000  1.0
  O  O61  1  0.39491000  0.12640000  0.82484000  1.0
  O  O62  1  0.60509000  0.87359000  0.17515000  1.0
  O  O63  1  0.42636000  0.12906000  0.66100000  1.0
  O  O64  1  0.57364000  0.87094000  0.33900000  1.0
