# generated using pymatgen
data_CuH15C19SN3O4
_symmetry_space_group_name_H-M   'P 1'
_cell_length_a   8.61169000
_cell_length_b   10.62250000
_cell_length_c   11.77739087
_cell_angle_alpha   63.18928524
_cell_angle_beta   79.75978663
_cell_angle_gamma   66.78480000
_symmetry_Int_Tables_number   1
_chemical_formula_structural   CuH15C19SN3O4
_chemical_formula_sum   'Cu2 H30 C38 S2 N6 O8'
_cell_volume   883.69669209
_cell_formula_units_Z   2
loop_
 _symmetry_equiv_pos_site_id
 _symmetry_equiv_pos_as_xyz
  1  'x, y, z'
loop_
 _atom_site_type_symbol
 _atom_site_label
 _atom_site_symmetry_multiplicity
 _atom_site_fract_x
 _atom_site_fract_y
 _atom_site_fract_z
 _atom_site_occupancy
  Cu  Cu0  1  0.74999000  0.11846000  0.76283000  1.0
  Cu  Cu1  1  0.25001000  0.88154000  0.23717000  1.0
  H  H2  1  0.07982000  0.94147000  0.91709000  1.0
  H  H3  1  0.42012000  0.14100000  0.91725000  1.0
  H  H4  1  0.92017000  0.05853000  0.08291000  1.0
  H  H5  1  0.57988000  0.85899000  0.08275000  1.0
  H  H6  1  0.38422000  0.86786000  0.86306000  1.0
  H  H7  1  0.11579000  0.26876000  0.86331000  1.0
  H  H8  1  0.61578000  0.13214000  0.13694000  1.0
  H  H9  1  0.88421000  0.73124000  0.13669000  1.0
  H  H10  1  0.47184000  0.94668000  0.63392000  1.0
  H  H11  1  0.02801000  0.41961000  0.63419000  1.0
  H  H12  1  0.52815000  0.05332000  0.36609000  1.0
  H  H13  1  0.97199000  0.58039000  0.36581000  1.0
  H  H14  1  0.24345000  0.10138000  0.46471000  1.0
  H  H15  1  0.25637000  0.43420000  0.46491000  1.0
  H  H16  1  0.75656000  0.89862000  0.53529000  1.0
  H  H17  1  0.74363000  0.56580000  0.53509000  1.0
  H  H18  1  0.02389000  0.24200000  0.33309000  1.0
  H  H19  1  0.47569000  0.42452000  0.33323000  1.0
  H  H20  1  0.97611000  0.75800000  0.66691000  1.0
  H  H21  1  0.52430000  0.57548000  0.66677000  1.0
  H  H22  1  0.74972000  0.39282000  0.21393000  1.0
  H  H23  1  0.25028000  0.60718000  0.78607000  1.0
  H  H24  1  0.64503000  0.40783000  0.98679000  1.0
  H  H25  1  0.85527000  0.60489000  0.98700000  1.0
  H  H26  1  0.35497000  0.59217000  0.01321000  1.0
  H  H27  1  0.14473000  0.39511000  0.01300000  1.0
  H  H28  1  0.86893000  0.34024000  0.98355000  1.0
  H  H29  1  0.63139000  0.67566000  0.98368000  1.0
  H  H30  1  0.13107000  0.65976000  0.01645000  1.0
  H  H31  1  0.36861000  0.32434000  0.01632000  1.0
  C  C32  1  0.12053000  0.97389000  0.81819000  1.0
  C  C33  1  0.37942000  0.20754000  0.81835000  1.0
  C  C34  1  0.87947000  0.02611000  0.18181000  1.0
  C  C35  1  0.62058000  0.79246000  0.18165000  1.0
  C  C36  1  0.29162000  0.93305000  0.78666000  1.0
  C  C37  1  0.20832000  0.28005000  0.78686000  1.0
  C  C38  1  0.70838000  0.06694000  0.21335000  1.0
  C  C39  1  0.79168000  0.71995000  0.21314000  1.0
  C  C40  1  0.33819000  0.97817000  0.65880000  1.0
  C  C41  1  0.16167000  0.36302000  0.65903000  1.0
  C  C42  1  0.66181000  0.02183000  0.34120000  1.0
  C  C43  1  0.83833000  0.63698000  0.34097000  1.0
  C  C44  1  0.21255000  0.06435000  0.56574000  1.0
  C  C45  1  0.28727000  0.36994000  0.56594000  1.0
  C  C46  1  0.78745000  0.93565000  0.43426000  1.0
  C  C47  1  0.71273000  0.63006000  0.43406000  1.0
  C  C48  1  0.04358000  0.10178000  0.60374000  1.0
  C  C49  1  0.45626000  0.29427000  0.60388000  1.0
  C  C50  1  0.95642000  0.89822000  0.39626000  1.0
  C  C51  1  0.54375000  0.70573000  0.39612000  1.0
  C  C52  1  0.89864000  0.19267000  0.51622000  1.0
  C  C53  1  0.60112000  0.29093000  0.51628000  1.0
  C  C54  1  0.10136000  0.80733000  0.48378000  1.0
  C  C55  1  0.39888000  0.70907000  0.48372000  1.0
  C  C56  1  0.90333000  0.25746000  0.38314000  1.0
  C  C57  1  0.59631000  0.35915000  0.38322000  1.0
  C  C58  1  0.09667000  0.74254000  0.61686000  1.0
  C  C59  1  0.40369000  0.64085000  0.61678000  1.0
  C  C60  1  0.74979000  0.34101000  0.31766000  1.0
  C  C61  1  0.25021000  0.65899000  0.68234000  1.0
  C  C62  1  0.75674000  0.32455000  0.84234000  1.0
  C  C63  1  0.74350000  0.83271000  0.84256000  1.0
  C  C64  1  0.24326000  0.67545000  0.15766000  1.0
  C  C65  1  0.25650000  0.16730000  0.15743000  1.0
  C  C66  1  0.75530000  0.40519000  0.92290000  1.0
  C  C67  1  0.74506000  0.67145000  0.92308000  1.0
  C  C68  1  0.24470000  0.59481000  0.07710000  1.0
  C  C69  1  0.25494000  0.32855000  0.07692000  1.0
  S  S70  1  0.75018000  0.59322000  0.81331000  1.0
  S  S71  1  0.24982000  0.40678000  0.18669000  1.0
  N  N72  1  0.99999000  0.05542000  0.72909000  1.0
  N  N73  1  0.49992000  0.21513000  0.72922000  1.0
  N  N74  1  0.00000000  0.94458000  0.27091000  1.0
  N  N75  1  0.50008000  0.78487000  0.27078000  1.0
  N  N76  1  0.74991000  0.21128000  0.57730000  1.0
  N  N77  1  0.25009000  0.78872000  0.42270000  1.0
  O  O78  1  0.74247000  0.19453000  0.90266000  1.0
  O  O79  1  0.75781000  0.90243000  0.90284000  1.0
  O  O80  1  0.25753000  0.80548000  0.09733000  1.0
  O  O81  1  0.24220000  0.09757000  0.09716000  1.0
  O  O82  1  0.77167000  0.38965000  0.72369000  1.0
  O  O83  1  0.72846000  0.88626000  0.72391000  1.0
  O  O84  1  0.22833000  0.61035000  0.27631000  1.0
  O  O85  1  0.27153000  0.11374000  0.27609000  1.0
