# generated using pymatgen
data_CdH10C14Cl2O5
_symmetry_space_group_name_H-M   'P 1'
_cell_length_a   6.25465000
_cell_length_b   7.32055000
_cell_length_c   16.75049878
_cell_angle_alpha   96.25023229
_cell_angle_beta   97.81047576
_cell_angle_gamma   93.15430000
_symmetry_Int_Tables_number   1
_chemical_formula_structural   CdH10C14Cl2O5
_chemical_formula_sum   'Cd2 H20 C28 Cl4 O10'
_cell_volume   753.43076720
_cell_formula_units_Z   2
loop_
 _symmetry_equiv_pos_site_id
 _symmetry_equiv_pos_as_xyz
  1  'x, y, z'
loop_
 _atom_site_type_symbol
 _atom_site_label
 _atom_site_symmetry_multiplicity
 _atom_site_fract_x
 _atom_site_fract_y
 _atom_site_fract_z
 _atom_site_occupancy
  Cd  Cd0  1  0.82959000  0.75350000  0.00381000  1.0
  Cd  Cd1  1  0.17040000  0.24649000  0.99619000  1.0
  H  H2  1  0.38247000  0.39468000  0.83952000  1.0
  H  H3  1  0.55636000  0.11034000  0.15027000  1.0
  H  H4  1  0.61755000  0.60531000  0.16048000  1.0
  H  H5  1  0.44363000  0.88965000  0.84972000  1.0
  H  H6  1  0.48447000  0.30122000  0.70298000  1.0
  H  H7  1  0.79734000  0.19538000  0.28123000  1.0
  H  H8  1  0.51553000  0.69878000  0.29702000  1.0
  H  H9  1  0.20266000  0.80464000  0.71877000  1.0
  H  H10  1  0.87820000  0.47276000  0.59015000  1.0
  H  H11  1  0.28857000  0.01462000  0.41060000  1.0
  H  H12  1  0.12181000  0.52725000  0.40985000  1.0
  H  H13  1  0.71143000  0.98538000  0.58940000  1.0
  H  H14  1  0.77784000  0.56832000  0.72758000  1.0
  H  H15  1  0.04698000  0.92808000  0.27843000  1.0
  H  H16  1  0.22218000  0.43169000  0.27243000  1.0
  H  H17  1  0.95300000  0.07192000  0.72157000  1.0
  H  H18  1  0.37331000  0.64440000  0.98329000  1.0
  H  H19  1  0.40377000  0.83234000  0.04016000  1.0
  H  H20  1  0.62669000  0.35559000  0.01672000  1.0
  H  H21  1  0.59624000  0.16765000  0.95985000  1.0
  C  C22  1  0.01740000  0.55157000  0.87321000  1.0
  C  C23  1  0.14284000  0.95920000  0.12792000  1.0
  C  C24  1  0.98262000  0.44843000  0.12680000  1.0
  C  C25  1  0.85716000  0.04080000  0.87209000  1.0
  C  C26  1  0.07388000  0.48811000  0.79181000  1.0
  C  C27  1  0.28586000  0.01412000  0.20612000  1.0
  C  C28  1  0.92613000  0.51187000  0.20819000  1.0
  C  C29  1  0.71414000  0.98588000  0.79388000  1.0
  C  C30  1  0.27264000  0.41207000  0.78495000  1.0
  C  C31  1  0.49756000  0.08925000  0.20711000  1.0
  C  C32  1  0.72739000  0.58792000  0.21505000  1.0
  C  C33  1  0.50243000  0.91075000  0.79288000  1.0
  C  C34  1  0.33020000  0.35958000  0.70892000  1.0
  C  C35  1  0.63300000  0.13726000  0.28016000  1.0
  C  C36  1  0.66981000  0.64042000  0.29108000  1.0
  C  C37  1  0.36697000  0.86274000  0.71985000  1.0
  C  C38  1  0.18760000  0.38330000  0.63953000  1.0
  C  C39  1  0.55579000  0.11040000  0.35277000  1.0
  C  C40  1  0.81240000  0.61669000  0.36046000  1.0
  C  C41  1  0.44419000  0.88962000  0.64722000  1.0
  C  C42  1  0.98683000  0.45552000  0.64499000  1.0
  C  C43  1  0.34503000  0.03614000  0.35338000  1.0
  C  C44  1  0.01319000  0.54449000  0.35501000  1.0
  C  C45  1  0.65498000  0.96388000  0.64661000  1.0
  C  C46  1  0.93128000  0.50832000  0.72147000  1.0
  C  C47  1  0.21097000  0.98814000  0.27974000  1.0
  C  C48  1  0.06871000  0.49170000  0.27852000  1.0
  C  C49  1  0.78902000  0.01185000  0.72027000  1.0
  Cl  Cl50  1  0.26533000  0.32462000  0.54534000  1.0
  Cl  Cl51  1  0.72761000  0.16852000  0.44299000  1.0
  Cl  Cl52  1  0.73467000  0.67539000  0.45466000  1.0
  Cl  Cl53  1  0.27237000  0.83151000  0.55700000  1.0
  O  O54  1  0.84091000  0.62938000  0.87700000  1.0
  O  O55  1  0.94978000  0.89611000  0.12900000  1.0
  O  O56  1  0.15913000  0.37061000  0.12301000  1.0
  O  O57  1  0.05019000  0.10388000  0.87099000  1.0
  O  O58  1  0.14737000  0.53037000  0.93731000  1.0
  O  O59  1  0.21849000  0.97117000  0.06032000  1.0
  O  O60  1  0.85263000  0.46962000  0.06269000  1.0
  O  O61  1  0.78150000  0.02881000  0.93967000  1.0
  O  O62  1  0.48298000  0.72341000  0.02270000  1.0
  O  O63  1  0.51702000  0.27660000  0.97731000  1.0
