# generated using pymatgen
data_ZnH13C16NO4F
_symmetry_space_group_name_H-M   'P 1'
_cell_length_a   9.86982000
_cell_length_b   11.07050000
_cell_length_c   24.33930000
_cell_angle_alpha   89.94720000
_cell_angle_beta   89.12790000
_cell_angle_gamma   89.64380000
_symmetry_Int_Tables_number   1
_chemical_formula_structural   ZnH13C16NO4F
_chemical_formula_sum   'Zn4 H52 C64 N4 O16 F4'
_cell_volume   2659.04508301
_cell_formula_units_Z   4
loop_
 _symmetry_equiv_pos_site_id
 _symmetry_equiv_pos_as_xyz
  1  'x, y, z'
loop_
 _atom_site_type_symbol
 _atom_site_label
 _atom_site_symmetry_multiplicity
 _atom_site_fract_x
 _atom_site_fract_y
 _atom_site_fract_z
 _atom_site_occupancy
  Zn  Zn0  1  0.36397000  0.49154000  0.50312000  1.0
  Zn  Zn1  1  0.65067000  0.49073000  0.50158000  1.0
  Zn  Zn2  1  0.63399000  0.49402000  0.95762000  1.0
  Zn  Zn3  1  0.34771000  0.49592000  0.94978000  1.0
  H  H4  1  0.88157000  0.57978000  0.38349000  1.0
  H  H5  1  0.88725000  0.70739000  0.42806000  1.0
  H  H6  1  0.14442000  0.69844000  0.42420000  1.0
  H  H7  1  0.13706000  0.56620000  0.38250000  1.0
  H  H8  1  0.81318000  0.86726000  0.52968000  1.0
  H  H9  1  0.81281000  0.87560000  0.45641000  1.0
  H  H10  1  0.82037000  0.10193000  0.46079000  1.0
  H  H11  1  0.81556000  0.09466000  0.53401000  1.0
  H  H12  1  0.25284000  0.47547000  0.11907000  1.0
  H  H13  1  0.73833000  0.48415000  0.33660000  1.0
  H  H14  1  0.22679000  0.44391000  0.78229000  1.0
  H  H15  1  0.19519000  0.60236000  0.78638000  1.0
  H  H16  1  0.18777000  0.60842000  0.68160000  1.0
  H  H17  1  0.21541000  0.44908000  0.68124000  1.0
  H  H18  1  0.12843000  0.58851000  0.06935000  1.0
  H  H19  1  0.11012000  0.71602000  0.02528000  1.0
  H  H20  1  0.85457000  0.70071000  0.03485000  1.0
  H  H21  1  0.87330000  0.56874000  0.07626000  1.0
  H  H22  1  0.17521000  0.87167000  0.92720000  1.0
  H  H23  1  0.17675000  0.88521000  0.00033000  1.0
  H  H24  1  0.16811000  0.11128000  0.99218000  1.0
  H  H25  1  0.17431000  0.09739000  0.91915000  1.0
  H  H26  1  0.13395000  0.24482000  0.58139000  1.0
  H  H27  1  0.25599000  0.36086000  0.58766000  1.0
  H  H28  1  0.10238000  0.36410000  0.62773000  1.0
  H  H29  1  0.86383000  0.37437000  0.62487000  1.0
  H  H30  1  0.75182000  0.32629000  0.57317000  1.0
  H  H31  1  0.90453000  0.24419000  0.58573000  1.0
  H  H32  1  0.18444000  0.13890000  0.51657000  1.0
  H  H33  1  0.26352000  0.21015000  0.45975000  1.0
  H  H34  1  0.18406000  0.06732000  0.45178000  1.0
  H  H35  1  0.18987000  0.85388000  0.46306000  1.0
  H  H36  1  0.24437000  0.78680000  0.52483000  1.0
  H  H37  1  0.16763000  0.93311000  0.52553000  1.0
  H  H38  1  0.84463000  0.56102000  0.66840000  1.0
  H  H39  1  0.74160000  0.63696000  0.62002000  1.0
  H  H40  1  0.79932000  0.71315000  0.67963000  1.0
  H  H41  1  0.80185000  0.71489000  0.76948000  1.0
  H  H42  1  0.77221000  0.61030000  0.82376000  1.0
  H  H43  1  0.85812000  0.56472000  0.76182000  1.0
  H  H44  1  0.89037000  0.25637000  0.86613000  1.0
  H  H45  1  0.73794000  0.33710000  0.88123000  1.0
  H  H46  1  0.85483000  0.39219000  0.83075000  1.0
  H  H47  1  0.09073000  0.35678000  0.82927000  1.0
  H  H48  1  0.24313000  0.36450000  0.86781000  1.0
  H  H49  1  0.12375000  0.24744000  0.88014000  1.0
  H  H50  1  0.80135000  0.14356000  0.93554000  1.0
  H  H51  1  0.72721000  0.20879000  0.99493000  1.0
  H  H52  1  0.80919000  0.06546000  0.99890000  1.0
  H  H53  1  0.79752000  0.84939000  0.99105000  1.0
  H  H54  1  0.74239000  0.78711000  0.92865000  1.0
  H  H55  1  0.82166000  0.93135000  0.92925000  1.0
  C  C56  1  0.50316000  0.72560000  0.49579000  1.0
  C  C57  1  0.50928000  0.48233000  0.39501000  1.0
  C  C58  1  0.51079000  0.25683000  0.50007000  1.0
  C  C59  1  0.50457000  0.53271000  0.60782000  1.0
  C  C60  1  0.48738000  0.72890000  0.96162000  1.0
  C  C61  1  0.48419000  0.48074000  0.06091000  1.0
  C  C62  1  0.47809000  0.26039000  0.95330000  1.0
  C  C63  1  0.51834000  0.53662000  0.84770000  1.0
  C  C64  1  0.93875000  0.53579000  0.46891000  1.0
  C  C65  1  0.07747000  0.41214000  0.54356000  1.0
  C  C66  1  0.07937000  0.53386000  0.46876000  1.0
  C  C67  1  0.93318000  0.41054000  0.54250000  1.0
  C  C68  1  0.93122000  0.61799000  0.41943000  1.0
  C  C69  1  0.09222000  0.61246000  0.41826000  1.0
  C  C70  1  0.49634000  0.86085000  0.49602000  1.0
  C  C71  1  0.50159000  0.12257000  0.49441000  1.0
  C  C72  1  0.61643000  0.92652000  0.49498000  1.0
  C  C73  1  0.37754000  0.05827000  0.49108000  1.0
  C  C74  1  0.61912000  0.05216000  0.49552000  1.0
  C  C75  1  0.37437000  0.93033000  0.49579000  1.0
  C  C76  1  0.76950000  0.91455000  0.49437000  1.0
  C  C77  1  0.77262000  0.05716000  0.49636000  1.0
  C  C78  1  0.57937000  0.48486000  0.15808000  1.0
  C  C79  1  0.33904000  0.47907000  0.14630000  1.0
  C  C80  1  0.31893000  0.48072000  0.20203000  1.0
  C  C81  1  0.42780000  0.48288000  0.23962000  1.0
  C  C82  1  0.41165000  0.48182000  0.29778000  1.0
  C  C83  1  0.65207000  0.48444000  0.30937000  1.0
  C  C84  1  0.67206000  0.48626000  0.25369000  1.0
  C  C85  1  0.56302000  0.48506000  0.21620000  1.0
  C  C86  1  0.47088000  0.48121000  0.12267000  1.0
  C  C87  1  0.52033000  0.48240000  0.33312000  1.0
  C  C88  1  0.52357000  0.56206000  0.78688000  1.0
  C  C89  1  0.51387000  0.56303000  0.66767000  1.0
  C  C90  1  0.40325000  0.55298000  0.75789000  1.0
  C  C91  1  0.63568000  0.59010000  0.69561000  1.0
  C  C92  1  0.39832000  0.55443000  0.70076000  1.0
  C  C93  1  0.64104000  0.58937000  0.75408000  1.0
  C  C94  1  0.25248000  0.53154000  0.76436000  1.0
  C  C95  1  0.24678000  0.53441000  0.69975000  1.0
  C  C96  1  0.06117000  0.54346000  0.98551000  1.0
  C  C97  1  0.91807000  0.41687000  0.91369000  1.0
  C  C98  1  0.92086000  0.53781000  0.98874000  1.0
  C  C99  1  0.06242000  0.41885000  0.91186000  1.0
  C  C100  1  0.07157000  0.62552000  0.03481000  1.0
  C  C101  1  0.91116000  0.61590000  0.03953000  1.0
  C  C102  1  0.49280000  0.86410000  0.95985000  1.0
  C  C103  1  0.48763000  0.12603000  0.95912000  1.0
  C  C104  1  0.37271000  0.93101000  0.96050000  1.0
  C  C105  1  0.61189000  0.06040000  0.96265000  1.0
  C  C106  1  0.37019000  0.05662000  0.95857000  1.0
  C  C107  1  0.61466000  0.93222000  0.95886000  1.0
  C  C108  1  0.21963000  0.92075000  0.96167000  1.0
  C  C109  1  0.21669000  0.06309000  0.95764000  1.0
  C  C110  1  0.14756000  0.34246000  0.58741000  1.0
  C  C111  1  0.85844000  0.33461000  0.58353000  1.0
  C  C112  1  0.24580000  0.12251000  0.47918000  1.0
  C  C113  1  0.23702000  0.87264000  0.50286000  1.0
  C  C114  1  0.76131000  0.62682000  0.66382000  1.0
  C  C115  1  0.77528000  0.62059000  0.77920000  1.0
  C  C116  1  0.84524000  0.34681000  0.87087000  1.0
  C  C117  1  0.13519000  0.34369000  0.86991000  1.0
  C  C118  1  0.74426000  0.12315000  0.97355000  1.0
  C  C119  1  0.75121000  0.87171000  0.95142000  1.0
  N  N120  1  0.86191000  0.47620000  0.50513000  1.0
  N  N121  1  0.15257000  0.47556000  0.50602000  1.0
  N  N122  1  0.13574000  0.48580000  0.94765000  1.0
  N  N123  1  0.84545000  0.47779000  0.95309000  1.0
  O  O124  1  0.39699000  0.66723000  0.48279000  1.0
  O  O125  1  0.61700000  0.67763000  0.50765000  1.0
  O  O126  1  0.61928000  0.50874000  0.41905000  1.0
  O  O127  1  0.39712000  0.45625000  0.41798000  1.0
  O  O128  1  0.62541000  0.30524000  0.49011000  1.0
  O  O129  1  0.40545000  0.31438000  0.51686000  1.0
  O  O130  1  0.38975000  0.54585000  0.58514000  1.0
  O  O131  1  0.61005000  0.48843000  0.58426000  1.0
  O  O132  1  0.59245000  0.67116000  0.97708000  1.0
  O  O133  1  0.37514000  0.68080000  0.94834000  1.0
  O  O134  1  0.37584000  0.50433000  0.03519000  1.0
  O  O135  1  0.59962000  0.45639000  0.03971000  1.0
  O  O136  1  0.36155000  0.30941000  0.95940000  1.0
  O  O137  1  0.58545000  0.31852000  0.94058000  1.0
  O  O138  1  0.62404000  0.54915000  0.87653000  1.0
  O  O139  1  0.40460000  0.49960000  0.86693000  1.0
  F  F140  1  0.80204000  0.48859000  0.23435000  1.0
  F  F141  1  0.70765000  0.48976000  0.13782000  1.0
  F  F142  1  0.18894000  0.47944000  0.22139000  1.0
  F  F143  1  0.28338000  0.48110000  0.31828000  1.0
