# generated using pymatgen
data_GdAsH7C6NO8
_symmetry_space_group_name_H-M   'P 1'
_cell_length_a   6.91576000
_cell_length_b   7.12618000
_cell_length_c   21.15500000
_cell_angle_alpha   89.99980000
_cell_angle_beta   89.99990000
_cell_angle_gamma   105.27900000
_symmetry_Int_Tables_number   1
_chemical_formula_structural   GdAsH7C6NO8
_chemical_formula_sum   'Gd4 As4 H28 C24 N4 O32'
_cell_volume   1005.72982930
_cell_formula_units_Z   4
loop_
 _symmetry_equiv_pos_site_id
 _symmetry_equiv_pos_as_xyz
  1  'x, y, z'
loop_
 _atom_site_type_symbol
 _atom_site_label
 _atom_site_symmetry_multiplicity
 _atom_site_fract_x
 _atom_site_fract_y
 _atom_site_fract_z
 _atom_site_occupancy
  Gd  Gd0  1  0.26021000  0.03737000  0.45841000  1.0
  Gd  Gd1  1  0.23980000  0.96263000  0.95841000  1.0
  Gd  Gd2  1  0.73980000  0.96263000  0.54159000  1.0
  Gd  Gd3  1  0.76021000  0.03737000  0.04159000  1.0
  As  As4  1  0.18421000  0.75753000  0.58234000  1.0
  As  As5  1  0.31579000  0.24247000  0.08234000  1.0
  As  As6  1  0.81579000  0.24247000  0.41766000  1.0
  As  As7  1  0.68421000  0.75753000  0.91766000  1.0
  H  H8  1  0.27996000  0.14446000  0.64343000  1.0
  H  H9  1  0.22004000  0.85554000  0.14343000  1.0
  H  H10  1  0.72003000  0.85554000  0.35657000  1.0
  H  H11  1  0.77996000  0.14446000  0.85657000  1.0
  H  H12  1  0.32634000  0.25616000  0.75498000  1.0
  H  H13  1  0.17366000  0.74384000  0.25498000  1.0
  H  H14  1  0.67366000  0.74384000  0.24502000  1.0
  H  H15  1  0.82635000  0.25615000  0.74502000  1.0
  H  H16  1  0.12379000  0.54605000  0.70663000  1.0
  H  H17  1  0.37621000  0.45395000  0.20663000  1.0
  H  H18  1  0.87621000  0.45395000  0.29337000  1.0
  H  H19  1  0.62379000  0.54605000  0.79337000  1.0
  H  H20  1  0.50026000  0.35044000  0.54068000  1.0
  H  H21  1  0.99973000  0.64956000  0.04068000  1.0
  H  H22  1  0.49974000  0.64956000  0.45932000  1.0
  H  H23  1  0.00026000  0.35044000  0.95932000  1.0
  H  H24  1  0.28106000  0.39435000  0.54574000  1.0
  H  H25  1  0.21894000  0.60565000  0.04574000  1.0
  H  H26  1  0.71894000  0.60565000  0.45426000  1.0
  H  H27  1  0.78105000  0.39435000  0.95426000  1.0
  H  H28  1  0.27726000  0.68692000  0.38968000  1.0
  H  H29  1  0.22274000  0.31308000  0.88968000  1.0
  H  H30  1  0.72273000  0.31308000  0.61032000  1.0
  H  H31  1  0.77727000  0.68691000  0.11032000  1.0
  H  H32  1  0.10196000  0.60256000  0.43654000  1.0
  H  H33  1  0.39804000  0.39744000  0.93654000  1.0
  H  H34  1  0.89805000  0.39744000  0.56347000  1.0
  H  H35  1  0.60196000  0.60256000  0.06346000  1.0
  C  C36  1  0.19619000  0.83723000  0.66898000  1.0
  C  C37  1  0.30381000  0.16277000  0.16898000  1.0
  C  C38  1  0.80380000  0.16277000  0.33102000  1.0
  C  C39  1  0.69619000  0.83723000  0.83102000  1.0
  C  C40  1  0.25432000  0.03949000  0.68217000  1.0
  C  C41  1  0.24568000  0.96051000  0.18217000  1.0
  C  C42  1  0.74567000  0.96051000  0.31783000  1.0
  C  C43  1  0.75432000  0.03948000  0.81783000  1.0
  C  C44  1  0.28034000  0.10193000  0.74361000  1.0
  C  C45  1  0.21966000  0.89807000  0.24361000  1.0
  C  C46  1  0.71966000  0.89807000  0.25639000  1.0
  C  C47  1  0.78034000  0.10192000  0.75639000  1.0
  C  C48  1  0.25075000  0.96965000  0.79596000  1.0
  C  C49  1  0.24926000  0.03035000  0.29596000  1.0
  C  C50  1  0.74925000  0.03035000  0.20404000  1.0
  C  C51  1  0.75074000  0.96964000  0.70404000  1.0
  C  C52  1  0.18888000  0.76508000  0.78025000  1.0
  C  C53  1  0.31112000  0.23492000  0.28025000  1.0
  C  C54  1  0.81111000  0.23492000  0.21975000  1.0
  C  C55  1  0.68888000  0.76508000  0.71975000  1.0
  C  C56  1  0.16538000  0.70137000  0.71689000  1.0
  C  C57  1  0.33462000  0.29864000  0.21689000  1.0
  C  C58  1  0.83461000  0.29863000  0.28311000  1.0
  C  C59  1  0.66538000  0.70136000  0.78311000  1.0
  N  N60  1  0.15881000  0.62174000  0.82825000  1.0
  N  N61  1  0.34119000  0.37826000  0.32825000  1.0
  N  N62  1  0.84118000  0.37826000  0.17175000  1.0
  N  N63  1  0.65881000  0.62174000  0.67175000  1.0
  O  O64  1  0.40395000  0.89027000  0.54791000  1.0
  O  O65  1  0.09605000  0.10973000  0.04791000  1.0
  O  O66  1  0.59605000  0.10973000  0.45209000  1.0
  O  O67  1  0.90395000  0.89027000  0.95209000  1.0
  O  O68  1  0.02576000  0.85843000  0.53799000  1.0
  O  O69  1  0.47424000  0.14157000  0.03799000  1.0
  O  O70  1  0.97425000  0.14157000  0.46201000  1.0
  O  O71  1  0.52576000  0.85843000  0.96201000  1.0
  O  O72  1  0.13121000  0.51302000  0.57630000  1.0
  O  O73  1  0.36879000  0.48699000  0.07629000  1.0
  O  O74  1  0.86879000  0.48699000  0.42370000  1.0
  O  O75  1  0.63121000  0.51301000  0.92370000  1.0
  O  O76  1  0.28552000  0.03713000  0.85216000  1.0
  O  O77  1  0.21449000  0.96287000  0.35216000  1.0
  O  O78  1  0.71450000  0.96287000  0.14784000  1.0
  O  O79  1  0.78551000  0.03713000  0.64784000  1.0
  O  O80  1  0.15230000  0.66751000  0.88580000  1.0
  O  O81  1  0.34771000  0.33249000  0.38580000  1.0
  O  O82  1  0.84770000  0.33249000  0.11420000  1.0
  O  O83  1  0.65230000  0.66751000  0.61420000  1.0
  O  O84  1  0.13794000  0.44689000  0.81315000  1.0
  O  O85  1  0.36206000  0.55311000  0.31315000  1.0
  O  O86  1  0.86206000  0.55311000  0.18685000  1.0
  O  O87  1  0.63794000  0.44689000  0.68685000  1.0
  O  O88  1  0.35756000  0.30189000  0.52966000  1.0
  O  O89  1  0.14243000  0.69811000  0.02966000  1.0
  O  O90  1  0.64244000  0.69811000  0.47034000  1.0
  O  O91  1  0.85756000  0.30189000  0.97034000  1.0
  O  O92  1  0.24268000  0.69221000  0.43466000  1.0
  O  O93  1  0.25732000  0.30779000  0.93465000  1.0
  O  O94  1  0.75733000  0.30779000  0.56535000  1.0
  O  O95  1  0.74267000  0.69221000  0.06535000  1.0
