# generated using pymatgen
data_Zr3H9C26N5ClO26
_symmetry_space_group_name_H-M   'P 1'
_cell_length_a   14.76194973
_cell_length_b   14.76980000
_cell_length_c   14.77740000
_cell_angle_alpha   119.83150000
_cell_angle_beta   90.14711642
_cell_angle_gamma   119.95911703
_symmetry_Int_Tables_number   1
_chemical_formula_structural   Zr3H9C26N5ClO26
_chemical_formula_sum   'Zr6 H18 C52 N10 Cl2 O52'
_cell_volume   2282.52432187
_cell_formula_units_Z   2
loop_
 _symmetry_equiv_pos_site_id
 _symmetry_equiv_pos_as_xyz
  1  'x, y, z'
loop_
 _atom_site_type_symbol
 _atom_site_label
 _atom_site_symmetry_multiplicity
 _atom_site_fract_x
 _atom_site_fract_y
 _atom_site_fract_z
 _atom_site_occupancy
  Zr  Zr0  1  0.62099000  0.50222000  0.12214000  1.0
  Zr  Zr1  1  0.38102000  0.50062000  0.88085000  1.0
  Zr  Zr2  1  0.62150000  0.50048000  0.88184000  1.0
  Zr  Zr3  1  0.38200000  0.50227000  0.12096000  1.0
  Zr  Zr4  1  0.38181000  0.26248000  0.88198000  1.0
  Zr  Zr5  1  0.62111000  0.74034000  0.11958000  1.0
  H  H6  1  0.59633000  0.31293000  0.90755000  1.0
  H  H7  1  0.21812000  0.31357000  0.90581000  1.0
  H  H8  1  0.59517000  0.68759000  0.90444000  1.0
  H  H9  1  0.59606000  0.69065000  0.28343000  1.0
  H  H10  1  0.37719000  0.94985000  0.84346000  1.0
  H  H11  1  0.61145000  0.04942000  0.16671000  1.0
  H  H12  1  0.91727000  0.05839000  0.41044000  1.0
  H  H13  1  0.09106000  0.94463000  0.58646000  1.0
  H  H14  1  0.10289000  0.23061000  0.15732000  1.0
  H  H15  1  0.91154000  0.76960000  0.85435000  1.0
  H  H16  1  0.35756000  0.76995000  0.41065000  1.0
  H  H17  1  0.63906000  0.23342000  0.58396000  1.0
  H  H18  1  0.73683000  0.30950000  0.99780000  1.0
  H  H19  1  0.73175000  0.13173000  0.97847000  1.0
  H  H20  1  0.07259000  0.30720000  0.99439000  1.0
  H  H21  1  0.89986000  0.13038000  0.97634000  1.0
  H  H22  1  0.64882000  0.51054000  0.41833000  1.0
  H  H23  1  0.34916000  0.48444000  0.58107000  1.0
  C  C24  1  0.49497000  0.19846000  0.00838000  1.0
  C  C25  1  0.20101000  0.19787000  0.69479000  1.0
  C  C26  1  0.49839000  0.80247000  0.00000000  1.0
  C  C27  1  0.80741000  0.80541000  0.30195000  1.0
  C  C28  1  0.81021000  0.51310000  0.00931000  1.0
  C  C29  1  0.49856000  0.49834000  0.30342000  1.0
  C  C30  1  0.20416000  0.51316000  0.00864000  1.0
  C  C31  1  0.49719000  0.49110000  0.69318000  1.0
  C  C32  1  0.49756000  0.19661000  0.69494000  1.0
  C  C33  1  0.80882000  0.80315000  0.00413000  1.0
  C  C34  1  0.49945000  0.80659000  0.30052000  1.0
  C  C35  1  0.20213000  0.19774000  0.00478000  1.0
  C  C36  1  0.49708000  0.90295000  0.99980000  1.0
  C  C37  1  0.49272000  0.09688000  0.01001000  1.0
  C  C38  1  0.43206000  0.87752000  0.90976000  1.0
  C  C39  1  0.55736000  0.12205000  0.10007000  1.0
  C  C40  1  0.42829000  0.97162000  0.91430000  1.0
  C  C41  1  0.56065000  0.02784000  0.09580000  1.0
  C  C42  1  0.10024000  0.09831000  0.59346000  1.0
  C  C43  1  0.90841000  0.90483000  0.40314000  1.0
  C  C44  1  0.04926000  0.12805000  0.54286000  1.0
  C  C45  1  0.95838000  0.87501000  0.45469000  1.0
  C  C46  1  0.95537000  0.03373000  0.44917000  1.0
  C  C47  1  0.05307000  0.96933000  0.54763000  1.0
  C  C48  1  0.91131000  0.90580000  0.00685000  1.0
  C  C49  1  0.10233000  0.09455000  0.00410000  1.0
  C  C50  1  0.96610000  0.03638000  0.09095000  1.0
  C  C51  1  0.04736000  0.96394000  0.91971000  1.0
  C  C52  1  0.06041000  0.12961000  0.09081000  1.0
  C  C53  1  0.95396000  0.87064000  0.92070000  1.0
  C  C54  1  0.49624000  0.09476000  0.59327000  1.0
  C  C55  1  0.50085000  0.90867000  0.40205000  1.0
  C  C56  1  0.41797000  0.96352000  0.54312000  1.0
  C  C57  1  0.58039000  0.03990000  0.45341000  1.0
  C  C58  1  0.41891000  0.87158000  0.44879000  1.0
  C  C59  1  0.57797000  0.13186000  0.54627000  1.0
  C  C60  1  0.91301000  0.51559000  0.01350000  1.0
  C  C61  1  0.90750000  0.41105000  0.00240000  1.0
  C  C62  1  0.01135000  0.61785000  0.02822000  1.0
  C  C63  1  0.80944000  0.30757000  0.99262000  1.0
  C  C64  1  0.80685000  0.20857000  0.98298000  1.0
  C  C65  1  0.10355000  0.51513000  0.01260000  1.0
  C  C66  1  0.10774000  0.61782000  0.02805000  1.0
  C  C67  1  0.00453000  0.41070000  0.00175000  1.0
  C  C68  1  0.99857000  0.30651000  0.99097000  1.0
  C  C69  1  0.90214000  0.20797000  0.98198000  1.0
  C  C70  1  0.49865000  0.49238000  0.59269000  1.0
  C  C71  1  0.49821000  0.50001000  0.40536000  1.0
  C  C72  1  0.58262000  0.50069000  0.54571000  1.0
  C  C73  1  0.41536000  0.49420000  0.45362000  1.0
  C  C74  1  0.58339000  0.50484000  0.45407000  1.0
  C  C75  1  0.41425000  0.48935000  0.54491000  1.0
  N  N76  1  0.36928000  0.75068000  0.80208000  1.0
  N  N77  1  0.62130000  0.24920000  0.20723000  1.0
  N  N78  1  0.09175000  0.26168000  0.58616000  1.0
  N  N79  1  0.91222000  0.74135000  0.41477000  1.0
  N  N80  1  0.92627000  0.08390000  0.18438000  1.0
  N  N81  1  0.08389000  0.91730000  0.82309000  1.0
  N  N82  1  0.33041000  0.91456000  0.58863000  1.0
  N  N83  1  0.67363000  0.08877000  0.41338000  1.0
  N  N84  1  0.67574000  0.50503000  0.59079000  1.0
  N  N85  1  0.32510000  0.49565000  0.41142000  1.0
  Cl  Cl86  1  0.23042000  0.74889000  0.05203000  1.0
  Cl  Cl87  1  0.01967000  0.74865000  0.05148000  1.0
  O  O88  1  0.57378000  0.31419000  0.08352000  1.0
  O  O89  1  0.24009000  0.31411000  0.73532000  1.0
  O  O90  1  0.42121000  0.68656000  0.92426000  1.0
  O  O91  1  0.76709000  0.68929000  0.26276000  1.0
  O  O92  1  0.76948000  0.50706000  0.92876000  1.0
  O  O93  1  0.42073000  0.49576000  0.26190000  1.0
  O  O94  1  0.24440000  0.51276000  0.08500000  1.0
  O  O95  1  0.57454000  0.49230000  0.73365000  1.0
  O  O96  1  0.42106000  0.15968000  0.73463000  1.0
  O  O97  1  0.76891000  0.84001000  0.08019000  1.0
  O  O98  1  0.57445000  0.84315000  0.25922000  1.0
  O  O99  1  0.24161000  0.16157000  0.92819000  1.0
  O  O100  1  0.76889000  0.68803000  0.92553000  1.0
  O  O101  1  0.42417000  0.69156000  0.26456000  1.0
  O  O102  1  0.23824000  0.31278000  0.08034000  1.0
  O  O103  1  0.57600000  0.31195000  0.73449000  1.0
  O  O104  1  0.76913000  0.51217000  0.08483000  1.0
  O  O105  1  0.42039000  0.49154000  0.73183000  1.0
  O  O106  1  0.23939000  0.50772000  0.92896000  1.0
  O  O107  1  0.57653000  0.50003000  0.26595000  1.0
  O  O108  1  0.76848000  0.84393000  0.26347000  1.0
  O  O109  1  0.42047000  0.16056000  0.92925000  1.0
  O  O110  1  0.23926000  0.15943000  0.73399000  1.0
  O  O111  1  0.57637000  0.84147000  0.07666000  1.0
  O  O112  1  0.56868000  0.63709000  0.20320000  1.0
  O  O113  1  0.56877000  0.63489000  0.93217000  1.0
  O  O114  1  0.29856000  0.36653000  0.93395000  1.0
  O  O115  1  0.56896000  0.36591000  0.93458000  1.0
  O  O116  1  0.45190000  0.40181000  0.85270000  1.0
  O  O117  1  0.45163000  0.40250000  0.05111000  1.0
  O  O118  1  0.45201000  0.60047000  0.04992000  1.0
  O  O119  1  0.64982000  0.60016000  0.05051000  1.0
  O  O120  1  0.42599000  0.72315000  0.74735000  1.0
  O  O121  1  0.26752000  0.68654000  0.77399000  1.0
  O  O122  1  0.72280000  0.31518000  0.23189000  1.0
  O  O123  1  0.56597000  0.27511000  0.26493000  1.0
  O  O124  1  0.05353000  0.31002000  0.65359000  1.0
  O  O125  1  0.15791000  0.31050000  0.54694000  1.0
  O  O126  1  0.84158000  0.69565000  0.45250000  1.0
  O  O127  1  0.95143000  0.68988000  0.35192000  1.0
  O  O128  1  0.86169000  0.10947000  0.17107000  1.0
  O  O129  1  0.96536000  0.09962000  0.26889000  1.0
  O  O130  1  0.04676000  0.91127000  0.74379000  1.0
  O  O131  1  0.14366000  0.88331000  0.82838000  1.0
  O  O132  1  0.35575000  0.90182000  0.65918000  1.0
  O  O133  1  0.23893000  0.88523000  0.54864000  1.0
  O  O134  1  0.75737000  0.10093000  0.44925000  1.0
  O  O135  1  0.66154000  0.11878000  0.35223000  1.0
  O  O136  1  0.76057000  0.61211000  0.66054000  1.0
  O  O137  1  0.66230000  0.40170000  0.55147000  1.0
  O  O138  1  0.34589000  0.60178000  0.44737000  1.0
  O  O139  1  0.23564000  0.39130000  0.34777000  1.0
