# generated using pymatgen
data_CuH28C16(N3O2)2
_symmetry_space_group_name_H-M   'P 1'
_cell_length_a   6.86127000
_cell_length_b   17.13290521
_cell_length_c   17.13290000
_cell_angle_alpha   60.01003020
_cell_angle_beta   89.99330000
_cell_angle_gamma   89.99620044
_symmetry_Int_Tables_number   1
_chemical_formula_structural   CuH28C16(N3O2)2
_chemical_formula_sum   'Cu3 H84 C48 N18 O12'
_cell_volume   1744.37926779
_cell_formula_units_Z   3
loop_
 _symmetry_equiv_pos_site_id
 _symmetry_equiv_pos_as_xyz
  1  'x, y, z'
loop_
 _atom_site_type_symbol
 _atom_site_label
 _atom_site_symmetry_multiplicity
 _atom_site_fract_x
 _atom_site_fract_y
 _atom_site_fract_z
 _atom_site_occupancy
  Cu  Cu0  1  0.49999000  0.50000000  0.49999000  1.0
  Cu  Cu1  1  0.49999000  0.50000000  0.00000000  1.0
  Cu  Cu2  1  0.50002000  0.00000000  0.50000000  1.0
  H  H3  1  0.17169000  0.52431000  0.53942000  1.0
  H  H4  1  0.17167000  0.53939000  0.93629000  1.0
  H  H5  1  0.17167000  0.93633000  0.52429000  1.0
  H  H6  1  0.82831000  0.47568000  0.46059000  1.0
  H  H7  1  0.82833000  0.46062000  0.06369000  1.0
  H  H8  1  0.82834000  0.06368000  0.47570000  1.0
  H  H9  1  0.61859000  0.65355000  0.39408000  1.0
  H  H10  1  0.61865000  0.39406000  0.95236000  1.0
  H  H11  1  0.61855000  0.95239000  0.65358000  1.0
  H  H12  1  0.38139000  0.34644000  0.60593000  1.0
  H  H13  1  0.38136000  0.60595000  0.04764000  1.0
  H  H14  1  0.38145000  0.04761000  0.34642000  1.0
  H  H15  1  0.16782000  0.30579000  0.77423000  1.0
  H  H16  1  0.16775000  0.77421000  0.92004000  1.0
  H  H17  1  0.16784000  0.91995000  0.30579000  1.0
  H  H18  1  0.83218000  0.69421000  0.22578000  1.0
  H  H19  1  0.83226000  0.22577000  0.07998000  1.0
  H  H20  1  0.83215000  0.08004000  0.69422000  1.0
  H  H21  1  0.03483000  0.40579000  0.74411000  1.0
  H  H22  1  0.03478000  0.74405000  0.85019000  1.0
  H  H23  1  0.03481000  0.85013000  0.40579000  1.0
  H  H24  1  0.96518000  0.59421000  0.25589000  1.0
  H  H25  1  0.96522000  0.25594000  0.14982000  1.0
  H  H26  1  0.96519000  0.14986000  0.59422000  1.0
  H  H27  1  0.09228000  0.37543000  0.66042000  1.0
  H  H28  1  0.09227000  0.66039000  0.96421000  1.0
  H  H29  1  0.09233000  0.96417000  0.37542000  1.0
  H  H30  1  0.90771000  0.62457000  0.33958000  1.0
  H  H31  1  0.90775000  0.33959000  0.03580000  1.0
  H  H32  1  0.90766000  0.03582000  0.62459000  1.0
  H  H33  1  0.19803000  0.54719000  0.66862000  1.0
  H  H34  1  0.19803000  0.66855000  0.78426000  1.0
  H  H35  1  0.19794000  0.78425000  0.54718000  1.0
  H  H36  1  0.80198000  0.45281000  0.33138000  1.0
  H  H37  1  0.80198000  0.33145000  0.21575000  1.0
  H  H38  1  0.80205000  0.21575000  0.45282000  1.0
  H  H39  1  0.45639000  0.55118000  0.65362000  1.0
  H  H40  1  0.45639000  0.65359000  0.79523000  1.0
  H  H41  1  0.45629000  0.79521000  0.55119000  1.0
  H  H42  1  0.54362000  0.44882000  0.34637000  1.0
  H  H43  1  0.54363000  0.34641000  0.20477000  1.0
  H  H44  1  0.54370000  0.20479000  0.44881000  1.0
  H  H45  1  0.16876000  0.68042000  0.49927000  1.0
  H  H46  1  0.16879000  0.49920000  0.82036000  1.0
  H  H47  1  0.16859000  0.82045000  0.68039000  1.0
  H  H48  1  0.83123000  0.31958000  0.50072000  1.0
  H  H49  1  0.83124000  0.50081000  0.17963000  1.0
  H  H50  1  0.83139000  0.17955000  0.31961000  1.0
  H  H51  1  0.42712000  0.67577000  0.50941000  1.0
  H  H52  1  0.42714000  0.50937000  0.81484000  1.0
  H  H53  1  0.42693000  0.81485000  0.67579000  1.0
  H  H54  1  0.57288000  0.32423000  0.49058000  1.0
  H  H55  1  0.57288000  0.49063000  0.18517000  1.0
  H  H56  1  0.57306000  0.18515000  0.32421000  1.0
  H  H57  1  0.33143000  0.74409000  0.34878000  1.0
  H  H58  1  0.33152000  0.34873000  0.90714000  1.0
  H  H59  1  0.33132000  0.90722000  0.74410000  1.0
  H  H60  1  0.66855000  0.25590000  0.65122000  1.0
  H  H61  1  0.66849000  0.65127000  0.09286000  1.0
  H  H62  1  0.66867000  0.09277000  0.25591000  1.0
  H  H63  1  0.19049000  0.64643000  0.37424000  1.0
  H  H64  1  0.19055000  0.37418000  0.97935000  1.0
  H  H65  1  0.19047000  0.97943000  0.64642000  1.0
  H  H66  1  0.80950000  0.35356000  0.62576000  1.0
  H  H67  1  0.80945000  0.62583000  0.02064000  1.0
  H  H68  1  0.80953000  0.02057000  0.35358000  1.0
  H  H69  1  0.63097000  0.41542000  0.70082000  1.0
  H  H70  1  0.63094000  0.70083000  0.88378000  1.0
  H  H71  1  0.63096000  0.88372000  0.41543000  1.0
  H  H72  1  0.36903000  0.58458000  0.29918000  1.0
  H  H73  1  0.36906000  0.29917000  0.11623000  1.0
  H  H74  1  0.36903000  0.11628000  0.58457000  1.0
  H  H75  1  0.50175000  0.31076000  0.75648000  1.0
  H  H76  1  0.50168000  0.75649000  0.93279000  1.0
  H  H77  1  0.50179000  0.93268000  0.31078000  1.0
  H  H78  1  0.49826000  0.68924000  0.24352000  1.0
  H  H79  1  0.49833000  0.24351000  0.06721000  1.0
  H  H80  1  0.49821000  0.06731000  0.68923000  1.0
  H  H81  1  0.17620000  0.49230000  0.29801000  1.0
  H  H82  1  0.17624000  0.29797000  0.20973000  1.0
  H  H83  1  0.17620000  0.20974000  0.49228000  1.0
  H  H84  1  0.82380000  0.50770000  0.70200000  1.0
  H  H85  1  0.82377000  0.70205000  0.79027000  1.0
  H  H86  1  0.82379000  0.79026000  0.50771000  1.0
  C  C87  1  0.14612000  0.37609000  0.72079000  1.0
  C  C88  1  0.14610000  0.72076000  0.90318000  1.0
  C  C89  1  0.14612000  0.90313000  0.37608000  1.0
  C  C90  1  0.85388000  0.62391000  0.27921000  1.0
  C  C91  1  0.85391000  0.27923000  0.09683000  1.0
  C  C92  1  0.85387000  0.09687000  0.62392000  1.0
  C  C93  1  0.32071000  0.52051000  0.64744000  1.0
  C  C94  1  0.32071000  0.64740000  0.83209000  1.0
  C  C95  1  0.32065000  0.83207000  0.52052000  1.0
  C  C96  1  0.67929000  0.47948000  0.35256000  1.0
  C  C97  1  0.67931000  0.35260000  0.16791000  1.0
  C  C98  1  0.67935000  0.16792000  0.47949000  1.0
  C  C99  1  0.30075000  0.64896000  0.49094000  1.0
  C  C100  1  0.30079000  0.49090000  0.86013000  1.0
  C  C101  1  0.30064000  0.86017000  0.64895000  1.0
  C  C102  1  0.69924000  0.35104000  0.50905000  1.0
  C  C103  1  0.69923000  0.50910000  0.13987000  1.0
  C  C104  1  0.69935000  0.13983000  0.35105000  1.0
  C  C105  1  0.31993000  0.67055000  0.39375000  1.0
  C  C106  1  0.31999000  0.39371000  0.93572000  1.0
  C  C107  1  0.31986000  0.93578000  0.67054000  1.0
  C  C108  1  0.68006000  0.32945000  0.60625000  1.0
  C  C109  1  0.68003000  0.60629000  0.06428000  1.0
  C  C110  1  0.68013000  0.06422000  0.32946000  1.0
  C  C111  1  0.49917000  0.38025000  0.69831000  1.0
  C  C112  1  0.49914000  0.69833000  0.92146000  1.0
  C  C113  1  0.49919000  0.92139000  0.38025000  1.0
  C  C114  1  0.50082000  0.61975000  0.30169000  1.0
  C  C115  1  0.50087000  0.30167000  0.07855000  1.0
  C  C116  1  0.50081000  0.07861000  0.61975000  1.0
  C  C117  1  0.18004000  0.37503000  0.47912000  1.0
  C  C118  1  0.18010000  0.47910000  0.14590000  1.0
  C  C119  1  0.18009000  0.14588000  0.37501000  1.0
  C  C120  1  0.81994000  0.62496000  0.52089000  1.0
  C  C121  1  0.81993000  0.52092000  0.85411000  1.0
  C  C122  1  0.81986000  0.85413000  0.62498000  1.0
  C  C123  1  0.17509000  0.35330000  0.40359000  1.0
  C  C124  1  0.17513000  0.40357000  0.24314000  1.0
  C  C125  1  0.17514000  0.24313000  0.35329000  1.0
  C  C126  1  0.82490000  0.64669000  0.59642000  1.0
  C  C127  1  0.82490000  0.59644000  0.75686000  1.0
  C  C128  1  0.82486000  0.75687000  0.64670000  1.0
  C  C129  1  0.17507000  0.42257000  0.31351000  1.0
  C  C130  1  0.17507000  0.31350000  0.26394000  1.0
  C  C131  1  0.17505000  0.26396000  0.42255000  1.0
  C  C132  1  0.82495000  0.57744000  0.68649000  1.0
  C  C133  1  0.82494000  0.68651000  0.73606000  1.0
  C  C134  1  0.82493000  0.73604000  0.57745000  1.0
  N  N135  1  0.32957000  0.42473000  0.70646000  1.0
  N  N136  1  0.32955000  0.70644000  0.86886000  1.0
  N  N137  1  0.32957000  0.86881000  0.42472000  1.0
  N  N138  1  0.67042000  0.57527000  0.29354000  1.0
  N  N139  1  0.67045000  0.29356000  0.13114000  1.0
  N  N140  1  0.67043000  0.13119000  0.57528000  1.0
  N  N141  1  0.29874000  0.55000000  0.55005000  1.0
  N  N142  1  0.29875000  0.55001000  0.89999000  1.0
  N  N143  1  0.29871000  0.90000000  0.54999000  1.0
  N  N144  1  0.70125000  0.45000000  0.44995000  1.0
  N  N145  1  0.70126000  0.44999000  0.10001000  1.0
  N  N146  1  0.70129000  0.10000000  0.45001000  1.0
  N  N147  1  0.49267000  0.62301000  0.38680000  1.0
  N  N148  1  0.49273000  0.38679000  0.99018000  1.0
  N  N149  1  0.49265000  0.99022000  0.62302000  1.0
  N  N150  1  0.50732000  0.37699000  0.61319000  1.0
  N  N151  1  0.50728000  0.61322000  0.00982000  1.0
  N  N152  1  0.50735000  0.00978000  0.37698000  1.0
  O  O153  1  0.19816000  0.30916000  0.55915000  1.0
  O  O154  1  0.19820000  0.55914000  0.13175000  1.0
  O  O155  1  0.19833000  0.13172000  0.30911000  1.0
  O  O156  1  0.80182000  0.69084000  0.44085000  1.0
  O  O157  1  0.80182000  0.44088000  0.86826000  1.0
  O  O158  1  0.80169000  0.86830000  0.69086000  1.0
  O  O159  1  0.16923000  0.45800000  0.45645000  1.0
  O  O160  1  0.16927000  0.45643000  0.08559000  1.0
  O  O161  1  0.16920000  0.08560000  0.45795000  1.0
  O  O162  1  0.83077000  0.54200000  0.54355000  1.0
  O  O163  1  0.83076000  0.54359000  0.91441000  1.0
  O  O164  1  0.83070000  0.91441000  0.54201000  1.0
