# generated using pymatgen
data_CoH17C22N5O6
_symmetry_space_group_name_H-M   'P 1'
_cell_length_a   9.32633000
_cell_length_b   10.07530000
_cell_length_c   12.14880000
_cell_angle_alpha   102.73400000
_cell_angle_beta   108.96200000
_cell_angle_gamma   98.75960000
_symmetry_Int_Tables_number   1
_chemical_formula_structural   CoH17C22N5O6
_chemical_formula_sum   'Co2 H34 C44 N10 O12'
_cell_volume   1021.57267890
_cell_formula_units_Z   2
loop_
 _symmetry_equiv_pos_site_id
 _symmetry_equiv_pos_as_xyz
  1  'x, y, z'
loop_
 _atom_site_type_symbol
 _atom_site_label
 _atom_site_symmetry_multiplicity
 _atom_site_fract_x
 _atom_site_fract_y
 _atom_site_fract_z
 _atom_site_occupancy
  Co  Co0  1  0.21462000  0.92017000  0.82729000  1.0
  Co  Co1  1  0.78538000  0.07983000  0.17271000  1.0
  H  H2  1  0.98631000  0.13444000  0.78357000  1.0
  H  H3  1  0.01369000  0.86556000  0.21643000  1.0
  H  H4  1  0.63579000  0.62597000  0.28925000  1.0
  H  H5  1  0.36420000  0.37403000  0.71075000  1.0
  H  H6  1  0.27567000  0.29771000  0.44355000  1.0
  H  H7  1  0.72433000  0.70229000  0.55645000  1.0
  H  H8  1  0.31097000  0.66819000  0.67494000  1.0
  H  H9  1  0.68903000  0.33182000  0.32506000  1.0
  H  H10  1  0.41688000  0.41942000  0.24309000  1.0
  H  H11  1  0.58312000  0.58057000  0.75691000  1.0
  H  H12  1  0.35643000  0.03850000  0.63931000  1.0
  H  H13  1  0.64358000  0.96150000  0.36070000  1.0
  H  H14  1  0.96570000  0.70099000  0.35825000  1.0
  H  H15  1  0.03430000  0.29901000  0.64175000  1.0
  H  H16  1  0.97638000  0.89768000  0.56215000  1.0
  H  H17  1  0.02362000  0.10232000  0.43784000  1.0
  H  H18  1  0.54439000  0.26425000  0.50745000  1.0
  H  H19  1  0.45561000  0.73575000  0.49255000  1.0
  H  H20  1  0.78684000  0.02857000  0.58108000  1.0
  H  H21  1  0.21316000  0.97143000  0.41892000  1.0
  H  H22  1  0.18555000  0.35727000  0.04634000  1.0
  H  H23  1  0.81444000  0.64273000  0.95366000  1.0
  H  H24  1  0.72765000  0.19852000  0.79534000  1.0
  H  H25  1  0.27235000  0.80148000  0.20466000  1.0
  H  H26  1  0.58887000  0.07088000  0.81115000  1.0
  H  H27  1  0.41113000  0.92912000  0.18885000  1.0
  H  H28  1  0.94500000  0.76179000  0.88525000  1.0
  H  H29  1  0.05500000  0.23821000  0.11474000  1.0
  H  H30  1  0.66248000  0.84567000  0.84796000  1.0
  H  H31  1  0.33752000  0.15433000  0.15204000  1.0
  H  H32  1  0.14952000  0.54869000  0.32650000  1.0
  H  H33  1  0.85048000  0.45131000  0.67350000  1.0
  H  H34  1  0.09952000  0.43558000  0.40747000  1.0
  H  H35  1  0.90049000  0.56442000  0.59253000  1.0
  C  C36  1  0.52438000  0.68226000  0.12834000  1.0
  C  C37  1  0.47561000  0.31773000  0.87166000  1.0
  C  C38  1  0.37419000  0.74777000  0.93879000  1.0
  C  C39  1  0.62581000  0.25223000  0.06121000  1.0
  C  C40  1  0.39331000  0.65169000  0.02001000  1.0
  C  C41  1  0.60669000  0.34831000  0.97999000  1.0
  C  C42  1  0.93632000  0.04313000  0.80430000  1.0
  C  C43  1  0.06368000  0.95687000  0.19570000  1.0
  C  C44  1  0.58281000  0.03904000  0.62742000  1.0
  C  C45  1  0.41720000  0.96096000  0.37258000  1.0
  C  C46  1  0.53163000  0.59825000  0.20687000  1.0
  C  C47  1  0.46836000  0.40175000  0.79313000  1.0
  C  C48  1  0.37424000  0.38683000  0.46837000  1.0
  C  C49  1  0.62577000  0.61317000  0.53163000  1.0
  C  C50  1  0.27492000  0.53185000  0.99470000  1.0
  C  C51  1  0.72508000  0.46815000  0.00530000  1.0
  C  C52  1  0.21877000  0.70346000  0.61681000  1.0
  C  C53  1  0.78123000  0.29654000  0.38319000  1.0
  C  C54  1  0.40971000  0.48342000  0.18114000  1.0
  C  C55  1  0.59029000  0.51658000  0.81885000  1.0
  C  C56  1  0.34642000  0.51874000  0.46390000  1.0
  C  C57  1  0.65359000  0.48127000  0.53610000  1.0
  C  C58  1  0.42071000  0.02266000  0.57894000  1.0
  C  C59  1  0.57929000  0.97735000  0.42106000  1.0
  C  C60  1  0.03835000  0.72357000  0.45335000  1.0
  C  C61  1  0.96165000  0.27643000  0.54665000  1.0
  C  C62  1  0.04341000  0.81949000  0.55508000  1.0
  C  C63  1  0.95659000  0.18051000  0.44492000  1.0
  C  C64  1  0.52588000  0.36785000  0.50392000  1.0
  C  C65  1  0.47412000  0.63215000  0.49608000  1.0
  C  C66  1  0.66055000  0.01563000  0.54651000  1.0
  C  C67  1  0.33945000  0.98437000  0.45349000  1.0
  C  C68  1  0.28074000  0.44919000  0.07356000  1.0
  C  C69  1  0.71926000  0.55081000  0.92644000  1.0
  C  C70  1  0.66965000  0.08610000  0.76414000  1.0
  C  C71  1  0.33035000  0.91391000  0.23586000  1.0
  C  C72  1  0.90879000  0.84976000  0.85652000  1.0
  C  C73  1  0.09120000  0.15023000  0.14348000  1.0
  C  C74  1  0.76994000  0.88921000  0.83772000  1.0
  C  C75  1  0.23006000  0.11079000  0.16228000  1.0
  C  C76  1  0.18033000  0.53278000  0.41717000  1.0
  C  C77  1  0.81967000  0.46722000  0.58283000  1.0
  C  C78  1  0.65829000  0.80824000  0.16816000  1.0
  C  C79  1  0.34170000  0.19175000  0.83184000  1.0
  N  N80  1  0.78989000  0.01140000  0.80454000  1.0
  N  N81  1  0.21011000  0.98860000  0.19546000  1.0
  N  N82  1  0.01127000  0.94619000  0.83507000  1.0
  N  N83  1  0.98873000  0.05381000  0.16493000  1.0
  N  N84  1  0.15644000  0.80616000  0.65651000  1.0
  N  N85  1  0.84356000  0.19385000  0.34349000  1.0
  N  N86  1  0.15013000  0.65128000  0.49407000  1.0
  N  N87  1  0.84987000  0.34872000  0.50593000  1.0
  N  N88  1  0.13945000  0.48681000  0.88064000  1.0
  N  N89  1  0.86056000  0.51319000  0.11935000  1.0
  O  O90  1  0.26773000  0.81516000  0.94479000  1.0
  O  O91  1  0.73227000  0.18484000  0.05521000  1.0
  O  O92  1  0.45215000  0.75582000  0.87375000  1.0
  O  O93  1  0.54784000  0.24418000  0.12625000  1.0
  O  O94  1  0.15211000  0.52758000  0.79405000  1.0
  O  O95  1  0.84789000  0.47242000  0.20594000  1.0
  O  O96  1  0.01825000  0.40813000  0.87438000  1.0
  O  O97  1  0.98175000  0.59186000  0.12561000  1.0
  O  O98  1  0.79080000  0.80762000  0.23779000  1.0
  O  O99  1  0.20920000  0.19238000  0.76221000  1.0
  O  O100  1  0.62262000  0.91333000  0.12939000  1.0
  O  O101  1  0.37738000  0.08667000  0.87062000  1.0
