# generated using pymatgen
data_LiH4C6NO2
_symmetry_space_group_name_H-M   'P 1'
_cell_length_a   5.35493000
_cell_length_b   10.60538291
_cell_length_c   14.26640000
_cell_angle_alpha   90.00058415
_cell_angle_beta   90.00090000
_cell_angle_gamma   100.05362037
_symmetry_Int_Tables_number   1
_chemical_formula_structural   LiH4C6NO2
_chemical_formula_sum   'Li4 H16 C24 N4 O8'
_cell_volume   797.76346878
_cell_formula_units_Z   4
loop_
 _symmetry_equiv_pos_site_id
 _symmetry_equiv_pos_as_xyz
  1  'x, y, z'
loop_
 _atom_site_type_symbol
 _atom_site_label
 _atom_site_symmetry_multiplicity
 _atom_site_fract_x
 _atom_site_fract_y
 _atom_site_fract_z
 _atom_site_occupancy
  Li  Li0  1  0.81190000  0.73805000  0.98108000  1.0
  Li  Li1  1  0.18809000  0.26195000  0.48109000  1.0
  Li  Li2  1  0.19312000  0.76061000  0.84694000  1.0
  Li  Li3  1  0.80689000  0.23942000  0.34693000  1.0
  H  H4  1  0.52792000  0.93560000  0.64725000  1.0
  H  H5  1  0.47207000  0.06440000  0.14725000  1.0
  H  H6  1  0.72679000  0.08471000  0.52027000  1.0
  H  H7  1  0.27322000  0.91528000  0.02027000  1.0
  H  H8  1  0.38531000  0.18793000  0.67452000  1.0
  H  H9  1  0.61467000  0.81208000  0.17452000  1.0
  H  H10  1  0.22127000  0.03508000  0.80410000  1.0
  H  H11  1  0.77874000  0.96494000  0.30410000  1.0
  H  H12  1  0.52547000  0.43681000  0.68154000  1.0
  H  H13  1  0.47455000  0.56316000  0.18152000  1.0
  H  H14  1  0.72845000  0.58435000  0.80864000  1.0
  H  H15  1  0.27154000  0.41561000  0.30861000  1.0
  H  H16  1  0.21477000  0.53729000  0.52239000  1.0
  H  H17  1  0.78523000  0.46272000  0.02236000  1.0
  H  H18  1  0.38266000  0.68877000  0.65226000  1.0
  H  H19  1  0.61732000  0.31124000  0.15223000  1.0
  C  C20  1  0.74402000  0.88583000  0.81327000  1.0
  C  C21  1  0.25599000  0.11419000  0.31328000  1.0
  C  C22  1  0.85949000  0.97470000  0.73581000  1.0
  C  C23  1  0.14050000  0.02530000  0.23581000  1.0
  C  C24  1  0.72025000  0.98873000  0.65463000  1.0
  C  C25  1  0.27976000  0.01126000  0.15462000  1.0
  C  C26  1  0.82971000  0.07211000  0.58483000  1.0
  C  C27  1  0.17027000  0.92789000  0.08482000  1.0
  C  C28  1  0.19623000  0.12944000  0.67073000  1.0
  C  C29  1  0.80377000  0.87056000  0.17075000  1.0
  C  C30  1  0.10436000  0.04595000  0.74321000  1.0
  C  C31  1  0.89563000  0.95407000  0.24320000  1.0
  C  C32  1  0.73819000  0.38766000  0.51445000  1.0
  C  C33  1  0.26183000  0.61233000  0.01443000  1.0
  C  C34  1  0.85489000  0.47639000  0.59189000  1.0
  C  C35  1  0.14509000  0.52360000  0.09186000  1.0
  C  C36  1  0.71766000  0.48988000  0.67366000  1.0
  C  C37  1  0.28235000  0.51010000  0.17363000  1.0
  C  C38  1  0.82940000  0.57237000  0.74359000  1.0
  C  C39  1  0.17060000  0.42761000  0.24355000  1.0
  C  C40  1  0.09955000  0.54771000  0.58382000  1.0
  C  C41  1  0.90044000  0.45228000  0.08380000  1.0
  C  C42  1  0.19363000  0.63040000  0.65647000  1.0
  C  C43  1  0.80635000  0.36959000  0.15643000  1.0
  N  N44  1  0.06365000  0.14273000  0.59241000  1.0
  N  N45  1  0.93635000  0.85728000  0.09242000  1.0
  N  N46  1  0.06332000  0.64278000  0.73548000  1.0
  N  N47  1  0.93667000  0.35721000  0.23545000  1.0
  O  O48  1  0.89614000  0.84478000  0.86975000  1.0
  O  O49  1  0.10389000  0.15527000  0.36975000  1.0
  O  O50  1  0.50547000  0.85920000  0.81617000  1.0
  O  O51  1  0.49456000  0.14082000  0.31616000  1.0
  O  O52  1  0.89000000  0.34536000  0.45849000  1.0
  O  O53  1  0.10998000  0.65466000  0.95849000  1.0
  O  O54  1  0.49956000  0.36235000  0.51115000  1.0
  O  O55  1  0.50047000  0.63763000  0.01111000  1.0
