# generated using pymatgen
data_Mn2H22C42S(N4O5)2
_symmetry_space_group_name_H-M   'P 1'
_cell_length_a   6.41376000
_cell_length_b   12.37320000
_cell_length_c   25.81820000
_cell_angle_alpha   86.59910000
_cell_angle_beta   89.99570000
_cell_angle_gamma   75.06700000
_symmetry_Int_Tables_number   1
_chemical_formula_structural   Mn2H22C42S(N4O5)2
_chemical_formula_sum   'Mn4 H44 C84 S2 N16 O20'
_cell_volume   1975.97164267
_cell_formula_units_Z   2
loop_
 _symmetry_equiv_pos_site_id
 _symmetry_equiv_pos_as_xyz
  1  'x, y, z'
loop_
 _atom_site_type_symbol
 _atom_site_label
 _atom_site_symmetry_multiplicity
 _atom_site_fract_x
 _atom_site_fract_y
 _atom_site_fract_z
 _atom_site_occupancy
  Mn  Mn0  1  0.99788000  0.16609000  0.03619000  1.0
  Mn  Mn1  1  0.16442000  0.83395000  0.46403000  1.0
  Mn  Mn2  1  0.00216000  0.83392000  0.96381000  1.0
  Mn  Mn3  1  0.83556000  0.16604000  0.53597000  1.0
  H  H4  1  0.48926000  0.77854000  0.02210000  1.0
  H  H5  1  0.26681000  0.22133000  0.47786000  1.0
  H  H6  1  0.51077000  0.22146000  0.97790000  1.0
  H  H7  1  0.73318000  0.77868000  0.52213000  1.0
  H  H8  1  0.98601000  0.83291000  0.16254000  1.0
  H  H9  1  0.82012000  0.16740000  0.33741000  1.0
  H  H10  1  0.01397000  0.16708000  0.83746000  1.0
  H  H11  1  0.17985000  0.83261000  0.66260000  1.0
  H  H12  1  0.73347000  0.85027000  0.23643000  1.0
  H  H13  1  0.58377000  0.15026000  0.26369000  1.0
  H  H14  1  0.26649000  0.14972000  0.76357000  1.0
  H  H15  1  0.41621000  0.84975000  0.73631000  1.0
  H  H16  1  0.28234000  0.12070000  0.15024000  1.0
  H  H17  1  0.40302000  0.87932000  0.34986000  1.0
  H  H18  1  0.71768000  0.87931000  0.84976000  1.0
  H  H19  1  0.59696000  0.12068000  0.65014000  1.0
  H  H20  1  0.94362000  0.30532000  0.92496000  1.0
  H  H21  1  0.25054000  0.69435000  0.57518000  1.0
  H  H22  1  0.05638000  0.69469000  0.07503000  1.0
  H  H23  1  0.74946000  0.30565000  0.42482000  1.0
  H  H24  1  0.80785000  0.50470000  0.88934000  1.0
  H  H25  1  0.31331000  0.49489000  0.61071000  1.0
  H  H26  1  0.19216000  0.49531000  0.11066000  1.0
  H  H27  1  0.68670000  0.50510000  0.38929000  1.0
  H  H28  1  0.66734000  0.65456000  0.95115000  1.0
  H  H29  1  0.32173000  0.34505000  0.54884000  1.0
  H  H30  1  0.33266000  0.34544000  0.04885000  1.0
  H  H31  1  0.67826000  0.65494000  0.45116000  1.0
  H  H32  1  0.91825000  0.14383000  0.15885000  1.0
  H  H33  1  0.06138000  0.85646000  0.34144000  1.0
  H  H34  1  0.08176000  0.85615000  0.84114000  1.0
  H  H35  1  0.93860000  0.14354000  0.65856000  1.0
  H  H36  1  0.80423000  0.26967000  0.23107000  1.0
  H  H37  1  0.07285000  0.73065000  0.26922000  1.0
  H  H38  1  0.19577000  0.73031000  0.76892000  1.0
  H  H39  1  0.92715000  0.26935000  0.73078000  1.0
  H  H40  1  0.66115000  0.47822000  0.20965000  1.0
  H  H41  1  0.13825000  0.52207000  0.29052000  1.0
  H  H42  1  0.33885000  0.52175000  0.79035000  1.0
  H  H43  1  0.86176000  0.47793000  0.70948000  1.0
  H  H44  1  0.40311000  0.83878000  0.11324000  1.0
  H  H45  1  0.24089000  0.16122000  0.38670000  1.0
  H  H46  1  0.59691000  0.16122000  0.88677000  1.0
  H  H47  1  0.75911000  0.83877000  0.61330000  1.0
  C  C48  1  0.92994000  0.94718000  0.07034000  1.0
  C  C49  1  0.87959000  0.05234000  0.42949000  1.0
  C  C50  1  0.07007000  0.05283000  0.92966000  1.0
  C  C51  1  0.12041000  0.94766000  0.57051000  1.0
  C  C52  1  0.50620000  0.12378000  0.06304000  1.0
  C  C53  1  0.63061000  0.87630000  0.43697000  1.0
  C  C54  1  0.49381000  0.87623000  0.93695000  1.0
  C  C55  1  0.36938000  0.12370000  0.56303000  1.0
  C  C56  1  0.57392000  0.04566000  0.11036000  1.0
  C  C57  1  0.62036000  0.95428000  0.38963000  1.0
  C  C58  1  0.42610000  0.95434000  0.88964000  1.0
  C  C59  1  0.37963000  0.04573000  0.61037000  1.0
  C  C60  1  0.77327000  0.96438000  0.11422000  1.0
  C  C61  1  0.73894000  0.03557000  0.38574000  1.0
  C  C62  1  0.22674000  0.03563000  0.88578000  1.0
  C  C63  1  0.26107000  0.96442000  0.61426000  1.0
  C  C64  1  0.83028000  0.89496000  0.15974000  1.0
  C  C65  1  0.72627000  0.10522000  0.34025000  1.0
  C  C66  1  0.16970000  0.10504000  0.84026000  1.0
  C  C67  1  0.27372000  0.89478000  0.65975000  1.0
  C  C68  1  0.69037000  0.90483000  0.20125000  1.0
  C  C69  1  0.59537000  0.09559000  0.29885000  1.0
  C  C70  1  0.30961000  0.09517000  0.79875000  1.0
  C  C71  1  0.40462000  0.90441000  0.70115000  1.0
  C  C72  1  0.49298000  0.98638000  0.19719000  1.0
  C  C73  1  0.47946000  0.01386000  0.30291000  1.0
  C  C74  1  0.50701000  0.01363000  0.80281000  1.0
  C  C75  1  0.52053000  0.98615000  0.69709000  1.0
  C  C76  1  0.43466000  0.05651000  0.15262000  1.0
  C  C77  1  0.49146000  0.94353000  0.34744000  1.0
  C  C78  1  0.56534000  0.94350000  0.84738000  1.0
  C  C79  1  0.50852000  0.05647000  0.65257000  1.0
  C  C80  1  0.87497000  0.37254000  0.95021000  1.0
  C  C81  1  0.24849000  0.62717000  0.54991000  1.0
  C  C82  1  0.12504000  0.62746000  0.04979000  1.0
  C  C83  1  0.75151000  0.37282000  0.45009000  1.0
  C  C84  1  0.79909000  0.48408000  0.93075000  1.0
  C  C85  1  0.28367000  0.51558000  0.56932000  1.0
  C  C86  1  0.20093000  0.51593000  0.06926000  1.0
  C  C87  1  0.71633000  0.48442000  0.43068000  1.0
  C  C88  1  0.71158000  0.53656000  0.01814000  1.0
  C  C89  1  0.24818000  0.46328000  0.48193000  1.0
  C  C90  1  0.28845000  0.46344000  0.98186000  1.0
  C  C91  1  0.75181000  0.53672000  0.51806000  1.0
  C  C92  1  0.71898000  0.56657000  0.96475000  1.0
  C  C93  1  0.28579000  0.43310000  0.53530000  1.0
  C  C94  1  0.28105000  0.43344000  0.03526000  1.0
  C  C95  1  0.71422000  0.56690000  0.46470000  1.0
  C  C96  1  0.78920000  0.42111000  0.03459000  1.0
  C  C97  1  0.21056000  0.57880000  0.46555000  1.0
  C  C98  1  0.21082000  0.57889000  0.96541000  1.0
  C  C99  1  0.78942000  0.42120000  0.53445000  1.0
  C  C100  1  0.78704000  0.38357000  0.08894000  1.0
  C  C101  1  0.17034000  0.61653000  0.41125000  1.0
  C  C102  1  0.21297000  0.61642000  0.91106000  1.0
  C  C103  1  0.82964000  0.38347000  0.58875000  1.0
  C  C104  1  0.85958000  0.23409000  0.15080000  1.0
  C  C105  1  0.09301000  0.76618000  0.34948000  1.0
  C  C106  1  0.14045000  0.76590000  0.84919000  1.0
  C  C107  1  0.90698000  0.23382000  0.65051000  1.0
  C  C108  1  0.79176000  0.30551000  0.19131000  1.0
  C  C109  1  0.09646000  0.69481000  0.30896000  1.0
  C  C110  1  0.20826000  0.69447000  0.80868000  1.0
  C  C111  1  0.90353000  0.30519000  0.69104000  1.0
  C  C112  1  0.71655000  0.41953000  0.17963000  1.0
  C  C113  1  0.13527000  0.58074000  0.32057000  1.0
  C  C114  1  0.28347000  0.58046000  0.82037000  1.0
  C  C115  1  0.86473000  0.41926000  0.67943000  1.0
  C  C116  1  0.71197000  0.46149000  0.12749000  1.0
  C  C117  1  0.17297000  0.53868000  0.37266000  1.0
  C  C118  1  0.28805000  0.53851000  0.87251000  1.0
  C  C119  1  0.82701000  0.46132000  0.62733000  1.0
  C  C120  1  0.63292000  0.57699000  0.11049000  1.0
  C  C121  1  0.20914000  0.42311000  0.38960000  1.0
  C  C122  1  0.36710000  0.42300000  0.88951000  1.0
  C  C123  1  0.79084000  0.57689000  0.61040000  1.0
  C  C124  1  0.63220000  0.61193000  0.05761000  1.0
  C  C125  1  0.24376000  0.38802000  0.44243000  1.0
  C  C126  1  0.36782000  0.38807000  0.94240000  1.0
  C  C127  1  0.75621000  0.61198000  0.55756000  1.0
  C  C128  1  0.48363000  0.75316000  0.10485000  1.0
  C  C129  1  0.23548000  0.24691000  0.39512000  1.0
  C  C130  1  0.51638000  0.24683000  0.89515000  1.0
  C  C131  1  0.76451000  0.75308000  0.60487000  1.0
  S  S132  1  0.31229000  0.00015000  0.25006000  1.0
  S  S133  1  0.68769000  0.99987000  0.74994000  1.0
  N  N134  1  0.86960000  0.34196000  0.00049000  1.0
  N  N135  1  0.21234000  0.65790000  0.49966000  1.0
  N  N136  1  0.13042000  0.65805000  0.99951000  1.0
  N  N137  1  0.78765000  0.34210000  0.50034000  1.0
  N  N138  1  0.85832000  0.27177000  0.10133000  1.0
  N  N139  1  0.12980000  0.72841000  0.39894000  1.0
  N  N140  1  0.14171000  0.72823000  0.89867000  1.0
  N  N141  1  0.87018000  0.27159000  0.60106000  1.0
  N  N142  1  0.53988000  0.66639000  0.13956000  1.0
  N  N143  1  0.20491000  0.33380000  0.36048000  1.0
  N  N144  1  0.46012000  0.33360000  0.86045000  1.0
  N  N145  1  0.79508000  0.66620000  0.63952000  1.0
  N  N146  1  0.53674000  0.72503000  0.05524000  1.0
  N  N147  1  0.26105000  0.27488000  0.44474000  1.0
  N  N148  1  0.46328000  0.27497000  0.94476000  1.0
  N  N149  1  0.73894000  0.72512000  0.55526000  1.0
  O  O150  1  0.64783000  0.13576000  0.03006000  1.0
  O  O151  1  0.78446000  0.86438000  0.46986000  1.0
  O  O152  1  0.35220000  0.86424000  0.96994000  1.0
  O  O153  1  0.21552000  0.13561000  0.53014000  1.0
  O  O154  1  0.07342000  0.00166000  0.06933000  1.0
  O  O155  1  0.07696000  0.99737000  0.43024000  1.0
  O  O156  1  0.92658000  0.99835000  0.93068000  1.0
  O  O157  1  0.92304000  0.00262000  0.56976000  1.0
  O  O158  1  0.91213000  0.87424000  0.03949000  1.0
  O  O159  1  0.79066000  0.12529000  0.46051000  1.0
  O  O160  1  0.08792000  0.12577000  0.96051000  1.0
  O  O161  1  0.20932000  0.87470000  0.53949000  1.0
  O  O162  1  0.24888000  0.89614000  0.25910000  1.0
  O  O163  1  0.14540000  0.10412000  0.24100000  1.0
  O  O164  1  0.75110000  0.10387000  0.74090000  1.0
  O  O165  1  0.85458000  0.89590000  0.75900000  1.0
  O  O166  1  0.30835000  0.17816000  0.05880000  1.0
  O  O167  1  0.48689000  0.82192000  0.44142000  1.0
  O  O168  1  0.69166000  0.82185000  0.94120000  1.0
  O  O169  1  0.51311000  0.17807000  0.55858000  1.0
