# generated using pymatgen
data_Zn2H18C33N2O11
_symmetry_space_group_name_H-M   'P 1'
_cell_length_a   9.64155000
_cell_length_b   10.84750000
_cell_length_c   10.89400000
_cell_angle_alpha   79.63560000
_cell_angle_beta   81.14690000
_cell_angle_gamma   74.57510000
_symmetry_Int_Tables_number   1
_chemical_formula_structural   Zn2H18C33N2O11
_chemical_formula_sum   'Zn2 H18 C33 N2 O11'
_cell_volume   1073.62861183
_cell_formula_units_Z   1
loop_
 _symmetry_equiv_pos_site_id
 _symmetry_equiv_pos_as_xyz
  1  'x, y, z'
loop_
 _atom_site_type_symbol
 _atom_site_label
 _atom_site_symmetry_multiplicity
 _atom_site_fract_x
 _atom_site_fract_y
 _atom_site_fract_z
 _atom_site_occupancy
  Zn  Zn0  1  0.64516000  0.46230000  0.48605000  1.0
  Zn  Zn1  1  0.33262000  0.53012000  0.51475000  1.0
  H  H2  1  0.86734000  0.90588000  0.11621000  1.0
  H  H3  1  0.54817000  0.69576000  0.88570000  1.0
  H  H4  1  0.30943000  0.69004000  0.07439000  1.0
  H  H5  1  0.23778000  0.50122000  0.95792000  1.0
  H  H6  1  0.32375000  0.11404000  0.61831000  1.0
  H  H7  1  0.73257000  0.20790000  0.34666000  1.0
  H  H8  1  0.90407000  0.10407000  0.18089000  1.0
  H  H9  1  0.38530000  0.21420000  0.05341000  1.0
  H  H10  1  0.75353000  0.75782000  0.11872000  1.0
  H  H11  1  0.06841000  0.68024000  0.23514000  1.0
  H  H12  1  0.32134000  0.89106000  0.58637000  1.0
  H  H13  1  0.22271000  0.39901000  0.73688000  1.0
  H  H14  1  0.12950000  0.23106000  0.88816000  1.0
  H  H15  1  0.91941000  0.15783000  0.84600000  1.0
  H  H16  1  0.79610000  0.25693000  0.65383000  1.0
  H  H17  1  0.86701000  0.57083000  0.32050000  1.0
  H  H18  1  0.65207000  0.30962000  0.92827000  1.0
  H  H19  1  0.72428000  0.49583000  0.04448000  1.0
  C  C20  1  0.51511000  0.24858000  0.51944000  1.0
  C  C21  1  0.61434000  0.05871000  0.39415000  1.0
  C  C22  1  0.51335000  0.11970000  0.48910000  1.0
  C  C23  1  0.47624000  0.50656000  0.73875000  1.0
  C  C24  1  0.40414000  0.06323000  0.55089000  1.0
  C  C25  1  0.40026000  0.94029000  0.53097000  1.0
  C  C26  1  0.49902000  0.87572000  0.44286000  1.0
  C  C27  1  0.13073000  0.36669000  0.71970000  1.0
  C  C28  1  0.07773000  0.27398000  0.80296000  1.0
  C  C29  1  0.95786000  0.23275000  0.77936000  1.0
  C  C30  1  0.88877000  0.28665000  0.67372000  1.0
  C  C31  1  0.38505000  0.60586000  0.03977000  1.0
  C  C32  1  0.93957000  0.38337000  0.58734000  1.0
  C  C33  1  0.06370000  0.42304000  0.60903000  1.0
  C  C34  1  0.04551000  0.56573000  0.42342000  1.0
  C  C35  1  0.50341000  0.73540000  0.45061000  1.0
  C  C36  1  0.92448000  0.52572000  0.40215000  1.0
  C  C37  1  0.48171000  0.49332000  0.26353000  1.0
  C  C38  1  0.57676000  0.39520000  0.96085000  1.0
  C  C39  1  0.44390000  0.39172000  0.06500000  1.0
  C  C40  1  0.48376000  0.49735000  0.12604000  1.0
  C  C41  1  0.61610000  0.49854000  0.02354000  1.0
  C  C42  1  0.34546000  0.50268000  0.97707000  1.0
  C  C43  1  0.51846000  0.60883000  0.93797000  1.0
  C  C44  1  0.39806000  0.27369000  0.12378000  1.0
  C  C45  1  0.65958000  0.79623000  0.18767000  1.0
  C  C46  1  0.08374000  0.67798000  0.33507000  1.0
  C  C47  1  0.47751000  0.50418000  0.87547000  1.0
  C  C48  1  0.72410000  0.11667000  0.32441000  1.0
  C  C49  1  0.81850000  0.05945000  0.23062000  1.0
  C  C50  1  0.79971000  0.94662000  0.19646000  1.0
  C  C51  1  0.68971000  0.88922000  0.25731000  1.0
  C  C52  1  0.60059000  0.93843000  0.36487000  1.0
  N  N53  1  0.11373000  0.51593000  0.52522000  1.0
  N  N54  1  0.86999000  0.43977000  0.48360000  1.0
  O  O55  1  0.63699000  0.27167000  0.52600000  1.0
  O  O56  1  0.54447000  0.76691000  0.19128000  1.0
  O  O57  1  0.11738000  0.76465000  0.37119000  1.0
  O  O58  1  0.39274000  0.32732000  0.53626000  1.0
  O  O59  1  0.59839000  0.48714000  0.67235000  1.0
  O  O60  1  0.35263000  0.52647000  0.69996000  1.0
  O  O61  1  0.62832000  0.65761000  0.43868000  1.0
  O  O62  1  0.38388000  0.70378000  0.48047000  1.0
  O  O63  1  0.60305000  0.45674000  0.30841000  1.0
  O  O64  1  0.35752000  0.52595000  0.32509000  1.0
  O  O65  1  0.37215000  0.23935000  0.23635000  1.0
