# generated using pymatgen
data_CdBH12C12BrN8
_symmetry_space_group_name_H-M   'P 1'
_cell_length_a   5.99465000
_cell_length_b   11.30710000
_cell_length_c   11.30700000
_cell_angle_alpha   90.00050000
_cell_angle_beta   89.99970000
_cell_angle_gamma   89.99940000
_symmetry_Int_Tables_number   1
_chemical_formula_structural   CdBH12C12BrN8
_chemical_formula_sum   'Cd2 B2 H24 C24 Br2 N16'
_cell_volume   766.41228394
_cell_formula_units_Z   2
loop_
 _symmetry_equiv_pos_site_id
 _symmetry_equiv_pos_as_xyz
  1  'x, y, z'
loop_
 _atom_site_type_symbol
 _atom_site_label
 _atom_site_symmetry_multiplicity
 _atom_site_fract_x
 _atom_site_fract_y
 _atom_site_fract_z
 _atom_site_occupancy
  Cd  Cd0  1  0.30422000  0.25000000  0.24999000  1.0
  Cd  Cd1  1  0.69579000  0.75000000  0.75000000  1.0
  B  B2  1  0.00001000  0.75000000  0.25000000  1.0
  B  B3  1  0.99999000  0.25000000  0.75000000  1.0
  H  H4  1  0.36512000  0.79406000  0.08900000  1.0
  H  H5  1  0.36512000  0.70593000  0.41101000  1.0
  H  H6  1  0.36509000  0.41100000  0.79406000  1.0
  H  H7  1  0.36510000  0.08900000  0.70594000  1.0
  H  H8  1  0.63487000  0.20594000  0.91101000  1.0
  H  H9  1  0.63488000  0.29407000  0.58900000  1.0
  H  H10  1  0.63491000  0.58900000  0.20593000  1.0
  H  H11  1  0.63488000  0.91100000  0.29406000  1.0
  H  H12  1  0.52071000  0.02621000  0.09314000  1.0
  H  H13  1  0.52072000  0.47379000  0.40686000  1.0
  H  H14  1  0.52069000  0.40686000  0.02621000  1.0
  H  H15  1  0.52071000  0.09315000  0.47380000  1.0
  H  H16  1  0.47928000  0.97379000  0.90685000  1.0
  H  H17  1  0.47929000  0.52622000  0.59315000  1.0
  H  H18  1  0.47931000  0.59315000  0.97379000  1.0
  H  H19  1  0.47929000  0.90684000  0.52621000  1.0
  H  H20  1  0.01013000  0.99186000  0.34530000  1.0
  H  H21  1  0.01015000  0.50815000  0.15470000  1.0
  H  H22  1  0.01013000  0.15470000  0.99185000  1.0
  H  H23  1  0.01012000  0.34530000  0.50814000  1.0
  H  H24  1  0.98986000  0.00815000  0.65471000  1.0
  H  H25  1  0.98985000  0.49185000  0.84531000  1.0
  H  H26  1  0.98988000  0.84530000  0.00814000  1.0
  H  H27  1  0.98988000  0.65471000  0.49185000  1.0
  C  C28  1  0.31352000  0.86944000  0.14139000  1.0
  C  C29  1  0.31353000  0.63055000  0.35860000  1.0
  C  C30  1  0.31351000  0.35860000  0.86944000  1.0
  C  C31  1  0.31351000  0.14141000  0.63056000  1.0
  C  C32  1  0.68646000  0.13056000  0.85860000  1.0
  C  C33  1  0.68648000  0.36945000  0.64140000  1.0
  C  C34  1  0.68650000  0.64140000  0.13056000  1.0
  C  C35  1  0.68648000  0.85859000  0.36944000  1.0
  C  C36  1  0.38900000  0.98417000  0.14362000  1.0
  C  C37  1  0.38902000  0.51582000  0.35638000  1.0
  C  C38  1  0.38899000  0.35637000  0.98417000  1.0
  C  C39  1  0.38900000  0.14363000  0.51583000  1.0
  C  C40  1  0.61099000  0.01583000  0.85637000  1.0
  C  C41  1  0.61100000  0.48418000  0.64363000  1.0
  C  C42  1  0.61102000  0.64363000  0.01583000  1.0
  C  C43  1  0.61099000  0.85637000  0.48417000  1.0
  C  C44  1  0.12894000  0.97000000  0.27651000  1.0
  C  C45  1  0.12894000  0.53001000  0.22349000  1.0
  C  C46  1  0.12892000  0.22349000  0.96999000  1.0
  C  C47  1  0.12892000  0.27651000  0.53000000  1.0
  C  C48  1  0.87106000  0.03001000  0.72349000  1.0
  C  C49  1  0.87105000  0.46999000  0.77652000  1.0
  C  C50  1  0.87109000  0.77651000  0.03000000  1.0
  C  C51  1  0.87108000  0.72349000  0.46999000  1.0
  Br  Br52  1  0.76970000  0.24999000  0.25002000  1.0
  Br  Br53  1  0.23031000  0.75000000  0.75000000  1.0
  N  N54  1  0.14737000  0.86047000  0.22655000  1.0
  N  N55  1  0.14738000  0.63953000  0.27346000  1.0
  N  N56  1  0.14735000  0.27346000  0.86047000  1.0
  N  N57  1  0.14735000  0.22655000  0.63953000  1.0
  N  N58  1  0.85263000  0.13953000  0.77346000  1.0
  N  N59  1  0.85262000  0.36047000  0.72655000  1.0
  N  N60  1  0.85266000  0.72655000  0.13953000  1.0
  N  N61  1  0.85264000  0.77345000  0.36046000  1.0
  N  N62  1  0.27184000  0.04601000  0.22854000  1.0
  N  N63  1  0.27186000  0.45398000  0.27145000  1.0
  N  N64  1  0.27183000  0.27146000  0.04602000  1.0
  N  N65  1  0.27183000  0.22854000  0.45399000  1.0
  N  N66  1  0.72815000  0.95399000  0.77146000  1.0
  N  N67  1  0.72815000  0.54602000  0.72855000  1.0
  N  N68  1  0.72818000  0.72854000  0.95398000  1.0
  N  N69  1  0.72817000  0.77146000  0.54601000  1.0
