# generated using pymatgen
data_CsP2H10C11O3
_symmetry_space_group_name_H-M   'P 1'
_cell_length_a   7.22382000
_cell_length_b   12.43850000
_cell_length_c   14.69000000
_cell_angle_alpha   108.93000000
_cell_angle_beta   90.51920000
_cell_angle_gamma   90.62520000
_symmetry_Int_Tables_number   1
_chemical_formula_structural   CsP2H10C11O3
_chemical_formula_sum   'Cs4 P8 H40 C44 O12'
_cell_volume   1248.37401493
_cell_formula_units_Z   4
loop_
 _symmetry_equiv_pos_site_id
 _symmetry_equiv_pos_as_xyz
  1  'x, y, z'
loop_
 _atom_site_type_symbol
 _atom_site_label
 _atom_site_symmetry_multiplicity
 _atom_site_fract_x
 _atom_site_fract_y
 _atom_site_fract_z
 _atom_site_occupancy
  Cs  Cs0  1  0.26833000  0.06736000  0.89495000  1.0
  Cs  Cs1  1  0.73167000  0.93263000  0.10505000  1.0
  Cs  Cs2  1  0.21424000  0.12126000  0.16774000  1.0
  Cs  Cs3  1  0.78575000  0.87873000  0.83226000  1.0
  P  P4  1  0.75024000  0.20560000  0.04772000  1.0
  P  P5  1  0.24976000  0.79440000  0.95229000  1.0
  P  P6  1  0.85432000  0.34164000  0.18199000  1.0
  P  P7  1  0.14568000  0.65836000  0.81801000  1.0
  P  P8  1  0.59695000  0.35466000  0.26799000  1.0
  P  P9  1  0.40304000  0.64534000  0.73201000  1.0
  P  P10  1  0.67213000  0.20955000  0.32053000  1.0
  P  P11  1  0.32786000  0.79045000  0.67947000  1.0
  H  H12  1  0.64300000  0.17827000  0.83979000  1.0
  H  H13  1  0.35699000  0.82173000  0.16022000  1.0
  H  H14  1  0.59555000  0.32123000  0.75987000  1.0
  H  H15  1  0.40445000  0.67876000  0.24013000  1.0
  H  H16  1  0.66085000  0.52572000  0.84549000  1.0
  H  H17  1  0.33914000  0.47427000  0.15451000  1.0
  H  H18  1  0.78038000  0.67598000  0.99157000  1.0
  H  H19  1  0.21960000  0.32402000  0.00843000  1.0
  H  H20  1  0.88702000  0.73485000  0.16422000  1.0
  H  H21  1  0.11297000  0.26516000  0.83577000  1.0
  H  H22  1  0.90609000  0.59370000  0.24875000  1.0
  H  H23  1  0.09391000  0.40631000  0.75125000  1.0
  H  H24  1  0.62382000  0.60815000  0.34550000  1.0
  H  H25  1  0.37618000  0.39184000  0.65449000  1.0
  H  H26  1  0.72405000  0.74132000  0.50488000  1.0
  H  H27  1  0.27596000  0.25867000  0.49512000  1.0
  H  H28  1  0.82783000  0.66873000  0.63493000  1.0
  H  H29  1  0.17216000  0.33127000  0.36507000  1.0
  H  H30  1  0.86730000  0.50454000  0.69580000  1.0
  H  H31  1  0.13268000  0.49546000  0.30420000  1.0
  H  H32  1  0.86384000  0.29577000  0.66478000  1.0
  H  H33  1  0.13615000  0.70423000  0.33522000  1.0
  H  H34  1  0.78133000  0.16251000  0.50233000  1.0
  H  H35  1  0.21866000  0.83749000  0.49767000  1.0
  H  H36  1  0.46460000  0.99953000  0.68694000  1.0
  H  H37  1  0.53539000  0.00048000  0.31306000  1.0
  H  H38  1  0.35171000  0.03432000  0.56149000  1.0
  H  H39  1  0.64828000  0.96568000  0.43851000  1.0
  H  H40  1  0.47383000  0.16692000  0.60330000  1.0
  H  H41  1  0.52616000  0.83308000  0.39669000  1.0
  H  H42  1  0.24349000  0.15554000  0.64268000  1.0
  H  H43  1  0.75649000  0.84446000  0.35731000  1.0
  H  H44  1  0.05120000  0.96237000  0.70906000  1.0
  H  H45  1  0.94880000  0.03762000  0.29094000  1.0
  H  H46  1  0.75945000  0.06907000  0.64042000  1.0
  H  H47  1  0.24055000  0.93092000  0.35958000  1.0
  H  H48  1  0.98113000  0.05405000  0.58381000  1.0
  H  H49  1  0.01888000  0.94595000  0.41620000  1.0
  H  H50  1  0.85113000  0.93124000  0.58541000  1.0
  H  H51  1  0.14887000  0.06876000  0.41459000  1.0
  C  C52  1  0.72010000  0.30113000  0.97760000  1.0
  C  C53  1  0.27991000  0.69887000  0.02240000  1.0
  C  C54  1  0.66736000  0.26739000  0.88154000  1.0
  C  C55  1  0.33265000  0.73261000  0.11846000  1.0
  C  C56  1  0.64304000  0.34922000  0.83463000  1.0
  C  C57  1  0.35696000  0.65078000  0.16537000  1.0
  C  C58  1  0.67924000  0.46291000  0.88222000  1.0
  C  C59  1  0.32076000  0.53709000  0.11778000  1.0
  C  C60  1  0.74035000  0.50003000  0.97966000  1.0
  C  C61  1  0.25967000  0.49997000  0.02033000  1.0
  C  C62  1  0.78788000  0.61484000  0.03054000  1.0
  C  C63  1  0.21212000  0.38516000  0.96945000  1.0
  C  C64  1  0.84582000  0.64704000  0.12549000  1.0
  C  C65  1  0.15419000  0.35296000  0.87451000  1.0
  C  C66  1  0.85905000  0.56614000  0.17397000  1.0
  C  C67  1  0.14096000  0.43386000  0.82603000  1.0
  C  C68  1  0.81614000  0.45256000  0.12696000  1.0
  C  C69  1  0.18387000  0.54744000  0.87304000  1.0
  C  C70  1  0.75706000  0.41772000  0.02833000  1.0
  C  C71  1  0.24296000  0.58228000  0.97167000  1.0
  C  C72  1  0.67602000  0.45769000  0.38285000  1.0
  C  C73  1  0.32398000  0.54231000  0.61714000  1.0
  C  C74  1  0.67168000  0.57418000  0.40121000  1.0
  C  C75  1  0.32832000  0.42582000  0.59879000  1.0
  C  C76  1  0.72768000  0.65005000  0.49210000  1.0
  C  C77  1  0.27232000  0.34995000  0.50790000  1.0
  C  C78  1  0.78284000  0.61018000  0.56528000  1.0
  C  C79  1  0.21716000  0.38982000  0.43472000  1.0
  C  C80  1  0.78294000  0.49177000  0.55106000  1.0
  C  C81  1  0.21707000  0.50823000  0.44894000  1.0
  C  C82  1  0.82966000  0.44587000  0.62475000  1.0
  C  C83  1  0.17034000  0.55413000  0.37525000  1.0
  C  C84  1  0.82796000  0.32971000  0.60723000  1.0
  C  C85  1  0.17204000  0.67029000  0.39277000  1.0
  C  C86  1  0.78036000  0.25396000  0.51516000  1.0
  C  C87  1  0.21964000  0.74604000  0.48484000  1.0
  C  C88  1  0.73320000  0.29623000  0.44194000  1.0
  C  C89  1  0.26681000  0.70377000  0.55806000  1.0
  C  C90  1  0.73172000  0.41491000  0.45827000  1.0
  C  C91  1  0.26828000  0.58509000  0.54173000  1.0
  C  C92  1  0.37573000  0.11085000  0.62446000  1.0
  C  C93  1  0.62426000  0.88916000  0.37554000  1.0
  C  C94  1  0.88742000  0.02006000  0.62713000  1.0
  C  C95  1  0.11259000  0.97993000  0.37287000  1.0
  O  O96  1  0.90665000  0.12272000  0.00837000  1.0
  O  O97  1  0.09335000  0.87728000  0.99164000  1.0
  O  O98  1  0.56589000  0.15229000  0.06153000  1.0
  O  O99  1  0.43411000  0.84772000  0.93847000  1.0
  O  O100  1  0.50311000  0.13421000  0.31832000  1.0
  O  O101  1  0.49689000  0.86579000  0.68169000  1.0
  O  O102  1  0.84278000  0.14770000  0.26935000  1.0
  O  O103  1  0.15721000  0.85230000  0.73064000  1.0
  O  O104  1  0.44544000  0.08338000  0.70499000  1.0
  O  O105  1  0.55455000  0.91663000  0.29502000  1.0
  O  O106  1  0.96854000  0.02862000  0.71819000  1.0
  O  O107  1  0.03146000  0.97137000  0.28181000  1.0
