# generated using pymatgen
data_TlH8C5NO4
_symmetry_space_group_name_H-M   'P 1'
_cell_length_a   5.35013000
_cell_length_b   9.56321000
_cell_length_c   16.02130000
_cell_angle_alpha   107.22100000
_cell_angle_beta   89.99950000
_cell_angle_gamma   90.00000000
_symmetry_Int_Tables_number   1
_chemical_formula_structural   TlH8C5NO4
_chemical_formula_sum   'Tl4 H32 C20 N4 O16'
_cell_volume   782.97233144
_cell_formula_units_Z   4
loop_
 _symmetry_equiv_pos_site_id
 _symmetry_equiv_pos_as_xyz
  1  'x, y, z'
loop_
 _atom_site_type_symbol
 _atom_site_label
 _atom_site_symmetry_multiplicity
 _atom_site_fract_x
 _atom_site_fract_y
 _atom_site_fract_z
 _atom_site_occupancy
  Tl  Tl0  1  0.96085000  0.68021000  0.08984000  1.0
  Tl  Tl1  1  0.46085000  0.31977000  0.91016000  1.0
  Tl  Tl2  1  0.44736000  0.81793000  0.91432000  1.0
  Tl  Tl3  1  0.94735000  0.18204000  0.08566000  1.0
  H  H4  1  0.52154000  0.40838000  0.52531000  1.0
  H  H5  1  0.02155000  0.59164000  0.47469000  1.0
  H  H6  1  0.45489000  0.55743000  0.61032000  1.0
  H  H7  1  0.95486000  0.44258000  0.38969000  1.0
  H  H8  1  0.36091000  0.38546000  0.61025000  1.0
  H  H9  1  0.86090000  0.61454000  0.38976000  1.0
  H  H10  1  0.41566000  0.14248000  0.48942000  1.0
  H  H11  1  0.91571000  0.85754000  0.51058000  1.0
  H  H12  1  0.31137000  0.98320000  0.42007000  1.0
  H  H13  1  0.81141000  0.01680000  0.57993000  1.0
  H  H14  1  0.25424000  0.14802000  0.40032000  1.0
  H  H15  1  0.75429000  0.85198000  0.59968000  1.0
  H  H16  1  0.88044000  0.50553000  0.61266000  1.0
  H  H17  1  0.38045000  0.49446000  0.38733000  1.0
  H  H18  1  0.65295000  0.59716000  0.75165000  1.0
  H  H19  1  0.15291000  0.40285000  0.24835000  1.0
  H  H20  1  0.58977000  0.41702000  0.75394000  1.0
  H  H21  1  0.08976000  0.58301000  0.24607000  1.0
  H  H22  1  0.04879000  0.37191000  0.76597000  1.0
  H  H23  1  0.54877000  0.62809000  0.23403000  1.0
  H  H24  1  0.11959000  0.54493000  0.75564000  1.0
  H  H25  1  0.61956000  0.45509000  0.24437000  1.0
  H  H26  1  0.75572000  0.01571000  0.40941000  1.0
  H  H27  1  0.25574000  0.98430000  0.59059000  1.0
  H  H28  1  0.80113000  0.97548000  0.25470000  1.0
  H  H29  1  0.30114000  0.02454000  0.74529000  1.0
  H  H30  1  0.54647000  0.87513000  0.27680000  1.0
  H  H31  1  0.04646000  0.12489000  0.72320000  1.0
  H  H32  1  0.24498000  0.05468000  0.24718000  1.0
  H  H33  1  0.74501000  0.94531000  0.75282000  1.0
  H  H34  1  0.49126000  0.16906000  0.23526000  1.0
  H  H35  1  0.99132000  0.83092000  0.76473000  1.0
  C  C36  1  0.85104000  0.27566000  0.60029000  1.0
  C  C37  1  0.35103000  0.72435000  0.39972000  1.0
  C  C38  1  0.75183000  0.43290000  0.63345000  1.0
  C  C39  1  0.25181000  0.56711000  0.36655000  1.0
  C  C40  1  0.72821000  0.48495000  0.73300000  1.0
  C  C41  1  0.22820000  0.51508000  0.26700000  1.0
  C  C42  1  0.97552000  0.48414000  0.77971000  1.0
  C  C43  1  0.47549000  0.51585000  0.22029000  1.0
  C  C44  1  0.96268000  0.54769000  0.87883000  1.0
  C  C45  1  0.46267000  0.45229000  0.12117000  1.0
  C  C46  1  0.74290000  0.22782000  0.38832000  1.0
  C  C47  1  0.24294000  0.77220000  0.61169000  1.0
  C  C48  1  0.63137000  0.07538000  0.37733000  1.0
  C  C49  1  0.13140000  0.92464000  0.62267000  1.0
  C  C50  1  0.60974000  0.98619000  0.28101000  1.0
  C  C51  1  0.10972000  0.01382000  0.71899000  1.0
  C  C52  1  0.44177000  0.05394000  0.22625000  1.0
  C  C53  1  0.94179000  0.94605000  0.77375000  1.0
  C  C54  1  0.44993000  0.97225000  0.12835000  1.0
  C  C55  1  0.94993000  0.02771000  0.87166000  1.0
  N  N56  1  0.50444000  0.44673000  0.59371000  1.0
  N  N57  1  0.00443000  0.55327000  0.40629000  1.0
  N  N58  1  0.38653000  0.08907000  0.42382000  1.0
  N  N59  1  0.88657000  0.91093000  0.57618000  1.0
  O  O60  1  0.17021000  0.56912000  0.91989000  1.0
  O  O61  1  0.67021000  0.43086000  0.08012000  1.0
  O  O62  1  0.75108000  0.57457000  0.91603000  1.0
  O  O63  1  0.25108000  0.42539000  0.08397000  1.0
  O  O64  1  0.68721000  0.17328000  0.58227000  1.0
  O  O65  1  0.18719000  0.82672000  0.41772000  1.0
  O  O66  1  0.08496000  0.25783000  0.59611000  1.0
  O  O67  1  0.58495000  0.74219000  0.40389000  1.0
  O  O68  1  0.46620000  0.83342000  0.10426000  1.0
  O  O69  1  0.96619000  0.16654000  0.89575000  1.0
  O  O70  1  0.43625000  0.05007000  0.07594000  1.0
  O  O71  1  0.93629000  0.94989000  0.92406000  1.0
  O  O72  1  0.96626000  0.23444000  0.36307000  1.0
  O  O73  1  0.46629000  0.76559000  0.63693000  1.0
  O  O74  1  0.60368000  0.33857000  0.42028000  1.0
  O  O75  1  0.10373000  0.66145000  0.57972000  1.0
