# generated using pymatgen
data_ZnH14C17(SN4)2
_symmetry_space_group_name_H-M   'P 1'
_cell_length_a   8.65432000
_cell_length_b   9.46616000
_cell_length_c   11.69550000
_cell_angle_alpha   84.77580000
_cell_angle_beta   88.51230000
_cell_angle_gamma   81.78140000
_symmetry_Int_Tables_number   1
_chemical_formula_structural   ZnH14C17(SN4)2
_chemical_formula_sum   'Zn2 H28 C34 S4 N16'
_cell_volume   944.27173896
_cell_formula_units_Z   2
loop_
 _symmetry_equiv_pos_site_id
 _symmetry_equiv_pos_as_xyz
  1  'x, y, z'
loop_
 _atom_site_type_symbol
 _atom_site_label
 _atom_site_symmetry_multiplicity
 _atom_site_fract_x
 _atom_site_fract_y
 _atom_site_fract_z
 _atom_site_occupancy
  Zn  Zn0  1  0.64301000  0.84812000  0.77268000  1.0
  Zn  Zn1  1  0.35699000  0.15188000  0.22732000  1.0
  H  H2  1  0.50314000  0.80075000  0.05365000  1.0
  H  H3  1  0.49686000  0.19925000  0.94635000  1.0
  H  H4  1  0.45663000  0.65698000  0.23640000  1.0
  H  H5  1  0.54338000  0.34303000  0.76360000  1.0
  H  H6  1  0.58440000  0.40703000  0.27489000  1.0
  H  H7  1  0.41559000  0.59298000  0.72511000  1.0
  H  H8  1  0.77335000  0.29111000  0.13474000  1.0
  H  H9  1  0.22664000  0.70889000  0.86527000  1.0
  H  H10  1  0.88115000  0.23790000  0.91460000  1.0
  H  H11  1  0.11885000  0.76210000  0.08540000  1.0
  H  H12  1  0.03129000  0.31397000  0.97402000  1.0
  H  H13  1  0.96870000  0.68603000  0.02599000  1.0
  H  H14  1  0.07085000  0.44369000  0.77052000  1.0
  H  H15  1  0.92915000  0.55631000  0.22948000  1.0
  H  H16  1  0.13785000  0.25928000  0.79528000  1.0
  H  H17  1  0.86215000  0.74072000  0.20473000  1.0
  H  H18  1  0.81812000  0.36963000  0.68588000  1.0
  H  H19  1  0.18188000  0.63037000  0.31412000  1.0
  H  H20  1  0.99526000  0.33943000  0.60604000  1.0
  H  H21  1  0.00474000  0.66056000  0.39396000  1.0
  H  H22  1  0.23126000  0.14442000  0.58486000  1.0
  H  H23  1  0.76875000  0.85558000  0.41514000  1.0
  H  H24  1  0.36452000  0.90583000  0.53259000  1.0
  H  H25  1  0.63548000  0.09417000  0.46741000  1.0
  H  H26  1  0.23955000  0.68860000  0.56921000  1.0
  H  H27  1  0.76044000  0.31140000  0.43079000  1.0
  H  H28  1  0.97740000  0.69479000  0.66655000  1.0
  H  H29  1  0.02260000  0.30521000  0.33344000  1.0
  C  C30  1  0.66666667  0.62587000  0.99134000  1.0
  C  C31  1  0.33329000  0.37413000  0.00867000  1.0
  C  C32  1  0.56093000  0.69127000  0.07042000  1.0
  C  C33  1  0.43907000  0.30872000  0.92958000  1.0
  C  C34  1  0.53555000  0.60944000  0.17176000  1.0
  C  C35  1  0.46446000  0.39056000  0.82824000  1.0
  C  C36  1  0.61092000  0.46680000  0.19453000  1.0
  C  C37  1  0.38908000  0.53320000  0.80547000  1.0
  C  C38  1  0.71639000  0.40105000  0.11771000  1.0
  C  C39  1  0.28362000  0.59895000  0.88230000  1.0
  C  C40  1  0.74282000  0.48434000  0.01563000  1.0
  C  C41  1  0.25718000  0.51565000  0.98438000  1.0
  C  C42  1  0.94708000  0.32961000  0.90375000  1.0
  C  C43  1  0.05291000  0.67039000  0.09625000  1.0
  C  C44  1  0.03195000  0.33850000  0.78841000  1.0
  C  C45  1  0.96805000  0.66150000  0.21159000  1.0
  C  C46  1  0.93627000  0.30960000  0.68708000  1.0
  C  C47  1  0.06373000  0.69040000  0.31292000  1.0
  C  C48  1  0.02908000  0.04973000  0.65341000  1.0
  C  C49  1  0.97092000  0.95027000  0.34658000  1.0
  C  C50  1  0.17698000  0.04749000  0.60152000  1.0
  C  C51  1  0.82301000  0.95251000  0.39847000  1.0
  C  C52  1  0.24920000  0.91480000  0.57305000  1.0
  C  C53  1  0.75079000  0.08520000  0.42695000  1.0
  C  C54  1  0.17792000  0.78932000  0.59568000  1.0
  C  C55  1  0.82208000  0.21068000  0.40432000  1.0
  C  C56  1  0.03248000  0.79115000  0.64881000  1.0
  C  C57  1  0.96753000  0.20885000  0.35119000  1.0
  C  C58  1  0.95794000  0.92510000  0.67794000  1.0
  C  C59  1  0.04206000  0.07489000  0.32206000  1.0
  C  C60  1  0.65254000  0.68098000  0.55809000  1.0
  C  C61  1  0.34747000  0.31903000  0.44191000  1.0
  C  C62  1  0.34245000  0.97621000  0.88899000  1.0
  C  C63  1  0.65755000  0.02380000  0.11101000  1.0
  S  S64  1  0.69978000  0.58515000  0.45277000  1.0
  S  S65  1  0.30021000  0.41485000  0.54724000  1.0
  S  S66  1  0.18270000  0.00730000  0.96120000  1.0
  S  S67  1  0.81730000  0.99269000  0.03881000  1.0
  N  N68  1  0.81448000  0.96754000  0.72728000  1.0
  N  N69  1  0.18553000  0.03246000  0.27272000  1.0
  N  N70  1  0.79339000  0.10734000  0.73329000  1.0
  N  N71  1  0.20661000  0.89266000  0.26671000  1.0
  N  N72  1  0.92091000  0.15798000  0.68883000  1.0
  N  N73  1  0.07910000  0.84202000  0.31117000  1.0
  N  N74  1  0.71939000  0.67369000  0.88451000  1.0
  N  N75  1  0.28061000  0.32631000  0.11550000  1.0
  N  N76  1  0.82120000  0.57279000  0.84372000  1.0
  N  N77  1  0.17880000  0.42721000  0.15628000  1.0
  N  N78  1  0.83702000  0.45890000  0.92137000  1.0
  N  N79  1  0.16299000  0.54110000  0.07863000  1.0
  N  N80  1  0.61556000  0.75488000  0.63407000  1.0
  N  N81  1  0.38443000  0.24512000  0.36593000  1.0
  N  N82  1  0.46183000  0.95395000  0.83691000  1.0
  N  N83  1  0.53816000  0.04605000  0.16310000  1.0
