# generated using pymatgen
data_SnH16C19S2N3O4
_symmetry_space_group_name_H-M   'P 1'
_cell_length_a   11.20590000
_cell_length_b   11.65230000
_cell_length_c   19.78830000
_cell_angle_alpha   90.00020000
_cell_angle_beta   90.00030000
_cell_angle_gamma   95.96790000
_symmetry_Int_Tables_number   1
_chemical_formula_structural   SnH16C19S2N3O4
_chemical_formula_sum   'Sn4 H64 C76 S8 N12 O16'
_cell_volume   2569.84387301
_cell_formula_units_Z   4
loop_
 _symmetry_equiv_pos_site_id
 _symmetry_equiv_pos_as_xyz
  1  'x, y, z'
loop_
 _atom_site_type_symbol
 _atom_site_label
 _atom_site_symmetry_multiplicity
 _atom_site_fract_x
 _atom_site_fract_y
 _atom_site_fract_z
 _atom_site_occupancy
  Sn  Sn0  1  0.58225000  0.28338000  0.03517000  1.0
  Sn  Sn1  1  0.91775000  0.71663000  0.53517000  1.0
  Sn  Sn2  1  0.41775000  0.71662000  0.96483000  1.0
  Sn  Sn3  1  0.08225000  0.28337000  0.46482000  1.0
  H  H4  1  0.14943000  0.96185000  0.35843000  1.0
  H  H5  1  0.35056000  0.03814000  0.85843000  1.0
  H  H6  1  0.85057000  0.03814000  0.64157000  1.0
  H  H7  1  0.64943000  0.96185000  0.14157000  1.0
  H  H8  1  0.30300000  0.67663000  0.45009000  1.0
  H  H9  1  0.19701000  0.32337000  0.95009000  1.0
  H  H10  1  0.69701000  0.32337000  0.54990000  1.0
  H  H11  1  0.80300000  0.67662000  0.04991000  1.0
  H  H12  1  0.49750000  0.74199000  0.39007000  1.0
  H  H13  1  0.00251000  0.25802000  0.89007000  1.0
  H  H14  1  0.50250000  0.25801000  0.60993000  1.0
  H  H15  1  0.99751000  0.74199000  0.10993000  1.0
  H  H16  1  0.81170000  0.52393000  0.21839000  1.0
  H  H17  1  0.68830000  0.47608000  0.71838000  1.0
  H  H18  1  0.18830000  0.47607000  0.78162000  1.0
  H  H19  1  0.31170000  0.52393000  0.28162000  1.0
  H  H20  1  0.45171000  0.58308000  0.16232000  1.0
  H  H21  1  0.04829000  0.41692000  0.66232000  1.0
  H  H22  1  0.54829000  0.41692000  0.83768000  1.0
  H  H23  1  0.95171000  0.58309000  0.33768000  1.0
  H  H24  1  0.46875000  0.75432000  0.23776000  1.0
  H  H25  1  0.03125000  0.24569000  0.73776000  1.0
  H  H26  1  0.53125000  0.24569000  0.76224000  1.0
  H  H27  1  0.96875000  0.75432000  0.26225000  1.0
  H  H28  1  0.76511000  0.42441000  0.98458000  1.0
  H  H29  1  0.73489000  0.57559000  0.48459000  1.0
  H  H30  1  0.23488000  0.57559000  0.01541000  1.0
  H  H31  1  0.26511000  0.42441000  0.51541000  1.0
  H  H32  1  0.62517000  0.46659000  0.95297000  1.0
  H  H33  1  0.87482000  0.53341000  0.45298000  1.0
  H  H34  1  0.37481000  0.53340000  0.04702000  1.0
  H  H35  1  0.12517000  0.46659000  0.54702000  1.0
  H  H36  1  0.68899000  0.34435000  0.91676000  1.0
  H  H37  1  0.81101000  0.65565000  0.41676000  1.0
  H  H38  1  0.31101000  0.65565000  0.08324000  1.0
  H  H39  1  0.18898000  0.34435000  0.58324000  1.0
  H  H40  1  0.86223000  0.27159000  0.08538000  1.0
  H  H41  1  0.63777000  0.72840000  0.58537000  1.0
  H  H42  1  0.13777000  0.72841000  0.91463000  1.0
  H  H43  1  0.36224000  0.27159000  0.41462000  1.0
  H  H44  1  0.03956000  0.16321000  0.07218000  1.0
  H  H45  1  0.46044000  0.83678000  0.57217000  1.0
  H  H46  1  0.96043000  0.83679000  0.92783000  1.0
  H  H47  1  0.53957000  0.16321000  0.42783000  1.0
  H  H48  1  0.82178000  0.92603000  0.94238000  1.0
  H  H49  1  0.67822000  0.07397000  0.44238000  1.0
  H  H50  1  0.17821000  0.07397000  0.05762000  1.0
  H  H51  1  0.32178000  0.92603000  0.55762000  1.0
  H  H52  1  0.65591000  0.04700000  0.96007000  1.0
  H  H53  1  0.84409000  0.95300000  0.46007000  1.0
  H  H54  1  0.34408000  0.95301000  0.03993000  1.0
  H  H55  1  0.15592000  0.04700000  0.53993000  1.0
  H  H56  1  0.51299000  0.06836000  0.08265000  1.0
  H  H57  1  0.98702000  0.93164000  0.58264000  1.0
  H  H58  1  0.48701000  0.93164000  0.91735000  1.0
  H  H59  1  0.01299000  0.06836000  0.41735000  1.0
  H  H60  1  0.42805000  0.17245000  0.12317000  1.0
  H  H61  1  0.07196000  0.82755000  0.62317000  1.0
  H  H62  1  0.57195000  0.82755000  0.87683000  1.0
  H  H63  1  0.92805000  0.17245000  0.37683000  1.0
  H  H64  1  0.57916000  0.15844000  0.14930000  1.0
  H  H65  1  0.92086000  0.84157000  0.64930000  1.0
  H  H66  1  0.42085000  0.84156000  0.85070000  1.0
  H  H67  1  0.07916000  0.15845000  0.35070000  1.0
  C  C68  1  0.22567000  0.91250000  0.36687000  1.0
  C  C69  1  0.27433000  0.08749000  0.86686000  1.0
  C  C70  1  0.77433000  0.08749000  0.63313000  1.0
  C  C71  1  0.72567000  0.91250000  0.13314000  1.0
  C  C72  1  0.21321000  0.81615000  0.40963000  1.0
  C  C73  1  0.28680000  0.18385000  0.90963000  1.0
  C  C74  1  0.78680000  0.18385000  0.59037000  1.0
  C  C75  1  0.71321000  0.81615000  0.09037000  1.0
  C  C76  1  0.31171000  0.75258000  0.41761000  1.0
  C  C77  1  0.18829000  0.24742000  0.91761000  1.0
  C  C78  1  0.68829000  0.24741000  0.58239000  1.0
  C  C79  1  0.81172000  0.75258000  0.08239000  1.0
  C  C80  1  0.41862000  0.78848000  0.38486000  1.0
  C  C81  1  0.08138000  0.21152000  0.88486000  1.0
  C  C82  1  0.58138000  0.21152000  0.61514000  1.0
  C  C83  1  0.91863000  0.78848000  0.11514000  1.0
  C  C84  1  0.42220000  0.88865000  0.34555000  1.0
  C  C85  1  0.07780000  0.11135000  0.84555000  1.0
  C  C86  1  0.57780000  0.11135000  0.65445000  1.0
  C  C87  1  0.92221000  0.88865000  0.15445000  1.0
  C  C88  1  0.65262000  0.72926000  0.26650000  1.0
  C  C89  1  0.84738000  0.27075000  0.76650000  1.0
  C  C90  1  0.34737000  0.27075000  0.73350000  1.0
  C  C91  1  0.15262000  0.72927000  0.23350000  1.0
  C  C92  1  0.73473000  0.57394000  0.22187000  1.0
  C  C93  1  0.76527000  0.42606000  0.72187000  1.0
  C  C94  1  0.26527000  0.42606000  0.77813000  1.0
  C  C95  1  0.23473000  0.57395000  0.27814000  1.0
  C  C96  1  0.63161000  0.54195000  0.18353000  1.0
  C  C97  1  0.86839000  0.45805000  0.68354000  1.0
  C  C98  1  0.36839000  0.45804000  0.81647000  1.0
  C  C99  1  0.13161000  0.54196000  0.31647000  1.0
  C  C100  1  0.53400000  0.60706000  0.19047000  1.0
  C  C101  1  0.96600000  0.39294000  0.69048000  1.0
  C  C102  1  0.46600000  0.39294000  0.80953000  1.0
  C  C103  1  0.03400000  0.60707000  0.30953000  1.0
  C  C104  1  0.54374000  0.70282000  0.23244000  1.0
  C  C105  1  0.95626000  0.29718000  0.73245000  1.0
  C  C106  1  0.45626000  0.29718000  0.76755000  1.0
  C  C107  1  0.04373000  0.70283000  0.26756000  1.0
  C  C108  1  0.62586000  0.44481000  0.13474000  1.0
  C  C109  1  0.87414000  0.55519000  0.63474000  1.0
  C  C110  1  0.37414000  0.55519000  0.86526000  1.0
  C  C111  1  0.12586000  0.44481000  0.36527000  1.0
  C  C112  1  0.10112000  0.78568000  0.44849000  1.0
  C  C113  1  0.39889000  0.21431000  0.94848000  1.0
  C  C114  1  0.89889000  0.21432000  0.55152000  1.0
  C  C115  1  0.60111000  0.78568000  0.05152000  1.0
  C  C116  1  0.67753000  0.39403000  0.96292000  1.0
  C  C117  1  0.82247000  0.60597000  0.46292000  1.0
  C  C118  1  0.32247000  0.60596000  0.03708000  1.0
  C  C119  1  0.17752000  0.39403000  0.53708000  1.0
  C  C120  1  0.85860000  0.19502000  0.05345000  1.0
  C  C121  1  0.64140000  0.80498000  0.55344000  1.0
  C  C122  1  0.14140000  0.80498000  0.94656000  1.0
  C  C123  1  0.35861000  0.19502000  0.44655000  1.0
  C  C124  1  0.95715000  0.13327000  0.04567000  1.0
  C  C125  1  0.54285000  0.86673000  0.54567000  1.0
  C  C126  1  0.04285000  0.86673000  0.95433000  1.0
  C  C127  1  0.45715000  0.13326000  0.45433000  1.0
  C  C128  1  0.94848000  0.03392000  0.00496000  1.0
  C  C129  1  0.55152000  0.96608000  0.50496000  1.0
  C  C130  1  0.05152000  0.96608000  0.99504000  1.0
  C  C131  1  0.44848000  0.03391000  0.49504000  1.0
  C  C132  1  0.83703000  0.00215000  0.97426000  1.0
  C  C133  1  0.66297000  0.99785000  0.47426000  1.0
  C  C134  1  0.16296000  0.99786000  0.02574000  1.0
  C  C135  1  0.33704000  0.00215000  0.52574000  1.0
  C  C136  1  0.74282000  0.06913000  0.98403000  1.0
  C  C137  1  0.75718000  0.93087000  0.48403000  1.0
  C  C138  1  0.25717000  0.93088000  0.01597000  1.0
  C  C139  1  0.24283000  0.06913000  0.51597000  1.0
  C  C140  1  0.51711000  0.15364000  0.10634000  1.0
  C  C141  1  0.98290000  0.84636000  0.60634000  1.0
  C  C142  1  0.48290000  0.84636000  0.89366000  1.0
  C  C143  1  0.01712000  0.15364000  0.39366000  1.0
  S  S144  1  0.55132000  0.95183000  0.30171000  1.0
  S  S145  1  0.94868000  0.04817000  0.80170000  1.0
  S  S146  1  0.44868000  0.04817000  0.69829000  1.0
  S  S147  1  0.05132000  0.95184000  0.19829000  1.0
  S  S148  1  0.68324000  0.84899000  0.32183000  1.0
  S  S149  1  0.81676000  0.15102000  0.82183000  1.0
  S  S150  1  0.31675000  0.15102000  0.67817000  1.0
  S  S151  1  0.18324000  0.84899000  0.17817000  1.0
  N  N152  1  0.32838000  0.94921000  0.33564000  1.0
  N  N153  1  0.17162000  0.05079000  0.83564000  1.0
  N  N154  1  0.67162000  0.05079000  0.66436000  1.0
  N  N155  1  0.82838000  0.94921000  0.16436000  1.0
  N  N156  1  0.74563000  0.66582000  0.26290000  1.0
  N  N157  1  0.75436000  0.33418000  0.76290000  1.0
  N  N158  1  0.25436000  0.33417000  0.73711000  1.0
  N  N159  1  0.24563000  0.66583000  0.23711000  1.0
  N  N160  1  0.75304000  0.16416000  0.02277000  1.0
  N  N161  1  0.74696000  0.83583000  0.52277000  1.0
  N  N162  1  0.24695000  0.83584000  0.97723000  1.0
  N  N163  1  0.25305000  0.16416000  0.47723000  1.0
  O  O164  1  0.71387000  0.38612000  0.12580000  1.0
  O  O165  1  0.78613000  0.61388000  0.62580000  1.0
  O  O166  1  0.28613000  0.61388000  0.87420000  1.0
  O  O167  1  0.21387000  0.38612000  0.37420000  1.0
  O  O168  1  0.52776000  0.42431000  0.10058000  1.0
  O  O169  1  0.97224000  0.57569000  0.60058000  1.0
  O  O170  1  0.47224000  0.57569000  0.89942000  1.0
  O  O171  1  0.02776000  0.42431000  0.39942000  1.0
  O  O172  1  0.09977000  0.70082000  0.49039000  1.0
  O  O173  1  0.40024000  0.29916000  0.99040000  1.0
  O  O174  1  0.90024000  0.29917000  0.50960000  1.0
  O  O175  1  0.59977000  0.70082000  0.00961000  1.0
  O  O176  1  0.01157000  0.84353000  0.44238000  1.0
  O  O177  1  0.48844000  0.15646000  0.94238000  1.0
  O  O178  1  0.98844000  0.15646000  0.55762000  1.0
  O  O179  1  0.51157000  0.84353000  0.05762000  1.0
