# generated using pymatgen
data_CoH20C20(NO2)4
_symmetry_space_group_name_H-M   'P 1'
_cell_length_a   11.52030000
_cell_length_b   13.82420000
_cell_length_c   22.04870000
_cell_angle_alpha   89.99970000
_cell_angle_beta   89.99990000
_cell_angle_gamma   77.48800000
_symmetry_Int_Tables_number   1
_chemical_formula_structural   CoH20C20(NO2)4
_chemical_formula_sum   'Co6 H120 C120 N24 O48'
_cell_volume   3428.05770213
_cell_formula_units_Z   6
loop_
 _symmetry_equiv_pos_site_id
 _symmetry_equiv_pos_as_xyz
  1  'x, y, z'
loop_
 _atom_site_type_symbol
 _atom_site_label
 _atom_site_symmetry_multiplicity
 _atom_site_fract_x
 _atom_site_fract_y
 _atom_site_fract_z
 _atom_site_occupancy
  Co  Co0  1  0.50000000  0.00000000  0.50000000  1.0
  Co  Co1  1  0.50000000  0.50000000  0.00000000  1.0
  Co  Co2  1  0.39932000  0.00468000  0.18061000  1.0
  Co  Co3  1  0.60068000  0.49533000  0.68061000  1.0
  Co  Co4  1  0.60068000  0.99532000  0.81939000  1.0
  Co  Co5  1  0.39932000  0.50467000  0.31939000  1.0
  H  H6  1  0.07330000  0.27386000  0.92829000  1.0
  H  H7  1  0.92671000  0.22615000  0.42830000  1.0
  H  H8  1  0.92671000  0.72614000  0.07170000  1.0
  H  H9  1  0.07329000  0.77386000  0.57170000  1.0
  H  H10  1  0.01905000  0.24999000  0.73713000  1.0
  H  H11  1  0.98095000  0.25001000  0.23713000  1.0
  H  H12  1  0.98095000  0.75001000  0.26287000  1.0
  H  H13  1  0.01905000  0.74999000  0.76287000  1.0
  H  H14  1  0.37014000  0.24714000  0.80544000  1.0
  H  H15  1  0.62986000  0.25285000  0.30544000  1.0
  H  H16  1  0.62986000  0.75285000  0.19456000  1.0
  H  H17  1  0.37014000  0.74715000  0.69456000  1.0
  H  H18  1  0.32202000  0.27863000  0.06449000  1.0
  H  H19  1  0.67798000  0.22137000  0.56449000  1.0
  H  H20  1  0.67799000  0.72137000  0.93551000  1.0
  H  H21  1  0.32202000  0.77864000  0.43551000  1.0
  H  H22  1  0.44553000  0.22753000  0.01826000  1.0
  H  H23  1  0.55447000  0.27247000  0.51826000  1.0
  H  H24  1  0.55447000  0.77246000  0.98174000  1.0
  H  H25  1  0.44553000  0.72754000  0.48174000  1.0
  H  H26  1  0.67392000  0.30423000  0.86842000  1.0
  H  H27  1  0.32608000  0.19578000  0.36842000  1.0
  H  H28  1  0.32608000  0.69577000  0.13158000  1.0
  H  H29  1  0.67392000  0.80422000  0.63158000  1.0
  H  H30  1  0.70125000  0.19353000  0.82617000  1.0
  H  H31  1  0.29876000  0.30646000  0.32617000  1.0
  H  H32  1  0.29876000  0.80647000  0.17383000  1.0
  H  H33  1  0.70124000  0.69354000  0.67383000  1.0
  H  H34  1  0.46389000  0.29101000  0.62401000  1.0
  H  H35  1  0.53611000  0.20899000  0.12401000  1.0
  H  H36  1  0.53611000  0.70899000  0.37599000  1.0
  H  H37  1  0.46389000  0.79101000  0.87599000  1.0
  H  H38  1  0.32512000  0.27977000  0.59209000  1.0
  H  H39  1  0.67489000  0.22023000  0.09209000  1.0
  H  H40  1  0.67489000  0.72023000  0.40791000  1.0
  H  H41  1  0.32511000  0.77977000  0.90791000  1.0
  H  H42  1  0.69010000  0.03216000  0.59120000  1.0
  H  H43  1  0.30990000  0.46785000  0.09119000  1.0
  H  H44  1  0.30990000  0.96784000  0.40880000  1.0
  H  H45  1  0.69010000  0.53216000  0.90881000  1.0
  H  H46  1  0.90401000  0.03185000  0.59620000  1.0
  H  H47  1  0.09599000  0.46816000  0.09620000  1.0
  H  H48  1  0.09599000  0.96815000  0.40380000  1.0
  H  H49  1  0.90400000  0.53186000  0.90380000  1.0
  H  H50  1  0.92244000  0.96325000  0.40403000  1.0
  H  H51  1  0.07756000  0.53675000  0.90402000  1.0
  H  H52  1  0.07757000  0.03675000  0.59597000  1.0
  H  H53  1  0.92244000  0.46325000  0.09597000  1.0
  H  H54  1  0.70960000  0.96781000  0.40736000  1.0
  H  H55  1  0.29040000  0.53219000  0.90735000  1.0
  H  H56  1  0.29040000  0.03219000  0.59264000  1.0
  H  H57  1  0.70960000  0.46781000  0.09264000  1.0
  H  H58  1  0.59309000  0.00782000  0.27581000  1.0
  H  H59  1  0.40691000  0.49217000  0.77581000  1.0
  H  H60  1  0.40690000  0.99217000  0.72419000  1.0
  H  H61  1  0.59309000  0.50783000  0.22419000  1.0
  H  H62  1  0.80563000  0.01229000  0.28008000  1.0
  H  H63  1  0.19436000  0.48771000  0.78008000  1.0
  H  H64  1  0.19436000  0.98771000  0.71992000  1.0
  H  H65  1  0.80564000  0.51229000  0.21992000  1.0
  H  H66  1  0.81345000  0.98523000  0.08432000  1.0
  H  H67  1  0.18655000  0.51477000  0.58432000  1.0
  H  H68  1  0.18655000  0.01476000  0.91569000  1.0
  H  H69  1  0.81345000  0.48524000  0.41569000  1.0
  H  H70  1  0.59993000  0.98613000  0.08788000  1.0
  H  H71  1  0.40007000  0.51387000  0.58788000  1.0
  H  H72  1  0.40006000  0.01386000  0.91212000  1.0
  H  H73  1  0.59993000  0.48613000  0.41212000  1.0
  H  H74  1  0.99727000  0.94327000  0.27250000  1.0
  H  H75  1  0.00271000  0.55674000  0.77249000  1.0
  H  H76  1  0.00272000  0.05673000  0.72751000  1.0
  H  H77  1  0.99728000  0.44327000  0.22751000  1.0
  H  H78  1  0.21183000  0.95213000  0.26713000  1.0
  H  H79  1  0.78816000  0.54788000  0.76712000  1.0
  H  H80  1  0.78816000  0.04788000  0.73288000  1.0
  H  H81  1  0.21184000  0.45212000  0.23288000  1.0
  H  H82  1  0.17410000  0.06139000  0.09228000  1.0
  H  H83  1  0.82590000  0.43860000  0.59227000  1.0
  H  H84  1  0.82589000  0.93861000  0.90773000  1.0
  H  H85  1  0.17410000  0.56139000  0.40773000  1.0
  H  H86  1  0.95767000  0.06653000  0.09155000  1.0
  H  H87  1  0.04233000  0.43347000  0.59156000  1.0
  H  H88  1  0.04232000  0.93347000  0.90845000  1.0
  H  H89  1  0.95768000  0.56653000  0.40845000  1.0
  H  H90  1  0.20181000  0.21626000  0.98046000  1.0
  H  H91  1  0.79820000  0.28374000  0.48046000  1.0
  H  H92  1  0.79819000  0.78374000  0.01954000  1.0
  H  H93  1  0.20181000  0.71626000  0.51954000  1.0
  H  H94  1  0.83385000  0.32604000  0.77480000  1.0
  H  H95  1  0.16615000  0.17396000  0.27479000  1.0
  H  H96  1  0.16615000  0.67396000  0.22520000  1.0
  H  H97  1  0.83386000  0.82604000  0.72520000  1.0
  H  H98  1  0.39182000  0.28758000  0.71844000  1.0
  H  H99  1  0.60818000  0.21242000  0.21845000  1.0
  H  H100  1  0.60818000  0.71242000  0.28155000  1.0
  H  H101  1  0.39182000  0.78758000  0.78155000  1.0
  H  H102  1  0.50985000  0.96747000  0.61198000  1.0
  H  H103  1  0.49014000  0.53253000  0.11198000  1.0
  H  H104  1  0.49015000  0.03253000  0.38802000  1.0
  H  H105  1  0.50986000  0.46747000  0.88802000  1.0
  H  H106  1  0.48732000  0.86288000  0.58369000  1.0
  H  H107  1  0.51268000  0.63712000  0.08369000  1.0
  H  H108  1  0.51268000  0.13712000  0.41631000  1.0
  H  H109  1  0.48732000  0.36288000  0.91631000  1.0
  H  H110  1  0.46317000  0.90671000  0.28568000  1.0
  H  H111  1  0.53683000  0.59329000  0.78567000  1.0
  H  H112  1  0.53682000  0.09329000  0.71432000  1.0
  H  H113  1  0.46318000  0.40671000  0.21433000  1.0
  H  H114  1  0.44310000  0.82386000  0.23824000  1.0
  H  H115  1  0.55690000  0.67615000  0.73823000  1.0
  H  H116  1  0.55690000  0.17614000  0.76176000  1.0
  H  H117  1  0.44310000  0.32386000  0.26177000  1.0
  H  H118  1  0.38174000  0.94685000  0.07256000  1.0
  H  H119  1  0.61826000  0.55315000  0.57256000  1.0
  H  H120  1  0.61825000  0.05315000  0.92744000  1.0
  H  H121  1  0.38175000  0.44685000  0.42744000  1.0
  H  H122  1  0.46662000  0.84523000  0.10003000  1.0
  H  H123  1  0.53338000  0.65477000  0.60002000  1.0
  H  H124  1  0.53337000  0.15477000  0.89998000  1.0
  H  H125  1  0.46663000  0.34523000  0.39998000  1.0
  C  C126  1  0.23233000  0.26152000  0.87198000  1.0
  C  C127  1  0.76767000  0.23848000  0.37198000  1.0
  C  C128  1  0.76767000  0.73847000  0.12802000  1.0
  C  C129  1  0.23233000  0.76152000  0.62802000  1.0
  C  C130  1  0.11164000  0.26848000  0.88287000  1.0
  C  C131  1  0.88837000  0.23152000  0.38287000  1.0
  C  C132  1  0.88837000  0.73152000  0.11713000  1.0
  C  C133  1  0.11163000  0.76848000  0.61712000  1.0
  C  C134  1  0.03344000  0.26517000  0.83503000  1.0
  C  C135  1  0.96657000  0.23482000  0.33503000  1.0
  C  C136  1  0.96656000  0.73483000  0.16497000  1.0
  C  C137  1  0.03344000  0.76517000  0.66497000  1.0
  C  C138  1  0.07648000  0.25678000  0.77553000  1.0
  C  C139  1  0.92353000  0.24322000  0.27553000  1.0
  C  C140  1  0.92353000  0.74322000  0.22447000  1.0
  C  C141  1  0.07647000  0.75677000  0.72447000  1.0
  C  C142  1  0.19743000  0.25109000  0.76391000  1.0
  C  C143  1  0.80257000  0.24892000  0.26392000  1.0
  C  C144  1  0.80257000  0.74892000  0.23609000  1.0
  C  C145  1  0.19742000  0.75108000  0.73608000  1.0
  C  C146  1  0.27510000  0.25384000  0.81230000  1.0
  C  C147  1  0.72490000  0.24616000  0.31231000  1.0
  C  C148  1  0.72490000  0.74616000  0.18769000  1.0
  C  C149  1  0.27510000  0.75384000  0.68769000  1.0
  C  C150  1  0.32011000  0.25373000  0.92207000  1.0
  C  C151  1  0.67990000  0.24627000  0.42207000  1.0
  C  C152  1  0.67989000  0.74626000  0.07793000  1.0
  C  C153  1  0.32011000  0.75374000  0.57793000  1.0
  C  C154  1  0.35565000  0.22021000  0.03113000  1.0
  C  C155  1  0.64435000  0.27979000  0.53113000  1.0
  C  C156  1  0.64435000  0.77979000  0.96887000  1.0
  C  C157  1  0.35565000  0.72022000  0.46887000  1.0
  C  C158  1  0.36093000  0.11937000  0.06113000  1.0
  C  C159  1  0.63908000  0.38063000  0.56113000  1.0
  C  C160  1  0.63907000  0.88062000  0.93887000  1.0
  C  C161  1  0.36093000  0.61938000  0.43886000  1.0
  C  C162  1  0.91042000  0.25727000  0.85315000  1.0
  C  C163  1  0.08959000  0.24272000  0.35315000  1.0
  C  C164  1  0.08958000  0.74272000  0.14685000  1.0
  C  C165  1  0.91042000  0.75727000  0.64685000  1.0
  C  C166  1  0.70397000  0.27232000  0.82376000  1.0
  C  C167  1  0.29604000  0.22768000  0.32376000  1.0
  C  C168  1  0.29604000  0.72768000  0.17624000  1.0
  C  C169  1  0.70397000  0.77232000  0.67624000  1.0
  C  C170  1  0.61799000  0.32597000  0.77629000  1.0
  C  C171  1  0.38201000  0.17404000  0.27629000  1.0
  C  C172  1  0.38201000  0.67404000  0.22371000  1.0
  C  C173  1  0.61799000  0.82597000  0.72371000  1.0
  C  C174  1  0.23971000  0.23446000  0.69943000  1.0
  C  C175  1  0.76029000  0.26554000  0.19944000  1.0
  C  C176  1  0.76029000  0.76554000  0.30056000  1.0
  C  C177  1  0.23971000  0.73446000  0.80056000  1.0
  C  C178  1  0.39306000  0.24890000  0.62598000  1.0
  C  C179  1  0.60694000  0.25110000  0.12598000  1.0
  C  C180  1  0.60695000  0.75110000  0.37402000  1.0
  C  C181  1  0.39306000  0.74890000  0.87402000  1.0
  C  C182  1  0.44685000  0.14240000  0.60662000  1.0
  C  C183  1  0.55315000  0.35760000  0.10662000  1.0
  C  C184  1  0.55315000  0.85760000  0.39338000  1.0
  C  C185  1  0.44685000  0.64240000  0.89338000  1.0
  C  C186  1  0.74484000  0.01885000  0.55038000  1.0
  C  C187  1  0.25517000  0.48115000  0.05038000  1.0
  C  C188  1  0.25516000  0.98115000  0.44962000  1.0
  C  C189  1  0.74483000  0.51886000  0.94962000  1.0
  C  C190  1  0.86565000  0.01843000  0.55268000  1.0
  C  C191  1  0.13436000  0.48157000  0.05268000  1.0
  C  C192  1  0.13435000  0.98157000  0.44732000  1.0
  C  C193  1  0.86564000  0.51843000  0.94732000  1.0
  C  C194  1  0.93539000  0.00016000  0.49985000  1.0
  C  C195  1  0.06461000  0.49984000  0.99985000  1.0
  C  C196  1  0.06461000  0.99984000  0.50015000  1.0
  C  C197  1  0.93539000  0.50016000  0.00015000  1.0
  C  C198  1  0.87619000  0.98125000  0.44695000  1.0
  C  C199  1  0.12381000  0.51874000  0.94694000  1.0
  C  C200  1  0.12381000  0.01875000  0.55305000  1.0
  C  C201  1  0.87619000  0.48125000  0.05305000  1.0
  C  C202  1  0.75493000  0.98337000  0.44844000  1.0
  C  C203  1  0.24507000  0.51662000  0.94843000  1.0
  C  C204  1  0.24508000  0.01662000  0.55157000  1.0
  C  C205  1  0.75492000  0.48338000  0.05157000  1.0
  C  C206  1  0.64455000  0.00397000  0.23421000  1.0
  C  C207  1  0.35545000  0.49603000  0.73421000  1.0
  C  C208  1  0.35544000  0.99602000  0.76579000  1.0
  C  C209  1  0.64455000  0.50398000  0.26579000  1.0
  C  C210  1  0.76472000  0.00544000  0.23621000  1.0
  C  C211  1  0.23528000  0.49456000  0.73621000  1.0
  C  C212  1  0.23527000  0.99456000  0.76379000  1.0
  C  C213  1  0.76472000  0.50544000  0.26379000  1.0
  C  C214  1  0.83011000  0.00048000  0.18222000  1.0
  C  C215  1  0.16988000  0.49952000  0.68222000  1.0
  C  C216  1  0.16988000  0.99951000  0.81778000  1.0
  C  C217  1  0.83012000  0.50049000  0.31778000  1.0
  C  C218  1  0.76866000  0.99230000  0.12812000  1.0
  C  C219  1  0.23134000  0.50770000  0.62812000  1.0
  C  C220  1  0.23133000  0.00769000  0.87188000  1.0
  C  C221  1  0.76867000  0.49230000  0.37188000  1.0
  C  C222  1  0.64813000  0.99184000  0.12987000  1.0
  C  C223  1  0.35187000  0.50815000  0.62988000  1.0
  C  C224  1  0.35186000  0.00816000  0.87013000  1.0
  C  C225  1  0.64814000  0.49184000  0.37013000  1.0
  C  C226  1  0.95748000  0.00427000  0.18207000  1.0
  C  C227  1  0.04251000  0.49573000  0.68207000  1.0
  C  C228  1  0.04251000  0.99573000  0.81793000  1.0
  C  C229  1  0.95749000  0.50427000  0.31793000  1.0
  C  C230  1  0.03165000  0.97290000  0.23207000  1.0
  C  C231  1  0.96834000  0.52711000  0.73207000  1.0
  C  C232  1  0.96834000  0.02710000  0.76793000  1.0
  C  C233  1  0.03166000  0.47290000  0.26793000  1.0
  C  C234  1  0.15137000  0.97674000  0.22938000  1.0
  C  C235  1  0.84862000  0.52326000  0.72938000  1.0
  C  C236  1  0.84862000  0.02326000  0.77062000  1.0
  C  C237  1  0.15138000  0.47674000  0.27062000  1.0
  C  C238  1  0.13102000  0.03841000  0.13213000  1.0
  C  C239  1  0.86897000  0.46159000  0.63213000  1.0
  C  C240  1  0.86896000  0.96159000  0.86788000  1.0
  C  C241  1  0.13103000  0.53841000  0.36787000  1.0
  C  C242  1  0.01012000  0.03884000  0.13149000  1.0
  C  C243  1  0.98987000  0.46116000  0.63150000  1.0
  C  C244  1  0.98987000  0.96115000  0.86851000  1.0
  C  C245  1  0.01013000  0.53885000  0.36851000  1.0
  N  N246  1  0.28241000  0.23423000  0.97746000  1.0
  N  N247  1  0.71759000  0.26577000  0.47746000  1.0
  N  N248  1  0.71759000  0.76577000  0.02254000  1.0
  N  N249  1  0.28241000  0.73423000  0.52254000  1.0
  N  N250  1  0.82344000  0.28437000  0.81159000  1.0
  N  N251  1  0.17656000  0.21564000  0.31159000  1.0
  N  N252  1  0.17656000  0.71563000  0.18841000  1.0
  N  N253  1  0.82344000  0.78436000  0.68841000  1.0
  N  N254  1  0.34377000  0.25987000  0.68623000  1.0
  N  N255  1  0.65623000  0.24013000  0.18623000  1.0
  N  N256  1  0.65623000  0.74013000  0.31377000  1.0
  N  N257  1  0.34377000  0.75987000  0.81377000  1.0
  N  N258  1  0.68878000  0.00296000  0.49901000  1.0
  N  N259  1  0.31122000  0.49704000  0.99901000  1.0
  N  N260  1  0.31122000  0.99704000  0.50099000  1.0
  N  N261  1  0.68878000  0.50296000  0.00099000  1.0
  N  N262  1  0.58578000  0.99806000  0.18198000  1.0
  N  N263  1  0.41422000  0.50193000  0.68198000  1.0
  N  N264  1  0.41422000  0.00193000  0.81802000  1.0
  N  N265  1  0.58578000  0.49807000  0.31802000  1.0
  N  N266  1  0.20153000  0.00824000  0.18009000  1.0
  N  N267  1  0.79846000  0.49177000  0.68009000  1.0
  N  N268  1  0.79846000  0.99177000  0.81991000  1.0
  N  N269  1  0.20154000  0.50823000  0.31991000  1.0
  O  O270  1  0.42513000  0.26234000  0.91241000  1.0
  O  O271  1  0.57488000  0.23766000  0.41241000  1.0
  O  O272  1  0.57487000  0.73766000  0.08759000  1.0
  O  O273  1  0.42513000  0.76234000  0.58759000  1.0
  O  O274  1  0.34378000  0.04781000  0.02910000  1.0
  O  O275  1  0.65624000  0.45219000  0.52910000  1.0
  O  O276  1  0.65622000  0.95219000  0.97090000  1.0
  O  O277  1  0.34378000  0.54781000  0.47089000  1.0
  O  O278  1  0.38292000  0.11866000  0.11791000  1.0
  O  O279  1  0.61708000  0.38135000  0.61791000  1.0
  O  O280  1  0.61709000  0.88134000  0.88209000  1.0
  O  O281  1  0.38291000  0.61866000  0.38209000  1.0
  O  O282  1  0.89320000  0.22310000  0.90373000  1.0
  O  O283  1  0.10681000  0.27690000  0.40373000  1.0
  O  O284  1  0.10681000  0.77690000  0.09627000  1.0
  O  O285  1  0.89319000  0.72309000  0.59627000  1.0
  O  O286  1  0.64772000  0.39905000  0.75063000  1.0
  O  O287  1  0.35228000  0.10095000  0.25063000  1.0
  O  O288  1  0.35228000  0.60095000  0.24937000  1.0
  O  O289  1  0.64773000  0.89905000  0.74936000  1.0
  O  O290  1  0.52331000  0.29540000  0.76678000  1.0
  O  O291  1  0.47669000  0.20459000  0.26679000  1.0
  O  O292  1  0.47669000  0.70459000  0.23322000  1.0
  O  O293  1  0.52331000  0.79541000  0.73321000  1.0
  O  O294  1  0.18030000  0.19967000  0.66112000  1.0
  O  O295  1  0.81970000  0.30033000  0.16111000  1.0
  O  O296  1  0.81970000  0.80033000  0.33889000  1.0
  O  O297  1  0.18030000  0.69967000  0.83888000  1.0
  O  O298  1  0.47502000  0.07435000  0.64661000  1.0
  O  O299  1  0.52498000  0.42565000  0.14661000  1.0
  O  O300  1  0.52498000  0.92565000  0.35339000  1.0
  O  O301  1  0.47502000  0.57435000  0.85339000  1.0
  O  O302  1  0.46160000  0.12994000  0.54996000  1.0
  O  O303  1  0.53840000  0.37006000  0.04996000  1.0
  O  O304  1  0.53841000  0.87005000  0.45004000  1.0
  O  O305  1  0.46160000  0.62994000  0.95004000  1.0
  O  O306  1  0.53120000  0.91662000  0.57877000  1.0
  O  O307  1  0.46880000  0.58338000  0.07877000  1.0
  O  O308  1  0.46880000  0.08338000  0.42123000  1.0
  O  O309  1  0.53120000  0.41662000  0.92123000  1.0
  O  O310  1  0.41839000  0.89629000  0.24843000  1.0
  O  O311  1  0.58161000  0.60371000  0.74843000  1.0
  O  O312  1  0.58161000  0.10371000  0.75157000  1.0
  O  O313  1  0.41840000  0.39629000  0.25158000  1.0
  O  O314  1  0.40472000  0.90472000  0.10973000  1.0
  O  O315  1  0.59526000  0.59527000  0.60972000  1.0
  O  O316  1  0.59526000  0.09527000  0.89028000  1.0
  O  O317  1  0.40474000  0.40473000  0.39028000  1.0
