# generated using pymatgen
data_NiH16C14(N7O)2
_symmetry_space_group_name_H-M   'P 1'
_cell_length_a   7.41356000
_cell_length_b   8.45457000
_cell_length_c   8.45463000
_cell_angle_alpha   108.09200000
_cell_angle_beta   99.01920000
_cell_angle_gamma   99.02010000
_symmetry_Int_Tables_number   1
_chemical_formula_structural   NiH16C14(N7O)2
_chemical_formula_sum   'Ni1 H16 C14 N14 O2'
_cell_volume   485.43451827
_cell_formula_units_Z   1
loop_
 _symmetry_equiv_pos_site_id
 _symmetry_equiv_pos_as_xyz
  1  'x, y, z'
loop_
 _atom_site_type_symbol
 _atom_site_label
 _atom_site_symmetry_multiplicity
 _atom_site_fract_x
 _atom_site_fract_y
 _atom_site_fract_z
 _atom_site_occupancy
  Ni  Ni0  1  0.50000000  0.99999000  0.49999000  1.0
  H  H1  1  0.58717000  0.81266000  0.13367000  1.0
  H  H2  1  0.41284000  0.36633000  0.68733000  1.0
  H  H3  1  0.41284000  0.18733000  0.86631000  1.0
  H  H4  1  0.58717000  0.63366000  0.31267000  1.0
  H  H5  1  0.75483000  0.31904000  0.47676000  1.0
  H  H6  1  0.24516000  0.02324000  0.18095000  1.0
  H  H7  1  0.24515000  0.68094000  0.52323000  1.0
  H  H8  1  0.75482000  0.97676000  0.81905000  1.0
  H  H9  1  0.91430000  0.45282000  0.29908000  1.0
  H  H10  1  0.08569000  0.20093000  0.04718000  1.0
  H  H11  1  0.08569000  0.54718000  0.70093000  1.0
  H  H12  1  0.91430000  0.79909000  0.95282000  1.0
  H  H13  1  0.82569000  0.34838000  0.07394000  1.0
  H  H14  1  0.17431000  0.42607000  0.15162000  1.0
  H  H15  1  0.17431000  0.65163000  0.92608000  1.0
  H  H16  1  0.82569000  0.57394000  0.84839000  1.0
  C  C17  1  0.65348000  0.94700000  0.18915000  1.0
  C  C18  1  0.34652000  0.31085000  0.55300000  1.0
  C  C19  1  0.34652000  0.05300000  0.81084000  1.0
  C  C20  1  0.65348000  0.68914000  0.44701000  1.0
  C  C21  1  0.73672000  0.20352000  0.36820000  1.0
  C  C22  1  0.26328000  0.13179000  0.29647000  1.0
  C  C23  1  0.26327000  0.79648000  0.63180000  1.0
  C  C24  1  0.73671000  0.86820000  0.70353000  1.0
  C  C25  1  0.90372000  0.33707000  0.19060000  1.0
  C  C26  1  0.09628000  0.30941000  0.16293000  1.0
  C  C27  1  0.09628000  0.66293000  0.80941000  1.0
  C  C28  1  0.90372000  0.69060000  0.83708000  1.0
  C  C29  1  0.87378000  0.26550000  0.76550000  1.0
  C  C30  1  0.12624000  0.73449000  0.23449000  1.0
  N  N31  1  0.79789000  0.19656000  0.22605000  1.0
  N  N32  1  0.20211000  0.27396000  0.30344000  1.0
  N  N33  1  0.20211000  0.80344000  0.77395000  1.0
  N  N34  1  0.79788000  0.72604000  0.69657000  1.0
  N  N35  1  0.74746000  0.03451000  0.11076000  1.0
  N  N36  1  0.25254000  0.38924000  0.46549000  1.0
  N  N37  1  0.25253000  0.96549000  0.88924000  1.0
  N  N38  1  0.74746000  0.61075000  0.53452000  1.0
  N  N39  1  0.64319000  0.04683000  0.34784000  1.0
  N  N40  1  0.35682000  0.15216000  0.45317000  1.0
  N  N41  1  0.35681000  0.95316000  0.65215000  1.0
  N  N42  1  0.64318000  0.84783000  0.54683000  1.0
  N  N43  1  0.72104000  0.28663000  0.78663000  1.0
  N  N44  1  0.27898000  0.71337000  0.21337000  1.0
  O  O45  1  0.02861000  0.24387000  0.74387000  1.0
  O  O46  1  0.97141000  0.75613000  0.25613000  1.0
