# generated using pymatgen
data_CdH11C14N2O5
_symmetry_space_group_name_H-M   'P 1'
_cell_length_a   6.87255000
_cell_length_b   9.71123000
_cell_length_c   11.33920000
_cell_angle_alpha   88.38900000
_cell_angle_beta   88.60050000
_cell_angle_gamma   72.33940000
_symmetry_Int_Tables_number   1
_chemical_formula_structural   CdH11C14N2O5
_chemical_formula_sum   'Cd2 H22 C28 N4 O10'
_cell_volume   720.73596855
_cell_formula_units_Z   2
loop_
 _symmetry_equiv_pos_site_id
 _symmetry_equiv_pos_as_xyz
  1  'x, y, z'
loop_
 _atom_site_type_symbol
 _atom_site_label
 _atom_site_symmetry_multiplicity
 _atom_site_fract_x
 _atom_site_fract_y
 _atom_site_fract_z
 _atom_site_occupancy
  Cd  Cd0  1  0.51002000  0.19095000  0.95109000  1.0
  Cd  Cd1  1  0.48996000  0.80905000  0.04892000  1.0
  H  H2  1  0.74481000  0.40014000  0.95018000  1.0
  H  H3  1  0.25519000  0.59985000  0.04981000  1.0
  H  H4  1  0.86860000  0.28577000  0.85681000  1.0
  H  H5  1  0.13139000  0.71422000  0.14318000  1.0
  H  H6  1  0.44264000  0.43454000  0.17211000  1.0
  H  H7  1  0.55735000  0.56545000  0.82788000  1.0
  H  H8  1  0.79278000  0.99474000  0.17998000  1.0
  H  H9  1  0.20722000  0.00526000  0.82002000  1.0
  H  H10  1  0.80110000  0.10781000  0.40151000  1.0
  H  H11  1  0.19892000  0.89220000  0.59849000  1.0
  H  H12  1  0.06582000  0.41742000  0.65394000  1.0
  H  H13  1  0.93415000  0.58257000  0.34606000  1.0
  H  H14  1  0.98675000  0.70746000  0.94284000  1.0
  H  H15  1  0.01326000  0.29254000  0.05715000  1.0
  H  H16  1  0.61928000  0.23673000  0.54840000  1.0
  H  H17  1  0.38072000  0.76327000  0.45160000  1.0
  H  H18  1  0.47798000  0.59158000  0.29257000  1.0
  H  H19  1  0.52201000  0.40843000  0.70743000  1.0
  H  H20  1  0.85823000  0.62128000  0.52657000  1.0
  H  H21  1  0.14176000  0.37873000  0.47343000  1.0
  H  H22  1  0.71608000  0.86795000  0.61064000  1.0
  H  H23  1  0.28395000  0.13205000  0.38936000  1.0
  C  C24  1  0.54127000  0.33044000  0.20227000  1.0
  C  C25  1  0.45875000  0.66956000  0.79772000  1.0
  C  C26  1  0.72100000  0.10288000  0.21186000  1.0
  C  C27  1  0.27901000  0.89712000  0.78815000  1.0
  C  C28  1  0.18827000  0.43098000  0.87496000  1.0
  C  C29  1  0.81172000  0.56901000  0.12504000  1.0
  C  C30  1  0.72372000  0.15685000  0.32198000  1.0
  C  C31  1  0.27627000  0.84315000  0.67803000  1.0
  C  C32  1  0.04541000  0.54996000  0.80471000  1.0
  C  C33  1  0.95462000  0.45004000  0.19528000  1.0
  C  C34  1  0.55812000  0.40153000  0.40855000  1.0
  C  C35  1  0.44187000  0.59848000  0.59145000  1.0
  C  C36  1  0.00371000  0.52605000  0.68800000  1.0
  C  C37  1  0.99630000  0.47395000  0.31200000  1.0
  C  C38  1  0.96070000  0.68710000  0.85174000  1.0
  C  C39  1  0.03931000  0.31290000  0.14826000  1.0
  C  C40  1  0.57016000  0.35184000  0.52595000  1.0
  C  C41  1  0.42984000  0.64817000  0.47405000  1.0
  C  C42  1  0.48792000  0.55011000  0.38307000  1.0
  C  C43  1  0.51208000  0.44990000  0.61692000  1.0
  C  C44  1  0.88875000  0.64026000  0.61743000  1.0
  C  C45  1  0.11124000  0.35974000  0.38256000  1.0
  C  C46  1  0.84000000  0.80063000  0.78251000  1.0
  C  C47  1  0.16000000  0.19937000  0.21749000  1.0
  C  C48  1  0.80875000  0.77781000  0.66390000  1.0
  C  C49  1  0.19125000  0.22220000  0.33610000  1.0
  C  C50  1  0.73807000  0.94338000  0.83692000  1.0
  C  C51  1  0.26191000  0.05662000  0.16309000  1.0
  N  N52  1  0.60683000  0.21232000  0.13854000  1.0
  N  N53  1  0.39320000  0.78767000  0.86146000  1.0
  N  N54  1  0.61000000  0.30204000  0.31508000  1.0
  N  N55  1  0.38999000  0.69797000  0.68492000  1.0
  O  O56  1  0.28928000  0.05534000  0.04965000  1.0
  O  O57  1  0.71074000  0.94467000  0.95036000  1.0
  O  O58  1  0.73112000  0.33325000  0.88700000  1.0
  O  O59  1  0.26888000  0.66673000  0.11301000  1.0
  O  O60  1  0.22779000  0.30120000  0.83871000  1.0
  O  O61  1  0.77217000  0.69879000  0.16129000  1.0
  O  O62  1  0.27441000  0.46062000  0.96489000  1.0
  O  O63  1  0.72558000  0.53937000  0.03512000  1.0
  O  O64  1  0.67692000  0.05665000  0.77325000  1.0
  O  O65  1  0.32309000  0.94334000  0.22676000  1.0
