# generated using pymatgen
data_CdH6C12Br2(NO2)2
_symmetry_space_group_name_H-M   'P 1'
_cell_length_a   9.86123000
_cell_length_b   11.33870000
_cell_length_c   13.43350000
_cell_angle_alpha   108.96100000
_cell_angle_beta   90.00000000
_cell_angle_gamma   90.00000000
_symmetry_Int_Tables_number   1
_chemical_formula_structural   CdH6C12Br2(NO2)2
_chemical_formula_sum   'Cd4 H24 C48 Br8 N8 O16'
_cell_volume   1420.54590982
_cell_formula_units_Z   4
loop_
 _symmetry_equiv_pos_site_id
 _symmetry_equiv_pos_as_xyz
  1  'x, y, z'
loop_
 _atom_site_type_symbol
 _atom_site_label
 _atom_site_symmetry_multiplicity
 _atom_site_fract_x
 _atom_site_fract_y
 _atom_site_fract_z
 _atom_site_occupancy
  Cd  Cd0  1  0.62145000  0.41338000  0.60129000  1.0
  Cd  Cd1  1  0.12145000  0.08662000  0.89871000  1.0
  Cd  Cd2  1  0.37855000  0.58662000  0.39871000  1.0
  Cd  Cd3  1  0.87855000  0.91338000  0.10130000  1.0
  H  H4  1  0.40999000  0.29216000  0.71943000  1.0
  H  H5  1  0.90999000  0.20784000  0.78057000  1.0
  H  H6  1  0.59001000  0.70784000  0.28057000  1.0
  H  H7  1  0.09001000  0.79216000  0.21943000  1.0
  H  H8  1  0.71393000  0.65387000  0.79036000  1.0
  H  H9  1  0.21393000  0.84613000  0.70964000  1.0
  H  H10  1  0.28607000  0.34613000  0.20964000  1.0
  H  H11  1  0.78607000  0.15387000  0.29036000  1.0
  H  H12  1  0.20489000  0.97642000  0.50286000  1.0
  H  H13  1  0.70489000  0.52358000  0.99714000  1.0
  H  H14  1  0.79511000  0.02358000  0.49714000  1.0
  H  H15  1  0.29511000  0.47642000  0.00286000  1.0
  H  H16  1  0.98347000  0.88463000  0.67961000  1.0
  H  H17  1  0.48347000  0.61537000  0.82039000  1.0
  H  H18  1  0.01653000  0.11537000  0.32039000  1.0
  H  H19  1  0.51653000  0.38463000  0.17961000  1.0
  H  H20  1  0.51647000  0.18390000  0.40344000  1.0
  H  H21  1  0.01647000  0.31610000  0.09656000  1.0
  H  H22  1  0.48353000  0.81610000  0.59656000  1.0
  H  H23  1  0.98353000  0.68390000  0.90344000  1.0
  H  H24  1  0.81377000  0.53929000  0.47291000  1.0
  H  H25  1  0.31378000  0.96071000  0.02710000  1.0
  H  H26  1  0.18622000  0.46071000  0.52710000  1.0
  H  H27  1  0.68622000  0.03929000  0.97290000  1.0
  C  C28  1  0.39355000  0.22806000  0.64009000  1.0
  C  C29  1  0.89355000  0.27194000  0.85991000  1.0
  C  C30  1  0.60645000  0.77194000  0.35991000  1.0
  C  C31  1  0.10645000  0.72806000  0.14009000  1.0
  C  C32  1  0.76905000  0.67372000  0.72734000  1.0
  C  C33  1  0.26905000  0.82628000  0.77266000  1.0
  C  C34  1  0.23095000  0.32628000  0.27266000  1.0
  C  C35  1  0.73095000  0.17372000  0.22734000  1.0
  C  C36  1  0.29872000  0.13157000  0.62157000  1.0
  C  C37  1  0.79872000  0.36843000  0.87843000  1.0
  C  C38  1  0.70128000  0.86843000  0.37843000  1.0
  C  C39  1  0.20128000  0.63157000  0.12157000  1.0
  C  C40  1  0.85033000  0.78001000  0.74844000  1.0
  C  C41  1  0.35033000  0.71999000  0.75156000  1.0
  C  C42  1  0.14967000  0.21999000  0.25156000  1.0
  C  C43  1  0.64967000  0.28001000  0.24844000  1.0
  C  C44  1  0.27945000  0.05131000  0.51856000  1.0
  C  C45  1  0.77945000  0.44869000  0.98144000  1.0
  C  C46  1  0.72055000  0.94869000  0.48144000  1.0
  C  C47  1  0.22055000  0.55131000  0.01856000  1.0
  C  C48  1  0.92126000  0.80125000  0.66569000  1.0
  C  C49  1  0.42125000  0.69875000  0.83431000  1.0
  C  C50  1  0.07875000  0.19875000  0.33431000  1.0
  C  C51  1  0.57875000  0.30125000  0.16569000  1.0
  C  C52  1  0.35873000  0.07046000  0.43926000  1.0
  C  C53  1  0.85873000  0.42954000  0.06074000  1.0
  C  C54  1  0.64127000  0.92954000  0.56074000  1.0
  C  C55  1  0.14127000  0.57046000  0.93926000  1.0
  C  C56  1  0.91014000  0.71269000  0.56589000  1.0
  C  C57  1  0.41014000  0.78730000  0.93411000  1.0
  C  C58  1  0.08986000  0.28730000  0.43411000  1.0
  C  C59  1  0.58986000  0.21269000  0.06588000  1.0
  C  C60  1  0.45204000  0.16816000  0.46370000  1.0
  C  C61  1  0.95204000  0.33184000  0.03630000  1.0
  C  C62  1  0.54796000  0.83183000  0.53630000  1.0
  C  C63  1  0.04796000  0.66817000  0.96370000  1.0
  C  C64  1  0.82590000  0.60922000  0.55021000  1.0
  C  C65  1  0.32590000  0.89078000  0.94979000  1.0
  C  C66  1  0.17410000  0.39078000  0.44979000  1.0
  C  C67  1  0.67410000  0.10922000  0.05021000  1.0
  C  C68  1  0.22206000  0.11382000  0.71245000  1.0
  C  C69  1  0.72206000  0.38618000  0.78755000  1.0
  C  C70  1  0.77794000  0.88618000  0.28755000  1.0
  C  C71  1  0.27794000  0.61382000  0.21245000  1.0
  C  C72  1  0.86286000  0.86764000  0.85977000  1.0
  C  C73  1  0.36286000  0.63236000  0.64023000  1.0
  C  C74  1  0.13714000  0.13236000  0.14023000  1.0
  C  C75  1  0.63714000  0.36764000  0.35977000  1.0
  Br  Br76  1  0.34710000  0.96617000  0.29708000  1.0
  Br  Br77  1  0.84710000  0.53383000  0.20292000  1.0
  Br  Br78  1  0.65290000  0.03383000  0.70292000  1.0
  Br  Br79  1  0.15290000  0.46617000  0.79708000  1.0
  Br  Br80  1  0.01234000  0.72619000  0.45085000  1.0
  Br  Br81  1  0.51234000  0.77381000  0.04915000  1.0
  Br  Br82  1  0.98766000  0.27381000  0.54915000  1.0
  Br  Br83  1  0.48766000  0.22619000  0.95085000  1.0
  N  N84  1  0.46763000  0.24608000  0.56243000  1.0
  N  N85  1  0.96762000  0.25392000  0.93757000  1.0
  N  N86  1  0.53238000  0.75392000  0.43757000  1.0
  N  N87  1  0.03238000  0.74608000  0.06243000  1.0
  N  N88  1  0.75589000  0.59139000  0.62996000  1.0
  N  N89  1  0.25589000  0.90861000  0.87004000  1.0
  N  N90  1  0.24411000  0.40861000  0.37004000  1.0
  N  N91  1  0.74411000  0.09139000  0.12996000  1.0
  O  O92  1  0.26233000  0.17749000  0.80484000  1.0
  O  O93  1  0.76233000  0.32251000  0.69516000  1.0
  O  O94  1  0.73767000  0.82251000  0.19516000  1.0
  O  O95  1  0.23767000  0.67749000  0.30484000  1.0
  O  O96  1  0.80800000  0.83012000  0.93033000  1.0
  O  O97  1  0.30800000  0.66988000  0.56967000  1.0
  O  O98  1  0.19200000  0.16988000  0.06967000  1.0
  O  O99  1  0.69200000  0.33012000  0.43033000  1.0
  O  O100  1  0.12474000  0.03690000  0.69452000  1.0
  O  O101  1  0.62474000  0.46310000  0.80548000  1.0
  O  O102  1  0.87525000  0.96310000  0.30548000  1.0
  O  O103  1  0.37525000  0.53690000  0.19452000  1.0
  O  O104  1  0.92439000  0.96986000  0.87673000  1.0
  O  O105  1  0.42439000  0.53014000  0.62327000  1.0
  O  O106  1  0.07561000  0.03014000  0.12327000  1.0
  O  O107  1  0.57561000  0.46986000  0.37673000  1.0
