# generated using pymatgen
data_CdH8C4(N4O)2
_symmetry_space_group_name_H-M   'P 1'
_cell_length_a   8.23313000
_cell_length_b   9.17356000
_cell_length_c   11.63500275
_cell_angle_alpha   95.24032702
_cell_angle_beta   110.44796526
_cell_angle_gamma   97.66060000
_symmetry_Int_Tables_number   1
_chemical_formula_structural   CdH8C4(N4O)2
_chemical_formula_sum   'Cd3 H24 C12 N24 O6'
_cell_volume   806.99049705
_cell_formula_units_Z   3
loop_
 _symmetry_equiv_pos_site_id
 _symmetry_equiv_pos_as_xyz
  1  'x, y, z'
loop_
 _atom_site_type_symbol
 _atom_site_label
 _atom_site_symmetry_multiplicity
 _atom_site_fract_x
 _atom_site_fract_y
 _atom_site_fract_z
 _atom_site_occupancy
  Cd  Cd0  1  0.50000000  0.00000000  0.00000000  1.0
  Cd  Cd1  1  0.54624000  0.81581000  0.29914000  1.0
  Cd  Cd2  1  0.45376000  0.18419000  0.70086000  1.0
  H  H3  1  0.54344000  0.46162000  0.13455000  1.0
  H  H4  1  0.45656000  0.53838000  0.86545000  1.0
  H  H5  1  0.39362000  0.31513000  0.02410000  1.0
  H  H6  1  0.60639000  0.68487000  0.97591000  1.0
  H  H7  1  0.15067000  0.36606000  0.09067000  1.0
  H  H8  1  0.84933000  0.63394000  0.90933000  1.0
  H  H9  1  0.29723000  0.48784000  0.22409000  1.0
  H  H10  1  0.70277000  0.51217000  0.77591000  1.0
  H  H11  1  0.17392000  0.02229000  0.11208000  1.0
  H  H12  1  0.82607000  0.97771000  0.88791000  1.0
  H  H13  1  0.01293000  0.13902000  0.08969000  1.0
  H  H14  1  0.98707000  0.86098000  0.91031000  1.0
  H  H15  1  0.75686000  0.76883000  0.51184000  1.0
  H  H16  1  0.24314000  0.23116000  0.48816000  1.0
  H  H17  1  0.64239000  0.86189000  0.56060000  1.0
  H  H18  1  0.35761000  0.13810000  0.43941000  1.0
  H  H19  1  0.33798000  0.78503000  0.44736000  1.0
  H  H20  1  0.66201000  0.21497000  0.55264000  1.0
  H  H21  1  0.21166000  0.78937000  0.30450000  1.0
  H  H22  1  0.78834000  0.21063000  0.69551000  1.0
  H  H23  1  0.65623000  0.50179000  0.37829000  1.0
  H  H24  1  0.34379000  0.49822000  0.62172000  1.0
  H  H25  1  0.80400000  0.61304000  0.35109000  1.0
  H  H26  1  0.19600000  0.38697000  0.64891000  1.0
  C  C27  1  0.48376000  0.27022000  0.20930000  1.0
  C  C28  1  0.51624000  0.72978000  0.79070000  1.0
  C  C29  1  0.42930000  0.37416000  0.11810000  1.0
  C  C30  1  0.57071000  0.62584000  0.88191000  1.0
  C  C31  1  0.25742000  0.57269000  0.05477000  1.0
  C  C32  1  0.74259000  0.42731000  0.94523000  1.0
  C  C33  1  0.27404000  0.44664000  0.12709000  1.0
  C  C34  1  0.72596000  0.55335000  0.87291000  1.0
  C  C35  1  0.94334000  0.93026000  0.13721000  1.0
  C  C36  1  0.05667000  0.06974000  0.86279000  1.0
  C  C37  1  0.03265000  0.02434000  0.07073000  1.0
  C  C38  1  0.96735000  0.97567000  0.92926000  1.0
  N  N39  1  0.48020000  0.12378000  0.18233000  1.0
  N  N40  1  0.51980000  0.87621000  0.81768000  1.0
  N  N41  1  0.53464000  0.07345000  0.29179000  1.0
  N  N42  1  0.46536000  0.92655000  0.70822000  1.0
  N  N43  1  0.57088000  0.18481000  0.38216000  1.0
  N  N44  1  0.42912000  0.81519000  0.61785000  1.0
  N  N45  1  0.54055000  0.30998000  0.33283000  1.0
  N  N46  1  0.45945000  0.69002000  0.66717000  1.0
  N  N47  1  0.16485000  0.56433000  0.93261000  1.0
  N  N48  1  0.83515000  0.43566000  0.06738000  1.0
  N  N49  1  0.20569000  0.69905000  0.90351000  1.0
  N  N50  1  0.79432000  0.30094000  0.09649000  1.0
  N  N51  1  0.31942000  0.78565000  0.00467000  1.0
  N  N52  1  0.68058000  0.21435000  0.99533000  1.0
  N  N53  1  0.35397000  0.70928000  0.10133000  1.0
  N  N54  1  0.64603000  0.29072000  0.89867000  1.0
  N  N55  1  0.77650000  0.92591000  0.13243000  1.0
  N  N56  1  0.22349000  0.07410000  0.86756000  1.0
  N  N57  1  0.76099000  0.83671000  0.21516000  1.0
  N  N58  1  0.23901000  0.16329000  0.78484000  1.0
  N  N59  1  0.90829000  0.78753000  0.26720000  1.0
  N  N60  1  0.09170000  0.21247000  0.73279000  1.0
  N  N61  1  0.02484000  0.84416000  0.21976000  1.0
  N  N62  1  0.97515000  0.15584000  0.78023000  1.0
  O  O63  1  0.72560000  0.86884000  0.51745000  1.0
  O  O64  1  0.27439000  0.13115000  0.48255000  1.0
  O  O65  1  0.31804000  0.75131000  0.35927000  1.0
  O  O66  1  0.68197000  0.24868000  0.64074000  1.0
  O  O67  1  0.70935000  0.60804000  0.38435000  1.0
  O  O68  1  0.29066000  0.39197000  0.61565000  1.0
