# generated using pymatgen
data_ZnH19C26N3O5
_symmetry_space_group_name_H-M   'P 1'
_cell_length_a   12.16250000
_cell_length_b   12.70740000
_cell_length_c   14.76340000
_cell_angle_alpha   98.22650000
_cell_angle_beta   89.99990000
_cell_angle_gamma   90.00000000
_symmetry_Int_Tables_number   1
_chemical_formula_structural   ZnH19C26N3O5
_chemical_formula_sum   'Zn4 H76 C104 N12 O20'
_cell_volume   2258.26013587
_cell_formula_units_Z   4
loop_
 _symmetry_equiv_pos_site_id
 _symmetry_equiv_pos_as_xyz
  1  'x, y, z'
loop_
 _atom_site_type_symbol
 _atom_site_label
 _atom_site_symmetry_multiplicity
 _atom_site_fract_x
 _atom_site_fract_y
 _atom_site_fract_z
 _atom_site_occupancy
  Zn  Zn0  1  0.59634000  0.30477000  0.37932000  1.0
  Zn  Zn1  1  0.09634000  0.19523000  0.12068000  1.0
  Zn  Zn2  1  0.40366000  0.69523000  0.62068000  1.0
  Zn  Zn3  1  0.90366000  0.80477000  0.87932000  1.0
  H  H4  1  0.34448000  0.87411000  0.17659000  1.0
  H  H5  1  0.84448000  0.62589000  0.32340000  1.0
  H  H6  1  0.65552000  0.12589000  0.82341000  1.0
  H  H7  1  0.15552000  0.37411000  0.67660000  1.0
  H  H8  1  0.74468000  0.06798000  0.08385000  1.0
  H  H9  1  0.24468000  0.43202000  0.41615000  1.0
  H  H10  1  0.25532000  0.93203000  0.91615000  1.0
  H  H11  1  0.75532000  0.56798000  0.58385000  1.0
  H  H12  1  0.37019000  0.34191000  0.46363000  1.0
  H  H13  1  0.87019000  0.15809000  0.03637000  1.0
  H  H14  1  0.62981000  0.65809000  0.53636000  1.0
  H  H15  1  0.12981000  0.84191000  0.96363000  1.0
  H  H16  1  0.16644000  0.17208000  0.65837000  1.0
  H  H17  1  0.66644000  0.32792000  0.84163000  1.0
  H  H18  1  0.83356000  0.82792000  0.34163000  1.0
  H  H19  1  0.33356000  0.67208000  0.15837000  1.0
  H  H20  1  0.19643000  0.87557000  0.64839000  1.0
  H  H21  1  0.69643000  0.62442000  0.85161000  1.0
  H  H22  1  0.80357000  0.12443000  0.35161000  1.0
  H  H23  1  0.30357000  0.37557000  0.14839000  1.0
  H  H24  1  0.24485000  0.24204000  0.55119000  1.0
  H  H25  1  0.74485000  0.25796000  0.94881000  1.0
  H  H26  1  0.75515000  0.75796000  0.44881000  1.0
  H  H27  1  0.25515000  0.74205000  0.05119000  1.0
  H  H28  1  0.93793000  0.03847000  0.88324000  1.0
  H  H29  1  0.43793000  0.46153000  0.61676000  1.0
  H  H30  1  0.06207000  0.96153000  0.11676000  1.0
  H  H31  1  0.56207000  0.53847000  0.38324000  1.0
  H  H32  1  0.44824000  0.02062000  0.22980000  1.0
  H  H33  1  0.94825000  0.47937000  0.27019000  1.0
  H  H34  1  0.55176000  0.97938000  0.77020000  1.0
  H  H35  1  0.05175000  0.52063000  0.72980000  1.0
  H  H36  1  0.04915000  0.15883000  0.79846000  1.0
  H  H37  1  0.54915000  0.34117000  0.70154000  1.0
  H  H38  1  0.95085000  0.84117000  0.20154000  1.0
  H  H39  1  0.45085000  0.65883000  0.29846000  1.0
  H  H40  1  0.34271000  0.99562000  0.65241000  1.0
  H  H41  1  0.84271000  0.50438000  0.84759000  1.0
  H  H42  1  0.65729000  0.00438000  0.34759000  1.0
  H  H43  1  0.15729000  0.49562000  0.15241000  1.0
  H  H44  1  0.54201000  0.79484000  0.99530000  1.0
  H  H45  1  0.04200000  0.70516000  0.50470000  1.0
  H  H46  1  0.45800000  0.20516000  0.00470000  1.0
  H  H47  1  0.95800000  0.29484000  0.49530000  1.0
  H  H48  1  0.08194000  0.76971000  0.73965000  1.0
  H  H49  1  0.58194000  0.73029000  0.76035000  1.0
  H  H50  1  0.91806000  0.23030000  0.26035000  1.0
  H  H51  1  0.41805000  0.26970000  0.23965000  1.0
  H  H52  1  0.52449000  0.05126000  0.61021000  1.0
  H  H53  1  0.02449000  0.44873000  0.88979000  1.0
  H  H54  1  0.47550000  0.94874000  0.38979000  1.0
  H  H55  1  0.97551000  0.55126000  0.11021000  1.0
  H  H56  1  0.63936000  0.16101000  0.51796000  1.0
  H  H57  1  0.13935000  0.33899000  0.98204000  1.0
  H  H58  1  0.36064000  0.83899000  0.48204000  1.0
  H  H59  1  0.86064000  0.66101000  0.01796000  1.0
  H  H60  1  0.28076000  0.07773000  0.25063000  1.0
  H  H61  1  0.78076000  0.42227000  0.24937000  1.0
  H  H62  1  0.71924000  0.92227000  0.74937000  1.0
  H  H63  1  0.21924000  0.57773000  0.75063000  1.0
  H  H64  1  0.03624000  0.11579000  0.49731000  1.0
  H  H65  1  0.53624000  0.38421000  0.00269000  1.0
  H  H66  1  0.96377000  0.88422000  0.50269000  1.0
  H  H67  1  0.46377000  0.61578000  0.99731000  1.0
  H  H68  1  0.15655000  0.14532000  0.37589000  1.0
  H  H69  1  0.65655000  0.35468000  0.12412000  1.0
  H  H70  1  0.84345000  0.85468000  0.62411000  1.0
  H  H71  1  0.34345000  0.64532000  0.87589000  1.0
  H  H72  1  0.23171000  0.76458000  0.29267000  1.0
  H  H73  1  0.73170000  0.73542000  0.20733000  1.0
  H  H74  1  0.76830000  0.23542000  0.70733000  1.0
  H  H75  1  0.26830000  0.26458000  0.79267000  1.0
  H  H76  1  0.10236000  0.81814000  0.41884000  1.0
  H  H77  1  0.60235000  0.68185000  0.08116000  1.0
  H  H78  1  0.89765000  0.18186000  0.58117000  1.0
  H  H79  1  0.39765000  0.31814000  0.91883000  1.0
  C  C80  1  0.59681000  0.05514000  0.16156000  1.0
  C  C81  1  0.09681000  0.44486000  0.33844000  1.0
  C  C82  1  0.40319000  0.94486000  0.83843000  1.0
  C  C83  1  0.90319000  0.55514000  0.66156000  1.0
  C  C84  1  0.67120000  0.02166000  0.09167000  1.0
  C  C85  1  0.17120000  0.47834000  0.40833000  1.0
  C  C86  1  0.32880000  0.97834000  0.90833000  1.0
  C  C87  1  0.82880000  0.52166000  0.59167000  1.0
  C  C88  1  0.48216000  0.90045000  0.11331000  1.0
  C  C89  1  0.98216000  0.59955000  0.38669000  1.0
  C  C90  1  0.51784000  0.09955000  0.88669000  1.0
  C  C91  1  0.01784000  0.40045000  0.61331000  1.0
  C  C92  1  0.40124000  0.27695000  0.49724000  1.0
  C  C93  1  0.90124000  0.22305000  0.00276000  1.0
  C  C94  1  0.59875000  0.72305000  0.50276000  1.0
  C  C95  1  0.09875000  0.77695000  0.99724000  1.0
  C  C96  1  0.20228000  0.09536000  0.66771000  1.0
  C  C97  1  0.70228000  0.40464000  0.83229000  1.0
  C  C98  1  0.79772000  0.90464000  0.33229000  1.0
  C  C99  1  0.29772000  0.59536000  0.16771000  1.0
  C  C100  1  0.14243000  0.91646000  0.70074000  1.0
  C  C101  1  0.64242000  0.58354000  0.79926000  1.0
  C  C102  1  0.85758000  0.08354000  0.29926000  1.0
  C  C103  1  0.35758000  0.41646000  0.20074000  1.0
  C  C104  1  0.65270000  0.92617000  0.03398000  1.0
  C  C105  1  0.15270000  0.57383000  0.46602000  1.0
  C  C106  1  0.34729000  0.07383000  0.96602000  1.0
  C  C107  1  0.84730000  0.42617000  0.53398000  1.0
  C  C108  1  0.61839000  0.15553000  0.22543000  1.0
  C  C109  1  0.11839000  0.34447000  0.27456000  1.0
  C  C110  1  0.38161000  0.84447000  0.77456000  1.0
  C  C111  1  0.88160000  0.65554000  0.72544000  1.0
  C  C112  1  0.33152000  0.22048000  0.54668000  1.0
  C  C113  1  0.83152000  0.27951000  0.95332000  1.0
  C  C114  1  0.66848000  0.77952000  0.45332000  1.0
  C  C115  1  0.16848000  0.72049000  0.04668000  1.0
  C  C116  1  0.99744000  0.00725000  0.83124000  1.0
  C  C117  1  0.49744000  0.49275000  0.66876000  1.0
  C  C118  1  0.00256000  0.99275000  0.16876000  1.0
  C  C119  1  0.50255000  0.50725000  0.33124000  1.0
  C  C120  1  0.50370000  0.99410000  0.17331000  1.0
  C  C121  1  0.00370000  0.50589000  0.32669000  1.0
  C  C122  1  0.49630000  0.00590000  0.82669000  1.0
  C  C123  1  0.99630000  0.49411000  0.67330000  1.0
  C  C124  1  0.05924000  0.07284000  0.78358000  1.0
  C  C125  1  0.55924000  0.42716000  0.71641000  1.0
  C  C126  1  0.94076000  0.92716000  0.21641000  1.0
  C  C127  1  0.44076000  0.57284000  0.28359000  1.0
  C  C128  1  0.37377000  0.13596000  0.58816000  1.0
  C  C129  1  0.87377000  0.36403000  0.91185000  1.0
  C  C130  1  0.62623000  0.86404000  0.41185000  1.0
  C  C131  1  0.12623000  0.63597000  0.08816000  1.0
  C  C132  1  0.30503000  0.06945000  0.63749000  1.0
  C  C133  1  0.80503000  0.43054000  0.86251000  1.0
  C  C134  1  0.69497000  0.93055000  0.36251000  1.0
  C  C135  1  0.19497000  0.56946000  0.13750000  1.0
  C  C136  1  0.13503000  0.02776000  0.71728000  1.0
  C  C137  1  0.63503000  0.47223000  0.78272000  1.0
  C  C138  1  0.86497000  0.97224000  0.28272000  1.0
  C  C139  1  0.36496000  0.52777000  0.21728000  1.0
  C  C140  1  0.55736000  0.86691000  0.04311000  1.0
  C  C141  1  0.05736000  0.63309000  0.45689000  1.0
  C  C142  1  0.44264000  0.13310000  0.95689000  1.0
  C  C143  1  0.94264000  0.36691000  0.54311000  1.0
  C  C144  1  0.07748000  0.85619000  0.75079000  1.0
  C  C145  1  0.57747000  0.64381000  0.74921000  1.0
  C  C146  1  0.92252000  0.14381000  0.24921000  1.0
  C  C147  1  0.42252000  0.35619000  0.25079000  1.0
  C  C148  1  0.48731000  0.11524000  0.57877000  1.0
  C  C149  1  0.98731000  0.38476000  0.92123000  1.0
  C  C150  1  0.51269000  0.88476000  0.42123000  1.0
  C  C151  1  0.01269000  0.61524000  0.07877000  1.0
  C  C152  1  0.74046000  0.88560000  0.96784000  1.0
  C  C153  1  0.24046000  0.61440000  0.53216000  1.0
  C  C154  1  0.25954000  0.11440000  0.03216000  1.0
  C  C155  1  0.75954000  0.38560000  0.46784000  1.0
  C  C156  1  0.55148000  0.17569000  0.52796000  1.0
  C  C157  1  0.05148000  0.32431000  0.97204000  1.0
  C  C158  1  0.44851000  0.82431000  0.47204000  1.0
  C  C159  1  0.94852000  0.67569000  0.02796000  1.0
  C  C160  1  0.24115000  0.02184000  0.28996000  1.0
  C  C161  1  0.74115000  0.47817000  0.21004000  1.0
  C  C162  1  0.75886000  0.97817000  0.71004000  1.0
  C  C163  1  0.25885000  0.52183000  0.78996000  1.0
  C  C164  1  0.03617000  0.02926000  0.47944000  1.0
  C  C165  1  0.53617000  0.47074000  0.02057000  1.0
  C  C166  1  0.96383000  0.97074000  0.52057000  1.0
  C  C167  1  0.46383000  0.52926000  0.97943000  1.0
  C  C168  1  0.11538000  0.98800000  0.40921000  1.0
  C  C169  1  0.61538000  0.51200000  0.09079000  1.0
  C  C170  1  0.88463000  0.01201000  0.59080000  1.0
  C  C171  1  0.38463000  0.48799000  0.90920000  1.0
  C  C172  1  0.17048000  0.05988000  0.36120000  1.0
  C  C173  1  0.67048000  0.44012000  0.13880000  1.0
  C  C174  1  0.82952000  0.94012000  0.63880000  1.0
  C  C175  1  0.32952000  0.55988000  0.86120000  1.0
  C  C176  1  0.21251000  0.84861000  0.31302000  1.0
  C  C177  1  0.71251000  0.65139000  0.18698000  1.0
  C  C178  1  0.78749000  0.15139000  0.68698000  1.0
  C  C179  1  0.28749000  0.34861000  0.81302000  1.0
  C  C180  1  0.13923000  0.87922000  0.38395000  1.0
  C  C181  1  0.63922000  0.62078000  0.11605000  1.0
  C  C182  1  0.86078000  0.12078000  0.61605000  1.0
  C  C183  1  0.36078000  0.37922000  0.88395000  1.0
  N  N184  1  0.50929000  0.25481000  0.48686000  1.0
  N  N185  1  0.00929000  0.24519000  0.01315000  1.0
  N  N186  1  0.49071000  0.74519000  0.51314000  1.0
  N  N187  1  0.99071000  0.75481000  0.98685000  1.0
  N  N188  1  0.00591000  0.90029000  0.81506000  1.0
  N  N189  1  0.50591000  0.59971000  0.68494000  1.0
  N  N190  1  0.99409000  0.09971000  0.18494000  1.0
  N  N191  1  0.49409000  0.40029000  0.31506000  1.0
  N  N192  1  0.26283000  0.91784000  0.26537000  1.0
  N  N193  1  0.76283000  0.58216000  0.23463000  1.0
  N  N194  1  0.73717000  0.08216000  0.73463000  1.0
  N  N195  1  0.23717000  0.41784000  0.76537000  1.0
  O  O196  1  0.68065000  0.22566000  0.20261000  1.0
  O  O197  1  0.18066000  0.27434000  0.29739000  1.0
  O  O198  1  0.31935000  0.77435000  0.79739000  1.0
  O  O199  1  0.81934000  0.72566000  0.70261000  1.0
  O  O200  1  0.56874000  0.16264000  0.30413000  1.0
  O  O201  1  0.06874000  0.33735000  0.19587000  1.0
  O  O202  1  0.43126000  0.83736000  0.69586000  1.0
  O  O203  1  0.93126000  0.66265000  0.80413000  1.0
  O  O204  1  0.81998000  0.94659000  0.95347000  1.0
  O  O205  1  0.31998000  0.55341000  0.54653000  1.0
  O  O206  1  0.18002000  0.05341000  0.04653000  1.0
  O  O207  1  0.68002000  0.44659000  0.45347000  1.0
  O  O208  1  0.73929000  0.78805000  0.92982000  1.0
  O  O209  1  0.23929000  0.71195000  0.57018000  1.0
  O  O210  1  0.26072000  0.21195000  0.07018000  1.0
  O  O211  1  0.76072000  0.28805000  0.42982000  1.0
  O  O212  1  0.39181000  0.84011000  0.12257000  1.0
  O  O213  1  0.89181000  0.65989000  0.37742000  1.0
  O  O214  1  0.60819000  0.15989000  0.87743000  1.0
  O  O215  1  0.10819000  0.34011000  0.62258000  1.0
