# generated using pymatgen
data_HgH30C30(SN)4
_symmetry_space_group_name_H-M   'P 1'
_cell_length_a   8.16151000
_cell_length_b   12.40720000
_cell_length_c   16.09500000
_cell_angle_alpha   81.95360000
_cell_angle_beta   89.02010000
_cell_angle_gamma   86.56430000
_symmetry_Int_Tables_number   1
_chemical_formula_structural   HgH30C30(SN)4
_chemical_formula_sum   'Hg2 H60 C60 S8 N8'
_cell_volume   1610.79524137
_cell_formula_units_Z   2
loop_
 _symmetry_equiv_pos_site_id
 _symmetry_equiv_pos_as_xyz
  1  'x, y, z'
loop_
 _atom_site_type_symbol
 _atom_site_label
 _atom_site_symmetry_multiplicity
 _atom_site_fract_x
 _atom_site_fract_y
 _atom_site_fract_z
 _atom_site_occupancy
  Hg  Hg0  1  0.73331000  0.49022000  0.56658000  1.0
  Hg  Hg1  1  0.22908000  0.51034000  0.43270000  1.0
  H  H2  1  0.69241000  0.84118000  0.37813000  1.0
  H  H3  1  0.80026000  0.88243000  0.28417000  1.0
  H  H4  1  0.94883000  0.85530000  0.46024000  1.0
  H  H5  1  0.05238000  0.90389000  0.36628000  1.0
  H  H6  1  0.67495000  0.96740000  0.49405000  1.0
  H  H7  1  0.56751000  0.15571000  0.50516000  1.0
  H  H8  1  0.69849000  0.31389000  0.42314000  1.0
  H  H9  1  0.93637000  0.28115000  0.32878000  1.0
  H  H10  1  0.03951000  0.09178000  0.31557000  1.0
  H  H11  1  0.07755000  0.77493000  0.27083000  1.0
  H  H12  1  0.04958000  0.63320000  0.28739000  1.0
  H  H13  1  0.11081000  0.77490000  0.11835000  1.0
  H  H14  1  0.70736000  0.74344000  0.97330000  1.0
  H  H15  1  0.53576000  0.68737000  0.10170000  1.0
  H  H16  1  0.66212000  0.67252000  0.24231000  1.0
  H  H17  1  0.07920000  0.11677000  0.80418000  1.0
  H  H18  1  0.00891000  0.14783000  0.69993000  1.0
  H  H19  1  0.79550000  0.08104000  0.85630000  1.0
  H  H20  1  0.71633000  0.12951000  0.75508000  1.0
  H  H21  1  0.83106000  0.03030000  0.63123000  1.0
  H  H22  1  0.86798000  0.84484000  0.58938000  1.0
  H  H23  1  0.90851000  0.68285000  0.69743000  1.0
  H  H24  1  0.91650000  0.70596000  0.84918000  1.0
  H  H25  1  0.87629000  0.89001000  0.89137000  1.0
  H  H26  1  0.93279000  0.23699000  0.90888000  1.0
  H  H27  1  0.94161000  0.37606000  0.86548000  1.0
  H  H28  1  0.15847000  0.22400000  0.00500000  1.0
  H  H29  1  0.63513000  0.26695000  0.91931000  1.0
  H  H30  1  0.53874000  0.34103000  0.77480000  1.0
  H  H31  1  0.23792000  0.35190000  0.74549000  1.0
  H  H32  1  0.50416000  0.21166000  0.30545000  1.0
  H  H33  1  0.58583000  0.21370000  0.20283000  1.0
  H  H34  1  0.31008000  0.19916000  0.14489000  1.0
  H  H35  1  0.21745000  0.21463000  0.24375000  1.0
  H  H36  1  0.34650000  0.01974000  0.11298000  1.0
  H  H37  1  0.38047000  0.81963000  0.15738000  1.0
  H  H38  1  0.40118000  0.74543000  0.30972000  1.0
  H  H39  1  0.38603000  0.87204000  0.41589000  1.0
  H  H40  1  0.35271000  0.07195000  0.37201000  1.0
  H  H41  1  0.44940000  0.49123000  0.13334000  1.0
  H  H42  1  0.45225000  0.36385000  0.09321000  1.0
  H  H43  1  0.68630000  0.36845000  0.00423000  1.0
  H  H44  1  0.15278000  0.39464000  0.09273000  1.0
  H  H45  1  0.04085000  0.44446000  0.22959000  1.0
  H  H46  1  0.73787000  0.44686000  0.25451000  1.0
  H  H47  1  0.57435000  0.67949000  0.72369000  1.0
  H  H48  1  0.53175000  0.54488000  0.71092000  1.0
  H  H49  1  0.14939000  0.58323000  0.76476000  1.0
  H  H50  1  0.17266000  0.57257000  0.02182000  1.0
  H  H51  1  0.47610000  0.59689000  0.01511000  1.0
  H  H52  1  0.61563000  0.62499000  0.87440000  1.0
  H  H53  1  0.28714000  0.79537000  0.71683000  1.0
  H  H54  1  0.18694000  0.79205000  0.62106000  1.0
  H  H55  1  0.54704000  0.84639000  0.63906000  1.0
  H  H56  1  0.45095000  0.83609000  0.54313000  1.0
  H  H57  1  0.53077000  0.01281000  0.69484000  1.0
  H  H58  1  0.43371000  0.20793000  0.68337000  1.0
  H  H59  1  0.20787000  0.28093000  0.58518000  1.0
  H  H60  1  0.08156000  0.15742000  0.49818000  1.0
  H  H61  1  0.18366000  0.96426000  0.50720000  1.0
  C  C62  1  0.83271000  0.64478000  0.40221000  1.0
  C  C63  1  0.81478000  0.84161000  0.34899000  1.0
  C  C64  1  0.93146000  0.90205000  0.39736000  1.0
  C  C65  1  0.86538000  0.01665000  0.40401000  1.0
  C  C66  1  0.73193000  0.03606000  0.45712000  1.0
  C  C67  1  0.67152000  0.14217000  0.46375000  1.0
  C  C68  1  0.74499000  0.23086000  0.41769000  1.0
  C  C69  1  0.87726000  0.21259000  0.36430000  1.0
  C  C70  1  0.93568000  0.10613000  0.35697000  1.0
  C  C71  1  0.98455000  0.71376000  0.27407000  1.0
  C  C72  1  0.89748000  0.72307000  0.19147000  1.0
  C  C73  1  0.98248000  0.75428000  0.11631000  1.0
  C  C74  1  0.75903000  0.73678000  0.03614000  1.0
  C  C75  1  0.66368000  0.70568000  0.10714000  1.0
  C  C76  1  0.73401000  0.69817000  0.18605000  1.0
  C  C77  1  0.88229000  0.34210000  0.71698000  1.0
  C  C78  1  0.97394000  0.15153000  0.76566000  1.0
  C  C79  1  0.82222000  0.08574000  0.78873000  1.0
  C  C80  1  0.84703000  0.97290000  0.76433000  1.0
  C  C81  1  0.84822000  0.95915000  0.67918000  1.0
  C  C82  1  0.86905000  0.85522000  0.65556000  1.0
  C  C83  1  0.89071000  0.76377000  0.71656000  1.0
  C  C84  1  0.89329000  0.77662000  0.80140000  1.0
  C  C85  1  0.87185000  0.88088000  0.82492000  1.0
  C  C86  1  0.99178000  0.29307000  0.85994000  1.0
  C  C87  1  0.17468000  0.28641000  0.87317000  1.0
  C  C88  1  0.24097000  0.24906000  0.95245000  1.0
  C  C89  1  0.50418000  0.27433000  0.90513000  1.0
  C  C90  1  0.45104000  0.31418000  0.82422000  1.0
  C  C91  1  0.28333000  0.32044000  0.80811000  1.0
  C  C92  1  0.38379000  0.41352000  0.28165000  1.0
  C  C93  1  0.47679000  0.23675000  0.23881000  1.0
  C  C94  1  0.32679000  0.18072000  0.21313000  1.0
  C  C95  1  0.34636000  0.05938000  0.23923000  1.0
  C  C96  1  0.35437000  0.98718000  0.17953000  1.0
  C  C97  1  0.37347000  0.87474000  0.20459000  1.0
  C  C98  1  0.38544000  0.83310000  0.28962000  1.0
  C  C99  1  0.37793000  0.90465000  0.34948000  1.0
  C  C100  1  0.35906000  0.01687000  0.32459000  1.0
  C  C101  1  0.50391000  0.40731000  0.14096000  1.0
  C  C102  1  0.68792000  0.40652000  0.13091000  1.0
  C  C103  1  0.76275000  0.38393000  0.05590000  1.0
  C  C104  1  0.02059000  0.39987000  0.10483000  1.0
  C  C105  1  0.95873000  0.42616000  0.18129000  1.0
  C  C106  1  0.78959000  0.42835000  0.19478000  1.0
  C  C107  1  0.32816000  0.60458000  0.59499000  1.0
  C  C108  1  0.47476000  0.62334000  0.72373000  1.0
  C  C109  1  0.39190000  0.60931000  0.80831000  1.0
  C  C110  1  0.22547000  0.58909000  0.81905000  1.0
  C  C111  1  0.23861000  0.58078000  0.96188000  1.0
  C  C112  1  0.40681000  0.59629000  0.95811000  1.0
  C  C113  1  0.48457000  0.61168000  0.88013000  1.0
  C  C114  1  0.30677000  0.77999000  0.65170000  1.0
  C  C115  1  0.42874000  0.85799000  0.60646000  1.0
  C  C116  1  0.36549000  0.97539000  0.60136000  1.0
  C  C117  1  0.43229000  0.04483000  0.65168000  1.0
  C  C118  1  0.37733000  0.15448000  0.64531000  1.0
  C  C119  1  0.25170000  0.19552000  0.58985000  1.0
  C  C120  1  0.18121000  0.12638000  0.54079000  1.0
  C  C121  1  0.23839000  0.01739000  0.54633000  1.0
  S  S122  1  0.70958000  0.67515000  0.48586000  1.0
  S  S123  1  0.89574000  0.51258000  0.39373000  1.0
  S  S124  1  0.85439000  0.47582000  0.73069000  1.0
  S  S125  1  0.82532000  0.29931000  0.62355000  1.0
  S  S126  1  0.31849000  0.34086000  0.37556000  1.0
  S  S127  1  0.35890000  0.55235000  0.26397000  1.0
  S  S128  1  0.20812000  0.66723000  0.51181000  1.0
  S  S129  1  0.39524000  0.47023000  0.60014000  1.0
  N  N130  1  0.87432000  0.72850000  0.34463000  1.0
  N  N131  1  0.91671000  0.76108000  0.03995000  1.0
  N  N132  1  0.94788000  0.26635000  0.77753000  1.0
  N  N133  1  0.40203000  0.24305000  0.96925000  1.0
  N  N134  1  0.45340000  0.35572000  0.22399000  1.0
  N  N135  1  0.92534000  0.37917000  0.04249000  1.0
  N  N136  1  0.36465000  0.66520000  0.65453000  1.0
  N  N137  1  0.14876000  0.57590000  0.89379000  1.0
