# generated using pymatgen
data_KH19RuC22(N2O3)2
_symmetry_space_group_name_H-M   'P 1'
_cell_length_a   9.11442000
_cell_length_b   11.32840000
_cell_length_c   11.54000000
_cell_angle_alpha   83.33980000
_cell_angle_beta   82.84390000
_cell_angle_gamma   70.44430000
_symmetry_Int_Tables_number   1
_chemical_formula_structural   KH19RuC22(N2O3)2
_chemical_formula_sum   'K2 H38 Ru2 C44 N8 O12'
_cell_volume   1110.52669431
_cell_formula_units_Z   2
loop_
 _symmetry_equiv_pos_site_id
 _symmetry_equiv_pos_as_xyz
  1  'x, y, z'
loop_
 _atom_site_type_symbol
 _atom_site_label
 _atom_site_symmetry_multiplicity
 _atom_site_fract_x
 _atom_site_fract_y
 _atom_site_fract_z
 _atom_site_occupancy
  K  K0  1  0.98854000  0.15338000  0.58571000  1.0
  K  K1  1  0.01146000  0.84663000  0.41429000  1.0
  H  H2  1  0.26957000  0.98181000  0.47535000  1.0
  H  H3  1  0.73043000  0.01819000  0.52465000  1.0
  H  H4  1  0.90035000  0.96644000  0.08058000  1.0
  H  H5  1  0.09965000  0.03357000  0.91941000  1.0
  H  H6  1  0.64484000  0.11987000  0.02946000  1.0
  H  H7  1  0.35517000  0.88014000  0.97053000  1.0
  H  H8  1  0.54872000  0.33033000  0.11194000  1.0
  H  H9  1  0.45128000  0.66967000  0.88806000  1.0
  H  H10  1  0.71260000  0.38042000  0.24438000  1.0
  H  H11  1  0.28740000  0.61958000  0.75562000  1.0
  H  H12  1  0.06075000  0.44132000  0.39947000  1.0
  H  H13  1  0.93925000  0.55868000  0.60053000  1.0
  H  H14  1  0.24467000  0.52742000  0.47212000  1.0
  H  H15  1  0.75533000  0.47258000  0.52788000  1.0
  H  H16  1  0.52932000  0.39987000  0.47239000  1.0
  H  H17  1  0.47068000  0.60014000  0.52761000  1.0
  H  H18  1  0.62198000  0.18423000  0.40732000  1.0
  H  H19  1  0.37802000  0.81577000  0.59268000  1.0
  H  H20  1  0.79246000  0.73810000  0.34386000  1.0
  H  H21  1  0.20754000  0.26190000  0.65613000  1.0
  H  H22  1  0.77137000  0.54438000  0.27333000  1.0
  H  H23  1  0.22863000  0.45562000  0.72667000  1.0
  H  H24  1  0.52750000  0.56068000  0.18136000  1.0
  H  H25  1  0.47250000  0.43932000  0.81864000  1.0
  H  H26  1  0.31251000  0.77003000  0.17149000  1.0
  H  H27  1  0.68749000  0.22997000  0.82851000  1.0
  H  H28  1  0.68639000  0.51148000  0.80372000  1.0
  H  H29  1  0.31361000  0.48852000  0.19628000  1.0
  H  H30  1  0.69938000  0.45900000  0.95782000  1.0
  H  H31  1  0.30062000  0.54100000  0.04218000  1.0
  H  H32  1  0.80150000  0.56056000  0.89031000  1.0
  H  H33  1  0.19850000  0.43945000  0.10969000  1.0
  H  H34  1  0.11834000  0.24118000  0.90402000  1.0
  H  H35  1  0.88166000  0.75882000  0.09598000  1.0
  H  H36  1  0.05763000  0.39327000  0.95960000  1.0
  H  H37  1  0.94237000  0.60673000  0.04041000  1.0
  H  H38  1  0.95987000  0.28557000  0.01665000  1.0
  H  H39  1  0.04013000  0.71443000  0.98335000  1.0
  Ru  Ru40  1  0.26724000  0.03882000  0.25653000  1.0
  Ru  Ru41  1  0.73276000  0.96118000  0.74347000  1.0
  C  C42  1  0.95289000  0.08667000  0.18766000  1.0
  C  C43  1  0.04711000  0.91333000  0.81234000  1.0
  C  C44  1  0.85709000  0.05899000  0.11421000  1.0
  C  C45  1  0.14291000  0.94101000  0.88579000  1.0
  C  C46  1  0.71535000  0.14510000  0.08570000  1.0
  C  C47  1  0.28465000  0.85490000  0.91430000  1.0
  C  C48  1  0.66228000  0.26331000  0.13081000  1.0
  C  C49  1  0.33772000  0.73670000  0.86919000  1.0
  C  C50  1  0.75388000  0.29170000  0.20377000  1.0
  C  C51  1  0.24612000  0.70830000  0.79623000  1.0
  C  C52  1  0.90069000  0.20790000  0.23260000  1.0
  C  C53  1  0.09931000  0.79210000  0.76740000  1.0
  C  C54  1  0.98119000  0.25731000  0.31240000  1.0
  C  C55  1  0.01881000  0.74269000  0.68760000  1.0
  C  C56  1  0.23424000  0.26415000  0.36076000  1.0
  C  C57  1  0.76576000  0.73585000  0.63924000  1.0
  C  C58  1  0.18322000  0.38523000  0.40114000  1.0
  C  C59  1  0.81678000  0.61477000  0.59886000  1.0
  C  C60  1  0.28848000  0.43363000  0.44093000  1.0
  C  C61  1  0.71152000  0.56637000  0.55907000  1.0
  C  C62  1  0.44629000  0.36238000  0.44235000  1.0
  C  C63  1  0.55371000  0.63762000  0.55765000  1.0
  C  C64  1  0.49950000  0.24059000  0.40678000  1.0
  C  C65  1  0.50050000  0.75941000  0.59322000  1.0
  C  C66  1  0.39560000  0.18990000  0.36744000  1.0
  C  C67  1  0.60440000  0.81010000  0.63256000  1.0
  C  C68  1  0.57208000  0.97127000  0.34147000  1.0
  C  C69  1  0.42791000  0.02873000  0.65853000  1.0
  C  C70  1  0.56704000  0.85372000  0.29455000  1.0
  C  C71  1  0.43296000  0.14628000  0.70545000  1.0
  C  C72  1  0.69001000  0.74123000  0.30315000  1.0
  C  C73  1  0.30999000  0.25877000  0.69685000  1.0
  C  C74  1  0.67781000  0.63400000  0.26257000  1.0
  C  C75  1  0.32219000  0.36600000  0.73743000  1.0
  C  C76  1  0.54257000  0.64231000  0.21300000  1.0
  C  C77  1  0.45743000  0.35769000  0.78699000  1.0
  C  C78  1  0.42255000  0.75725000  0.20702000  1.0
  C  C79  1  0.57745000  0.24275000  0.79298000  1.0
  C  C80  1  0.90176000  0.36893000  0.84594000  1.0
  C  C81  1  0.09824000  0.63107000  0.15406000  1.0
  C  C82  1  0.76243000  0.48205000  0.87523000  1.0
  C  C83  1  0.23757000  0.51795000  0.12477000  1.0
  C  C84  1  0.01784000  0.31840000  0.93586000  1.0
  C  C85  1  0.98216000  0.68160000  0.06414000  1.0
  N  N86  1  0.32202000  0.09255000  0.11563000  1.0
  N  N87  1  0.67798000  0.90745000  0.88437000  1.0
  N  N88  1  0.14013000  0.21206000  0.30781000  1.0
  N  N89  1  0.85987000  0.78794000  0.69220000  1.0
  N  N90  1  0.43907000  0.06878000  0.32967000  1.0
  N  N91  1  0.56092000  0.93122000  0.67033000  1.0
  N  N92  1  0.43558000  0.85931000  0.24692000  1.0
  N  N93  1  0.56442000  0.14069000  0.75307000  1.0
  O  O94  1  0.36465000  0.13094000  0.02196000  1.0
  O  O95  1  0.63535000  0.86906000  0.97804000  1.0
  O  O96  1  0.20469000  0.97505000  0.41589000  1.0
  O  O97  1  0.79531000  0.02495000  0.58411000  1.0
  O  O98  1  0.08311000  0.99394000  0.21251000  1.0
  O  O99  1  0.91689000  0.00606000  0.78749000  1.0
  O  O100  1  0.89860000  0.34142000  0.37828000  1.0
  O  O101  1  0.10140000  0.65858000  0.62172000  1.0
  O  O102  1  0.69151000  0.96853000  0.38727000  1.0
  O  O103  1  0.30849000  0.03147000  0.61273000  1.0
  O  O104  1  0.91759000  0.31908000  0.75368000  1.0
  O  O105  1  0.08241000  0.68092000  0.24632000  1.0
