# generated using pymatgen
data_MnH9C13NO5
_symmetry_space_group_name_H-M   'P 1'
_cell_length_a   6.99469000
_cell_length_b   10.16350000
_cell_length_c   20.18600000
_cell_angle_alpha   89.19380000
_cell_angle_beta   87.70480000
_cell_angle_gamma   69.87190000
_symmetry_Int_Tables_number   1
_chemical_formula_structural   MnH9C13NO5
_chemical_formula_sum   'Mn4 H36 C52 N4 O20'
_cell_volume   1346.30865808
_cell_formula_units_Z   4
loop_
 _symmetry_equiv_pos_site_id
 _symmetry_equiv_pos_as_xyz
  1  'x, y, z'
loop_
 _atom_site_type_symbol
 _atom_site_label
 _atom_site_symmetry_multiplicity
 _atom_site_fract_x
 _atom_site_fract_y
 _atom_site_fract_z
 _atom_site_occupancy
  Mn  Mn0  1  0.49912000  0.28793000  0.52910000  1.0
  Mn  Mn1  1  0.21331000  0.28781000  0.97103000  1.0
  Mn  Mn2  1  0.50087000  0.71206000  0.47090000  1.0
  Mn  Mn3  1  0.78668000  0.71219000  0.02897000  1.0
  H  H4  1  0.87051000  0.03445000  0.71131000  1.0
  H  H5  1  0.09527000  0.03449000  0.78877000  1.0
  H  H6  1  0.12949000  0.96556000  0.28869000  1.0
  H  H7  1  0.90474000  0.96550000  0.21124000  1.0
  H  H8  1  0.26158000  0.59891000  0.69869000  1.0
  H  H9  1  0.14086000  0.59871000  0.80154000  1.0
  H  H10  1  0.73842000  0.40110000  0.30131000  1.0
  H  H11  1  0.85916000  0.40129000  0.19846000  1.0
  H  H12  1  0.00894000  0.82333000  0.52396000  1.0
  H  H13  1  0.16739000  0.82365000  0.97621000  1.0
  H  H14  1  0.99106000  0.17668000  0.47604000  1.0
  H  H15  1  0.83259000  0.17636000  0.02379000  1.0
  H  H16  1  0.58657000  0.07164000  0.41530000  1.0
  H  H17  1  0.34246000  0.07142000  0.08497000  1.0
  H  H18  1  0.41344000  0.92835000  0.58469000  1.0
  H  H19  1  0.65754000  0.92859000  0.91503000  1.0
  H  H20  1  0.55438000  0.06095000  0.29459000  1.0
  H  H21  1  0.38534000  0.06088000  0.20566000  1.0
  H  H22  1  0.44563000  0.93905000  0.70541000  1.0
  H  H23  1  0.61467000  0.93912000  0.79434000  1.0
  H  H24  1  0.18614000  0.50132000  0.30122000  1.0
  H  H25  1  0.31150000  0.50154000  0.19889000  1.0
  H  H26  1  0.81388000  0.49868000  0.69878000  1.0
  H  H27  1  0.68850000  0.49846000  0.80111000  1.0
  H  H28  1  0.24209000  0.49451000  0.42215000  1.0
  H  H29  1  0.26184000  0.49464000  0.07802000  1.0
  H  H30  1  0.75793000  0.50548000  0.57786000  1.0
  H  H31  1  0.73814000  0.50537000  0.92198000  1.0
  H  H32  1  0.13882000  0.22993000  0.56751000  1.0
  H  H33  1  0.63101000  0.23005000  0.93255000  1.0
  H  H34  1  0.86119000  0.77006000  0.43250000  1.0
  H  H35  1  0.36897000  0.76995000  0.06745000  1.0
  H  H36  1  0.26944000  0.10082000  0.52220000  1.0
  H  H37  1  0.63019000  0.10052000  0.97774000  1.0
  H  H38  1  0.73056000  0.89918000  0.47780000  1.0
  H  H39  1  0.36981000  0.89948000  0.02226000  1.0
  C  C40  1  0.91836000  0.94067000  0.61465000  1.0
  C  C41  1  0.14115000  0.94084000  0.88549000  1.0
  C  C42  1  0.08164000  0.05934000  0.38535000  1.0
  C  C43  1  0.85885000  0.05916000  0.11451000  1.0
  C  C44  1  0.94927000  0.93959000  0.68277000  1.0
  C  C45  1  0.11161000  0.93963000  0.81736000  1.0
  C  C46  1  0.05073000  0.06041000  0.31723000  1.0
  C  C47  1  0.88840000  0.06037000  0.18264000  1.0
  C  C48  1  0.07376000  0.81749000  0.71418000  1.0
  C  C49  1  0.10944000  0.81744000  0.78600000  1.0
  C  C50  1  0.92624000  0.18252000  0.28582000  1.0
  C  C51  1  0.89056000  0.18256000  0.21400000  1.0
  C  C52  1  0.16447000  0.69551000  0.67604000  1.0
  C  C53  1  0.14088000  0.69543000  0.82416000  1.0
  C  C54  1  0.83553000  0.30449000  0.32395000  1.0
  C  C55  1  0.85912000  0.30457000  0.17584000  1.0
  C  C56  1  0.14268000  0.69865000  0.60754000  1.0
  C  C57  1  0.15923000  0.69871000  0.89268000  1.0
  C  C58  1  0.85733000  0.30136000  0.39246000  1.0
  C  C59  1  0.84077000  0.30129000  0.10732000  1.0
  C  C60  1  0.02120000  0.82138000  0.57733000  1.0
  C  C61  1  0.15754000  0.82157000  0.92283000  1.0
  C  C62  1  0.97881000  0.17863000  0.42267000  1.0
  C  C63  1  0.84246000  0.17843000  0.07717000  1.0
  C  C64  1  0.77319000  0.06380000  0.58049000  1.0
  C  C65  1  0.16300000  0.06406000  0.91958000  1.0
  C  C66  1  0.22681000  0.93620000  0.41951000  1.0
  C  C67  1  0.83701000  0.93594000  0.08042000  1.0
  C  C68  1  0.25268000  0.57751000  0.56326000  1.0
  C  C69  1  0.17037000  0.57763000  0.93701000  1.0
  C  C70  1  0.74730000  0.42250000  0.43673000  1.0
  C  C71  1  0.82963000  0.42237000  0.06299000  1.0
  C  C72  1  0.49894000  0.16486000  0.38840000  1.0
  C  C73  1  0.33647000  0.16476000  0.11182000  1.0
  C  C74  1  0.50108000  0.83513000  0.61159000  1.0
  C  C75  1  0.66352000  0.83525000  0.88818000  1.0
  C  C76  1  0.47885000  0.15953000  0.32051000  1.0
  C  C77  1  0.36208000  0.15949000  0.17971000  1.0
  C  C78  1  0.52117000  0.84047000  0.67948000  1.0
  C  C79  1  0.63793000  0.84051000  0.82029000  1.0
  C  C80  1  0.36914000  0.28143000  0.28630000  1.0
  C  C81  1  0.34963000  0.28145000  0.21390000  1.0
  C  C82  1  0.63088000  0.71857000  0.71370000  1.0
  C  C83  1  0.65038000  0.71856000  0.78610000  1.0
  C  C84  1  0.27927000  0.40366000  0.32397000  1.0
  C  C85  1  0.31659000  0.40374000  0.17619000  1.0
  C  C86  1  0.72075000  0.59633000  0.67603000  1.0
  C  C87  1  0.68341000  0.59626000  0.82381000  1.0
  C  C88  1  0.30620000  0.40058000  0.39179000  1.0
  C  C89  1  0.29233000  0.40062000  0.10838000  1.0
  C  C90  1  0.69381000  0.59942000  0.60821000  1.0
  C  C91  1  0.70767000  0.59938000  0.89162000  1.0
  N  N92  1  0.41638000  0.28347000  0.42403000  1.0
  N  N93  1  0.29985000  0.28342000  0.07617000  1.0
  N  N94  1  0.58363000  0.71651000  0.57598000  1.0
  N  N95  1  0.70014000  0.71659000  0.92384000  1.0
  O  O96  1  0.71506000  0.04617000  0.52264000  1.0
  O  O97  1  0.23828000  0.04655000  0.97753000  1.0
  O  O98  1  0.28494000  0.95383000  0.47736000  1.0
  O  O99  1  0.76168000  0.95346000  0.02248000  1.0
  O  O100  1  0.27768000  0.17306000  0.55425000  1.0
  O  O101  1  0.54946000  0.17282000  0.94573000  1.0
  O  O102  1  0.72232000  0.82693000  0.44576000  1.0
  O  O103  1  0.45053000  0.82718000  0.05428000  1.0
  O  O104  1  0.70679000  0.18328000  0.60855000  1.0
  O  O105  1  0.11044000  0.18341000  0.89140000  1.0
  O  O106  1  0.29320000  0.81672000  0.39146000  1.0
  O  O107  1  0.88959000  0.81659000  0.10860000  1.0
  O  O108  1  0.30071000  0.45348000  0.58650000  1.0
  O  O109  1  0.24724000  0.45352000  0.91393000  1.0
  O  O110  1  0.69926000  0.54653000  0.41349000  1.0
  O  O111  1  0.75277000  0.54648000  0.08607000  1.0
  O  O112  1  0.29235000  0.60612000  0.50348000  1.0
  O  O113  1  0.10115000  0.60638000  0.99669000  1.0
  O  O114  1  0.70761000  0.39389000  0.49652000  1.0
  O  O115  1  0.89883000  0.39363000  0.00331000  1.0
