# generated using pymatgen
data_Zn3H16C32(NO3)4
_symmetry_space_group_name_H-M   'P 1'
_cell_length_a   23.70420000
_cell_length_b   23.70420000
_cell_length_c   25.53095166
_cell_angle_alpha   117.66293590
_cell_angle_beta   117.65665488
_cell_angle_gamma   89.99860000
_symmetry_Int_Tables_number   1
_chemical_formula_structural   Zn3H16C32(NO3)4
_chemical_formula_sum   'Zn6 H32 C64 N8 O24'
_cell_volume   10821.24279280
_cell_formula_units_Z   2
loop_
 _symmetry_equiv_pos_site_id
 _symmetry_equiv_pos_as_xyz
  1  'x, y, z'
loop_
 _atom_site_type_symbol
 _atom_site_label
 _atom_site_symmetry_multiplicity
 _atom_site_fract_x
 _atom_site_fract_y
 _atom_site_fract_z
 _atom_site_occupancy
  Zn  Zn0  1  0.94552000  0.50002000  0.00002000  1.0
  Zn  Zn1  1  0.03384000  0.03384000  0.06768000  1.0
  Zn  Zn2  1  0.96616000  0.96616000  0.93232000  1.0
  Zn  Zn3  1  0.50001000  0.94551000  0.99999000  1.0
  Zn  Zn4  1  0.05448000  0.49997000  0.99997000  1.0
  Zn  Zn5  1  0.50000000  0.05451000  0.00003000  1.0
  H  H6  1  0.87222000  0.24791000  0.65106000  1.0
  H  H7  1  0.40314000  0.87222000  0.65106000  1.0
  H  H8  1  0.77883000  0.40312000  0.65104000  1.0
  H  H9  1  0.24791000  0.77886000  0.65105000  1.0
  H  H10  1  0.22116000  0.75207000  0.34894000  1.0
  H  H11  1  0.75210000  0.12783000  0.34896000  1.0
  H  H12  1  0.12781000  0.59686000  0.34895000  1.0
  H  H13  1  0.59683000  0.22113000  0.34894000  1.0
  H  H14  1  0.94585000  0.25182000  0.75355000  1.0
  H  H15  1  0.00144000  0.33207000  0.82108000  1.0
  H  H16  1  0.93878000  0.30027000  0.82700000  1.0
  H  H17  1  0.50174000  0.94584000  0.75357000  1.0
  H  H18  1  0.48906000  0.00146000  0.82113000  1.0
  H  H19  1  0.52671000  0.93874000  0.82699000  1.0
  H  H20  1  0.80770000  0.50176000  0.75357000  1.0
  H  H21  1  0.81965000  0.48905000  0.82110000  1.0
  H  H22  1  0.88822000  0.52674000  0.82700000  1.0
  H  H23  1  0.25180000  0.80772000  0.75356000  1.0
  H  H24  1  0.33205000  0.81965000  0.82110000  1.0
  H  H25  1  0.30025000  0.88824000  0.82701000  1.0
  H  H26  1  0.19227000  0.74816000  0.24643000  1.0
  H  H27  1  0.18033000  0.66793000  0.17887000  1.0
  H  H28  1  0.11175000  0.69971000  0.17301000  1.0
  H  H29  1  0.74821000  0.05418000  0.24642000  1.0
  H  H30  1  0.66798000  0.99858000  0.17889000  1.0
  H  H31  1  0.69976000  0.06128000  0.17300000  1.0
  H  H32  1  0.05415000  0.49825000  0.24644000  1.0
  H  H33  1  0.99856000  0.51095000  0.17891000  1.0
  H  H34  1  0.06123000  0.47324000  0.17300000  1.0
  H  H35  1  0.49824000  0.19224000  0.24645000  1.0
  H  H36  1  0.51094000  0.18033000  0.17891000  1.0
  H  H37  1  0.47326000  0.11174000  0.17300000  1.0
  C  C38  1  0.99996000  0.39013000  0.99996000  1.0
  C  C39  1  0.39411000  0.89418000  0.78830000  1.0
  C  C40  1  0.29628000  0.81367000  0.68015000  1.0
  C  C41  1  0.18641000  0.70367000  0.31985000  1.0
  C  C42  1  0.70371000  0.13349000  0.31985000  1.0
  C  C43  1  0.13351000  0.61613000  0.31985000  1.0
  C  C44  1  0.61613000  0.18633000  0.31986000  1.0
  C  C45  1  0.82176000  0.32176000  0.64354000  1.0
  C  C46  1  0.32173000  0.82182000  0.64354000  1.0
  C  C47  1  0.17828000  0.67819000  0.35646000  1.0
  C  C48  1  0.67822000  0.17822000  0.35646000  1.0
  C  C49  1  0.10588000  0.60581000  0.21170000  1.0
  C  C50  1  0.94980000  0.30239000  0.79046000  1.0
  C  C51  1  0.48806000  0.94980000  0.79047000  1.0
  C  C52  1  0.84066000  0.48809000  0.79046000  1.0
  C  C53  1  0.30237000  0.84067000  0.79047000  1.0
  C  C54  1  0.15932000  0.69759000  0.20952000  1.0
  C  C55  1  0.69765000  0.05024000  0.20953000  1.0
  C  C56  1  0.05021000  0.51190000  0.20954000  1.0
  C  C57  1  0.60588000  0.10586000  0.21172000  1.0
  C  C58  1  0.51191000  0.15931000  0.20954000  1.0
  C  C59  1  0.89414000  0.39416000  0.78828000  1.0
  C  C60  1  0.71639000  0.21638000  0.43277000  1.0
  C  C61  1  0.21642000  0.71635000  0.43277000  1.0
  C  C62  1  0.28359000  0.78365000  0.56723000  1.0
  C  C63  1  0.60983000  0.00001000  0.99997000  1.0
  C  C64  1  0.78361000  0.28362000  0.56723000  1.0
  C  C65  1  0.10901000  0.99997000  0.99994000  1.0
  C  C66  1  0.00003000  0.10907000  0.00006000  1.0
  C  C67  1  0.89098000  0.00002000  0.00005000  1.0
  C  C68  1  0.99997000  0.89093000  0.99995000  1.0
  C  C69  1  0.00004000  0.60986000  0.00003000  1.0
  C  C70  1  0.93300000  0.43299000  0.86595000  1.0
  C  C71  1  0.43297000  0.93299000  0.86597000  1.0
  C  C72  1  0.06701000  0.56700000  0.13403000  1.0
  C  C73  1  0.56703000  0.06705000  0.13404000  1.0
  C  C74  1  0.39018000  0.00000000  0.00004000  1.0
  C  C75  1  0.99997000  0.32955000  0.99995000  1.0
  C  C76  1  0.67040000  0.99997000  0.99995000  1.0
  C  C77  1  0.00003000  0.67045000  0.00005000  1.0
  C  C78  1  0.32960000  0.00002000  0.00005000  1.0
  C  C79  1  0.00005000  0.27793000  1.00000000  1.0
  C  C80  1  0.72207000  0.99995000  0.00000000  1.0
  C  C81  1  0.99996000  0.72207000  0.00000000  1.0
  C  C82  1  0.27793000  0.00005000  0.00000000  1.0
  C  C83  1  0.00007000  0.22124000  0.00007000  1.0
  C  C84  1  0.77883000  0.00000000  0.00006000  1.0
  C  C85  1  0.99994000  0.77876000  0.99994000  1.0
  C  C86  1  0.22117000  0.00000000  0.99993000  1.0
  C  C87  1  0.00003000  0.16959000  0.00007000  1.0
  C  C88  1  0.83047000  0.00003000  0.00005000  1.0
  C  C89  1  0.99998000  0.83042000  0.99995000  1.0
  C  C90  1  0.16952000  0.99996000  0.99993000  1.0
  C  C91  1  0.90318000  0.33174000  0.75261000  1.0
  C  C92  1  0.42084000  0.90324000  0.75262000  1.0
  C  C93  1  0.84939000  0.42088000  0.75260000  1.0
  C  C94  1  0.33171000  0.84944000  0.75261000  1.0
  C  C95  1  0.15061000  0.66822000  0.24738000  1.0
  C  C96  1  0.66829000  0.09682000  0.24739000  1.0
  C  C97  1  0.09683000  0.57910000  0.24739000  1.0
  C  C98  1  0.57912000  0.15055000  0.24739000  1.0
  C  C99  1  0.86649000  0.29628000  0.68014000  1.0
  C  C100  1  0.38382000  0.86656000  0.68015000  1.0
  C  C101  1  0.81361000  0.38384000  0.68014000  1.0
  N  N102  1  0.73120000  0.30261000  0.53416000  1.0
  N  N103  1  0.23154000  0.73122000  0.53416000  1.0
  N  N104  1  0.80297000  0.23156000  0.53416000  1.0
  N  N105  1  0.30261000  0.80297000  0.53416000  1.0
  N  N106  1  0.19707000  0.69738000  0.46584000  1.0
  N  N107  1  0.69738000  0.26879000  0.46584000  1.0
  N  N108  1  0.26881000  0.76844000  0.46584000  1.0
  N  N109  1  0.76848000  0.19706000  0.46584000  1.0
  O  O110  1  0.95214000  0.41445000  0.00095000  1.0
  O  O111  1  0.58650000  0.95214000  0.00091000  1.0
  O  O112  1  0.04882000  0.58650000  0.00093000  1.0
  O  O113  1  0.41444000  0.04882000  0.00099000  1.0
  O  O114  1  0.95123000  0.58559000  0.99909000  1.0
  O  O115  1  0.58557000  0.04789000  0.99907000  1.0
  O  O116  1  0.04782000  0.41345000  0.99900000  1.0
  O  O117  1  0.41350000  0.95119000  0.99905000  1.0
  O  O118  1  0.90029000  0.44731000  0.89639000  1.0
  O  O119  1  0.44906000  0.90023000  0.89635000  1.0
  O  O120  1  0.99615000  0.44906000  0.89635000  1.0
  O  O121  1  0.44732000  0.99614000  0.89642000  1.0
  O  O122  1  0.00387000  0.55271000  0.10365000  1.0
  O  O123  1  0.55270000  0.09979000  0.10364000  1.0
  O  O124  1  0.09971000  0.55090000  0.10358000  1.0
  O  O125  1  0.55092000  0.00391000  0.10361000  1.0
  O  O126  1  0.05530000  0.97063000  0.94047000  1.0
  O  O127  1  0.96990000  0.05537000  0.94057000  1.0
  O  O128  1  0.88521000  0.96987000  0.94057000  1.0
  O  O129  1  0.97062000  0.88515000  0.94047000  1.0
  O  O130  1  0.11480000  0.02933000  0.05943000  1.0
  O  O131  1  0.02929000  0.94464000  0.05942000  1.0
  O  O132  1  0.94468000  0.03015000  0.05953000  1.0
  O  O133  1  0.03016000  0.11483000  0.05953000  1.0
