# generated using pymatgen
data_ErH20C18N2O11
_symmetry_space_group_name_H-M   'P 1'
_cell_length_a   10.64780000
_cell_length_b   10.79690000
_cell_length_c   12.89780000
_cell_angle_alpha   103.34500000
_cell_angle_beta   110.94500000
_cell_angle_gamma   96.82620000
_symmetry_Int_Tables_number   1
_chemical_formula_structural   ErH20C18N2O11
_chemical_formula_sum   'Er2 H40 C36 N4 O22'
_cell_volume   1313.90560806
_cell_formula_units_Z   2
loop_
 _symmetry_equiv_pos_site_id
 _symmetry_equiv_pos_as_xyz
  1  'x, y, z'
loop_
 _atom_site_type_symbol
 _atom_site_label
 _atom_site_symmetry_multiplicity
 _atom_site_fract_x
 _atom_site_fract_y
 _atom_site_fract_z
 _atom_site_occupancy
  Er  Er0  1  0.10421000  0.54398000  0.68423000  1.0
  Er  Er1  1  0.89579000  0.45602000  0.31577000  1.0
  H  H2  1  0.93376000  0.14576000  0.30252000  1.0
  H  H3  1  0.06623000  0.85424000  0.69748000  1.0
  H  H4  1  0.21776000  0.40023000  0.27488000  1.0
  H  H5  1  0.78225000  0.59978000  0.72512000  1.0
  H  H6  1  0.17910000  0.89540000  0.93320000  1.0
  H  H7  1  0.82089000  0.10460000  0.06680000  1.0
  H  H8  1  0.00263000  0.16388000  0.67107000  1.0
  H  H9  1  0.99738000  0.83612000  0.32893000  1.0
  H  H10  1  0.42287000  0.56954000  0.66061000  1.0
  H  H11  1  0.57714000  0.43046000  0.33939000  1.0
  H  H12  1  0.55718000  0.82232000  0.87494000  1.0
  H  H13  1  0.44281000  0.17767000  0.12506000  1.0
  H  H14  1  0.44693000  0.51634000  0.83052000  1.0
  H  H15  1  0.55306000  0.48366000  0.16949000  1.0
  H  H16  1  0.63512000  0.45346000  0.89692000  1.0
  H  H17  1  0.36487000  0.54655000  0.10309000  1.0
  H  H18  1  0.63755000  0.28610000  0.84648000  1.0
  H  H19  1  0.36245000  0.71391000  0.15353000  1.0
  H  H20  1  0.61729000  0.34455000  0.97918000  1.0
  H  H21  1  0.38271000  0.65546000  0.02083000  1.0
  H  H22  1  0.25961000  0.18216000  0.73830000  1.0
  H  H23  1  0.74039000  0.81784000  0.26171000  1.0
  H  H24  1  0.37628000  0.15797000  0.86841000  1.0
  H  H25  1  0.62372000  0.84202000  0.13159000  1.0
  H  H26  1  0.41167000  0.12529000  0.74090000  1.0
  H  H27  1  0.58833000  0.87471000  0.25911000  1.0
  H  H28  1  0.87281000  0.35685000  0.74608000  1.0
  H  H29  1  0.12719000  0.64315000  0.25392000  1.0
  H  H30  1  0.79652000  0.18384000  0.78113000  1.0
  H  H31  1  0.20348000  0.81616000  0.21888000  1.0
  H  H32  1  0.85447000  0.20205000  0.93365000  1.0
  H  H33  1  0.14553000  0.79794000  0.06635000  1.0
  H  H34  1  0.92236000  0.09926000  0.84713000  1.0
  H  H35  1  0.07764000  0.90073000  0.15287000  1.0
  H  H36  1  0.20176000  0.39121000  0.97622000  1.0
  H  H37  1  0.79824000  0.60879000  0.02378000  1.0
  H  H38  1  0.15750000  0.22419000  0.97374000  1.0
  H  H39  1  0.84250000  0.77581000  0.02627000  1.0
  H  H40  1  0.11339000  0.34946000  0.06270000  1.0
  H  H41  1  0.88661000  0.65054000  0.93730000  1.0
  C  C42  1  0.97444000  0.03050000  0.39408000  1.0
  C  C43  1  0.02556000  0.96950000  0.60592000  1.0
  C  C44  1  0.97497000  0.12312000  0.49249000  1.0
  C  C45  1  0.02504000  0.87689000  0.50750000  1.0
  C  C46  1  0.00053000  0.09094000  0.59613000  1.0
  C  C47  1  0.99947000  0.90906000  0.40386000  1.0
  C  C48  1  0.95407000  0.25591000  0.48946000  1.0
  C  C49  1  0.04593000  0.74409000  0.51054000  1.0
  C  C50  1  0.40221000  0.44880000  0.38362000  1.0
  C  C51  1  0.59780000  0.55121000  0.61638000  1.0
  C  C52  1  0.35912000  0.48574000  0.47652000  1.0
  C  C53  1  0.64089000  0.51427000  0.52347000  1.0
  C  C54  1  0.45737000  0.53732000  0.59099000  1.0
  C  C55  1  0.54264000  0.46269000  0.40901000  1.0
  C  C56  1  0.21080000  0.46962000  0.45420000  1.0
  C  C57  1  0.78921000  0.53039000  0.54580000  1.0
  C  C58  1  0.36421000  0.98874000  0.99640000  1.0
  C  C59  1  0.63578000  0.01126000  0.00360000  1.0
  C  C60  1  0.39901000  0.88803000  0.92626000  1.0
  C  C61  1  0.60098000  0.11197000  0.07373000  1.0
  C  C62  1  0.53320000  0.90058000  0.93005000  1.0
  C  C63  1  0.46679000  0.09941000  0.06994000  1.0
  C  C64  1  0.29478000  0.76713000  0.85013000  1.0
  C  C65  1  0.70521000  0.23287000  0.14987000  1.0
  C  C66  1  0.37824000  0.41878000  0.79994000  1.0
  C  C67  1  0.62175000  0.58122000  0.20006000  1.0
  C  C68  1  0.59125000  0.35385000  0.89125000  1.0
  C  C69  1  0.40875000  0.64615000  0.10876000  1.0
  C  C70  1  0.36794000  0.18948000  0.79154000  1.0
  C  C71  1  0.63206000  0.81051000  0.20847000  1.0
  C  C72  1  0.97510000  0.38291000  0.81867000  1.0
  C  C73  1  0.02490000  0.61709000  0.18133000  1.0
  C  C74  1  0.88562000  0.19022000  0.86008000  1.0
  C  C75  1  0.11438000  0.80978000  0.13993000  1.0
  C  C76  1  0.12496000  0.31753000  0.97996000  1.0
  C  C77  1  0.87504000  0.68247000  0.02004000  1.0
  N  N78  1  0.44287000  0.32415000  0.82613000  1.0
  N  N79  1  0.55713000  0.67585000  0.17388000  1.0
  N  N80  1  0.99461000  0.30058000  0.88289000  1.0
  N  N81  1  0.00539000  0.69942000  0.11711000  1.0
  O  O82  1  0.97095000  0.33960000  0.58310000  1.0
  O  O83  1  0.02905000  0.66040000  0.41689000  1.0
  O  O84  1  0.92123000  0.27922000  0.39080000  1.0
  O  O85  1  0.07876000  0.72078000  0.60920000  1.0
  O  O86  1  0.95034000  0.05494000  0.29082000  1.0
  O  O87  1  0.04966000  0.94506000  0.70917000  1.0
  O  O88  1  0.17335000  0.49185000  0.53814000  1.0
  O  O89  1  0.82667000  0.50816000  0.46187000  1.0
  O  O90  1  0.12280000  0.43286000  0.34720000  1.0
  O  O91  1  0.87720000  0.56714000  0.65280000  1.0
  O  O92  1  0.31067000  0.40031000  0.27081000  1.0
  O  O93  1  0.68934000  0.59970000  0.72919000  1.0
  O  O94  1  0.17110000  0.75271000  0.84694000  1.0
  O  O95  1  0.82889000  0.24729000  0.15306000  1.0
  O  O96  1  0.32691000  0.67640000  0.78820000  1.0
  O  O97  1  0.67308000  0.32360000  0.21180000  1.0
  O  O98  1  0.23473000  0.98099000  0.99318000  1.0
  O  O99  1  0.76527000  0.01901000  0.00681000  1.0
  O  O100  1  0.25079000  0.40158000  0.74597000  1.0
  O  O101  1  0.74921000  0.59842000  0.25402000  1.0
  O  O102  1  0.06335000  0.48201000  0.83568000  1.0
  O  O103  1  0.93665000  0.51799000  0.16432000  1.0
