# generated using pymatgen
data_CuH10(C2O)6
_symmetry_space_group_name_H-M   'P 1'
_cell_length_a   6.52730000
_cell_length_b   6.77434000
_cell_length_c   12.55620000
_cell_angle_alpha   91.54740000
_cell_angle_beta   89.99960000
_cell_angle_gamma   89.99990000
_symmetry_Int_Tables_number   1
_chemical_formula_structural   CuH10(C2O)6
_chemical_formula_sum   'Cu2 H20 C24 O12'
_cell_volume   555.00945775
_cell_formula_units_Z   2
loop_
 _symmetry_equiv_pos_site_id
 _symmetry_equiv_pos_as_xyz
  1  'x, y, z'
loop_
 _atom_site_type_symbol
 _atom_site_label
 _atom_site_symmetry_multiplicity
 _atom_site_fract_x
 _atom_site_fract_y
 _atom_site_fract_z
 _atom_site_occupancy
  Cu  Cu0  1  0.86969000  0.30043000  0.51588000  1.0
  Cu  Cu1  1  0.36969000  0.69956000  0.48412000  1.0
  H  H2  1  0.67148000  0.13337000  0.14537000  1.0
  H  H3  1  0.17145000  0.86664000  0.85464000  1.0
  H  H4  1  0.66875000  0.07287000  0.94966000  1.0
  H  H5  1  0.16876000  0.92716000  0.05036000  1.0
  H  H6  1  0.73149000  0.84991000  0.79401000  1.0
  H  H7  1  0.23152000  0.15013000  0.20600000  1.0
  H  H8  1  0.85638000  0.50661000  0.81890000  1.0
  H  H9  1  0.35640000  0.49342000  0.18109000  1.0
  H  H10  1  0.91244000  0.38365000  0.00152000  1.0
  H  H11  1  0.41245000  0.61637000  0.99847000  1.0
  H  H12  1  0.89817000  0.44005000  0.19795000  1.0
  H  H13  1  0.39816000  0.55994000  0.80204000  1.0
  H  H14  1  0.86983000  0.00411000  0.62875000  1.0
  H  H15  1  0.36984000  0.99587000  0.37125000  1.0
  H  H16  1  0.63207000  0.03673000  0.60283000  1.0
  H  H17  1  0.13208000  0.96326000  0.39717000  1.0
  H  H18  1  0.68986000  0.53312000  0.62970000  1.0
  H  H19  1  0.18987000  0.46687000  0.37030000  1.0
  H  H20  1  0.91277000  0.62810000  0.61651000  1.0
  H  H21  1  0.41278000  0.37188000  0.38349000  1.0
  C  C22  1  0.73448000  0.05902000  0.35048000  1.0
  C  C23  1  0.23447000  0.94096000  0.64953000  1.0
  C  C24  1  0.81930000  0.63876000  0.38317000  1.0
  C  C25  1  0.31929000  0.36122000  0.61682000  1.0
  C  C26  1  0.75472000  0.91533000  0.25819000  1.0
  C  C27  1  0.25471000  0.08466000  0.74182000  1.0
  C  C28  1  0.72184000  0.98195000  0.15681000  1.0
  C  C29  1  0.22183000  0.01806000  0.84320000  1.0
  C  C30  1  0.75372000  0.85668000  0.06588000  1.0
  C  C31  1  0.25370000  0.14334000  0.93412000  1.0
  C  C32  1  0.72086000  0.92202000  0.96093000  1.0
  C  C33  1  0.22085000  0.07800000  0.03907000  1.0
  C  C34  1  0.75622000  0.79696000  0.87423000  1.0
  C  C35  1  0.25624000  0.20306000  0.12577000  1.0
  C  C36  1  0.82746000  0.60206000  0.88858000  1.0
  C  C37  1  0.32746000  0.39796000  0.11142000  1.0
  C  C38  1  0.85893000  0.53401000  0.98987000  1.0
  C  C39  1  0.35893000  0.46602000  0.01012000  1.0
  C  C40  1  0.82351000  0.65841000  0.08065000  1.0
  C  C41  1  0.32350000  0.34160000  0.91934000  1.0
  C  C42  1  0.85267000  0.59259000  0.18575000  1.0
  C  C43  1  0.35266000  0.40741000  0.81424000  1.0
  C  C44  1  0.81812000  0.71625000  0.27314000  1.0
  C  C45  1  0.31811000  0.28374000  0.72686000  1.0
  O  O46  1  0.89988000  0.09313000  0.40403000  1.0
  O  O47  1  0.39988000  0.90685000  0.59597000  1.0
  O  O48  1  0.56763000  0.14827000  0.36861000  1.0
  O  O49  1  0.06764000  0.85172000  0.63139000  1.0
  O  O50  1  0.93194000  0.48384000  0.39922000  1.0
  O  O51  1  0.43195000  0.51615000  0.60078000  1.0
  O  O52  1  0.70900000  0.72142000  0.45285000  1.0
  O  O53  1  0.20900000  0.27857000  0.54715000  1.0
  O  O54  1  0.76126000  0.10801000  0.62126000  1.0
  O  O55  1  0.26127000  0.89197000  0.37874000  1.0
  O  O56  1  0.83994000  0.50442000  0.63271000  1.0
  O  O57  1  0.33995000  0.49557000  0.36729000  1.0
