# generated using pymatgen
data_CuH8C12N3O8
_symmetry_space_group_name_H-M   'P 1'
_cell_length_a   8.14182000
_cell_length_b   11.10580000
_cell_length_c   14.25290000
_cell_angle_alpha   85.38110000
_cell_angle_beta   89.99830000
_cell_angle_gamma   89.99970000
_symmetry_Int_Tables_number   1
_chemical_formula_structural   CuH8C12N3O8
_chemical_formula_sum   'Cu4 H32 C48 N12 O32'
_cell_volume   1284.58208042
_cell_formula_units_Z   4
loop_
 _symmetry_equiv_pos_site_id
 _symmetry_equiv_pos_as_xyz
  1  'x, y, z'
loop_
 _atom_site_type_symbol
 _atom_site_label
 _atom_site_symmetry_multiplicity
 _atom_site_fract_x
 _atom_site_fract_y
 _atom_site_fract_z
 _atom_site_occupancy
  Cu  Cu0  1  0.08131000  0.19418000  0.85149000  1.0
  Cu  Cu1  1  0.58135000  0.30591000  0.64849000  1.0
  Cu  Cu2  1  0.91862000  0.80584000  0.14855000  1.0
  Cu  Cu3  1  0.41867000  0.69425000  0.35144000  1.0
  H  H4  1  0.98250000  0.13461000  0.29917000  1.0
  H  H5  1  0.48248000  0.36540000  0.20087000  1.0
  H  H6  1  0.01753000  0.86546000  0.70087000  1.0
  H  H7  1  0.51754000  0.63455000  0.79918000  1.0
  H  H8  1  0.17293000  0.12740000  0.58165000  1.0
  H  H9  1  0.67290000  0.37261000  0.91833000  1.0
  H  H10  1  0.82713000  0.87258000  0.41828000  1.0
  H  H11  1  0.32710000  0.62741000  0.08170000  1.0
  H  H12  1  0.81245000  0.04125000  0.78224000  1.0
  H  H13  1  0.31242000  0.45879000  0.71775000  1.0
  H  H14  1  0.18758000  0.95870000  0.21781000  1.0
  H  H15  1  0.68754000  0.54133000  0.28219000  1.0
  H  H16  1  0.54724000  0.96584000  0.83799000  1.0
  H  H17  1  0.04723000  0.53414000  0.66199000  1.0
  H  H18  1  0.45278000  0.03413000  0.16206000  1.0
  H  H19  1  0.95276000  0.46586000  0.33791000  1.0
  H  H20  1  0.67240000  0.08901000  0.11116000  1.0
  H  H21  1  0.17237000  0.41101000  0.38885000  1.0
  H  H22  1  0.32762000  0.91102000  0.88888000  1.0
  H  H23  1  0.82760000  0.58900000  0.61112000  1.0
  H  H24  1  0.93227000  0.16501000  0.04032000  1.0
  H  H25  1  0.43227000  0.33505000  0.45965000  1.0
  H  H26  1  0.06776000  0.83501000  0.95971000  1.0
  H  H27  1  0.56774000  0.66503000  0.54027000  1.0
  H  H28  1  0.95872000  0.43028000  0.88497000  1.0
  H  H29  1  0.45873000  0.06974000  0.61503000  1.0
  H  H30  1  0.04117000  0.56969000  0.11501000  1.0
  H  H31  1  0.54118000  0.93033000  0.38500000  1.0
  H  H32  1  0.87664000  0.37475000  0.79670000  1.0
  H  H33  1  0.37659000  0.12524000  0.70329000  1.0
  H  H34  1  0.12327000  0.62519000  0.20329000  1.0
  H  H35  1  0.62321000  0.87480000  0.29671000  1.0
  C  C36  1  0.92573000  0.18978000  0.56474000  1.0
  C  C37  1  0.42570000  0.31021000  0.93524000  1.0
  C  C38  1  0.07430000  0.81015000  0.43526000  1.0
  C  C39  1  0.57426000  0.68985000  0.06473000  1.0
  C  C40  1  0.79182000  0.22102000  0.50058000  1.0
  C  C41  1  0.29179000  0.27896000  0.99941000  1.0
  C  C42  1  0.20823000  0.77888000  0.49941000  1.0
  C  C43  1  0.70821000  0.72110000  0.00058000  1.0
  C  C44  1  0.81774000  0.19048000  0.40454000  1.0
  C  C45  1  0.31772000  0.30951000  0.09546000  1.0
  C  C46  1  0.18229000  0.80948000  0.59546000  1.0
  C  C47  1  0.68228000  0.69051000  0.90455000  1.0
  C  C48  1  0.96654000  0.14921000  0.37317000  1.0
  C  C49  1  0.46651000  0.35077000  0.12686000  1.0
  C  C50  1  0.03352000  0.85080000  0.62685000  1.0
  C  C51  1  0.53350000  0.64919000  0.87319000  1.0
  C  C52  1  0.09558000  0.13060000  0.43698000  1.0
  C  C53  1  0.59552000  0.36939000  0.06302000  1.0
  C  C54  1  0.90451000  0.86942000  0.56300000  1.0
  C  C55  1  0.40446000  0.63056000  0.93701000  1.0
  C  C56  1  0.07296000  0.14616000  0.53214000  1.0
  C  C57  1  0.57293000  0.35383000  0.96785000  1.0
  C  C58  1  0.92707000  0.85382000  0.46784000  1.0
  C  C59  1  0.42704000  0.64618000  0.03216000  1.0
  C  C60  1  0.91681000  0.20906000  0.66673000  1.0
  C  C61  1  0.41679000  0.29093000  0.83325000  1.0
  C  C62  1  0.08316000  0.79085000  0.33333333  1.0
  C  C63  1  0.58314000  0.70913000  0.16670000  1.0
  C  C64  1  0.77612000  0.05236000  0.85417000  1.0
  C  C65  1  0.27612000  0.44763000  0.64582000  1.0
  C  C66  1  0.22390000  0.94760000  0.14588000  1.0
  C  C67  1  0.72390000  0.55238000  0.35413000  1.0
  C  C68  1  0.62585000  0.00836000  0.88751000  1.0
  C  C69  1  0.12586000  0.49163000  0.61249000  1.0
  C  C70  1  0.37417000  0.99162000  0.11255000  1.0
  C  C71  1  0.87418000  0.50837000  0.38745000  1.0
  C  C72  1  0.58052000  0.02108000  0.98117000  1.0
  C  C73  1  0.08053000  0.47893000  0.51882000  1.0
  C  C74  1  0.41952000  0.97892000  0.01888000  1.0
  C  C75  1  0.91953000  0.52109000  0.48112000  1.0
  C  C76  1  0.69574000  0.07611000  0.03746000  1.0
  C  C77  1  0.19575000  0.42391000  0.46254000  1.0
  C  C78  1  0.30428000  0.92390000  0.96259000  1.0
  C  C79  1  0.80428000  0.57610000  0.53741000  1.0
  C  C80  1  0.84261000  0.11973000  0.99879000  1.0
  C  C81  1  0.34262000  0.38028000  0.50121000  1.0
  C  C82  1  0.15741000  0.88027000  0.00125000  1.0
  C  C83  1  0.65740000  0.61973000  0.49875000  1.0
  N  N84  1  0.68678000  0.20343000  0.33463000  1.0
  N  N85  1  0.18674000  0.29657000  0.16538000  1.0
  N  N86  1  0.31325000  0.79657000  0.66539000  1.0
  N  N87  1  0.81323000  0.70344000  0.83464000  1.0
  N  N88  1  0.25469000  0.09605000  0.40341000  1.0
  N  N89  1  0.75462000  0.40395000  0.09658000  1.0
  N  N90  1  0.74542000  0.90399000  0.59656000  1.0
  N  N91  1  0.24538000  0.59600000  0.90344000  1.0
  N  N92  1  0.88215000  0.10971000  0.90777000  1.0
  N  N93  1  0.38217000  0.39029000  0.59222000  1.0
  N  N94  1  0.11786000  0.89027000  0.09227000  1.0
  N  N95  1  0.61787000  0.60973000  0.40773000  1.0
  O  O96  1  0.03086000  0.16081000  0.71862000  1.0
  O  O97  1  0.53089000  0.33914000  0.78137000  1.0
  O  O98  1  0.96907000  0.83908000  0.28141000  1.0
  O  O99  1  0.46911000  0.66086000  0.21859000  1.0
  O  O100  1  0.80190000  0.27171000  0.69998000  1.0
  O  O101  1  0.30186000  0.22830000  0.79999000  1.0
  O  O102  1  0.19804000  0.72820000  0.30003000  1.0
  O  O103  1  0.69799000  0.77183000  0.19995000  1.0
  O  O104  1  0.65730000  0.27027000  0.52391000  1.0
  O  O105  1  0.15730000  0.22967000  0.97607000  1.0
  O  O106  1  0.34270000  0.72956000  0.47606000  1.0
  O  O107  1  0.84269000  0.77039000  0.02394000  1.0
  O  O108  1  0.57764000  0.27975000  0.34313000  1.0
  O  O109  1  0.07761000  0.22025000  0.15689000  1.0
  O  O110  1  0.42241000  0.72028000  0.65687000  1.0
  O  O111  1  0.92238000  0.77973000  0.84316000  1.0
  O  O112  1  0.69281000  0.13648000  0.26856000  1.0
  O  O113  1  0.19275000  0.36351000  0.23146000  1.0
  O  O114  1  0.30724000  0.86348000  0.73147000  1.0
  O  O115  1  0.80719000  0.63652000  0.76855000  1.0
  O  O116  1  0.27564000  0.09643000  0.31707000  1.0
  O  O117  1  0.77558000  0.40358000  0.18292000  1.0
  O  O118  1  0.72451000  0.90362000  0.68290000  1.0
  O  O119  1  0.22446000  0.59639000  0.81710000  1.0
  O  O120  1  0.36485000  0.06786000  0.46250000  1.0
  O  O121  1  0.86478000  0.43213000  0.03748000  1.0
  O  O122  1  0.63527000  0.93218000  0.53746000  1.0
  O  O123  1  0.13521000  0.56780000  0.96253000  1.0
  O  O124  1  0.97991000  0.38485000  0.83040000  1.0
  O  O125  1  0.47989000  0.11514000  0.66962000  1.0
  O  O126  1  0.02000000  0.61512000  0.16958000  1.0
  O  O127  1  0.51998000  0.88487000  0.33045000  1.0
