# generated using pymatgen
data_NaPH5(C2O)3
_symmetry_space_group_name_H-M   'P 1'
_cell_length_a   6.33055000
_cell_length_b   7.45712000
_cell_length_c   14.54374583
_cell_angle_alpha   75.14334863
_cell_angle_beta   80.37055209
_cell_angle_gamma   90.04170000
_symmetry_Int_Tables_number   1
_chemical_formula_structural   NaPH5(C2O)3
_chemical_formula_sum   'Na4 P4 H20 C24 O12'
_cell_volume   653.58831283
_cell_formula_units_Z   4
loop_
 _symmetry_equiv_pos_site_id
 _symmetry_equiv_pos_as_xyz
  1  'x, y, z'
loop_
 _atom_site_type_symbol
 _atom_site_label
 _atom_site_symmetry_multiplicity
 _atom_site_fract_x
 _atom_site_fract_y
 _atom_site_fract_z
 _atom_site_occupancy
  Na  Na0  1  0.24973000  0.89127000  0.99997000  1.0
  Na  Na1  1  0.75026000  0.10873000  0.00003000  1.0
  Na  Na2  1  0.74998000  0.54236000  0.00022000  1.0
  Na  Na3  1  0.25001000  0.45764000  0.99978000  1.0
  P  P4  1  0.00288000  0.86927000  0.85013000  1.0
  P  P5  1  0.49673000  0.71937000  0.14972000  1.0
  P  P6  1  0.99712000  0.13073000  0.14986000  1.0
  P  P7  1  0.50326000  0.28063000  0.85028000  1.0
  H  H8  1  0.64604000  0.79381000  0.62450000  1.0
  H  H9  1  0.85390000  0.41739000  0.37569000  1.0
  H  H10  1  0.35397000  0.20619000  0.37550000  1.0
  H  H11  1  0.14609000  0.58260000  0.62432000  1.0
  H  H12  1  0.41491000  0.72824000  0.78183000  1.0
  H  H13  1  0.08478000  0.50906000  0.21828000  1.0
  H  H14  1  0.58509000  0.27176000  0.21817000  1.0
  H  H15  1  0.91521000  0.49093000  0.78173000  1.0
  H  H16  1  0.16694000  0.14422000  0.49943000  1.0
  H  H17  1  0.33326000  0.64408000  0.50032000  1.0
  H  H18  1  0.83308000  0.85578000  0.50057000  1.0
  H  H19  1  0.66674000  0.35592000  0.49968000  1.0
  H  H20  1  0.93788000  0.07850000  0.65777000  1.0
  H  H21  1  0.56200000  0.73667000  0.34190000  1.0
  H  H22  1  0.06213000  0.92150000  0.34223000  1.0
  H  H23  1  0.43800000  0.26333000  0.65810000  1.0
  H  H24  1  0.66126000  0.93173000  0.85079000  1.0
  H  H25  1  0.83849000  0.78232000  0.14914000  1.0
  H  H26  1  0.33874000  0.06827000  0.14921000  1.0
  H  H27  1  0.16150000  0.21768000  0.85086000  1.0
  C  C28  1  0.16076000  0.90019000  0.73190000  1.0
  C  C29  1  0.33898000  0.63186000  0.26798000  1.0
  C  C30  1  0.83924000  0.09981000  0.26810000  1.0
  C  C31  1  0.66101000  0.36814000  0.73202000  1.0
  C  C32  1  0.36024000  0.81997000  0.72004000  1.0
  C  C33  1  0.13955000  0.53935000  0.27998000  1.0
  C  C34  1  0.63977000  0.18004000  0.27995000  1.0
  C  C35  1  0.86045000  0.46065000  0.72002000  1.0
  C  C36  1  0.09338000  0.01577000  0.65057000  1.0
  C  C37  1  0.40650000  0.66646000  0.34922000  1.0
  C  C38  1  0.90663000  0.98422000  0.34943000  1.0
  C  C39  1  0.59349000  0.33354000  0.65078000  1.0
  C  C40  1  0.22476000  0.05292000  0.56043000  1.0
  C  C41  1  0.27527000  0.61349000  0.43941000  1.0
  C  C42  1  0.77525000  0.94709000  0.43956000  1.0
  C  C43  1  0.72472000  0.38652000  0.56059000  1.0
  C  C44  1  0.49161000  0.85812000  0.62975000  1.0
  C  C45  1  0.00828000  0.48730000  0.37033000  1.0
  C  C46  1  0.50840000  0.14188000  0.37025000  1.0
  C  C47  1  0.99172000  0.51270000  0.62967000  1.0
  C  C48  1  0.42870000  0.97748000  0.54785000  1.0
  C  C49  1  0.07125000  0.52523000  0.45212000  1.0
  C  C50  1  0.57131000  0.02251000  0.45215000  1.0
  C  C51  1  0.92874000  0.47478000  0.54788000  1.0
  O  O52  1  0.07816000  0.70455000  0.92096000  1.0
  O  O53  1  0.42124000  0.62570000  0.07883000  1.0
  O  O54  1  0.92183000  0.29545000  0.07904000  1.0
  O  O55  1  0.57876000  0.37429000  0.92117000  1.0
  O  O56  1  0.01134000  0.05037000  0.88135000  1.0
  O  O57  1  0.48873000  0.93172000  0.11862000  1.0
  O  O58  1  0.98866000  0.94962000  0.11865000  1.0
  O  O59  1  0.51126000  0.06828000  0.88138000  1.0
  O  O60  1  0.76139000  0.82462000  0.84300000  1.0
  O  O61  1  0.73822000  0.66749000  0.15675000  1.0
  O  O62  1  0.23860000  0.17538000  0.15700000  1.0
  O  O63  1  0.26178000  0.33251000  0.84325000  1.0
