# generated using pymatgen
data_Ca2H22C11(NO6)2
_symmetry_space_group_name_H-M   'P 1'
_cell_length_a   8.55217000
_cell_length_b   10.48990000
_cell_length_c   11.50708250
_cell_angle_alpha   64.92480642
_cell_angle_beta   68.88819539
_cell_angle_gamma   74.08300000
_symmetry_Int_Tables_number   1
_chemical_formula_structural   Ca2H22C11(NO6)2
_chemical_formula_sum   'Ca4 H44 C22 N4 O24'
_cell_volume   863.18483823
_cell_formula_units_Z   2
loop_
 _symmetry_equiv_pos_site_id
 _symmetry_equiv_pos_as_xyz
  1  'x, y, z'
loop_
 _atom_site_type_symbol
 _atom_site_label
 _atom_site_symmetry_multiplicity
 _atom_site_fract_x
 _atom_site_fract_y
 _atom_site_fract_z
 _atom_site_occupancy
  Ca  Ca0  1  0.29492000  0.41870000  0.16742000  1.0
  Ca  Ca1  1  0.70508000  0.58130000  0.83258000  1.0
  Ca  Ca2  1  0.32242000  0.88585000  0.05502000  1.0
  Ca  Ca3  1  0.67759000  0.11415000  0.94498000  1.0
  H  H4  1  0.33006000  0.58098000  0.87668000  1.0
  H  H5  1  0.66994000  0.41901000  0.12333000  1.0
  H  H6  1  0.43113000  0.42746000  0.88004000  1.0
  H  H7  1  0.56887000  0.57253000  0.11997000  1.0
  H  H8  1  0.74097000  0.39055000  0.44677000  1.0
  H  H9  1  0.25903000  0.60946000  0.55321000  1.0
  H  H10  1  0.89301000  0.40242000  0.50985000  1.0
  H  H11  1  0.10700000  0.59759000  0.49014000  1.0
  H  H12  1  0.94149000  0.18095000  0.38663000  1.0
  H  H13  1  0.05849000  0.81906000  0.61338000  1.0
  H  H14  1  0.85498000  0.16162000  0.55448000  1.0
  H  H15  1  0.14499000  0.83840000  0.44552000  1.0
  H  H16  1  0.12755000  0.22700000  0.54574000  1.0
  H  H17  1  0.87244000  0.77301000  0.45426000  1.0
  H  H18  1  0.12770000  0.05504000  0.55806000  1.0
  H  H19  1  0.87226000  0.94496000  0.44194000  1.0
  H  H20  1  0.93983000  0.60067000  0.40730000  1.0
  H  H21  1  0.06018000  0.39934000  0.59268000  1.0
  H  H22  1  0.80582000  0.67410000  0.30323000  1.0
  H  H23  1  0.19417000  0.32591000  0.69678000  1.0
  H  H24  1  0.17547000  0.05762000  0.32127000  1.0
  H  H25  1  0.82453000  0.94238000  0.67872000  1.0
  H  H26  1  0.34711000  0.96532000  0.39050000  1.0
  H  H27  1  0.65286000  0.03467000  0.60951000  1.0
  H  H28  1  0.53351000  0.16762000  0.33738000  1.0
  H  H29  1  0.46645000  0.83238000  0.66264000  1.0
  H  H30  1  0.42086000  0.09112000  0.50878000  1.0
  H  H31  1  0.57913000  0.90887000  0.49123000  1.0
  H  H32  1  0.92121000  0.57921000  0.11056000  1.0
  H  H33  1  0.07881000  0.42080000  0.88943000  1.0
  H  H34  1  0.74392000  0.50448000  0.23981000  1.0
  H  H35  1  0.25608000  0.49552000  0.76018000  1.0
  H  H36  1  0.40139000  0.59439000  0.29537000  1.0
  H  H37  1  0.59862000  0.40560000  0.70463000  1.0
  H  H38  1  0.48875000  0.71450000  0.28659000  1.0
  H  H39  1  0.51125000  0.28550000  0.71341000  1.0
  H  H40  1  0.12026000  0.01983000  0.83463000  1.0
  H  H41  1  0.87973000  0.98017000  0.16537000  1.0
  H  H42  1  0.17520000  0.85197000  0.86130000  1.0
  H  H43  1  0.82480000  0.14803000  0.13870000  1.0
  H  H44  1  0.15167000  0.19216000  0.05192000  1.0
  H  H45  1  0.84833000  0.80784000  0.94808000  1.0
  H  H46  1  0.05180000  0.11389000  0.01888000  1.0
  H  H47  1  0.94820000  0.88612000  0.98112000  1.0
  C  C48  1  0.87874000  0.37406000  0.43314000  1.0
  C  C49  1  0.12126000  0.62594000  0.56686000  1.0
  C  C50  1  0.94650000  0.21662000  0.46215000  1.0
  C  C51  1  0.05350000  0.78338000  0.53785000  1.0
  C  C52  1  0.11897000  0.16797000  0.48999000  1.0
  C  C53  1  0.88103000  0.83203000  0.51001000  1.0
  C  C54  1  0.93344000  0.61560000  0.30868000  1.0
  C  C55  1  0.06657000  0.38440000  0.69131000  1.0
  C  C56  1  0.06469000  0.71000000  0.20759000  1.0
  C  C57  1  0.93532000  0.29002000  0.79241000  1.0
  C  C58  1  0.29779000  0.06941000  0.32412000  1.0
  C  C59  1  0.70221000  0.93059000  0.67588000  1.0
  C  C60  1  0.41307000  0.09523000  0.18355000  1.0
  C  C61  1  0.58693000  0.90476000  0.81646000  1.0
  C  C62  1  0.41513000  0.18114000  0.41466000  1.0
  C  C63  1  0.58485000  0.81885000  0.58535000  1.0
  C  C64  1  0.41170000  0.31862000  0.43373000  1.0
  C  C65  1  0.58830000  0.68136000  0.56626000  1.0
  C  C66  1  0.94069000  0.35625000  0.16183000  1.0
  C  C67  1  0.05931000  0.64375000  0.83818000  1.0
  C  C68  1  0.88316000  0.48670000  0.20142000  1.0
  C  C69  1  0.11685000  0.51331000  0.79857000  1.0
  N  N70  1  0.96152000  0.47491000  0.30077000  1.0
  N  N71  1  0.03849000  0.52509000  0.69923000  1.0
  N  N72  1  0.26979000  0.18483000  0.37238000  1.0
  N  N73  1  0.73020000  0.81517000  0.62763000  1.0
  O  O74  1  0.19301000  0.66294000  0.12930000  1.0
  O  O75  1  0.80700000  0.33706000  0.87069000  1.0
  O  O76  1  0.04513000  0.83456000  0.20857000  1.0
  O  O77  1  0.95489000  0.16545000  0.79141000  1.0
  O  O78  1  0.46855000  0.21393000  0.11373000  1.0
  O  O79  1  0.53146000  0.78607000  0.88627000  1.0
  O  O80  1  0.45040000  0.99474000  0.13949000  1.0
  O  O81  1  0.54960000  0.00524000  0.86053000  1.0
  O  O82  1  0.34578000  0.43358000  0.35407000  1.0
  O  O83  1  0.65421000  0.56640000  0.64594000  1.0
  O  O84  1  0.47473000  0.30982000  0.51984000  1.0
  O  O85  1  0.52527000  0.69015000  0.48018000  1.0
  O  O86  1  0.09985000  0.31600000  0.12791000  1.0
  O  O87  1  0.90016000  0.68400000  0.87209000  1.0
  O  O88  1  0.82829000  0.29787000  0.16212000  1.0
  O  O89  1  0.17173000  0.70212000  0.83788000  1.0
  O  O90  1  0.41326000  0.50057000  0.91780000  1.0
  O  O91  1  0.58677000  0.49943000  0.08219000  1.0
  O  O92  1  0.44517000  0.68752000  0.23362000  1.0
  O  O93  1  0.55483000  0.31248000  0.76638000  1.0
  O  O94  1  0.17378000  0.92940000  0.89030000  1.0
  O  O95  1  0.82623000  0.07061000  0.10969000  1.0
  O  O96  1  0.16822000  0.12542000  0.00599000  1.0
  O  O97  1  0.83179000  0.87458000  0.99401000  1.0
