# generated using pymatgen
data_Na3YH20C12O19
_symmetry_space_group_name_H-M   'P 1'
_cell_length_a   9.19840000
_cell_length_b   9.19832000
_cell_length_c   18.02110000
_cell_angle_alpha   77.93300000
_cell_angle_beta   77.93270000
_cell_angle_gamma   63.22720000
_symmetry_Int_Tables_number   1
_chemical_formula_structural   Na3YH20C12O19
_chemical_formula_sum   'Na6 Y2 H40 C24 O38'
_cell_volume   1319.65088889
_cell_formula_units_Z   2
loop_
 _symmetry_equiv_pos_site_id
 _symmetry_equiv_pos_as_xyz
  1  'x, y, z'
loop_
 _atom_site_type_symbol
 _atom_site_label
 _atom_site_symmetry_multiplicity
 _atom_site_fract_x
 _atom_site_fract_y
 _atom_site_fract_z
 _atom_site_occupancy
  Na  Na0  1  0.88988000  0.22794000  0.47706000  1.0
  Na  Na1  1  0.77207000  0.11011000  0.02294000  1.0
  Na  Na2  1  0.11012000  0.77207000  0.52294000  1.0
  Na  Na3  1  0.22793000  0.88989000  0.97706000  1.0
  Na  Na4  1  0.00000000  0.50000000  0.50000000  1.0
  Na  Na5  1  0.50000000  0.00000000  0.00000000  1.0
  Y  Y6  1  0.66958000  0.33041000  0.75000000  1.0
  Y  Y7  1  0.33042000  0.66959000  0.25000000  1.0
  H  H8  1  0.95334000  0.85389000  0.72420000  1.0
  H  H9  1  0.14611000  0.04665000  0.77580000  1.0
  H  H10  1  0.04665000  0.14612000  0.27580000  1.0
  H  H11  1  0.85389000  0.95335000  0.22421000  1.0
  H  H12  1  0.09407000  0.93083000  0.66890000  1.0
  H  H13  1  0.06916000  0.90593000  0.83110000  1.0
  H  H14  1  0.90593000  0.06917000  0.33110000  1.0
  H  H15  1  0.93083000  0.09407000  0.16891000  1.0
  H  H16  1  0.24855000  0.22422000  0.76763000  1.0
  H  H17  1  0.77577000  0.75145000  0.73237000  1.0
  H  H18  1  0.75146000  0.77577000  0.23237000  1.0
  H  H19  1  0.22423000  0.24855000  0.26763000  1.0
  H  H20  1  0.23420000  0.35083000  0.83413000  1.0
  H  H21  1  0.64917000  0.76579000  0.66586000  1.0
  H  H22  1  0.76580000  0.64917000  0.16587000  1.0
  H  H23  1  0.35083000  0.23420000  0.33414000  1.0
  H  H24  1  0.20838000  0.58517000  0.74886000  1.0
  H  H25  1  0.41483000  0.79163000  0.75114000  1.0
  H  H26  1  0.79162000  0.41483000  0.25114000  1.0
  H  H27  1  0.58517000  0.20837000  0.24886000  1.0
  H  H28  1  0.19595000  0.49919000  0.67156000  1.0
  H  H29  1  0.50080000  0.80406000  0.82844000  1.0
  H  H30  1  0.80406000  0.50080000  0.32844000  1.0
  H  H31  1  0.49920000  0.19595000  0.17156000  1.0
  H  H32  1  0.16355000  0.13159000  0.56833000  1.0
  H  H33  1  0.86841000  0.83645000  0.93167000  1.0
  H  H34  1  0.83645000  0.86841000  0.43167000  1.0
  H  H35  1  0.13159000  0.16355000  0.06834000  1.0
  H  H36  1  0.01528000  0.27271000  0.61334000  1.0
  H  H37  1  0.72729000  0.98472000  0.88666000  1.0
  H  H38  1  0.98472000  0.72729000  0.38665000  1.0
  H  H39  1  0.27271000  0.01528000  0.11335000  1.0
  H  H40  1  0.65446000  0.52335000  0.56538000  1.0
  H  H41  1  0.47665000  0.34555000  0.93462000  1.0
  H  H42  1  0.34554000  0.47665000  0.43462000  1.0
  H  H43  1  0.52335000  0.65445000  0.06538000  1.0
  H  H44  1  0.65526000  0.59405000  0.47911000  1.0
  H  H45  1  0.40595000  0.34474000  0.02089000  1.0
  H  H46  1  0.34473000  0.40595000  0.52089000  1.0
  H  H47  1  0.59405000  0.65526000  0.97911000  1.0
  C  C48  1  0.96583000  0.96717000  0.69581000  1.0
  C  C49  1  0.03282000  0.03416000  0.80419000  1.0
  C  C50  1  0.03416000  0.03283000  0.30419000  1.0
  C  C51  1  0.96718000  0.96584000  0.19581000  1.0
  C  C52  1  0.85026000  0.05341000  0.63433000  1.0
  C  C53  1  0.94658000  0.14972000  0.86568000  1.0
  C  C54  1  0.14973000  0.94659000  0.36567000  1.0
  C  C55  1  0.05342000  0.85028000  0.13433000  1.0
  C  C56  1  0.31928000  0.26850000  0.79201000  1.0
  C  C57  1  0.73150000  0.68072000  0.70799000  1.0
  C  C58  1  0.68073000  0.73150000  0.20800000  1.0
  C  C59  1  0.26850000  0.31928000  0.29201000  1.0
  C  C60  1  0.45047000  0.12514000  0.83477000  1.0
  C  C61  1  0.87486000  0.54952000  0.66523000  1.0
  C  C62  1  0.54954000  0.87486000  0.16523000  1.0
  C  C63  1  0.12514000  0.45047000  0.33477000  1.0
  C  C64  1  0.28168000  0.51011000  0.70213000  1.0
  C  C65  1  0.48989000  0.71833000  0.79786000  1.0
  C  C66  1  0.71833000  0.48989000  0.29787000  1.0
  C  C67  1  0.51011000  0.28167000  0.20214000  1.0
  C  C68  1  0.37744000  0.59771000  0.64763000  1.0
  C  C69  1  0.40228000  0.62258000  0.85236000  1.0
  C  C70  1  0.62257000  0.40230000  0.35237000  1.0
  C  C71  1  0.59772000  0.37743000  0.14764000  1.0
  O  O72  1  0.92197000  0.07802000  0.75000000  1.0
  O  O73  1  0.07803000  0.92198000  0.25000000  1.0
  O  O74  1  0.72788000  0.18926000  0.64783000  1.0
  O  O75  1  0.81073000  0.27212000  0.85217000  1.0
  O  O76  1  0.27212000  0.81074000  0.35217000  1.0
  O  O77  1  0.18927000  0.72788000  0.14783000  1.0
  O  O78  1  0.88448000  0.98820000  0.57471000  1.0
  O  O79  1  0.01180000  0.11551000  0.92529000  1.0
  O  O80  1  0.11551000  0.01181000  0.42530000  1.0
  O  O81  1  0.98819000  0.88449000  0.07471000  1.0
  O  O82  1  0.39475000  0.35246000  0.73324000  1.0
  O  O83  1  0.64754000  0.60525000  0.76676000  1.0
  O  O84  1  0.60525000  0.64754000  0.26676000  1.0
  O  O85  1  0.35246000  0.39475000  0.23324000  1.0
  O  O86  1  0.59666000  0.11788000  0.82048000  1.0
  O  O87  1  0.88212000  0.40334000  0.67952000  1.0
  O  O88  1  0.40335000  0.88212000  0.17953000  1.0
  O  O89  1  0.11788000  0.59666000  0.32048000  1.0
  O  O90  1  0.40782000  0.02640000  0.88241000  1.0
  O  O91  1  0.97359000  0.59216000  0.61759000  1.0
  O  O92  1  0.59218000  0.97360000  0.11760000  1.0
  O  O93  1  0.02641000  0.40784000  0.38240000  1.0
  O  O94  1  0.53159000  0.53818000  0.65328000  1.0
  O  O95  1  0.46182000  0.46842000  0.84672000  1.0
  O  O96  1  0.46842000  0.46182000  0.34672000  1.0
  O  O97  1  0.53818000  0.53158000  0.15328000  1.0
  O  O98  1  0.30193000  0.72029000  0.60251000  1.0
  O  O99  1  0.27970000  0.69809000  0.89748000  1.0
  O  O100  1  0.69807000  0.27971000  0.39748000  1.0
  O  O101  1  0.72030000  0.30192000  0.10252000  1.0
  O  O102  1  0.06366000  0.23176000  0.56262000  1.0
  O  O103  1  0.76824000  0.93634000  0.93738000  1.0
  O  O104  1  0.93634000  0.76824000  0.43738000  1.0
  O  O105  1  0.23177000  0.06366000  0.06262000  1.0
  O  O106  1  0.72627000  0.51194000  0.51507000  1.0
  O  O107  1  0.48806000  0.27373000  0.98493000  1.0
  O  O108  1  0.27372000  0.48805000  0.48493000  1.0
  O  O109  1  0.51194000  0.72627000  0.01507000  1.0
