# generated using pymatgen
data_TiH6C5(NCl2)2
_symmetry_space_group_name_H-M   'P 1'
_cell_length_a   5.92456000
_cell_length_b   12.62170000
_cell_length_c   14.19870000
_cell_angle_alpha   89.99990000
_cell_angle_beta   89.99990000
_cell_angle_gamma   89.99990000
_symmetry_Int_Tables_number   1
_chemical_formula_structural   TiH6C5(NCl2)2
_chemical_formula_sum   'Ti4 H24 C20 N8 Cl16'
_cell_volume   1061.75065769
_cell_formula_units_Z   4
loop_
 _symmetry_equiv_pos_site_id
 _symmetry_equiv_pos_as_xyz
  1  'x, y, z'
loop_
 _atom_site_type_symbol
 _atom_site_label
 _atom_site_symmetry_multiplicity
 _atom_site_fract_x
 _atom_site_fract_y
 _atom_site_fract_z
 _atom_site_occupancy
  Ti  Ti0  1  0.84066000  0.46911000  0.75000000  1.0
  Ti  Ti1  1  0.15934000  0.53089000  0.25000000  1.0
  Ti  Ti2  1  0.84066000  0.03089000  0.25000000  1.0
  Ti  Ti3  1  0.15934000  0.96911000  0.75000000  1.0
  H  H4  1  0.23127000  0.70704000  0.90112000  1.0
  H  H5  1  0.76872000  0.29296000  0.40112000  1.0
  H  H6  1  0.23128000  0.79296000  0.09888000  1.0
  H  H7  1  0.76872000  0.20704000  0.59889000  1.0
  H  H8  1  0.76872000  0.29296000  0.09888000  1.0
  H  H9  1  0.23127000  0.70704000  0.59888000  1.0
  H  H10  1  0.76873000  0.20704000  0.90112000  1.0
  H  H11  1  0.23128000  0.79296000  0.40111000  1.0
  H  H12  1  0.25201000  0.62124000  0.99971000  1.0
  H  H13  1  0.74799000  0.37876000  0.49971000  1.0
  H  H14  1  0.25201000  0.87876000  0.00029000  1.0
  H  H15  1  0.74800000  0.12124000  0.50029000  1.0
  H  H16  1  0.74799000  0.37876000  0.00029000  1.0
  H  H17  1  0.25201000  0.62124000  0.50029000  1.0
  H  H18  1  0.74799000  0.12124000  0.99971000  1.0
  H  H19  1  0.25200000  0.87876000  0.49971000  1.0
  H  H20  1  0.60985000  0.70974000  0.05135000  1.0
  H  H21  1  0.39015000  0.29026000  0.55135000  1.0
  H  H22  1  0.60984000  0.79026000  0.94865000  1.0
  H  H23  1  0.39016000  0.20974000  0.44865000  1.0
  H  H24  1  0.39016000  0.29026000  0.94865000  1.0
  H  H25  1  0.60984000  0.70974000  0.44865000  1.0
  H  H26  1  0.39015000  0.20974000  0.05135000  1.0
  H  H27  1  0.60984000  0.79026000  0.55135000  1.0
  C  C28  1  0.48831000  0.59795000  0.89325000  1.0
  C  C29  1  0.51167000  0.40206000  0.39325000  1.0
  C  C30  1  0.48832000  0.90206000  0.10675000  1.0
  C  C31  1  0.51169000  0.09794000  0.60675000  1.0
  C  C32  1  0.51168000  0.40205000  0.10675000  1.0
  C  C33  1  0.48831000  0.59794000  0.60675000  1.0
  C  C34  1  0.51169000  0.09795000  0.89325000  1.0
  C  C35  1  0.48832000  0.90206000  0.39325000  1.0
  C  C36  1  0.35176000  0.66832000  0.94930000  1.0
  C  C37  1  0.64824000  0.33168000  0.44930000  1.0
  C  C38  1  0.35176000  0.83168000  0.05070000  1.0
  C  C39  1  0.64824000  0.16832000  0.55070000  1.0
  C  C40  1  0.64823000  0.33168000  0.05070000  1.0
  C  C41  1  0.35176000  0.66832000  0.55069000  1.0
  C  C42  1  0.64824000  0.16832000  0.94931000  1.0
  C  C43  1  0.35176000  0.83168000  0.44930000  1.0
  C  C44  1  0.50115000  0.75000000  1.00000000  1.0
  C  C45  1  0.49885000  0.25000000  0.50000000  1.0
  C  C46  1  0.49885000  0.25000000  1.00000000  1.0
  C  C47  1  0.50115000  0.75000000  0.50000000  1.0
  N  N48  1  0.60875000  0.54547000  0.84880000  1.0
  N  N49  1  0.39126000  0.45453000  0.34881000  1.0
  N  N50  1  0.60874000  0.95453000  0.15119000  1.0
  N  N51  1  0.39125000  0.04547000  0.65119000  1.0
  N  N52  1  0.39125000  0.45453000  0.15120000  1.0
  N  N53  1  0.60875000  0.54547000  0.65119000  1.0
  N  N54  1  0.39125000  0.04547000  0.84881000  1.0
  N  N55  1  0.60875000  0.95453000  0.34881000  1.0
  Cl  Cl56  1  0.57760000  0.33626000  0.75000000  1.0
  Cl  Cl57  1  0.42241000  0.66374000  0.25000000  1.0
  Cl  Cl58  1  0.57759000  0.16375000  0.25000000  1.0
  Cl  Cl59  1  0.42241000  0.83625000  0.75000000  1.0
  Cl  Cl60  1  0.04519000  0.40751000  0.87266000  1.0
  Cl  Cl61  1  0.95481000  0.59249000  0.37267000  1.0
  Cl  Cl62  1  0.04519000  0.09249000  0.12734000  1.0
  Cl  Cl63  1  0.95482000  0.90751000  0.62734000  1.0
  Cl  Cl64  1  0.95482000  0.59249000  0.12734000  1.0
  Cl  Cl65  1  0.04519000  0.40751000  0.62734000  1.0
  Cl  Cl66  1  0.95482000  0.90751000  0.87267000  1.0
  Cl  Cl67  1  0.04519000  0.09249000  0.37266000  1.0
  Cl  Cl68  1  0.00426000  0.63363000  0.75000000  1.0
  Cl  Cl69  1  0.99573000  0.36637000  0.25000000  1.0
  Cl  Cl70  1  0.00426000  0.86637000  0.25000000  1.0
  Cl  Cl71  1  0.99574000  0.13363000  0.75000000  1.0
