# generated using pymatgen
data_MgH9C7NO5
_symmetry_space_group_name_H-M   'P 1'
_cell_length_a   8.06224000
_cell_length_b   14.00820000
_cell_length_c   14.00820000
_cell_angle_alpha   60.00000000
_cell_angle_beta   90.00000000
_cell_angle_gamma   89.99990000
_symmetry_Int_Tables_number   1
_chemical_formula_structural   MgH9C7NO5
_chemical_formula_sum   'Mg6 H54 C42 N6 O30'
_cell_volume   1370.09607238
_cell_formula_units_Z   6
loop_
 _symmetry_equiv_pos_site_id
 _symmetry_equiv_pos_as_xyz
  1  'x, y, z'
loop_
 _atom_site_type_symbol
 _atom_site_label
 _atom_site_symmetry_multiplicity
 _atom_site_fract_x
 _atom_site_fract_y
 _atom_site_fract_z
 _atom_site_occupancy
  Mg  Mg0  1  0.39805000  0.01550000  0.76383000  1.0
  Mg  Mg1  1  0.39805000  0.76382000  0.22068000  1.0
  Mg  Mg2  1  0.39805000  0.22068000  0.01550000  1.0
  Mg  Mg3  1  0.60195000  0.98450000  0.23618000  1.0
  Mg  Mg4  1  0.60195000  0.23618000  0.77932000  1.0
  Mg  Mg5  1  0.60195000  0.77932000  0.98450000  1.0
  H  H6  1  0.13437000  0.11870000  0.83604000  1.0
  H  H7  1  0.13437000  0.83604000  0.04526000  1.0
  H  H8  1  0.13437000  0.04526000  0.11870000  1.0
  H  H9  1  0.86563000  0.88130000  0.16396000  1.0
  H  H10  1  0.86563000  0.16396000  0.95474000  1.0
  H  H11  1  0.86563000  0.95474000  0.88130000  1.0
  H  H12  1  0.94055000  0.25696000  0.66991000  1.0
  H  H13  1  0.94055000  0.66991000  0.07313000  1.0
  H  H14  1  0.94056000  0.07313000  0.25696000  1.0
  H  H15  1  0.05945000  0.74304000  0.33009000  1.0
  H  H16  1  0.05944000  0.33009000  0.92687000  1.0
  H  H17  1  0.05944000  0.92687000  0.74304000  1.0
  H  H18  1  0.46537000  0.57616000  0.87107000  1.0
  H  H19  1  0.46537000  0.87107000  0.55277000  1.0
  H  H20  1  0.46537000  0.55277000  0.57616000  1.0
  H  H21  1  0.53464000  0.42384000  0.12893000  1.0
  H  H22  1  0.53463000  0.12893000  0.44723000  1.0
  H  H23  1  0.53463000  0.44723000  0.42384000  1.0
  H  H24  1  0.19704000  0.45698000  0.49780000  1.0
  H  H25  1  0.19704000  0.49780000  0.04522000  1.0
  H  H26  1  0.19704000  0.04522000  0.45698000  1.0
  H  H27  1  0.80296000  0.54302000  0.50220000  1.0
  H  H28  1  0.80296000  0.50220000  0.95478000  1.0
  H  H29  1  0.80296000  0.95478000  0.54302000  1.0
  H  H30  1  0.16926000  0.31013000  0.57763000  1.0
  H  H31  1  0.16925000  0.57763000  0.11224000  1.0
  H  H32  1  0.16925000  0.11224000  0.31014000  1.0
  H  H33  1  0.83074000  0.68987000  0.42237000  1.0
  H  H34  1  0.83074000  0.42238000  0.88775000  1.0
  H  H35  1  0.83074000  0.88776000  0.68986000  1.0
  H  H36  1  0.30933000  0.37751000  0.62324000  1.0
  H  H37  1  0.30933000  0.62324000  0.99925000  1.0
  H  H38  1  0.30933000  0.99925000  0.37751000  1.0
  H  H39  1  0.69067000  0.62249000  0.37676000  1.0
  H  H40  1  0.69067000  0.37676000  0.00075000  1.0
  H  H41  1  0.69067000  0.00075000  0.62249000  1.0
  H  H42  1  0.11374000  0.56423000  0.58894000  1.0
  H  H43  1  0.11374000  0.58894000  0.84683000  1.0
  H  H44  1  0.11373000  0.84683000  0.56423000  1.0
  H  H45  1  0.88627000  0.43577000  0.41106000  1.0
  H  H46  1  0.88626000  0.41106000  0.15317000  1.0
  H  H47  1  0.88627000  0.15317000  0.43577000  1.0
  H  H48  1  0.93724000  0.50999000  0.67941000  1.0
  H  H49  1  0.93724000  0.67941000  0.81060000  1.0
  H  H50  1  0.93724000  0.81060000  0.50999000  1.0
  H  H51  1  0.06276000  0.49001000  0.32059000  1.0
  H  H52  1  0.06276000  0.32059000  0.18940000  1.0
  H  H53  1  0.06276000  0.18940000  0.49001000  1.0
  H  H54  1  0.14329000  0.47363000  0.73281000  1.0
  H  H55  1  0.14329000  0.73280000  0.79357000  1.0
  H  H56  1  0.14329000  0.79356000  0.47364000  1.0
  H  H57  1  0.85671000  0.52636000  0.26720000  1.0
  H  H58  1  0.85671000  0.26720000  0.20643000  1.0
  H  H59  1  0.85671000  0.20644000  0.52636000  1.0
  C  C60  1  0.24968000  0.14878000  0.85531000  1.0
  C  C61  1  0.24968000  0.85531000  0.99591000  1.0
  C  C62  1  0.24968000  0.99591000  0.14878000  1.0
  C  C63  1  0.75032000  0.85122000  0.14469000  1.0
  C  C64  1  0.75032000  0.14469000  0.00408000  1.0
  C  C65  1  0.75032000  0.00409000  0.85123000  1.0
  C  C66  1  0.45570000  0.42778000  0.79886000  1.0
  C  C67  1  0.45570000  0.79887000  0.77335000  1.0
  C  C68  1  0.45569000  0.77336000  0.42777000  1.0
  C  C69  1  0.54430000  0.57222000  0.20114000  1.0
  C  C70  1  0.54430000  0.20113000  0.22665000  1.0
  C  C71  1  0.54430000  0.22664000  0.57223000  1.0
  C  C72  1  0.93486000  0.32465000  0.68862000  1.0
  C  C73  1  0.93486000  0.68862000  0.98672000  1.0
  C  C74  1  0.93486000  0.98673000  0.32465000  1.0
  C  C75  1  0.06514000  0.67534000  0.31139000  1.0
  C  C76  1  0.06514000  0.31138000  0.01328000  1.0
  C  C77  1  0.06514000  0.01327000  0.67535000  1.0
  C  C78  1  0.46610000  0.55134000  0.73088000  1.0
  C  C79  1  0.46610000  0.73088000  0.71778000  1.0
  C  C80  1  0.46610000  0.71778000  0.55134000  1.0
  C  C81  1  0.53390000  0.44866000  0.26912000  1.0
  C  C82  1  0.53390000  0.26911000  0.28223000  1.0
  C  C83  1  0.53390000  0.28222000  0.44866000  1.0
  C  C84  1  0.46699000  0.61568000  0.78151000  1.0
  C  C85  1  0.46699000  0.78151000  0.60281000  1.0
  C  C86  1  0.46699000  0.60282000  0.61567000  1.0
  C  C87  1  0.53301000  0.38432000  0.21849000  1.0
  C  C88  1  0.53301000  0.21849000  0.39719000  1.0
  C  C89  1  0.53302000  0.39718000  0.38433000  1.0
  C  C90  1  0.19064000  0.38544000  0.58158000  1.0
  C  C91  1  0.19064000  0.58158000  0.03298000  1.0
  C  C92  1  0.19064000  0.03298000  0.38544000  1.0
  C  C93  1  0.80936000  0.61456000  0.41842000  1.0
  C  C94  1  0.80936000  0.41842000  0.96702000  1.0
  C  C95  1  0.80936000  0.96702000  0.61456000  1.0
  C  C96  1  0.06268000  0.49231000  0.66221000  1.0
  C  C97  1  0.06268000  0.66221000  0.84547000  1.0
  C  C98  1  0.06268000  0.84548000  0.49231000  1.0
  C  C99  1  0.93732000  0.50768000  0.33780000  1.0
  C  C100  1  0.93732000  0.33779000  0.15452000  1.0
  C  C101  1  0.93732000  0.15452000  0.50769000  1.0
  N  N102  1  0.05577000  0.39944000  0.64301000  1.0
  N  N103  1  0.05577000  0.64301000  0.95755000  1.0
  N  N104  1  0.05577000  0.95755000  0.39944000  1.0
  N  N105  1  0.94423000  0.60056000  0.35699000  1.0
  N  N106  1  0.94423000  0.35699000  0.04245000  1.0
  N  N107  1  0.94424000  0.04245000  0.60056000  1.0
  O  O108  1  0.38382000  0.13709000  0.81291000  1.0
  O  O109  1  0.38382000  0.81291000  0.05000000  1.0
  O  O110  1  0.38382000  0.05000000  0.13709000  1.0
  O  O111  1  0.61618000  0.86291000  0.18709000  1.0
  O  O112  1  0.61618000  0.18709000  0.95000000  1.0
  O  O113  1  0.61618000  0.95000000  0.86291000  1.0
  O  O114  1  0.23831000  0.19045000  0.91616000  1.0
  O  O115  1  0.23831000  0.91617000  0.89338000  1.0
  O  O116  1  0.23831000  0.89339000  0.19044000  1.0
  O  O117  1  0.76169000  0.80956000  0.08383000  1.0
  O  O118  1  0.76169000  0.08384000  0.10660000  1.0
  O  O119  1  0.76170000  0.10661000  0.80956000  1.0
  O  O120  1  0.58064000  0.28607000  0.61431000  1.0
  O  O121  1  0.58063000  0.61431000  0.09962000  1.0
  O  O122  1  0.58063000  0.09962000  0.28607000  1.0
  O  O123  1  0.41937000  0.71393000  0.38569000  1.0
  O  O124  1  0.41937000  0.38569000  0.90038000  1.0
  O  O125  1  0.41937000  0.90038000  0.71393000  1.0
  O  O126  1  0.48025000  0.37431000  0.74902000  1.0
  O  O127  1  0.48025000  0.74902000  0.87668000  1.0
  O  O128  1  0.48025000  0.87667000  0.37431000  1.0
  O  O129  1  0.51975000  0.62569000  0.25098000  1.0
  O  O130  1  0.51975000  0.25098000  0.12333000  1.0
  O  O131  1  0.51975000  0.12333000  0.62569000  1.0
  O  O132  1  0.82261000  0.32893000  0.74835000  1.0
  O  O133  1  0.82261000  0.74835000  0.92272000  1.0
  O  O134  1  0.82261000  0.92272000  0.32893000  1.0
  O  O135  1  0.17739000  0.67107000  0.25165000  1.0
  O  O136  1  0.17739000  0.25165000  0.07728000  1.0
  O  O137  1  0.17739000  0.07728000  0.67107000  1.0
