# generated using pymatgen
data_UCuH10C14(NO6)2
_symmetry_space_group_name_H-M   'P 1'
_cell_length_a   5.34018000
_cell_length_b   7.77540000
_cell_length_c   10.77460000
_cell_angle_alpha   103.81000000
_cell_angle_beta   91.84620000
_cell_angle_gamma   99.94090000
_symmetry_Int_Tables_number   1
_chemical_formula_structural   UCuH10C14(NO6)2
_chemical_formula_sum   'U1 Cu1 H10 C14 N2 O12'
_cell_volume   426.66531028
_cell_formula_units_Z   1
loop_
 _symmetry_equiv_pos_site_id
 _symmetry_equiv_pos_as_xyz
  1  'x, y, z'
loop_
 _atom_site_type_symbol
 _atom_site_label
 _atom_site_symmetry_multiplicity
 _atom_site_fract_x
 _atom_site_fract_y
 _atom_site_fract_z
 _atom_site_occupancy
  U  U0  1  0.99999000  0.50001000  0.49999000  1.0
  Cu  Cu1  1  0.00000000  0.50000000  0.00000000  1.0
  H  H2  1  0.76251000  0.97869000  0.10569000  1.0
  H  H3  1  0.23750000  0.02130000  0.89432000  1.0
  H  H4  1  0.94115000  0.74657000  0.25818000  1.0
  H  H5  1  0.05885000  0.25343000  0.74183000  1.0
  H  H6  1  0.22937000  0.02242000  0.39939000  1.0
  H  H7  1  0.77064000  0.97758000  0.60061000  1.0
  H  H8  1  0.47534000  0.56398000  0.36158000  1.0
  H  H9  1  0.52465000  0.43602000  0.63841000  1.0
  H  H10  1  0.29689000  0.41592000  0.24790000  1.0
  H  H11  1  0.70311000  0.58407000  0.75210000  1.0
  C  C12  1  0.69300000  0.17806000  0.34459000  1.0
  C  C13  1  0.30701000  0.82194000  0.65541000  1.0
  C  C14  1  0.51563000  0.01917000  0.26254000  1.0
  C  C15  1  0.48437000  0.98083000  0.73746000  1.0
  C  C16  1  0.58264000  0.93186000  0.14249000  1.0
  C  C17  1  0.41736000  0.06814000  0.85751000  1.0
  C  C18  1  0.41483000  0.78146000  0.07126000  1.0
  C  C19  1  0.58517000  0.21854000  0.92874000  1.0
  C  C20  1  0.12249000  0.80512000  0.22857000  1.0
  C  C21  1  0.87752000  0.19488000  0.77143000  1.0
  C  C22  1  0.28265000  0.95555000  0.30603000  1.0
  C  C23  1  0.71735000  0.04445000  0.69397000  1.0
  C  C24  1  0.46794000  0.66824000  0.94449000  1.0
  C  C25  1  0.53206000  0.33175000  0.05551000  1.0
  N  N26  1  0.18955000  0.72126000  0.11430000  1.0
  N  N27  1  0.81045000  0.27874000  0.88570000  1.0
  O  O28  1  0.19135000  0.37236000  0.57308000  1.0
  O  O29  1  0.80864000  0.62766000  0.42691000  1.0
  O  O30  1  0.64276000  0.24233000  0.45967000  1.0
  O  O31  1  0.35724000  0.75768000  0.54033000  1.0
  O  O32  1  0.89279000  0.24923000  0.30077000  1.0
  O  O33  1  0.10721000  0.75077000  0.69922000  1.0
  O  O34  1  0.67345000  0.70989000  0.89622000  1.0
  O  O35  1  0.32656000  0.29011000  0.10378000  1.0
  O  O36  1  0.29366000  0.52925000  0.89437000  1.0
  O  O37  1  0.70634000  0.47074000  0.10564000  1.0
  O  O38  1  0.29742000  0.50475000  0.33308000  1.0
  O  O39  1  0.70257000  0.49525000  0.66691000  1.0
