# generated using pymatgen
data_CdH4C8(O3F2)2
_symmetry_space_group_name_H-M   'P 1'
_cell_length_a   6.00608000
_cell_length_b   7.39750000
_cell_length_c   15.38350000
_cell_angle_alpha   92.53180000
_cell_angle_beta   99.55680000
_cell_angle_gamma   97.22860000
_symmetry_Int_Tables_number   1
_chemical_formula_structural   CdH4C8(O3F2)2
_chemical_formula_sum   'Cd2 H8 C16 O12 F8'
_cell_volume   667.16529368
_cell_formula_units_Z   2
loop_
 _symmetry_equiv_pos_site_id
 _symmetry_equiv_pos_as_xyz
  1  'x, y, z'
loop_
 _atom_site_type_symbol
 _atom_site_label
 _atom_site_symmetry_multiplicity
 _atom_site_fract_x
 _atom_site_fract_y
 _atom_site_fract_z
 _atom_site_occupancy
  Cd  Cd0  1  0.50855000  0.75344000  0.04905000  1.0
  Cd  Cd1  1  0.49144000  0.24655000  0.95095000  1.0
  H  H2  1  0.31938000  0.92124000  0.18151000  1.0
  H  H3  1  0.68062000  0.07877000  0.81849000  1.0
  H  H4  1  0.26122000  0.03943000  0.09963000  1.0
  H  H5  1  0.73877000  0.96057000  0.90037000  1.0
  H  H6  1  0.85832000  0.57729000  0.11765000  1.0
  H  H7  1  0.14166000  0.42273000  0.88235000  1.0
  H  H8  1  0.97912000  0.78210000  0.12020000  1.0
  H  H9  1  0.02088000  0.21791000  0.87981000  1.0
  C  C10  1  0.95973000  0.21021000  0.19446000  1.0
  C  C11  1  0.04028000  0.78981000  0.80555000  1.0
  C  C12  1  0.87631000  0.12656000  0.26399000  1.0
  C  C13  1  0.12370000  0.87345000  0.73601000  1.0
  C  C14  1  0.00788000  0.13397000  0.34820000  1.0
  C  C15  1  0.99215000  0.86603000  0.65180000  1.0
  C  C16  1  0.22919000  0.22664000  0.36325000  1.0
  C  C17  1  0.77081000  0.77338000  0.63674000  1.0
  C  C18  1  0.31466000  0.31106000  0.29371000  1.0
  C  C19  1  0.68535000  0.68894000  0.70628000  1.0
  C  C20  1  0.18374000  0.30339000  0.20978000  1.0
  C  C21  1  0.81626000  0.69660000  0.79023000  1.0
  C  C22  1  0.81218000  0.20983000  0.10541000  1.0
  C  C23  1  0.18782000  0.79018000  0.89459000  1.0
  C  C24  1  0.28827000  0.37736000  0.13316000  1.0
  C  C25  1  0.71172000  0.62263000  0.86684000  1.0
  O  O26  1  0.69657000  0.06347000  0.06879000  1.0
  O  O27  1  0.30343000  0.93653000  0.93121000  1.0
  O  O28  1  0.80571000  0.36210000  0.07002000  1.0
  O  O29  1  0.19428000  0.63791000  0.92998000  1.0
  O  O30  1  0.29551000  0.25588000  0.07220000  1.0
  O  O31  1  0.70447000  0.74410000  0.92780000  1.0
  O  O32  1  0.35890000  0.54474000  0.13716000  1.0
  O  O33  1  0.64110000  0.45525000  0.86283000  1.0
  O  O34  1  0.25088000  0.91047000  0.11919000  1.0
  O  O35  1  0.74912000  0.08952000  0.88080000  1.0
  O  O36  1  0.84268000  0.70642000  0.13396000  1.0
  O  O37  1  0.15732000  0.29360000  0.86605000  1.0
  F  F38  1  0.66000000  0.03903000  0.25376000  1.0
  F  F39  1  0.34000000  0.96097000  0.74624000  1.0
  F  F40  1  0.92101000  0.05374000  0.41412000  1.0
  F  F41  1  0.07901000  0.94625000  0.58587000  1.0
  F  F42  1  0.35834000  0.23364000  0.44386000  1.0
  F  F43  1  0.64167000  0.76632000  0.55614000  1.0
  F  F44  1  0.53236000  0.39523000  0.30988000  1.0
  F  F45  1  0.46765000  0.60477000  0.69011000  1.0
