# generated using pymatgen
data_Cd2H8C10N8O5
_symmetry_space_group_name_H-M   'P 1'
_cell_length_a   9.29651000
_cell_length_b   10.02060000
_cell_length_c   15.73130000
_cell_angle_alpha   90.00000000
_cell_angle_beta   90.00000000
_cell_angle_gamma   90.63160000
_symmetry_Int_Tables_number   1
_chemical_formula_structural   Cd2H8C10N8O5
_chemical_formula_sum   'Cd8 H32 C40 N32 O20'
_cell_volume   1465.38550957
_cell_formula_units_Z   4
loop_
 _symmetry_equiv_pos_site_id
 _symmetry_equiv_pos_as_xyz
  1  'x, y, z'
loop_
 _atom_site_type_symbol
 _atom_site_label
 _atom_site_symmetry_multiplicity
 _atom_site_fract_x
 _atom_site_fract_y
 _atom_site_fract_z
 _atom_site_occupancy
  Cd  Cd0  1  0.90112000  0.90350000  0.72621000  1.0
  Cd  Cd1  1  0.59888000  0.59650000  0.22621000  1.0
  Cd  Cd2  1  0.09888000  0.09650000  0.27379000  1.0
  Cd  Cd3  1  0.40112000  0.40350000  0.77379000  1.0
  Cd  Cd4  1  0.88971000  0.61765000  0.55807000  1.0
  Cd  Cd5  1  0.61029000  0.88235000  0.05807000  1.0
  Cd  Cd6  1  0.11029000  0.38235000  0.44193000  1.0
  Cd  Cd7  1  0.38971000  0.11765000  0.94193000  1.0
  H  H8  1  0.58568000  0.89458000  0.39432000  1.0
  H  H9  1  0.91433000  0.60542000  0.89432000  1.0
  H  H10  1  0.41433000  0.10542000  0.60568000  1.0
  H  H11  1  0.08567000  0.39458000  0.10568000  1.0
  H  H12  1  0.46894000  0.10230000  0.34385000  1.0
  H  H13  1  0.03106000  0.39770000  0.84386000  1.0
  H  H14  1  0.53106000  0.89770000  0.65615000  1.0
  H  H15  1  0.96894000  0.60230000  0.15615000  1.0
  H  H16  1  0.54955000  0.32363000  0.40166000  1.0
  H  H17  1  0.95045000  0.17637000  0.90166000  1.0
  H  H18  1  0.45045000  0.67637000  0.59834000  1.0
  H  H19  1  0.04955000  0.82363000  0.09834000  1.0
  H  H20  1  0.87345000  0.12823000  0.55028000  1.0
  H  H21  1  0.62655000  0.37177000  0.05028000  1.0
  H  H22  1  0.12655000  0.87177000  0.44972000  1.0
  H  H23  1  0.37345000  0.62823000  0.94972000  1.0
  H  H24  1  0.57582000  0.75525000  0.83797000  1.0
  H  H25  1  0.92418000  0.74475000  0.33797000  1.0
  H  H26  1  0.42418000  0.24475000  0.16203000  1.0
  H  H27  1  0.07582000  0.25525000  0.66203000  1.0
  H  H28  1  0.22197000  0.75009000  0.82348000  1.0
  H  H29  1  0.27803000  0.74991000  0.32348000  1.0
  H  H30  1  0.77803000  0.24991000  0.17652000  1.0
  H  H31  1  0.72197000  0.25009000  0.67652000  1.0
  H  H32  1  0.85742000  0.82292000  0.90995000  1.0
  H  H33  1  0.64258000  0.67708000  0.40995000  1.0
  H  H34  1  0.14259000  0.17708000  0.09005000  1.0
  H  H35  1  0.35741000  0.32292000  0.59005000  1.0
  H  H36  1  0.99992000  0.91004000  0.90968000  1.0
  H  H37  1  0.50008000  0.58996000  0.40968000  1.0
  H  H38  1  0.00008000  0.08996000  0.09032000  1.0
  H  H39  1  0.49992000  0.41004000  0.59032000  1.0
  C  C40  1  0.73542000  0.99868000  0.47655000  1.0
  C  C41  1  0.76458000  0.50132000  0.97655000  1.0
  C  C42  1  0.26458000  0.00132000  0.52345000  1.0
  C  C43  1  0.23542000  0.49868000  0.02345000  1.0
  C  C44  1  0.62325000  0.99163000  0.41696000  1.0
  C  C45  1  0.87675000  0.50837000  0.91696000  1.0
  C  C46  1  0.37675000  0.00837000  0.58304000  1.0
  C  C47  1  0.12325000  0.49163000  0.08304000  1.0
  C  C48  1  0.55716000  0.10814000  0.38934000  1.0
  C  C49  1  0.94285000  0.39186000  0.88934000  1.0
  C  C50  1  0.44284000  0.89187000  0.61066000  1.0
  C  C51  1  0.05716000  0.60814000  0.11066000  1.0
  C  C52  1  0.60170000  0.23171000  0.42114000  1.0
  C  C53  1  0.89830000  0.26829000  0.92114000  1.0
  C  C54  1  0.39830000  0.76829000  0.57886000  1.0
  C  C55  1  0.10170000  0.73171000  0.07886000  1.0
  C  C56  1  0.71681000  0.23964000  0.47877000  1.0
  C  C57  1  0.78320000  0.26036000  0.97877000  1.0
  C  C58  1  0.28319000  0.76036000  0.52123000  1.0
  C  C59  1  0.21681000  0.73964000  0.02123000  1.0
  C  C60  1  0.78372000  0.12307000  0.50586000  1.0
  C  C61  1  0.71628000  0.37693000  0.00586000  1.0
  C  C62  1  0.21628000  0.87694000  0.49414000  1.0
  C  C63  1  0.28372000  0.62306000  0.99414000  1.0
  C  C64  1  0.80216000  0.87533000  0.51042000  1.0
  C  C65  1  0.69784000  0.62467000  0.01042000  1.0
  C  C66  1  0.19784000  0.12467000  0.48958000  1.0
  C  C67  1  0.30216000  0.37533000  0.98958000  1.0
  C  C68  1  0.76543000  0.37287000  0.51048000  1.0
  C  C69  1  0.73457000  0.12713000  0.01048000  1.0
  C  C70  1  0.23457000  0.62713000  0.48952000  1.0
  C  C71  1  0.26543000  0.87287000  0.98952000  1.0
  C  C72  1  0.61803000  0.69491000  0.78670000  1.0
  C  C73  1  0.88197000  0.80509000  0.28670000  1.0
  C  C74  1  0.38197000  0.30509000  0.21330000  1.0
  C  C75  1  0.11803000  0.19491000  0.71330000  1.0
  C  C76  1  0.18183000  0.69066000  0.77094000  1.0
  C  C77  1  0.31817000  0.80934000  0.27094000  1.0
  C  C78  1  0.81817000  0.30934000  0.22906000  1.0
  C  C79  1  0.68183000  0.19066000  0.72906000  1.0
  N  N80  1  0.72149000  0.73571000  0.73303000  1.0
  N  N81  1  0.77851000  0.76429000  0.23303000  1.0
  N  N82  1  0.27851000  0.26429000  0.26697000  1.0
  N  N83  1  0.22149000  0.23571000  0.76697000  1.0
  N  N84  1  0.74219000  0.63186000  0.68005000  1.0
  N  N85  1  0.75781000  0.86813000  0.18005000  1.0
  N  N86  1  0.25781000  0.36814000  0.31995000  1.0
  N  N87  1  0.24219000  0.13187000  0.81995000  1.0
  N  N88  1  0.65784000  0.53226000  0.70044000  1.0
  N  N89  1  0.84216000  0.96774000  0.20044000  1.0
  N  N90  1  0.34216000  0.46774000  0.29956000  1.0
  N  N91  1  0.15784000  0.03226000  0.79956000  1.0
  N  N92  1  0.57756000  0.56933000  0.76765000  1.0
  N  N93  1  0.92244000  0.93067000  0.26765000  1.0
  N  N94  1  0.42244000  0.43067000  0.23235000  1.0
  N  N95  1  0.07756000  0.06933000  0.73235000  1.0
  N  N96  1  0.07829000  0.73029000  0.71782000  1.0
  N  N97  1  0.42170000  0.76971000  0.21781000  1.0
  N  N98  1  0.92170000  0.26971000  0.28218000  1.0
  N  N99  1  0.57830000  0.23029000  0.78219000  1.0
  N  N100  1  0.06152000  0.62854000  0.66283000  1.0
  N  N101  1  0.43848000  0.87146000  0.16283000  1.0
  N  N102  1  0.93848000  0.37146000  0.33717000  1.0
  N  N103  1  0.56152000  0.12854000  0.83717000  1.0
  N  N104  1  0.14864000  0.53103000  0.68096000  1.0
  N  N105  1  0.35135000  0.96897000  0.18096000  1.0
  N  N106  1  0.85135000  0.46897000  0.31904000  1.0
  N  N107  1  0.64865000  0.03103000  0.81904000  1.0
  N  N108  1  0.22669000  0.56806000  0.74937000  1.0
  N  N109  1  0.27331000  0.93194000  0.24937000  1.0
  N  N110  1  0.77331000  0.43194000  0.25062000  1.0
  N  N111  1  0.72669000  0.06806000  0.75063000  1.0
  O  O112  1  0.77790000  0.76423000  0.47174000  1.0
  O  O113  1  0.72210000  0.73577000  0.97174000  1.0
  O  O114  1  0.22210000  0.23577000  0.52826000  1.0
  O  O115  1  0.27790000  0.26423000  0.02826000  1.0
  O  O116  1  0.88269000  0.88060000  0.57586000  1.0
  O  O117  1  0.61731000  0.61940000  0.07586000  1.0
  O  O118  1  0.11731000  0.11940000  0.42414000  1.0
  O  O119  1  0.38269000  0.38060000  0.92414000  1.0
  O  O120  1  0.89895000  0.38770000  0.53437000  1.0
  O  O121  1  0.60105000  0.11230000  0.03437000  1.0
  O  O122  1  0.10105000  0.61230000  0.46563000  1.0
  O  O123  1  0.39895000  0.88770000  0.96563000  1.0
  O  O124  1  0.67771000  0.46754000  0.51370000  1.0
  O  O125  1  0.82229000  0.03246000  0.01370000  1.0
  O  O126  1  0.32229000  0.53246000  0.48630000  1.0
  O  O127  1  0.17771000  0.96754000  0.98630000  1.0
  O  O128  1  0.93836000  0.85308000  0.87389000  1.0
  O  O129  1  0.56165000  0.64692000  0.37388000  1.0
  O  O130  1  0.06164000  0.14692000  0.12611000  1.0
  O  O131  1  0.43835000  0.35308000  0.62612000  1.0
