# generated using pymatgen
data_ZnH8(C5O3)2
_symmetry_space_group_name_H-M   'P 1'
_cell_length_a   7.66608000
_cell_length_b   8.26425000
_cell_length_c   9.41574000
_cell_angle_alpha   64.00190000
_cell_angle_beta   81.71830000
_cell_angle_gamma   89.96540000
_symmetry_Int_Tables_number   1
_chemical_formula_structural   ZnH8(C5O3)2
_chemical_formula_sum   'Zn2 H16 C20 O12'
_cell_volume   529.26077777
_cell_formula_units_Z   2
loop_
 _symmetry_equiv_pos_site_id
 _symmetry_equiv_pos_as_xyz
  1  'x, y, z'
loop_
 _atom_site_type_symbol
 _atom_site_label
 _atom_site_symmetry_multiplicity
 _atom_site_fract_x
 _atom_site_fract_y
 _atom_site_fract_z
 _atom_site_occupancy
  Zn  Zn0  1  0.24999000  0.94239000  0.99997000  1.0
  Zn  Zn1  1  0.75002000  0.05762000  0.00004000  1.0
  H  H2  1  0.77761000  0.12908000  0.52536000  1.0
  H  H3  1  0.72254000  0.65495000  0.47495000  1.0
  H  H4  1  0.22239000  0.87093000  0.47465000  1.0
  H  H5  1  0.27745000  0.34506000  0.52505000  1.0
  H  H6  1  0.88368000  0.35707000  0.29050000  1.0
  H  H7  1  0.61614000  0.64749000  0.70985000  1.0
  H  H8  1  0.11633000  0.64292000  0.70951000  1.0
  H  H9  1  0.38387000  0.35251000  0.29014000  1.0
  H  H10  1  0.98146000  0.32786000  0.11816000  1.0
  H  H11  1  0.51822000  0.44599000  0.88183000  1.0
  H  H12  1  0.01854000  0.67213000  0.88184000  1.0
  H  H13  1  0.48178000  0.55402000  0.11816000  1.0
  H  H14  1  0.98550000  0.15170000  0.31480000  1.0
  H  H15  1  0.51453000  0.46686000  0.68494000  1.0
  H  H16  1  0.01450000  0.84829000  0.68521000  1.0
  H  H17  1  0.48546000  0.53316000  0.31505000  1.0
  C  C18  1  0.46563000  0.02208000  0.34914000  1.0
  C  C19  1  0.03425000  0.37096000  0.65073000  1.0
  C  C20  1  0.53437000  0.97792000  0.65087000  1.0
  C  C21  1  0.96575000  0.62904000  0.34927000  1.0
  C  C22  1  0.62690000  0.09630000  0.36076000  1.0
  C  C23  1  0.87302000  0.45704000  0.63928000  1.0
  C  C24  1  0.37310000  0.90369000  0.63925000  1.0
  C  C25  1  0.12697000  0.54296000  0.36072000  1.0
  C  C26  1  0.65680000  0.07279000  0.51128000  1.0
  C  C27  1  0.84328000  0.58437000  0.48886000  1.0
  C  C28  1  0.34320000  0.92721000  0.48873000  1.0
  C  C29  1  0.15671000  0.41563000  0.51113000  1.0
  C  C30  1  0.41623000  0.04063000  0.19531000  1.0
  C  C31  1  0.08368000  0.23557000  0.80447000  1.0
  C  C32  1  0.58378000  0.95938000  0.80469000  1.0
  C  C33  1  0.91632000  0.76444000  0.19552000  1.0
  C  C34  1  0.90869000  0.26040000  0.24005000  1.0
  C  C35  1  0.59115000  0.50049000  0.76000000  1.0
  C  C36  1  0.09131000  0.73959000  0.75996000  1.0
  C  C37  1  0.40884000  0.49952000  0.23999000  1.0
  O  O38  1  0.26739000  0.96558000  0.20194000  1.0
  O  O39  1  0.23255000  0.16705000  0.79776000  1.0
  O  O40  1  0.73261000  0.03443000  0.79806000  1.0
  O  O41  1  0.76744000  0.83295000  0.20224000  1.0
  O  O42  1  0.51718000  0.13099000  0.06186000  1.0
  O  O43  1  0.98276000  0.19268000  0.93795000  1.0
  O  O44  1  0.48282000  0.86901000  0.93815000  1.0
  O  O45  1  0.01724000  0.80735000  0.06204000  1.0
  O  O46  1  0.74548000  0.18862000  0.22503000  1.0
  O  O47  1  0.75435000  0.41354000  0.77499000  1.0
  O  O48  1  0.25453000  0.81137000  0.77497000  1.0
  O  O49  1  0.24564000  0.58645000  0.22500000  1.0
