# generated using pymatgen
data_KAgH10C7SO9
_symmetry_space_group_name_H-M   'P 1'
_cell_length_a   6.88687000
_cell_length_b   8.23458000
_cell_length_c   10.77380000
_cell_angle_alpha   100.38630000
_cell_angle_beta   94.26610000
_cell_angle_gamma   90.73710000
_symmetry_Int_Tables_number   1
_chemical_formula_structural   KAgH10C7SO9
_chemical_formula_sum   'K2 Ag2 H20 C14 S2 O18'
_cell_volume   599.09594797
_cell_formula_units_Z   2
loop_
 _symmetry_equiv_pos_site_id
 _symmetry_equiv_pos_as_xyz
  1  'x, y, z'
loop_
 _atom_site_type_symbol
 _atom_site_label
 _atom_site_symmetry_multiplicity
 _atom_site_fract_x
 _atom_site_fract_y
 _atom_site_fract_z
 _atom_site_occupancy
  K  K0  1  0.27868000  0.52475000  0.06992000  1.0
  K  K1  1  0.72132000  0.47525000  0.93008000  1.0
  Ag  Ag2  1  0.00207000  0.97812000  0.36595000  1.0
  Ag  Ag3  1  0.99793000  0.02188000  0.63405000  1.0
  H  H4  1  0.64497000  0.80832000  0.12913000  1.0
  H  H5  1  0.35503000  0.19168000  0.87087000  1.0
  H  H6  1  0.70229000  0.71233000  0.23658000  1.0
  H  H7  1  0.29771000  0.28767000  0.76342000  1.0
  H  H8  1  0.17677000  0.15931000  0.09285000  1.0
  H  H9  1  0.82323000  0.84069000  0.90715000  1.0
  H  H10  1  0.95111000  0.15531000  0.10350000  1.0
  H  H11  1  0.04889000  0.84469000  0.89650000  1.0
  H  H12  1  0.03823000  0.82995000  0.09115000  1.0
  H  H13  1  0.96177000  0.17005000  0.90885000  1.0
  H  H14  1  0.27076000  0.51722000  0.73483000  1.0
  H  H15  1  0.72924000  0.48278000  0.26517000  1.0
  H  H16  1  0.35849000  0.77955000  0.36147000  1.0
  H  H17  1  0.64151000  0.22045000  0.63853000  1.0
  H  H18  1  0.44993000  0.93567000  0.58049000  1.0
  H  H19  1  0.55007000  0.06433000  0.41951000  1.0
  H  H20  1  0.16268000  0.36776000  0.31673000  1.0
  H  H21  1  0.83732000  0.63224000  0.68327000  1.0
  H  H22  1  0.23673000  0.90458000  0.16166000  1.0
  H  H23  1  0.76327000  0.09542000  0.83834000  1.0
  C  C24  1  0.36340000  0.73433000  0.67065000  1.0
  C  C25  1  0.63660000  0.26566000  0.32935000  1.0
  C  C26  1  0.28996000  0.57382000  0.65293000  1.0
  C  C27  1  0.71004000  0.42618000  0.34707000  1.0
  C  C28  1  0.24084000  0.48407000  0.53140000  1.0
  C  C29  1  0.75916000  0.51593000  0.46859000  1.0
  C  C30  1  0.26159000  0.56167000  0.42581000  1.0
  C  C31  1  0.73841000  0.43833000  0.57419000  1.0
  C  C32  1  0.33741000  0.72465000  0.44442000  1.0
  C  C33  1  0.66258000  0.27535000  0.55558000  1.0
  C  C34  1  0.38824000  0.81049000  0.56601000  1.0
  C  C35  1  0.61176000  0.18951000  0.43399000  1.0
  C  C36  1  0.17203000  0.30968000  0.51565000  1.0
  C  C37  1  0.82797000  0.69032000  0.48435000  1.0
  S  S38  1  0.41817000  0.84024000  0.82797000  1.0
  S  S39  1  0.58183000  0.15976000  0.17203000  1.0
  O  O40  1  0.63331000  0.69825000  0.15132000  1.0
  O  O41  1  0.36670000  0.30175000  0.84868000  1.0
  O  O42  1  0.05563000  0.21289000  0.06872000  1.0
  O  O43  1  0.94437000  0.78711000  0.93128000  1.0
  O  O44  1  0.12578000  0.83085000  0.16934000  1.0
  O  O45  1  0.87422000  0.16915000  0.83066000  1.0
  O  O46  1  0.21169000  0.48160000  0.30719000  1.0
  O  O47  1  0.78831000  0.51840000  0.69281000  1.0
  O  O48  1  0.11813000  0.23519000  0.40240000  1.0
  O  O49  1  0.88187000  0.76481000  0.59760000  1.0
  O  O50  1  0.17052000  0.24327000  0.61340000  1.0
  O  O51  1  0.82947000  0.75673000  0.38660000  1.0
  O  O52  1  0.26066000  0.95986000  0.85407000  1.0
  O  O53  1  0.73935000  0.04014000  0.14593000  1.0
  O  O54  1  0.42099000  0.71443000  0.90822000  1.0
  O  O55  1  0.57900000  0.28556000  0.09178000  1.0
  O  O56  1  0.60939000  0.92400000  0.83040000  1.0
  O  O57  1  0.39061000  0.07600000  0.16960000  1.0
