# generated using pymatgen
data_K2Cd3H20(C5O6)4
_symmetry_space_group_name_H-M   'P 1'
_cell_length_a   8.22654000
_cell_length_b   14.12120000
_cell_length_c   14.12130000
_cell_angle_alpha   77.86690000
_cell_angle_beta   73.06720000
_cell_angle_gamma   73.06520000
_symmetry_Int_Tables_number   1
_chemical_formula_structural   K2Cd3H20(C5O6)4
_chemical_formula_sum   'K4 Cd6 H40 C40 O48'
_cell_volume   1487.13348784
_cell_formula_units_Z   2
loop_
 _symmetry_equiv_pos_site_id
 _symmetry_equiv_pos_as_xyz
  1  'x, y, z'
loop_
 _atom_site_type_symbol
 _atom_site_label
 _atom_site_symmetry_multiplicity
 _atom_site_fract_x
 _atom_site_fract_y
 _atom_site_fract_z
 _atom_site_occupancy
  K  K0  1  0.50000000  0.62940000  0.37057000  1.0
  K  K1  1  0.50004000  0.87054000  0.12944000  1.0
  K  K2  1  0.50002000  0.37058000  0.62944000  1.0
  K  K3  1  0.49997000  0.12945000  0.87056000  1.0
  Cd  Cd4  1  0.00001000  0.74999000  0.25001000  1.0
  Cd  Cd5  1  0.99999000  0.25001000  0.74999000  1.0
  Cd  Cd6  1  0.79281000  0.95727000  0.45733000  1.0
  Cd  Cd7  1  0.20718000  0.54269000  0.04274000  1.0
  Cd  Cd8  1  0.20718000  0.04274000  0.54268000  1.0
  Cd  Cd9  1  0.79283000  0.45731000  0.95725000  1.0
  H  H10  1  0.38574000  0.43121000  0.43158000  1.0
  H  H11  1  0.61426000  0.56860000  0.56862000  1.0
  H  H12  1  0.24847000  0.06863000  0.06872000  1.0
  H  H13  1  0.75153000  0.93136000  0.93129000  1.0
  H  H14  1  0.21648000  0.49580000  0.49595000  1.0
  H  H15  1  0.78353000  0.50411000  0.50416000  1.0
  H  H16  1  0.20845000  0.00407000  0.00418000  1.0
  H  H17  1  0.79156000  0.99589000  0.99584000  1.0
  H  H18  1  0.63607000  0.75134000  0.51543000  1.0
  H  H19  1  0.36398000  0.48456000  0.24866000  1.0
  H  H20  1  0.90276000  0.74839000  0.98457000  1.0
  H  H21  1  0.09723000  0.01541000  0.25160000  1.0
  H  H22  1  0.36388000  0.24867000  0.48463000  1.0
  H  H23  1  0.63608000  0.51540000  0.75133000  1.0
  H  H24  1  0.09724000  0.25160000  0.01543000  1.0
  H  H25  1  0.90276000  0.98458000  0.74840000  1.0
  H  H26  1  0.44234000  0.77602000  0.57982000  1.0
  H  H27  1  0.55773000  0.42024000  0.22388000  1.0
  H  H28  1  0.79816000  0.72387000  0.92002000  1.0
  H  H29  1  0.20184000  0.08001000  0.27606000  1.0
  H  H30  1  0.55755000  0.22413000  0.42012000  1.0
  H  H31  1  0.44237000  0.57983000  0.77597000  1.0
  H  H32  1  0.20185000  0.27614000  0.07996000  1.0
  H  H33  1  0.79815000  0.92001000  0.72393000  1.0
  H  H34  1  0.52303000  0.63932000  0.12837000  1.0
  H  H35  1  0.47698000  0.87161000  0.36069000  1.0
  H  H36  1  0.29095000  0.86069000  0.37152000  1.0
  H  H37  1  0.70907000  0.62848000  0.13929000  1.0
  H  H38  1  0.47697000  0.36069000  0.87163000  1.0
  H  H39  1  0.52302000  0.12840000  0.63931000  1.0
  H  H40  1  0.70906000  0.13931000  0.62847000  1.0
  H  H41  1  0.29093000  0.37152000  0.86071000  1.0
  H  H42  1  0.92603000  0.56611000  0.56610000  1.0
  H  H43  1  0.07396000  0.43390000  0.43389000  1.0
  H  H44  1  0.05815000  0.93392000  0.93392000  1.0
  H  H45  1  0.94184000  0.06608000  0.06609000  1.0
  H  H46  1  0.16256000  0.74289000  0.74289000  1.0
  H  H47  1  0.83745000  0.25711000  0.25709000  1.0
  H  H48  1  0.64783000  0.75690000  0.75691000  1.0
  H  H49  1  0.35215000  0.24311000  0.24309000  1.0
  C  C50  1  0.99306000  0.73120000  0.45476000  1.0
  C  C51  1  0.00695000  0.54524000  0.26881000  1.0
  C  C52  1  0.17879000  0.76872000  0.04516000  1.0
  C  C53  1  0.82120000  0.95484000  0.23128000  1.0
  C  C54  1  0.00692000  0.26882000  0.54524000  1.0
  C  C55  1  0.99308000  0.45476000  0.73117000  1.0
  C  C56  1  0.82120000  0.23128000  0.95484000  1.0
  C  C57  1  0.17879000  0.04516000  0.76872000  1.0
  C  C58  1  0.12385000  0.84554000  0.56187000  1.0
  C  C59  1  0.87617000  0.43813000  0.15445000  1.0
  C  C60  1  0.53092000  0.65438000  0.93805000  1.0
  C  C61  1  0.46907000  0.06195000  0.34561000  1.0
  C  C62  1  0.87613000  0.15447000  0.43812000  1.0
  C  C63  1  0.12386000  0.56187000  0.84553000  1.0
  C  C64  1  0.46905000  0.34562000  0.06195000  1.0
  C  C65  1  0.53093000  0.93805000  0.65439000  1.0
  C  C66  1  0.98112000  0.60421000  0.60420000  1.0
  C  C67  1  0.01887000  0.39580000  0.39579000  1.0
  C  C68  1  0.18940000  0.89577000  0.89576000  1.0
  C  C69  1  0.81059000  0.10424000  0.10424000  1.0
  C  C70  1  0.01723000  0.69616000  0.55899000  1.0
  C  C71  1  0.98278000  0.44101000  0.30384000  1.0
  C  C72  1  0.27214000  0.80377000  0.94092000  1.0
  C  C73  1  0.72784000  0.05908000  0.19623000  1.0
  C  C74  1  0.98277000  0.30385000  0.44100000  1.0
  C  C75  1  0.01722000  0.55900000  0.69615000  1.0
  C  C76  1  0.72784000  0.19623000  0.05908000  1.0
  C  C77  1  0.27215000  0.94092000  0.80377000  1.0
  C  C78  1  0.08383000  0.74691000  0.60905000  1.0
  C  C79  1  0.91618000  0.39095000  0.25308000  1.0
  C  C80  1  0.43947000  0.75296000  0.89080000  1.0
  C  C81  1  0.56052000  0.10920000  0.24704000  1.0
  C  C82  1  0.91616000  0.25310000  0.39095000  1.0
  C  C83  1  0.08384000  0.60905000  0.74691000  1.0
  C  C84  1  0.56052000  0.24705000  0.10919000  1.0
  C  C85  1  0.43948000  0.89080000  0.75296000  1.0
  C  C86  1  0.11391000  0.70308000  0.70308000  1.0
  C  C87  1  0.88610000  0.29692000  0.29691000  1.0
  C  C88  1  0.51970000  0.79679000  0.79679000  1.0
  C  C89  1  0.48028000  0.20322000  0.20320000  1.0
  O  O90  1  0.84298000  0.78070000  0.44099000  1.0
  O  O91  1  0.15701000  0.55901000  0.21930000  1.0
  O  O92  1  0.06464000  0.71912000  0.05888000  1.0
  O  O93  1  0.93536000  0.94113000  0.28089000  1.0
  O  O94  1  0.15699000  0.21930000  0.55902000  1.0
  O  O95  1  0.84301000  0.44098000  0.78069000  1.0
  O  O96  1  0.93536000  0.28089000  0.94112000  1.0
  O  O97  1  0.06463000  0.05888000  0.71911000  1.0
  O  O98  1  0.12389000  0.70137000  0.38438000  1.0
  O  O99  1  0.87611000  0.61562000  0.29864000  1.0
  O  O100  1  0.20928000  0.79868000  0.11552000  1.0
  O  O101  1  0.79072000  0.88447000  0.20134000  1.0
  O  O102  1  0.87610000  0.29866000  0.61562000  1.0
  O  O103  1  0.12390000  0.38438000  0.70134000  1.0
  O  O104  1  0.79072000  0.20134000  0.88448000  1.0
  O  O105  1  0.20928000  0.11553000  0.79865000  1.0
  O  O106  1  0.07739000  0.88983000  0.48177000  1.0
  O  O107  1  0.92260000  0.51824000  0.11017000  1.0
  O  O108  1  0.44876000  0.61019000  0.01825000  1.0
  O  O109  1  0.55125000  0.98175000  0.38981000  1.0
  O  O110  1  0.92259000  0.11018000  0.51823000  1.0
  O  O111  1  0.07741000  0.48176000  0.88982000  1.0
  O  O112  1  0.55125000  0.38982000  0.98175000  1.0
  O  O113  1  0.44875000  0.01825000  0.61018000  1.0
  O  O114  1  0.20780000  0.88098000  0.60351000  1.0
  O  O115  1  0.79223000  0.39649000  0.11900000  1.0
  O  O116  1  0.69200000  0.61892000  0.89643000  1.0
  O  O117  1  0.30800000  0.10357000  0.38108000  1.0
  O  O118  1  0.79218000  0.11903000  0.39648000  1.0
  O  O119  1  0.20780000  0.60351000  0.88098000  1.0
  O  O120  1  0.30799000  0.38107000  0.10355000  1.0
  O  O121  1  0.69201000  0.89645000  0.61894000  1.0
  O  O122  1  0.34339000  0.47981000  0.47980000  1.0
  O  O123  1  0.65661000  0.52021000  0.52019000  1.0
  O  O124  1  0.30308000  0.02027000  0.02026000  1.0
  O  O125  1  0.69693000  0.97972000  0.97974000  1.0
  O  O126  1  0.53132000  0.72471000  0.54350000  1.0
  O  O127  1  0.46877000  0.45648000  0.27525000  1.0
  O  O128  1  0.79937000  0.77504000  0.95657000  1.0
  O  O129  1  0.20063000  0.04340000  0.22493000  1.0
  O  O130  1  0.46860000  0.27533000  0.45661000  1.0
  O  O131  1  0.53132000  0.54343000  0.72470000  1.0
  O  O132  1  0.20060000  0.22495000  0.04345000  1.0
  O  O133  1  0.79938000  0.95658000  0.77507000  1.0
  O  O134  1  0.58635000  0.66350000  0.16352000  1.0
  O  O135  1  0.41367000  0.83645000  0.33650000  1.0
  O  O136  1  0.41364000  0.33649000  0.83648000  1.0
  O  O137  1  0.58635000  0.16353000  0.66351000  1.0
