# generated using pymatgen
data_Zn3H50C54(NO)12
_symmetry_space_group_name_H-M   'P 1'
_cell_length_a   15.40090000
_cell_length_b   15.40230000
_cell_length_c   16.69158482
_cell_angle_alpha   102.64027656
_cell_angle_beta   109.62053318
_cell_angle_gamma   113.50800000
_symmetry_Int_Tables_number   1
_chemical_formula_structural   Zn3H50C54(NO)12
_chemical_formula_sum   'Zn6 H100 C108 N24 O24'
_cell_volume   3121.74710830
_cell_formula_units_Z   2
loop_
 _symmetry_equiv_pos_site_id
 _symmetry_equiv_pos_as_xyz
  1  'x, y, z'
loop_
 _atom_site_type_symbol
 _atom_site_label
 _atom_site_symmetry_multiplicity
 _atom_site_fract_x
 _atom_site_fract_y
 _atom_site_fract_z
 _atom_site_occupancy
  Zn  Zn0  1  0.28746000  0.03749000  0.24973000  1.0
  Zn  Zn1  1  0.71254000  0.96251000  0.75027000  1.0
  Zn  Zn2  1  0.04377000  0.28831000  0.30114000  1.0
  Zn  Zn3  1  0.48715000  0.74260000  0.19884000  1.0
  Zn  Zn4  1  0.95623000  0.71169000  0.69886000  1.0
  Zn  Zn5  1  0.51285000  0.25740000  0.80116000  1.0
  H  H6  1  0.11072000  0.08207000  0.93121000  1.0
  H  H7  1  0.65037000  0.17974000  0.56880000  1.0
  H  H8  1  0.88928000  0.91794000  0.06880000  1.0
  H  H9  1  0.34964000  0.82026000  0.43120000  1.0
  H  H10  1  0.41837000  0.39837000  0.25380000  1.0
  H  H11  1  0.64460000  0.16499000  0.24625000  1.0
  H  H12  1  0.58164000  0.60163000  0.74620000  1.0
  H  H13  1  0.35540000  0.83501000  0.75375000  1.0
  H  H14  1  0.40141000  0.10847000  0.46337000  1.0
  H  H15  1  0.14468000  0.93762000  0.03606000  1.0
  H  H16  1  0.59860000  0.89154000  0.53664000  1.0
  H  H17  1  0.85530000  0.06236000  0.96393000  1.0
  H  H18  1  0.59979000  0.49681000  0.55780000  1.0
  H  H19  1  0.43894000  0.04184000  0.94206000  1.0
  H  H20  1  0.40021000  0.50319000  0.44220000  1.0
  H  H21  1  0.56106000  0.95816000  0.05794000  1.0
  H  H22  1  0.52981000  0.54067000  0.60362000  1.0
  H  H23  1  0.43717000  0.92612000  0.89641000  1.0
  H  H24  1  0.47019000  0.45934000  0.39638000  1.0
  H  H25  1  0.56283000  0.07387000  0.10359000  1.0
  H  H26  1  0.44152000  0.31968000  0.46554000  1.0
  H  H27  1  0.35404000  0.97584000  0.03435000  1.0
  H  H28  1  0.55848000  0.68033000  0.53446000  1.0
  H  H29  1  0.64596000  0.02416000  0.96565000  1.0
  H  H30  1  0.47631000  0.36066000  0.58671000  1.0
  H  H31  1  0.27391000  0.88943000  0.91317000  1.0
  H  H32  1  0.52369000  0.63934000  0.41329000  1.0
  H  H33  1  0.72609000  0.11057000  0.08683000  1.0
  H  H34  1  0.08652000  0.03320000  0.29049000  1.0
  H  H35  1  0.24247000  0.79591000  0.20917000  1.0
  H  H36  1  0.91348000  0.96680000  0.70951000  1.0
  H  H37  1  0.75753000  0.20409000  0.79083000  1.0
  H  H38  1  0.27196000  0.29435000  0.35142000  1.0
  H  H39  1  0.44317000  0.92061000  0.14849000  1.0
  H  H40  1  0.72804000  0.70565000  0.64858000  1.0
  H  H41  1  0.55682000  0.07938000  0.85150000  1.0
  H  H42  1  0.00675000  0.92862000  0.42507000  1.0
  H  H43  1  0.00389000  0.58187000  0.07502000  1.0
  H  H44  1  0.99326000  0.07139000  0.57494000  1.0
  H  H45  1  0.99610000  0.41812000  0.92497000  1.0
  H  H46  1  0.10557000  0.00042000  0.54361000  1.0
  H  H47  1  0.95676000  0.56194000  0.95641000  1.0
  H  H48  1  0.89442000  0.99957000  0.45639000  1.0
  H  H49  1  0.04324000  0.43805000  0.04358000  1.0
  H  H50  1  0.94400000  0.43604000  0.31384000  1.0
  H  H51  1  0.62181000  0.62987000  0.18559000  1.0
  H  H52  1  0.05600000  0.56396000  0.68616000  1.0
  H  H53  1  0.37819000  0.37012000  0.81441000  1.0
  H  H54  1  0.35122000  0.41111000  0.63494000  1.0
  H  H55  1  0.27612000  0.71613000  0.86501000  1.0
  H  H56  1  0.64878000  0.58889000  0.36506000  1.0
  H  H57  1  0.72387000  0.28386000  0.13498000  1.0
  H  H58  1  0.14356000  0.37189000  0.52428000  1.0
  H  H59  1  0.34792000  0.61934000  0.97572000  1.0
  H  H60  1  0.85643000  0.62810000  0.47571000  1.0
  H  H61  1  0.65207000  0.38065000  0.02427000  1.0
  H  H62  1  0.03462000  0.09474000  0.40729000  1.0
  H  H63  1  0.18757000  0.62722000  0.09226000  1.0
  H  H64  1  0.96539000  0.90527000  0.59272000  1.0
  H  H65  1  0.81243000  0.37278000  0.90774000  1.0
  H  H66  1  0.13323000  0.16655000  0.52603000  1.0
  H  H67  1  0.14022000  0.60698000  0.97348000  1.0
  H  H68  1  0.86678000  0.83346000  0.47398000  1.0
  H  H69  1  0.85978000  0.39302000  0.02652000  1.0
  H  H70  1  0.19478000  0.65121000  0.28140000  1.0
  H  H71  1  0.87005000  0.91336000  0.21916000  1.0
  H  H72  1  0.80522000  0.34879000  0.71860000  1.0
  H  H73  1  0.12995000  0.08664000  0.78084000  1.0
  H  H74  1  0.19881000  0.46932000  0.25555000  1.0
  H  H75  1  0.71410000  0.94328000  0.24524000  1.0
  H  H76  1  0.80118000  0.53067000  0.74444000  1.0
  H  H77  1  0.28589000  0.05672000  0.75476000  1.0
  H  H78  1  0.31056000  0.14902000  0.57505000  1.0
  H  H79  1  0.07375000  0.73512000  0.92452000  1.0
  H  H80  1  0.68944000  0.85098000  0.42495000  1.0
  H  H81  1  0.92624000  0.26487000  0.07547000  1.0
  H  H82  1  0.06296000  0.25126000  0.98361000  1.0
  H  H83  1  0.76764000  0.07985000  0.51646000  1.0
  H  H84  1  0.93705000  0.74874000  0.01640000  1.0
  H  H85  1  0.23235000  0.92015000  0.48354000  1.0
  H  H86  1  0.20593000  0.43610000  0.03983000  1.0
  H  H87  1  0.89620000  0.16636000  0.46011000  1.0
  H  H88  1  0.79407000  0.56390000  0.96017000  1.0
  H  H89  1  0.10380000  0.83364000  0.53989000  1.0
  H  H90  1  0.87512000  0.55441000  0.19493000  1.0
  H  H91  1  0.85945000  0.68015000  0.30494000  1.0
  H  H92  1  0.12488000  0.44558000  0.80507000  1.0
  H  H93  1  0.14055000  0.31984000  0.69506000  1.0
  H  H94  1  0.97888000  0.65835000  0.19304000  1.0
  H  H95  1  0.96533000  0.78576000  0.30685000  1.0
  H  H96  1  0.02112000  0.34165000  0.80696000  1.0
  H  H97  1  0.03467000  0.21423000  0.69315000  1.0
  H  H98  1  0.99131000  0.62527000  0.37090000  1.0
  H  H99  1  0.75444000  0.62044000  0.12887000  1.0
  H  H100  1  0.00870000  0.37474000  0.62911000  1.0
  H  H101  1  0.24556000  0.37956000  0.87113000  1.0
  H  H102  1  0.09713000  0.71847000  0.36250000  1.0
  H  H103  1  0.85604000  0.73481000  0.13753000  1.0
  H  H104  1  0.90288000  0.28154000  0.63750000  1.0
  H  H105  1  0.14395000  0.26518000  0.86247000  1.0
  C  C106  1  0.26140000  0.26368000  0.16442000  1.0
  C  C107  1  0.59928000  0.09742000  0.33560000  1.0
  C  C108  1  0.73861000  0.73631000  0.83558000  1.0
  C  C109  1  0.40072000  0.90259000  0.66440000  1.0
  C  C110  1  0.07546000  0.10879000  0.04536000  1.0
  C  C111  1  0.56336000  0.03036000  0.45460000  1.0
  C  C112  1  0.92455000  0.89122000  0.95465000  1.0
  C  C113  1  0.43664000  0.96964000  0.54540000  1.0
  C  C114  1  0.01179000  0.06018000  0.08407000  1.0
  C  C115  1  0.47626000  0.92787000  0.41593000  1.0
  C  C116  1  0.98822000  0.93983000  0.91594000  1.0
  C  C117  1  0.52374000  0.07212000  0.58406000  1.0
  C  C118  1  0.15997000  0.22058000  0.08701000  1.0
  C  C119  1  0.63355000  0.07342000  0.41302000  1.0
  C  C120  1  0.84003000  0.77942000  0.91299000  1.0
  C  C121  1  0.36645000  0.92658000  0.58698000  1.0
  C  C122  1  0.29269000  0.20383000  0.21641000  1.0
  C  C123  1  0.48729000  0.07628000  0.28338000  1.0
  C  C124  1  0.70732000  0.79617000  0.78359000  1.0
  C  C125  1  0.51272000  0.92373000  0.71662000  1.0
  C  C126  1  0.06077000  0.04690000  0.96146000  1.0
  C  C127  1  0.58518000  0.09944000  0.53848000  1.0
  C  C128  1  0.93922000  0.95309000  0.03854000  1.0
  C  C129  1  0.41481000  0.90056000  0.46151000  1.0
  C  C130  1  0.01168000  0.11684000  0.16960000  1.0
  C  C131  1  0.44746000  0.84234000  0.33037000  1.0
  C  C132  1  0.98832000  0.88316000  0.83040000  1.0
  C  C133  1  0.55254000  0.15766000  0.66963000  1.0
  C  C134  1  0.34009000  0.36699000  0.19498000  1.0
  C  C135  1  0.67206000  0.14558000  0.30509000  1.0
  C  C136  1  0.65993000  0.63302000  0.80503000  1.0
  C  C137  1  0.32795000  0.85442000  0.69491000  1.0
  C  C138  1  0.32229000  0.09760000  0.44480000  1.0
  C  C139  1  0.15247000  0.87715000  0.05469000  1.0
  C  C140  1  0.67771000  0.90240000  0.55520000  1.0
  C  C141  1  0.84752000  0.12284000  0.94530000  1.0
  C  C142  1  0.51998000  0.48667000  0.54143000  1.0
  C  C143  1  0.44523000  0.97847000  0.95852000  1.0
  C  C144  1  0.48001000  0.51333000  0.45857000  1.0
  C  C145  1  0.55476000  0.02152000  0.04147000  1.0
  C  C146  1  0.44708000  0.37470000  0.52409000  1.0
  C  C147  1  0.35056000  0.92286000  0.97581000  1.0
  C  C148  1  0.55292000  0.62531000  0.47591000  1.0
  C  C149  1  0.64943000  0.07713000  0.02418000  1.0
  C  C150  1  0.15905000  0.05441000  0.35123000  1.0
  C  C151  1  0.20296000  0.80764000  0.14838000  1.0
  C  C152  1  0.84095000  0.94558000  0.64877000  1.0
  C  C153  1  0.79704000  0.19236000  0.85162000  1.0
  C  C154  1  0.26153000  0.31991000  0.41170000  1.0
  C  C155  1  0.40842000  0.84986000  0.08824000  1.0
  C  C156  1  0.73847000  0.68009000  0.58830000  1.0
  C  C157  1  0.59159000  0.15014000  0.91176000  1.0
  C  C158  1  0.04275000  0.00015000  0.48682000  1.0
  C  C159  1  0.01339000  0.55593000  0.01313000  1.0
  C  C160  1  0.95725000  0.99985000  0.51318000  1.0
  C  C161  1  0.98661000  0.44406000  0.98686000  1.0
  C  C162  1  0.01325000  0.46988000  0.30255000  1.0
  C  C163  1  0.66717000  0.71049000  0.19725000  1.0
  C  C164  1  0.98675000  0.53012000  0.69745000  1.0
  C  C165  1  0.33282000  0.28950000  0.80275000  1.0
  C  C166  1  0.30155000  0.38140000  0.56027000  1.0
  C  C167  1  0.32121000  0.74120000  0.93967000  1.0
  C  C168  1  0.69845000  0.61861000  0.43973000  1.0
  C  C169  1  0.67878000  0.25879000  0.06032000  1.0
  C  C170  1  0.20105000  0.36256000  0.50530000  1.0
  C  C171  1  0.35750000  0.69579000  0.99469000  1.0
  C  C172  1  0.79895000  0.63744000  0.49470000  1.0
  C  C173  1  0.64250000  0.30421000  0.00530000  1.0
  C  C174  1  0.09431000  0.09343000  0.46532000  1.0
  C  C175  1  0.12808000  0.62885000  0.03434000  1.0
  C  C176  1  0.90569000  0.90657000  0.53468000  1.0
  C  C177  1  0.87193000  0.37116000  0.96566000  1.0
  C  C178  1  0.14242000  0.57960000  0.28284000  1.0
  C  C179  1  0.79692000  0.85953000  0.21760000  1.0
  C  C180  1  0.85758000  0.42040000  0.71716000  1.0
  C  C181  1  0.20307000  0.14046000  0.78240000  1.0
  C  C182  1  0.14487000  0.48957000  0.27155000  1.0
  C  C183  1  0.71823000  0.87328000  0.22897000  1.0
  C  C184  1  0.85514000  0.51044000  0.72845000  1.0
  C  C185  1  0.28177000  0.12671000  0.77103000  1.0
  C  C186  1  0.27822000  0.11878000  0.50004000  1.0
  C  C187  1  0.11857000  0.77789000  0.99953000  1.0
  C  C188  1  0.72179000  0.88123000  0.49997000  1.0
  C  C189  1  0.88142000  0.22210000  0.00046000  1.0
  C  C190  1  0.32170000  0.42957000  0.15084000  1.0
  C  C191  1  0.77876000  0.17126000  0.34919000  1.0
  C  C192  1  0.67830000  0.57043000  0.84916000  1.0
  C  C193  1  0.22124000  0.82874000  0.65081000  1.0
  C  C194  1  0.14175000  0.28411000  0.04277000  1.0
  C  C195  1  0.74134000  0.09950000  0.45732000  1.0
  C  C196  1  0.85826000  0.71590000  0.95724000  1.0
  C  C197  1  0.25865000  0.90049000  0.54267000  1.0
  C  C198  1  0.22077000  0.38707000  0.07411000  1.0
  C  C199  1  0.81296000  0.14707000  0.42593000  1.0
  C  C200  1  0.77923000  0.61294000  0.92590000  1.0
  C  C201  1  0.18704000  0.85293000  0.57407000  1.0
  C  C202  1  0.40962000  0.53966000  0.18624000  1.0
  C  C203  1  0.85349000  0.22358000  0.31376000  1.0
  C  C204  1  0.59038000  0.46034000  0.81376000  1.0
  C  C205  1  0.14651000  0.77642000  0.68624000  1.0
  C  C206  1  0.94199000  0.63543000  0.23684000  1.0
  C  C207  1  0.89858000  0.70507000  0.26302000  1.0
  C  C208  1  0.05802000  0.36458000  0.76317000  1.0
  C  C209  1  0.10141000  0.29492000  0.73698000  1.0
  C  C210  1  0.02475000  0.64073000  0.32339000  1.0
  C  C211  1  0.81733000  0.70135000  0.17650000  1.0
  C  C212  1  0.97526000  0.35927000  0.67661000  1.0
  C  C213  1  0.18268000  0.29865000  0.82351000  1.0
  N  N214  1  0.17728000  0.32442000  0.41280000  1.0
  N  N215  1  0.41195000  0.76456000  0.08716000  1.0
  N  N216  1  0.82271000  0.67557000  0.58719000  1.0
  N  N217  1  0.58804000  0.23543000  0.91283000  1.0
  N  N218  1  0.24714000  0.05723000  0.35249000  1.0
  N  N219  1  0.20437000  0.89439000  0.14704000  1.0
  N  N220  1  0.75287000  0.94278000  0.64752000  1.0
  N  N221  1  0.79563000  0.10561000  0.85296000  1.0
  N  N222  1  0.33787000  0.35326000  0.49953000  1.0
  N  N223  1  0.35379000  0.83826000  0.00041000  1.0
  N  N224  1  0.66214000  0.64674000  0.50047000  1.0
  N  N225  1  0.64620000  0.16174000  0.99959000  1.0
  N  N226  1  0.17538000  0.09173000  0.43977000  1.0
  N  N227  1  0.15188000  0.73543000  0.05986000  1.0
  N  N228  1  0.82463000  0.90828000  0.56024000  1.0
  N  N229  1  0.84811000  0.26456000  0.94013000  1.0
  N  N230  1  0.06410000  0.42199000  0.28426000  1.0
  N  N231  1  0.63774000  0.77970000  0.21587000  1.0
  N  N232  1  0.93591000  0.57801000  0.71574000  1.0
  N  N233  1  0.36226000  0.22029000  0.78413000  1.0
  N  N234  1  0.05856000  0.56590000  0.30284000  1.0
  N  N235  1  0.76298000  0.75558000  0.19713000  1.0
  N  N236  1  0.94144000  0.43410000  0.69716000  1.0
  N  N237  1  0.23701000  0.24441000  0.80287000  1.0
  O  O238  1  0.98112000  0.06976000  0.21630000  1.0
  O  O239  1  0.35366000  0.76511000  0.28365000  1.0
  O  O240  1  0.01888000  0.93025000  0.78371000  1.0
  O  O241  1  0.64633000  0.23488000  0.71634000  1.0
  O  O242  1  0.04114000  0.21356000  0.18803000  1.0
  O  O243  1  0.52574000  0.85335000  0.31188000  1.0
  O  O244  1  0.95886000  0.78644000  0.81197000  1.0
  O  O245  1  0.47427000  0.14665000  0.68812000  1.0
  O  O246  1  0.24148000  0.10447000  0.17046000  1.0
  O  O247  1  0.43368000  0.07083000  0.32916000  1.0
  O  O248  1  0.75852000  0.89553000  0.82954000  1.0
  O  O249  1  0.56632000  0.92917000  0.67084000  1.0
  O  O250  1  0.36490000  0.25186000  0.29969000  1.0
  O  O251  1  0.45207000  0.06498000  0.20003000  1.0
  O  O252  1  0.63511000  0.74814000  0.70031000  1.0
  O  O253  1  0.54793000  0.93503000  0.79997000  1.0
  O  O254  1  0.50075000  0.57449000  0.25229000  1.0
  O  O255  1  0.82237000  0.24859000  0.24762000  1.0
  O  O256  1  0.49925000  0.42551000  0.74770000  1.0
  O  O257  1  0.17763000  0.75141000  0.75238000  1.0
  O  O258  1  0.38315000  0.59328000  0.14359000  1.0
  O  O259  1  0.94966000  0.23956000  0.35641000  1.0
  O  O260  1  0.61684000  0.40672000  0.85641000  1.0
  O  O261  1  0.05033000  0.76044000  0.64359000  1.0
