# generated using pymatgen
data_AgH18C24N3O4
_symmetry_space_group_name_H-M   'P 1'
_cell_length_a   7.81521000
_cell_length_b   9.60594000
_cell_length_c   13.90303359
_cell_angle_alpha   69.78342925
_cell_angle_beta   87.88941494
_cell_angle_gamma   90.01310000
_symmetry_Int_Tables_number   1
_chemical_formula_structural   AgH18C24N3O4
_chemical_formula_sum   'Ag2 H36 C48 N6 O8'
_cell_volume   978.67554565
_cell_formula_units_Z   2
loop_
 _symmetry_equiv_pos_site_id
 _symmetry_equiv_pos_as_xyz
  1  'x, y, z'
loop_
 _atom_site_type_symbol
 _atom_site_label
 _atom_site_symmetry_multiplicity
 _atom_site_fract_x
 _atom_site_fract_y
 _atom_site_fract_z
 _atom_site_occupancy
  Ag  Ag0  1  0.24900000  0.79687000  0.40241000  1.0
  Ag  Ag1  1  0.74898000  0.80050000  0.40244000  1.0
  H  H2  1  0.87668000  0.68812000  0.73723000  1.0
  H  H3  1  0.37640000  0.57432000  0.73733000  1.0
  H  H4  1  0.02362000  0.84069000  0.57311000  1.0
  H  H5  1  0.52331000  0.58577000  0.57323000  1.0
  H  H6  1  0.16274000  0.46678000  0.50540000  1.0
  H  H7  1  0.66306000  0.02735000  0.50543000  1.0
  H  H8  1  0.01131000  0.29945000  0.66277000  1.0
  H  H9  1  0.51171000  0.03742000  0.66278000  1.0
  H  H10  1  0.67792000  0.38563000  0.64280000  1.0
  H  H11  1  0.17798000  0.97100000  0.64279000  1.0
  H  H12  1  0.39186000  0.28448000  0.63971000  1.0
  H  H13  1  0.89193000  0.07522000  0.63965000  1.0
  H  H14  1  0.22393000  0.15670000  0.80386000  1.0
  H  H15  1  0.72411000  0.03910000  0.80378000  1.0
  H  H16  1  0.35155000  0.12051000  0.96974000  1.0
  H  H17  1  0.85192000  0.90982000  0.96967000  1.0
  H  H18  1  0.83517000  0.20516000  0.16913000  1.0
  H  H19  1  0.33544000  0.62564000  0.16914000  1.0
  H  H20  1  0.12044000  0.30454000  0.17216000  1.0
  H  H21  1  0.62090000  0.52378000  0.17222000  1.0
  H  H22  1  0.28635000  0.43781000  0.00706000  1.0
  H  H23  1  0.78733000  0.55640000  0.00714000  1.0
  H  H24  1  0.15446000  0.48140000  0.84163000  1.0
  H  H25  1  0.65527000  0.67808000  0.84168000  1.0
  H  H26  1  0.50020000  0.30438000  0.14952000  1.0
  H  H27  1  0.00063000  0.54603000  0.14975000  1.0
  H  H28  1  0.34354000  0.13831000  0.30576000  1.0
  H  H29  1  0.84359000  0.55596000  0.30577000  1.0
  H  H30  1  0.46637000  0.76469000  0.23459000  1.0
  H  H31  1  0.96621000  0.00085000  0.23445000  1.0
  H  H32  1  0.62189000  0.91584000  0.07237000  1.0
  H  H33  1  0.12201000  0.01196000  0.07235000  1.0
  H  H34  1  0.44537000  0.52895000  0.37918000  1.0
  H  H35  1  0.94530000  0.09211000  0.37908000  1.0
  H  H36  1  0.26959000  0.47667000  0.35124000  1.0
  H  H37  1  0.76952000  0.17226000  0.35126000  1.0
  C  C38  1  0.93138000  0.47877000  0.71515000  1.0
  C  C39  1  0.43157000  0.80574000  0.71521000  1.0
  C  C40  1  0.93678000  0.63368000  0.68798000  1.0
  C  C41  1  0.43658000  0.67799000  0.68807000  1.0
  C  C42  1  0.01928000  0.72020000  0.59669000  1.0
  C  C43  1  0.51901000  0.68270000  0.59677000  1.0
  C  C44  1  0.09541000  0.51162000  0.55801000  1.0
  C  C45  1  0.59555000  0.92994000  0.55802000  1.0
  C  C46  1  0.01189000  0.41857000  0.64707000  1.0
  C  C47  1  0.51217000  0.93398000  0.64710000  1.0
  C  C48  1  0.84248000  0.38461000  0.81235000  1.0
  C  C49  1  0.34265000  0.80283000  0.81239000  1.0
  C  C50  1  0.68198000  0.31907000  0.80945000  1.0
  C  C51  1  0.18209000  0.87111000  0.80943000  1.0
  C  C52  1  0.60655000  0.33152000  0.71491000  1.0
  C  C53  1  0.10656000  0.95300000  0.71487000  1.0
  C  C54  1  0.44645000  0.27364000  0.71293000  1.0
  C  C55  1  0.94652000  0.01289000  0.71290000  1.0
  C  C56  1  0.35255000  0.19889000  0.80603000  1.0
  C  C57  1  0.85270000  0.99470000  0.80600000  1.0
  C  C58  1  0.42357000  0.17889000  0.89861000  1.0
  C  C59  1  0.92385000  0.92237000  0.89858000  1.0
  C  C60  1  0.59004000  0.23623000  0.90430000  1.0
  C  C61  1  0.09028000  0.85933000  0.90428000  1.0
  C  C62  1  0.66393000  0.21741000  0.99905000  1.0
  C  C63  1  0.16420000  0.78359000  0.99908000  1.0
  C  C64  1  0.82567000  0.28061000  0.00197000  1.0
  C  C65  1  0.32600000  0.71758000  0.00202000  1.0
  C  C66  1  0.90348000  0.26387000  0.09658000  1.0
  C  C67  1  0.40385000  0.63967000  0.09661000  1.0
  C  C68  1  0.06464000  0.31980000  0.09843000  1.0
  C  C69  1  0.56517000  0.58221000  0.09846000  1.0
  C  C70  1  0.15696000  0.39717000  0.00523000  1.0
  C  C71  1  0.65777000  0.59851000  0.00528000  1.0
  C  C72  1  0.08370000  0.42104000  0.91280000  1.0
  C  C73  1  0.58439000  0.66695000  0.91285000  1.0
  C  C74  1  0.91675000  0.36475000  0.90712000  1.0
  C  C75  1  0.41719000  0.72846000  0.90719000  1.0
  C  C76  1  0.57364000  0.12481000  0.09607000  1.0
  C  C77  1  0.07395000  0.77918000  0.09611000  1.0
  C  C78  1  0.49575000  0.18535000  0.16475000  1.0
  C  C79  1  0.99616000  0.64989000  0.16487000  1.0
  C  C80  1  0.40893000  0.09311000  0.25289000  1.0
  C  C81  1  0.90907000  0.65402000  0.25289000  1.0
  C  C82  1  0.47738000  0.88483000  0.21214000  1.0
  C  C83  1  0.97729000  0.90313000  0.21206000  1.0
  C  C84  1  0.56348000  0.97041000  0.12203000  1.0
  C  C85  1  0.06362000  0.90767000  0.12202000  1.0
  N  N86  1  0.09970000  0.66042000  0.53288000  1.0
  N  N87  1  0.59965000  0.80623000  0.53296000  1.0
  N  N88  1  0.39820000  0.94494000  0.27625000  1.0
  N  N89  1  0.89819000  0.77886000  0.27620000  1.0
  N  N90  1  0.18288000  0.20724000  0.44100000  1.0
  N  N91  1  0.68283000  0.35187000  0.44116000  1.0
  O  O92  1  0.15357000  0.31355000  0.35809000  1.0
  O  O93  1  0.65373000  0.32858000  0.35819000  1.0
  O  O94  1  0.26439000  0.22897000  0.51067000  1.0
  O  O95  1  0.76399000  0.26032000  0.51094000  1.0
  O  O96  1  0.12903000  0.07655000  0.45158000  1.0
  O  O97  1  0.62915000  0.47205000  0.45169000  1.0
  O  O98  1  0.33715000  0.56719000  0.34492000  1.0
  O  O99  1  0.83701000  0.08810000  0.34487000  1.0
