# generated using pymatgen
data_K2H20C12S2N4O7
_symmetry_space_group_name_H-M   'P 1'
_cell_length_a   7.44154000
_cell_length_b   10.83860000
_cell_length_c   13.03670000
_cell_angle_alpha   114.56900000
_cell_angle_beta   90.00000000
_cell_angle_gamma   90.00000000
_symmetry_Int_Tables_number   1
_chemical_formula_structural   K2H20C12S2N4O7
_chemical_formula_sum   'K4 H40 C24 S4 N8 O14'
_cell_volume   956.28613570
_cell_formula_units_Z   2
loop_
 _symmetry_equiv_pos_site_id
 _symmetry_equiv_pos_as_xyz
  1  'x, y, z'
loop_
 _atom_site_type_symbol
 _atom_site_label
 _atom_site_symmetry_multiplicity
 _atom_site_fract_x
 _atom_site_fract_y
 _atom_site_fract_z
 _atom_site_occupancy
  K  K0  1  0.39451000  0.11767000  0.00006000  1.0
  K  K1  1  0.89451000  0.88233000  0.99994000  1.0
  K  K2  1  0.74533000  0.45266000  0.99995000  1.0
  K  K3  1  0.24533000  0.54735000  0.00005000  1.0
  H  H4  1  0.02494000  0.19459000  0.18678000  1.0
  H  H5  1  0.52494000  0.80541000  0.81323000  1.0
  H  H6  1  0.52502000  0.99219000  0.18679000  1.0
  H  H7  1  0.02502000  0.00781000  0.81322000  1.0
  H  H8  1  0.55748000  0.55825000  0.72312000  1.0
  H  H9  1  0.05748000  0.44175000  0.27688000  1.0
  H  H10  1  0.05752000  0.16488000  0.72309000  1.0
  H  H11  1  0.55752000  0.83512000  0.27691000  1.0
  H  H12  1  0.72666000  0.45688000  0.73102000  1.0
  H  H13  1  0.22666000  0.54312000  0.26898000  1.0
  H  H14  1  0.22667000  0.27419000  0.73106000  1.0
  H  H15  1  0.72668000  0.72581000  0.26894000  1.0
  H  H16  1  0.83978000  0.14444000  0.35634000  1.0
  H  H17  1  0.33978000  0.85556000  0.64366000  1.0
  H  H18  1  0.33979000  0.21191000  0.35632000  1.0
  H  H19  1  0.83979000  0.78809000  0.64368000  1.0
  H  H20  1  0.78967000  0.23496000  0.56111000  1.0
  H  H21  1  0.28967000  0.76505000  0.43889000  1.0
  H  H22  1  0.28976000  0.32625000  0.56112000  1.0
  H  H23  1  0.78977000  0.67375000  0.43888000  1.0
  H  H24  1  0.48573000  0.56745000  0.54927000  1.0
  H  H25  1  0.98573000  0.43255000  0.45073000  1.0
  H  H26  1  0.98580000  0.98192000  0.54930000  1.0
  H  H27  1  0.48580000  0.01808000  0.45070000  1.0
  H  H28  1  0.53225000  0.47599000  0.34408000  1.0
  H  H29  1  0.03225000  0.52401000  0.65592000  1.0
  H  H30  1  0.03233000  0.86811000  0.34412000  1.0
  H  H31  1  0.53233000  0.13189000  0.65588000  1.0
  H  H32  1  0.98744000  0.37158000  0.76277000  1.0
  H  H33  1  0.48744000  0.62842000  0.23723000  1.0
  H  H34  1  0.48741000  0.39120000  0.76280000  1.0
  H  H35  1  0.98741000  0.60880000  0.23720000  1.0
  H  H36  1  0.99839000  0.53279000  0.81906000  1.0
  H  H37  1  0.49839000  0.46721000  0.18094000  1.0
  H  H38  1  0.49836000  0.28629000  0.81908000  1.0
  H  H39  1  0.99837000  0.71371000  0.18092000  1.0
  H  H40  1  0.04381000  0.29822000  0.06608000  1.0
  H  H41  1  0.54381000  0.70178000  0.93392000  1.0
  H  H42  1  0.54387000  0.76781000  0.06603000  1.0
  H  H43  1  0.04387000  0.23219000  0.93397000  1.0
  C  C44  1  0.69011000  0.30471000  0.33611000  1.0
  C  C45  1  0.19011000  0.69529000  0.66390000  1.0
  C  C46  1  0.19020000  0.03140000  0.33613000  1.0
  C  C47  1  0.69020000  0.96860000  0.66386000  1.0
  C  C48  1  0.76122000  0.23688000  0.39813000  1.0
  C  C49  1  0.26122000  0.76312000  0.60187000  1.0
  C  C50  1  0.26129000  0.16127000  0.39814000  1.0
  C  C51  1  0.76129000  0.83873000  0.60186000  1.0
  C  C52  1  0.73445000  0.28857000  0.51384000  1.0
  C  C53  1  0.23445000  0.71143000  0.48616000  1.0
  C  C54  1  0.23454000  0.22533000  0.51385000  1.0
  C  C55  1  0.73454000  0.77467000  0.48615000  1.0
  C  C56  1  0.63719000  0.40962000  0.57069000  1.0
  C  C57  1  0.13719000  0.59038000  0.42931000  1.0
  C  C58  1  0.13725000  0.16116000  0.57070000  1.0
  C  C59  1  0.63725000  0.83884000  0.42930000  1.0
  C  C60  1  0.56222000  0.47425000  0.50708000  1.0
  C  C61  1  0.06222000  0.52575000  0.49292000  1.0
  C  C62  1  0.06228000  0.03291000  0.50709000  1.0
  C  C63  1  0.56228000  0.96709000  0.49291000  1.0
  C  C64  1  0.58895000  0.42263000  0.39110000  1.0
  C  C65  1  0.08895000  0.57737000  0.60890000  1.0
  C  C66  1  0.08902000  0.96849000  0.39112000  1.0
  C  C67  1  0.58902000  0.03151000  0.60888000  1.0
  S  S68  1  0.74674000  0.24476000  0.19093000  1.0
  S  S69  1  0.24674000  0.75524000  0.80907000  1.0
  S  S70  1  0.24682000  0.94611000  0.19095000  1.0
  S  S71  1  0.74682000  0.05389000  0.80905000  1.0
  N  N72  1  0.94927000  0.26991000  0.17896000  1.0
  N  N73  1  0.44927000  0.73009000  0.82105000  1.0
  N  N74  1  0.44938000  0.90905000  0.17900000  1.0
  N  N75  1  0.94938000  0.09095000  0.82100000  1.0
  N  N76  1  0.61308000  0.46205000  0.68728000  1.0
  N  N77  1  0.11308000  0.53795000  0.31272000  1.0
  N  N78  1  0.11310000  0.22530000  0.68730000  1.0
  N  N79  1  0.61310000  0.77470000  0.31270000  1.0
  O  O80  1  0.69460000  0.09955000  0.14065000  1.0
  O  O81  1  0.19460000  0.90045000  0.85935000  1.0
  O  O82  1  0.19458000  0.04096000  0.14062000  1.0
  O  O83  1  0.69458000  0.95904000  0.85938000  1.0
  O  O84  1  0.63910000  0.32626000  0.14596000  1.0
  O  O85  1  0.13910000  0.67374000  0.85404000  1.0
  O  O86  1  0.13928000  0.81958000  0.14602000  1.0
  O  O87  1  0.63928000  0.18042000  0.85398000  1.0
  O  O88  1  0.92506000  0.45599000  0.81733000  1.0
  O  O89  1  0.42506000  0.54401000  0.18267000  1.0
  O  O90  1  0.42506000  0.36139000  0.81738000  1.0
  O  O91  1  0.92506000  0.63860000  0.18262000  1.0
  O  O92  1  0.10283000  0.30667000  0.00004000  1.0
  O  O93  1  0.60283000  0.69333000  0.99996000  1.0
