# generated using pymatgen
data_ZnH11C17N3O4F3
_symmetry_space_group_name_H-M   'P 1'
_cell_length_a   11.22610000
_cell_length_b   16.08480000
_cell_length_c   17.24130000
_cell_angle_alpha   84.61230000
_cell_angle_beta   87.10070000
_cell_angle_gamma   89.55020000
_symmetry_Int_Tables_number   1
_chemical_formula_structural   ZnH11C17N3O4F3
_chemical_formula_sum   'Zn2 H22 C34 N6 O8 F6'
_cell_volume   3095.51778318
_cell_formula_units_Z   2
loop_
 _symmetry_equiv_pos_site_id
 _symmetry_equiv_pos_as_xyz
  1  'x, y, z'
loop_
 _atom_site_type_symbol
 _atom_site_label
 _atom_site_symmetry_multiplicity
 _atom_site_fract_x
 _atom_site_fract_y
 _atom_site_fract_z
 _atom_site_occupancy
  Zn  Zn0  1  0.49901000  0.58783000  0.50032000  1.0
  Zn  Zn1  1  0.49902000  0.41269000  0.50391000  1.0
  H  H2  1  0.11810000  0.37587000  0.50589000  1.0
  H  H3  1  0.40171000  0.58611000  0.89452000  1.0
  H  H4  1  0.41106000  0.64536000  0.10687000  1.0
  H  H5  1  0.41565000  0.63844000  0.25365000  1.0
  H  H6  1  0.78611000  0.69339000  0.49582000  1.0
  H  H7  1  0.85988000  0.70579000  0.40206000  1.0
  H  H8  1  0.82022000  0.79561000  0.45050000  1.0
  H  H9  1  0.64571000  0.67137000  0.39006000  1.0
  H  H10  1  0.67692000  0.77348000  0.34608000  1.0
  H  H11  1  0.83743000  0.35059000  0.68255000  1.0
  H  H12  1  0.77382000  0.45185000  0.67035000  1.0
  H  H13  1  0.58768000  0.40739000  0.10968000  1.0
  H  H14  1  0.83270000  0.41499000  0.76110000  1.0
  H  H15  1  0.67323000  0.30440000  0.78103000  1.0
  H  H16  1  0.61466000  0.34083000  0.69033000  1.0
  H  H17  1  0.58787000  0.39917000  0.25614000  1.0
  H  H18  1  0.63370000  0.29414000  0.41451000  1.0
  H  H19  1  0.35632000  0.70228000  0.57935000  1.0
  H  H20  1  0.32381000  0.85735000  0.58488000  1.0
  H  H21  1  0.89911000  0.36581000  0.51620000  1.0
  H  H22  1  0.89383000  0.55733000  0.48600000  1.0
  H  H23  1  0.39535000  0.58899000  0.74875000  1.0
  C  C24  1  0.50012000  0.51181000  0.35037000  1.0
  C  C25  1  0.51321000  0.48380000  0.74071000  1.0
  C  C26  1  0.58402000  0.42227000  0.78015000  1.0
  C  C27  1  0.73121000  0.48409000  0.49692000  1.0
  C  C28  1  0.58738000  0.42457000  0.86091000  1.0
  C  C29  1  0.42321000  0.23078000  0.54476000  1.0
  C  C30  1  0.42616000  0.14394000  0.54367000  1.0
  C  C31  1  0.51070000  0.10814000  0.49380000  1.0
  C  C32  1  0.58606000  0.16460000  0.44698000  1.0
  C  C33  1  0.57644000  0.24992000  0.45034000  1.0
  C  C34  1  0.56129000  0.85536000  0.45589000  1.0
  C  C35  1  0.55008000  0.45295000  0.22267000  1.0
  C  C36  1  0.57361000  0.76884000  0.45299000  1.0
  C  C37  1  0.47189000  0.88942000  0.50341000  1.0
  C  C38  1  0.41316000  0.74825000  0.54531000  1.0
  C  C39  1  0.50451000  0.49131000  0.65365000  1.0
  C  C40  1  0.39546000  0.83312000  0.54834000  1.0
  C  C41  1  0.26718000  0.50230000  0.50953000  1.0
  C  C42  1  0.06628000  0.43330000  0.50794000  1.0
  C  C43  1  0.13402000  0.50178000  0.51139000  1.0
  C  C44  1  0.93803000  0.42831000  0.50753000  1.0
  C  C45  1  0.86199000  0.49340000  0.49607000  1.0
  C  C46  1  0.54985000  0.45707000  0.14208000  1.0
  C  C47  1  0.50138000  0.51819000  0.26320000  1.0
  C  C48  1  0.67055000  0.73449000  0.40199000  1.0
  C  C49  1  0.79152000  0.73264000  0.44022000  1.0
  C  C50  1  0.66091000  0.36001000  0.74013000  1.0
  C  C51  1  0.78331000  0.39657000  0.71205000  1.0
  C  C52  1  0.49846000  0.52673000  0.10041000  1.0
  C  C53  1  0.45036000  0.59226000  0.14061000  1.0
  C  C54  1  0.45269000  0.58828000  0.22149000  1.0
  C  C55  1  0.45247000  0.54186000  0.86181000  1.0
  C  C56  1  0.44876000  0.54266000  0.78175000  1.0
  C  C57  1  0.52380000  0.48258000  0.90336000  1.0
  N  N58  1  0.48970000  0.53584000  0.01858000  1.0
  N  N59  1  0.53540000  0.47579000  0.98432000  1.0
  N  N60  1  0.49506000  0.28156000  0.49993000  1.0
  N  N61  1  0.53498000  0.02265000  0.49148000  1.0
  N  N62  1  0.44582000  0.97507000  0.50570000  1.0
  N  N63  1  0.49941000  0.71723000  0.49856000  1.0
  O  O64  1  0.47735000  0.57824000  0.38349000  1.0
  O  O65  1  0.52146000  0.44015000  0.38533000  1.0
  O  O66  1  0.67374000  0.55318000  0.48748000  1.0
  O  O67  1  0.68400000  0.41171000  0.50711000  1.0
  O  O68  1  0.51129000  0.56499000  0.61978000  1.0
  O  O69  1  0.48932000  0.42474000  0.62073000  1.0
  O  O70  1  0.31634000  0.57101000  0.51964000  1.0
  O  O71  1  0.31853000  0.43366000  0.49708000  1.0
  F  F72  1  0.65797000  0.36799000  0.90060000  1.0
  F  F73  1  0.63486000  0.90535000  0.40830000  1.0
  F  F74  1  0.66795000  0.13413000  0.39730000  1.0
  F  F75  1  0.35197000  0.09729000  0.59289000  1.0
  F  F76  1  0.08361000  0.57818000  0.51718000  1.0
  F  F77  1  0.34401000  0.26457000  0.59325000  1.0
