# generated using pymatgen
data_ZnH9C14NO5
_symmetry_space_group_name_H-M   'P 1'
_cell_length_a   8.79009000
_cell_length_b   10.14830000
_cell_length_c   15.45000000
_cell_angle_alpha   89.99970000
_cell_angle_beta   89.99960000
_cell_angle_gamma   89.99990000
_symmetry_Int_Tables_number   1
_chemical_formula_structural   ZnH9C14NO5
_chemical_formula_sum   'Zn4 H36 C56 N4 O20'
_cell_volume   1378.20906681
_cell_formula_units_Z   4
loop_
 _symmetry_equiv_pos_site_id
 _symmetry_equiv_pos_as_xyz
  1  'x, y, z'
loop_
 _atom_site_type_symbol
 _atom_site_label
 _atom_site_symmetry_multiplicity
 _atom_site_fract_x
 _atom_site_fract_y
 _atom_site_fract_z
 _atom_site_occupancy
  Zn  Zn0  1  0.26947000  0.36141000  0.08988000  1.0
  Zn  Zn1  1  0.26947000  0.63859000  0.91012000  1.0
  Zn  Zn2  1  0.73053000  0.13858000  0.58988000  1.0
  Zn  Zn3  1  0.73053000  0.86141000  0.41012000  1.0
  H  H4  1  0.25493000  0.87559000  0.06790000  1.0
  H  H5  1  0.25493000  0.12441000  0.93210000  1.0
  H  H6  1  0.74507000  0.62441000  0.56790000  1.0
  H  H7  1  0.74507000  0.37559000  0.43210000  1.0
  H  H8  1  0.63347000  0.08274000  0.17778000  1.0
  H  H9  1  0.63347000  0.91725000  0.82222000  1.0
  H  H10  1  0.36653000  0.41725000  0.67777000  1.0
  H  H11  1  0.36652000  0.58274000  0.32223000  1.0
  H  H12  1  0.62695000  0.65618000  0.17976000  1.0
  H  H13  1  0.62694000  0.34382000  0.82024000  1.0
  H  H14  1  0.37306000  0.84382000  0.67976000  1.0
  H  H15  1  0.37306000  0.15618000  0.32024000  1.0
  H  H16  1  0.81005000  0.05171000  0.26440000  1.0
  H  H17  1  0.81005000  0.94829000  0.73560000  1.0
  H  H18  1  0.18995000  0.44829000  0.76440000  1.0
  H  H19  1  0.18995000  0.55171000  0.23561000  1.0
  H  H20  1  0.92717000  0.99978000  0.17565000  1.0
  H  H21  1  0.92718000  0.00022000  0.82434000  1.0
  H  H22  1  0.07282000  0.50022000  0.67565000  1.0
  H  H23  1  0.07282000  0.49978000  0.32435000  1.0
  H  H24  1  0.18262000  0.97300000  0.21502000  1.0
  H  H25  1  0.18262000  0.02700000  0.78497000  1.0
  H  H26  1  0.81738000  0.52700000  0.71502000  1.0
  H  H27  1  0.81739000  0.47299000  0.28498000  1.0
  H  H28  1  0.38150000  0.89227000  0.32173000  1.0
  H  H29  1  0.38150000  0.10772000  0.67826000  1.0
  H  H30  1  0.61850000  0.60772000  0.82173000  1.0
  H  H31  1  0.61850000  0.39228000  0.17827000  1.0
  H  H32  1  0.29407000  0.80713000  0.46515000  1.0
  H  H33  1  0.29407000  0.19289000  0.53485000  1.0
  H  H34  1  0.70593000  0.69288000  0.96515000  1.0
  H  H35  1  0.70593000  0.30713000  0.03485000  1.0
  H  H36  1  0.01272000  0.80633000  0.49756000  1.0
  H  H37  1  0.01273000  0.19368000  0.50244000  1.0
  H  H38  1  0.98727000  0.69368000  0.99756000  1.0
  H  H39  1  0.98727000  0.30633000  0.00244000  1.0
  C  C40  1  0.35489000  0.62859000  0.09301000  1.0
  C  C41  1  0.35489000  0.37141000  0.90699000  1.0
  C  C42  1  0.64511000  0.87141000  0.59301000  1.0
  C  C43  1  0.64511000  0.12859000  0.40699000  1.0
  C  C44  1  0.43451000  0.75218000  0.11897000  1.0
  C  C45  1  0.43451000  0.24781000  0.88103000  1.0
  C  C46  1  0.56549000  0.74782000  0.61897000  1.0
  C  C47  1  0.56549000  0.25218000  0.38103000  1.0
  C  C48  1  0.36496000  0.87277000  0.10003000  1.0
  C  C49  1  0.36496000  0.12723000  0.89997000  1.0
  C  C50  1  0.63505000  0.62723000  0.60003000  1.0
  C  C51  1  0.63504000  0.37277000  0.39997000  1.0
  C  C52  1  0.43629000  0.99040000  0.12288000  1.0
  C  C53  1  0.43629000  0.00960000  0.87712000  1.0
  C  C54  1  0.56371000  0.50960000  0.62288000  1.0
  C  C55  1  0.56371000  0.49040000  0.37712000  1.0
  C  C56  1  0.58004000  0.98907000  0.16209000  1.0
  C  C57  1  0.58004000  0.01092000  0.83791000  1.0
  C  C58  1  0.41996000  0.51092000  0.66209000  1.0
  C  C59  1  0.41996000  0.48908000  0.33791000  1.0
  C  C60  1  0.64703000  0.86810000  0.18286000  1.0
  C  C61  1  0.64703000  0.13190000  0.81714000  1.0
  C  C62  1  0.35297000  0.63190000  0.68286000  1.0
  C  C63  1  0.35297000  0.36810000  0.31715000  1.0
  C  C64  1  0.57422000  0.74945000  0.16214000  1.0
  C  C65  1  0.57422000  0.25055000  0.83786000  1.0
  C  C66  1  0.42579000  0.75054000  0.66213000  1.0
  C  C67  1  0.42578000  0.24945000  0.33787000  1.0
  C  C68  1  0.87696000  0.96937000  0.23779000  1.0
  C  C69  1  0.87696000  0.03063000  0.76221000  1.0
  C  C70  1  0.12304000  0.53063000  0.73779000  1.0
  C  C71  1  0.12304000  0.46937000  0.26221000  1.0
  C  C72  1  0.99872000  0.92915000  0.30067000  1.0
  C  C73  1  0.99872000  0.07085000  0.69933000  1.0
  C  C74  1  0.00128000  0.57085000  0.80067000  1.0
  C  C75  1  0.00128000  0.42915000  0.19933000  1.0
  C  C76  1  0.15193000  0.93494000  0.27857000  1.0
  C  C77  1  0.15193000  0.06506000  0.72143000  1.0
  C  C78  1  0.84807000  0.56506000  0.77856000  1.0
  C  C79  1  0.84807000  0.43493000  0.22144000  1.0
  C  C80  1  0.26079000  0.89076000  0.33759000  1.0
  C  C81  1  0.26080000  0.10924000  0.66241000  1.0
  C  C82  1  0.73921000  0.60924000  0.83759000  1.0
  C  C83  1  0.73921000  0.39076000  0.16241000  1.0
  C  C84  1  0.21242000  0.84352000  0.41780000  1.0
  C  C85  1  0.21243000  0.15648000  0.58220000  1.0
  C  C86  1  0.78757000  0.65648000  0.91780000  1.0
  C  C87  1  0.78758000  0.34353000  0.08220000  1.0
  C  C88  1  0.05738000  0.84199000  0.43608000  1.0
  C  C89  1  0.05738000  0.15802000  0.56392000  1.0
  C  C90  1  0.94262000  0.65802000  0.93608000  1.0
  C  C91  1  0.94261000  0.34199000  0.06392000  1.0
  C  C92  1  0.35132000  0.11664000  0.10946000  1.0
  C  C93  1  0.35131000  0.88336000  0.89054000  1.0
  C  C94  1  0.64868000  0.38336000  0.60946000  1.0
  C  C95  1  0.64868000  0.61664000  0.39054000  1.0
  N  N96  1  0.95266000  0.88365000  0.37854000  1.0
  N  N97  1  0.95266000  0.11636000  0.62145000  1.0
  N  N98  1  0.04734000  0.61636000  0.87854000  1.0
  N  N99  1  0.04734000  0.38365000  0.12146000  1.0
  O  O100  1  0.24250000  0.63687000  0.04088000  1.0
  O  O101  1  0.24250000  0.36312000  0.95912000  1.0
  O  O102  1  0.75750000  0.86313000  0.54088000  1.0
  O  O103  1  0.75750000  0.13687000  0.45912000  1.0
  O  O104  1  0.39913000  0.51882000  0.12517000  1.0
  O  O105  1  0.39913000  0.48118000  0.87483000  1.0
  O  O106  1  0.60087000  0.98118000  0.62516000  1.0
  O  O107  1  0.60087000  0.01882000  0.37484000  1.0
  O  O108  1  0.78234000  0.85482000  0.22649000  1.0
  O  O109  1  0.78234000  0.14517000  0.77351000  1.0
  O  O110  1  0.21766000  0.64518000  0.72648000  1.0
  O  O111  1  0.21766000  0.35482000  0.27352000  1.0
  O  O112  1  0.20966000  0.11358000  0.09862000  1.0
  O  O113  1  0.20966000  0.88642000  0.90138000  1.0
  O  O114  1  0.79035000  0.38641000  0.59862000  1.0
  O  O115  1  0.79033000  0.61358000  0.40138000  1.0
  O  O116  1  0.42861000  0.22568000  0.11164000  1.0
  O  O117  1  0.42861000  0.77432000  0.88837000  1.0
  O  O118  1  0.57139000  0.27432000  0.61163000  1.0
  O  O119  1  0.57138000  0.72568000  0.38837000  1.0
