# generated using pymatgen
data_ZnH46C44(NO3)2
_symmetry_space_group_name_H-M   'P 1'
_cell_length_a   8.57048000
_cell_length_b   10.70250000
_cell_length_c   10.99350000
_cell_angle_alpha   81.80380000
_cell_angle_beta   69.59980000
_cell_angle_gamma   78.45820000
_symmetry_Int_Tables_number   1
_chemical_formula_structural   ZnH46C44(NO3)2
_chemical_formula_sum   'Zn1 H46 C44 N2 O6'
_cell_volume   923.11223793
_cell_formula_units_Z   1
loop_
 _symmetry_equiv_pos_site_id
 _symmetry_equiv_pos_as_xyz
  1  'x, y, z'
loop_
 _atom_site_type_symbol
 _atom_site_label
 _atom_site_symmetry_multiplicity
 _atom_site_fract_x
 _atom_site_fract_y
 _atom_site_fract_z
 _atom_site_occupancy
  Zn  Zn0  1  0.00000000  0.00000000  0.50000000  1.0
  H  H1  1  0.50136000  0.23774000  0.41685000  1.0
  H  H2  1  0.49864000  0.76226000  0.58315000  1.0
  H  H3  1  0.56208000  0.18418000  0.26073000  1.0
  H  H4  1  0.43792000  0.81582000  0.73928000  1.0
  H  H5  1  0.74728000  0.35075000  0.35015000  1.0
  H  H6  1  0.25273000  0.64925000  0.64985000  1.0
  H  H7  1  0.60506000  0.54560000  0.40293000  1.0
  H  H8  1  0.39493000  0.45441000  0.59708000  1.0
  H  H9  1  0.37945000  0.73114000  0.39571000  1.0
  H  H10  1  0.62054000  0.26887000  0.60429000  1.0
  H  H11  1  0.21332000  0.73668000  0.24963000  1.0
  H  H12  1  0.78668000  0.26332000  0.75037000  1.0
  H  H13  1  0.27457000  0.55740000  0.10909000  1.0
  H  H14  1  0.72543000  0.44259000  0.89090000  1.0
  H  H15  1  0.49750000  0.37276000  0.11723000  1.0
  H  H16  1  0.50251000  0.62724000  0.88277000  1.0
  H  H17  1  0.73646000  0.20540000  0.05867000  1.0
  H  H18  1  0.26354000  0.79459000  0.94133000  1.0
  H  H19  1  0.98201000  0.18502000  0.85634000  1.0
  H  H20  1  0.01798000  0.81498000  0.14366000  1.0
  H  H21  1  0.23692000  0.27747000  0.83142000  1.0
  H  H22  1  0.76307000  0.72254000  0.16857000  1.0
  H  H23  1  0.24590000  0.38768000  0.01233000  1.0
  H  H24  1  0.75410000  0.61232000  0.98766000  1.0
  H  H25  1  0.99948000  0.40908000  0.21583000  1.0
  H  H26  1  0.00053000  0.59092000  0.78416000  1.0
  H  H27  1  0.98939000  0.96968000  0.78240000  1.0
  H  H28  1  0.01061000  0.03033000  0.21760000  1.0
  H  H29  1  0.78096000  0.97659000  0.00225000  1.0
  H  H30  1  0.21905000  0.02342000  0.99774000  1.0
  H  H31  1  0.39343000  0.01848000  0.82172000  1.0
  H  H32  1  0.60657000  0.98152000  0.17829000  1.0
  H  H33  1  0.61787000  0.00574000  0.61287000  1.0
  H  H34  1  0.38212000  0.99425000  0.38713000  1.0
  H  H35  1  0.18521000  0.45132000  0.47768000  1.0
  H  H36  1  0.81480000  0.54868000  0.52232000  1.0
  H  H37  1  0.25397000  0.32227000  0.57816000  1.0
  H  H38  1  0.74604000  0.67773000  0.42184000  1.0
  H  H39  1  0.04151000  0.40123000  0.63109000  1.0
  H  H40  1  0.95850000  0.59877000  0.36892000  1.0
  H  H41  1  0.98593000  0.31429000  0.45315000  1.0
  H  H42  1  0.01408000  0.68571000  0.54685000  1.0
  H  H43  1  0.20225000  0.24792000  0.38798000  1.0
  H  H44  1  0.79775000  0.75208000  0.61202000  1.0
  H  H45  1  0.15985000  0.11582000  0.59326000  1.0
  H  H46  1  0.84015000  0.88417000  0.40674000  1.0
  C  C47  1  0.72380000  0.09923000  0.37320000  1.0
  C  C48  1  0.27620000  0.90077000  0.62681000  1.0
  C  C49  1  0.61154000  0.21290000  0.33014000  1.0
  C  C50  1  0.38847000  0.78710000  0.66986000  1.0
  C  C51  1  0.69819000  0.33126000  0.27595000  1.0
  C  C52  1  0.30182000  0.66874000  0.72405000  1.0
  C  C53  1  0.56790000  0.44654000  0.26102000  1.0
  C  C54  1  0.43210000  0.55346000  0.73898000  1.0
  C  C55  1  0.53352000  0.54924000  0.33738000  1.0
  C  C56  1  0.46647000  0.45076000  0.66262000  1.0
  C  C57  1  0.40745000  0.65338000  0.33323000  1.0
  C  C58  1  0.59254000  0.34662000  0.66677000  1.0
  C  C59  1  0.31381000  0.65658000  0.25098000  1.0
  C  C60  1  0.68619000  0.34342000  0.74902000  1.0
  C  C61  1  0.34756000  0.55517000  0.17340000  1.0
  C  C62  1  0.65244000  0.44482000  0.82660000  1.0
  C  C63  1  0.47338000  0.45104000  0.17843000  1.0
  C  C64  1  0.52662000  0.54896000  0.82157000  1.0
  C  C65  1  0.84908000  0.31036000  0.15215000  1.0
  C  C66  1  0.15091000  0.68964000  0.84785000  1.0
  C  C67  1  0.84731000  0.24605000  0.05003000  1.0
  C  C68  1  0.15269000  0.75395000  0.94997000  1.0
  C  C69  1  0.98580000  0.23421000  0.93536000  1.0
  C  C70  1  0.01419000  0.76579000  0.06464000  1.0
  C  C71  1  0.12915000  0.28575000  0.92098000  1.0
  C  C72  1  0.87084000  0.71425000  0.07901000  1.0
  C  C73  1  0.13391000  0.34778000  0.02284000  1.0
  C  C74  1  0.86608000  0.65223000  0.97715000  1.0
  C  C75  1  0.99534000  0.35970000  0.13692000  1.0
  C  C76  1  0.00466000  0.64030000  0.86307000  1.0
  C  C77  1  0.85560000  0.98003000  0.79594000  1.0
  C  C78  1  0.14439000  0.01998000  0.20405000  1.0
  C  C79  1  0.73682000  0.98477000  0.91956000  1.0
  C  C80  1  0.26318000  0.01524000  0.08044000  1.0
  C  C81  1  0.56494000  0.99789000  0.93504000  1.0
  C  C82  1  0.43506000  0.00211000  0.06496000  1.0
  C  C83  1  0.52268000  0.00651000  0.82154000  1.0
  C  C84  1  0.47732000  0.99348000  0.17846000  1.0
  C  C85  1  0.64952000  0.00028000  0.70145000  1.0
  C  C86  1  0.35047000  0.99972000  0.29855000  1.0
  C  C87  1  0.14725000  0.36819000  0.54530000  1.0
  C  C88  1  0.85276000  0.63181000  0.45470000  1.0
  C  C89  1  0.09970000  0.27390000  0.47896000  1.0
  C  C90  1  0.90030000  0.72611000  0.52105000  1.0
  N  N91  1  0.81371000  0.98734000  0.68786000  1.0
  N  N92  1  0.18629000  0.01266000  0.31214000  1.0
  O  O93  1  0.71171000  0.98727000  0.35452000  1.0
  O  O94  1  0.28829000  0.01273000  0.64548000  1.0
  O  O95  1  0.82078000  0.12521000  0.42840000  1.0
  O  O96  1  0.17922000  0.87479000  0.57160000  1.0
  O  O97  1  0.06043000  0.16124000  0.56424000  1.0
  O  O98  1  0.93957000  0.83876000  0.43576000  1.0
