# generated using pymatgen
data_CuH17C18N2ClO3
_symmetry_space_group_name_H-M   'P 1'
_cell_length_a   7.73519000
_cell_length_b   11.39160000
_cell_length_c   11.39140000
_cell_angle_alpha   112.44800000
_cell_angle_beta   103.58100000
_cell_angle_gamma   103.57900000
_symmetry_Int_Tables_number   1
_chemical_formula_structural   CuH17C18N2ClO3
_chemical_formula_sum   'Cu2 H34 C36 N4 Cl2 O6'
_cell_volume   840.90606427
_cell_formula_units_Z   2
loop_
 _symmetry_equiv_pos_site_id
 _symmetry_equiv_pos_as_xyz
  1  'x, y, z'
loop_
 _atom_site_type_symbol
 _atom_site_label
 _atom_site_symmetry_multiplicity
 _atom_site_fract_x
 _atom_site_fract_y
 _atom_site_fract_z
 _atom_site_occupancy
  Cu  Cu0  1  0.50222000  0.84986000  0.89791000  1.0
  Cu  Cu1  1  0.00223000  0.89790000  0.84986000  1.0
  H  H2  1  0.84310000  0.95624000  0.16516000  1.0
  H  H3  1  0.34311000  0.16515000  0.95623000  1.0
  H  H4  1  0.91711000  0.87733000  0.34422000  1.0
  H  H5  1  0.41711000  0.34418000  0.87731000  1.0
  H  H6  1  0.68108000  0.66388000  0.31159000  1.0
  H  H7  1  0.18107000  0.31156000  0.66385000  1.0
  H  H8  1  0.37782000  0.54131000  0.10631000  1.0
  H  H9  1  0.87780000  0.10629000  0.54130000  1.0
  H  H10  1  0.22427000  0.51117000  0.86241000  1.0
  H  H11  1  0.72424000  0.86242000  0.51117000  1.0
  H  H12  1  0.16002000  0.65151000  0.94664000  1.0
  H  H13  1  0.66002000  0.94665000  0.65153000  1.0
  H  H14  1  0.06330000  0.51341000  0.66407000  1.0
  H  H15  1  0.56329000  0.66408000  0.51341000  1.0
  H  H16  1  0.34427000  0.03837000  0.66579000  1.0
  H  H17  1  0.84426000  0.66580000  0.03837000  1.0
  H  H18  1  0.35125000  0.14070000  0.50889000  1.0
  H  H19  1  0.85127000  0.50891000  0.14072000  1.0
  H  H20  1  0.28861000  0.99009000  0.26210000  1.0
  H  H21  1  0.78868000  0.26212000  0.99012000  1.0
  H  H22  1  0.22043000  0.74457000  0.18080000  1.0
  H  H23  1  0.72051000  0.18083000  0.74460000  1.0
  H  H24  1  0.21189000  0.64289000  0.33717000  1.0
  H  H25  1  0.71193000  0.33718000  0.64289000  1.0
  H  H26  1  0.80920000  0.31748000  0.22874000  1.0
  H  H27  1  0.30920000  0.22874000  0.31746000  1.0
  H  H28  1  0.65736000  0.37594000  0.31419000  1.0
  H  H29  1  0.15736000  0.31419000  0.37593000  1.0
  H  H30  1  0.83497000  0.16755000  0.34301000  1.0
  H  H31  1  0.33495000  0.34302000  0.16754000  1.0
  H  H32  1  0.59615000  0.12413000  0.23879000  1.0
  H  H33  1  0.09614000  0.23880000  0.12412000  1.0
  H  H34  1  0.67062000  0.21855000  0.41922000  1.0
  H  H35  1  0.17062000  0.41923000  0.21854000  1.0
  C  C36  1  0.74415000  0.86726000  0.16020000  1.0
  C  C37  1  0.24415000  0.16019000  0.86725000  1.0
  C  C38  1  0.78264000  0.82243000  0.25774000  1.0
  C  C39  1  0.28263000  0.25772000  0.82242000  1.0
  C  C40  1  0.65011000  0.70404000  0.23966000  1.0
  C  C41  1  0.15010000  0.23964000  0.70404000  1.0
  C  C42  1  0.48387000  0.63485000  0.12490000  1.0
  C  C43  1  0.98386000  0.12489000  0.63484000  1.0
  C  C44  1  0.45269000  0.68631000  0.03197000  1.0
  C  C45  1  0.95268000  0.03197000  0.68632000  1.0
  C  C46  1  0.27240000  0.62313000  0.91085000  1.0
  C  C47  1  0.77239000  0.91085000  0.62313000  1.0
  C  C48  1  0.17189000  0.61082000  0.69245000  1.0
  C  C49  1  0.67188000  0.69245000  0.61082000  1.0
  C  C50  1  0.15409000  0.65453000  0.59003000  1.0
  C  C51  1  0.65410000  0.59003000  0.65453000  1.0
  C  C52  1  0.27714000  0.78303000  0.61578000  1.0
  C  C53  1  0.77715000  0.61578000  0.78304000  1.0
  C  C54  1  0.27140000  0.83368000  0.51209000  1.0
  C  C55  1  0.77142000  0.51210000  0.83368000  1.0
  C  C56  1  0.31475000  0.97430000  0.55873000  1.0
  C  C57  1  0.81475000  0.55874000  0.97430000  1.0
  C  C58  1  0.32120000  0.03154000  0.47056000  1.0
  C  C59  1  0.82123000  0.47058000  0.03156000  1.0
  C  C60  1  0.28663000  0.94848000  0.33384000  1.0
  C  C61  1  0.78667000  0.33386000  0.94850000  1.0
  C  C62  1  0.24752000  0.80898000  0.28736000  1.0
  C  C63  1  0.74760000  0.28738000  0.80900000  1.0
  C  C64  1  0.24068000  0.75156000  0.37526000  1.0
  C  C65  1  0.74073000  0.37527000  0.75157000  1.0
  C  C66  1  0.98947000  0.56432000  0.46238000  1.0
  C  C67  1  0.48948000  0.46238000  0.56431000  1.0
  C  C68  1  0.77073000  0.33349000  0.31919000  1.0
  C  C69  1  0.27073000  0.31919000  0.33349000  1.0
  C  C70  1  0.71528000  0.20365000  0.33146000  1.0
  C  C71  1  0.21527000  0.33147000  0.20364000  1.0
  N  N72  1  0.58171000  0.80051000  0.05008000  1.0
  N  N73  1  0.08171000  0.05007000  0.80051000  1.0
  N  N74  1  0.29700000  0.67584000  0.81580000  1.0
  N  N75  1  0.79699000  0.81579000  0.67584000  1.0
  Cl  Cl76  1  0.77549000  0.02849000  0.97848000  1.0
  Cl  Cl77  1  0.27550000  0.97847000  0.02849000  1.0
  O  O78  1  0.41030000  0.86793000  0.73151000  1.0
  O  O79  1  0.91031000  0.73151000  0.86793000  1.0
  O  O80  1  0.90247000  0.59798000  0.38317000  1.0
  O  O81  1  0.40249000  0.38318000  0.59799000  1.0
  O  O82  1  0.93727000  0.43215000  0.43978000  1.0
  O  O83  1  0.43729000  0.43977000  0.43215000  1.0
