# generated using pymatgen
data_CuH18C20N6(ClO2)2
_symmetry_space_group_name_H-M   'P 1'
_cell_length_a   7.51416000
_cell_length_b   7.60566000
_cell_length_c   19.76190000
_cell_angle_alpha   84.09400000
_cell_angle_beta   80.02970000
_cell_angle_gamma   70.67480000
_symmetry_Int_Tables_number   1
_chemical_formula_structural   CuH18C20N6(ClO2)2
_chemical_formula_sum   'Cu2 H36 C40 N12 Cl4 O8'
_cell_volume   1048.40055829
_cell_formula_units_Z   2
loop_
 _symmetry_equiv_pos_site_id
 _symmetry_equiv_pos_as_xyz
  1  'x, y, z'
loop_
 _atom_site_type_symbol
 _atom_site_label
 _atom_site_symmetry_multiplicity
 _atom_site_fract_x
 _atom_site_fract_y
 _atom_site_fract_z
 _atom_site_occupancy
  Cu  Cu0  1  0.00000000  0.50000000  0.00000000  1.0
  Cu  Cu1  1  0.00000000  0.00000000  0.00000000  1.0
  H  H2  1  0.25685000  0.29464000  0.48207000  1.0
  H  H3  1  0.74315000  0.70537000  0.51793000  1.0
  H  H4  1  0.20102000  0.12672000  0.39114000  1.0
  H  H5  1  0.79898000  0.87328000  0.60886000  1.0
  H  H6  1  0.06016000  0.63879000  0.26549000  1.0
  H  H7  1  0.93984000  0.36121000  0.73451000  1.0
  H  H8  1  0.12087000  0.80376000  0.35543000  1.0
  H  H9  1  0.87913000  0.19624000  0.64457000  1.0
  H  H10  1  0.17003000  0.12018000  0.27051000  1.0
  H  H11  1  0.82998000  0.87982000  0.72949000  1.0
  H  H12  1  0.93412000  0.27624000  0.27818000  1.0
  H  H13  1  0.06588000  0.72375000  0.72182000  1.0
  H  H14  1  0.86004000  0.38011000  0.15799000  1.0
  H  H15  1  0.13996000  0.61989000  0.84201000  1.0
  H  H16  1  0.38871000  0.43610000  0.06721000  1.0
  H  H17  1  0.61129000  0.56390000  0.93279000  1.0
  H  H18  1  0.65673000  0.72598000  0.39914000  1.0
  H  H19  1  0.34327000  0.27402000  0.60086000  1.0
  H  H20  1  0.57089000  0.56504000  0.31295000  1.0
  H  H21  1  0.42911000  0.43496000  0.68705000  1.0
  H  H22  1  0.53270000  0.04148000  0.17096000  1.0
  H  H23  1  0.46730000  0.95852000  0.82904000  1.0
  H  H24  1  0.60651000  0.20658000  0.25875000  1.0
  H  H25  1  0.39349000  0.79342000  0.74125000  1.0
  H  H26  1  0.61726000  0.66111000  0.13887000  1.0
  H  H27  1  0.38274000  0.33889000  0.86113000  1.0
  H  H28  1  0.47627000  0.56300000  0.20411000  1.0
  H  H29  1  0.52373000  0.43700000  0.79589000  1.0
  H  H30  1  0.42663000  0.81469000  0.04398000  1.0
  H  H31  1  0.57337000  0.18531000  0.95602000  1.0
  H  H32  1  0.88530000  0.00048000  0.16424000  1.0
  H  H33  1  0.11470000  0.99952000  0.83576000  1.0
  H  H34  1  0.28433000  0.64993000  0.57073000  1.0
  H  H35  1  0.71567000  0.35007000  0.42927000  1.0
  H  H36  1  0.74241000  0.06605000  0.47891000  1.0
  H  H37  1  0.25759000  0.93395000  0.52109000  1.0
  C  C38  1  0.22686000  0.66402000  0.47761000  1.0
  C  C39  1  0.77314000  0.33598000  0.52239000  1.0
  C  C40  1  0.19273000  0.56046000  0.42460000  1.0
  C  C41  1  0.80727000  0.43954000  0.57540000  1.0
  C  C42  1  0.21446000  0.36944000  0.43445000  1.0
  C  C43  1  0.78554000  0.63057000  0.56555000  1.0
  C  C44  1  0.18233000  0.27557000  0.38327000  1.0
  C  C45  1  0.81767000  0.72443000  0.61673000  1.0
  C  C46  1  0.12625000  0.37134000  0.32201000  1.0
  C  C47  1  0.87375000  0.62866000  0.67799000  1.0
  C  C48  1  0.10264000  0.56200000  0.31275000  1.0
  C  C49  1  0.89736000  0.43800000  0.68725000  1.0
  C  C50  1  0.13688000  0.65582000  0.36327000  1.0
  C  C51  1  0.86312000  0.34419000  0.63673000  1.0
  C  C52  1  0.08516000  0.26880000  0.26839000  1.0
  C  C53  1  0.91484000  0.73120000  0.73161000  1.0
  C  C54  1  0.00433000  0.38583000  0.15014000  1.0
  C  C55  1  0.99567000  0.61417000  0.84986000  1.0
  C  C56  1  0.27501000  0.41158000  0.10491000  1.0
  C  C57  1  0.72499000  0.58843000  0.89509000  1.0
  C  C58  1  0.68546000  0.07687000  0.38529000  1.0
  C  C59  1  0.31454000  0.92312000  0.61471000  1.0
  C  C60  1  0.64003000  0.97571000  0.33411000  1.0
  C  C61  1  0.35997000  0.02429000  0.66589000  1.0
  C  C62  1  0.62927000  0.79498000  0.34925000  1.0
  C  C63  1  0.37073000  0.20502000  0.65075000  1.0
  C  C64  1  0.58223000  0.70445000  0.30046000  1.0
  C  C65  1  0.41777000  0.29555000  0.69954000  1.0
  C  C66  1  0.54747000  0.79210000  0.23604000  1.0
  C  C67  1  0.45252000  0.20790000  0.76396000  1.0
  C  C68  1  0.55906000  0.97255000  0.22100000  1.0
  C  C69  1  0.44093000  0.02746000  0.77900000  1.0
  C  C70  1  0.60327000  0.06425000  0.26976000  1.0
  C  C71  1  0.39673000  0.93576000  0.73024000  1.0
  C  C72  1  0.50090000  0.69354000  0.18260000  1.0
  C  C73  1  0.49910000  0.30646000  0.81740000  1.0
  C  C74  1  0.31053000  0.84596000  0.08655000  1.0
  C  C75  1  0.68947000  0.15404000  0.91345000  1.0
  C  C76  1  0.03796000  0.94145000  0.14958000  1.0
  C  C77  1  0.96204000  0.05855000  0.85042000  1.0
  N  N78  1  0.12053000  0.34312000  0.19810000  1.0
  N  N79  1  0.87947000  0.65688000  0.80190000  1.0
  N  N80  1  0.29434000  0.35883000  0.17007000  1.0
  N  N81  1  0.70566000  0.64117000  0.82993000  1.0
  N  N82  1  0.09792000  0.43019000  0.09037000  1.0
  N  N83  1  0.90208000  0.56981000  0.90963000  1.0
  N  N84  1  0.15874000  0.86752000  0.19427000  1.0
  N  N85  1  0.84126000  0.13247000  0.80573000  1.0
  N  N86  1  0.33119000  0.80641000  0.15319000  1.0
  N  N87  1  0.66881000  0.19359000  0.84681000  1.0
  N  N88  1  0.12524000  0.93117000  0.08295000  1.0
  N  N89  1  0.87475000  0.06884000  0.91705000  1.0
  Cl  Cl90  1  0.76890000  0.86696000  0.04966000  1.0
  Cl  Cl91  1  0.23110000  0.13305000  0.95034000  1.0
  Cl  Cl92  1  0.75129000  0.37935000  0.04377000  1.0
  Cl  Cl93  1  0.24871000  0.62065000  0.95623000  1.0
  O  O94  1  0.27435000  0.56553000  0.53469000  1.0
  O  O95  1  0.72565000  0.43447000  0.46531000  1.0
  O  O96  1  0.21085000  0.83364000  0.46845000  1.0
  O  O97  1  0.78915000  0.16635000  0.53155000  1.0
  O  O98  1  0.70831000  0.98792000  0.44560000  1.0
  O  O99  1  0.29169000  0.01208000  0.55440000  1.0
  O  O100  1  0.70048000  0.23665000  0.37143000  1.0
  O  O101  1  0.29952000  0.76335000  0.62857000  1.0
