# generated using pymatgen
data_CdH13C20N10O
_symmetry_space_group_name_H-M   'P 1'
_cell_length_a   8.04642000
_cell_length_b   10.69170000
_cell_length_c   12.58040000
_cell_angle_alpha   79.37430000
_cell_angle_beta   73.60430000
_cell_angle_gamma   69.30210000
_symmetry_Int_Tables_number   1
_chemical_formula_structural   CdH13C20N10O
_chemical_formula_sum   'Cd2 H26 C40 N20 O2'
_cell_volume   966.93763552
_cell_formula_units_Z   2
loop_
 _symmetry_equiv_pos_site_id
 _symmetry_equiv_pos_as_xyz
  1  'x, y, z'
loop_
 _atom_site_type_symbol
 _atom_site_label
 _atom_site_symmetry_multiplicity
 _atom_site_fract_x
 _atom_site_fract_y
 _atom_site_fract_z
 _atom_site_occupancy
  Cd  Cd0  1  0.72785000  0.59210000  0.96037000  1.0
  Cd  Cd1  1  0.27215000  0.40790000  0.03963000  1.0
  H  H2  1  0.46920000  0.74628000  0.38624000  1.0
  H  H3  1  0.53079000  0.25372000  0.61376000  1.0
  H  H4  1  0.35273000  0.80635000  0.58106000  1.0
  H  H5  1  0.64727000  0.19365000  0.41894000  1.0
  H  H6  1  0.05023000  0.52669000  0.65860000  1.0
  H  H7  1  0.94977000  0.47331000  0.34140000  1.0
  H  H8  1  0.16411000  0.46983000  0.46122000  1.0
  H  H9  1  0.83589000  0.53017000  0.53878000  1.0
  H  H10  1  0.94882000  0.93626000  0.65758000  1.0
  H  H11  1  0.05118000  0.06374000  0.34242000  1.0
  H  H12  1  0.28508000  0.72396000  0.88744000  1.0
  H  H13  1  0.71493000  0.27604000  0.11257000  1.0
  H  H14  1  0.24510000  0.94133000  0.95317000  1.0
  H  H15  1  0.75490000  0.05867000  0.04683000  1.0
  H  H16  1  0.90601000  0.15360000  0.72425000  1.0
  H  H17  1  0.09399000  0.84640000  0.27575000  1.0
  H  H18  1  0.67631000  0.70944000  0.70342000  1.0
  H  H19  1  0.32369000  0.29056000  0.29658000  1.0
  H  H20  1  0.63477000  0.93514000  0.95580000  1.0
  H  H21  1  0.36523000  0.06486000  0.04420000  1.0
  H  H22  1  0.52214000  0.11413000  0.77933000  1.0
  H  H23  1  0.47785000  0.88587000  0.22067000  1.0
  H  H24  1  0.78278000  0.81128000  0.51963000  1.0
  H  H25  1  0.21722000  0.18871000  0.48037000  1.0
  H  H26  1  0.30452000  0.12758000  0.66194000  1.0
  H  H27  1  0.69548000  0.87242000  0.33806000  1.0
  C  C28  1  0.38815000  0.57423000  0.29405000  1.0
  C  C29  1  0.61184000  0.42577000  0.70595000  1.0
  C  C30  1  0.32165000  0.60641000  0.40951000  1.0
  C  C31  1  0.67834000  0.39359000  0.59049000  1.0
  C  C32  1  0.37410000  0.70058000  0.44509000  1.0
  C  C33  1  0.62590000  0.29942000  0.55491000  1.0
  C  C34  1  0.31021000  0.73364000  0.55432000  1.0
  C  C35  1  0.68979000  0.26636000  0.44568000  1.0
  C  C36  1  0.19302000  0.67100000  0.63061000  1.0
  C  C37  1  0.80698000  0.32900000  0.36939000  1.0
  C  C38  1  0.14023000  0.57544000  0.59757000  1.0
  C  C39  1  0.85978000  0.42456000  0.40243000  1.0
  C  C40  1  0.20465000  0.54398000  0.48761000  1.0
  C  C41  1  0.79535000  0.45602000  0.51239000  1.0
  C  C42  1  0.01375000  0.93839000  0.72211000  1.0
  C  C43  1  0.98625000  0.06161000  0.27789000  1.0
  C  C44  1  0.11906000  0.81837000  0.76940000  1.0
  C  C45  1  0.88094000  0.18163000  0.23060000  1.0
  C  C46  1  0.20359000  0.81867000  0.85193000  1.0
  C  C47  1  0.79641000  0.18133000  0.14807000  1.0
  C  C48  1  0.18133000  0.94035000  0.88789000  1.0
  C  C49  1  0.81867000  0.05965000  0.11212000  1.0
  C  C50  1  0.07523000  0.06208000  0.84205000  1.0
  C  C51  1  0.92477000  0.93792000  0.15795000  1.0
  C  C52  1  0.99048000  0.05960000  0.75925000  1.0
  C  C53  1  0.00952000  0.94040000  0.24075000  1.0
  C  C54  1  0.05456000  0.18903000  0.88013000  1.0
  C  C55  1  0.94544000  0.81096000  0.11987000  1.0
  C  C56  1  0.65626000  0.79485000  0.74652000  1.0
  C  C57  1  0.34374000  0.20515000  0.25348000  1.0
  C  C58  1  0.62266000  0.91698000  0.87689000  1.0
  C  C59  1  0.37734000  0.08302000  0.12311000  1.0
  C  C60  1  0.56960000  0.00517000  0.78940000  1.0
  C  C61  1  0.43040000  0.99483000  0.21060000  1.0
  C  C62  1  0.65782000  0.89292000  0.51120000  1.0
  C  C63  1  0.34217000  0.10708000  0.48880000  1.0
  C  C64  1  0.54855000  0.96636000  0.60166000  1.0
  C  C65  1  0.45145000  0.03364000  0.39834000  1.0
  C  C66  1  0.39137000  0.07367000  0.59035000  1.0
  C  C67  1  0.60862000  0.92633000  0.40965000  1.0
  N  N68  1  0.49530000  0.63273000  0.21278000  1.0
  N  N69  1  0.50470000  0.36727000  0.78722000  1.0
  N  N70  1  0.51956000  0.57397000  0.12238000  1.0
  N  N71  1  0.48044000  0.42603000  0.87762000  1.0
  N  N72  1  0.43265000  0.48297000  0.14692000  1.0
  N  N73  1  0.56735000  0.51703000  0.85308000  1.0
  N  N74  1  0.34875000  0.48172000  0.25445000  1.0
  N  N75  1  0.65124000  0.51828000  0.74555000  1.0
  N  N76  1  0.17216000  0.20684000  0.93004000  1.0
  N  N77  1  0.82784000  0.79316000  0.06996000  1.0
  N  N78  1  0.10083000  0.33379000  0.95381000  1.0
  N  N79  1  0.89917000  0.66621000  0.04619000  1.0
  N  N80  1  0.94632000  0.39133000  0.91893000  1.0
  N  N81  1  0.05369000  0.60867000  0.08107000  1.0
  N  N82  1  0.91393000  0.30283000  0.87226000  1.0
  N  N83  1  0.08607000  0.69717000  0.12774000  1.0
  N  N84  1  0.67414000  0.78682000  0.84948000  1.0
  N  N85  1  0.32586000  0.21318000  0.15052000  1.0
  N  N86  1  0.59345000  0.92612000  0.70665000  1.0
  N  N87  1  0.40655000  0.07388000  0.29335000  1.0
  O  O88  1  0.13273000  0.69459000  0.74139000  1.0
  O  O89  1  0.86727000  0.30541000  0.25861000  1.0
