# generated using pymatgen
data_AgH14C8N3O5
_symmetry_space_group_name_H-M   'P 1'
_cell_length_a   5.29404000
_cell_length_b   7.78860000
_cell_length_c   15.08948725
_cell_angle_alpha   87.46173510
_cell_angle_beta   80.18839822
_cell_angle_gamma   70.16540000
_symmetry_Int_Tables_number   1
_chemical_formula_structural   AgH14C8N3O5
_chemical_formula_sum   'Ag2 H28 C16 N6 O10'
_cell_volume   576.65454893
_cell_formula_units_Z   2
loop_
 _symmetry_equiv_pos_site_id
 _symmetry_equiv_pos_as_xyz
  1  'x, y, z'
loop_
 _atom_site_type_symbol
 _atom_site_label
 _atom_site_symmetry_multiplicity
 _atom_site_fract_x
 _atom_site_fract_y
 _atom_site_fract_z
 _atom_site_occupancy
  Ag  Ag0  1  0.07354000  0.34392000  0.24662000  1.0
  Ag  Ag1  1  0.92653000  0.65605000  0.75341000  1.0
  H  H2  1  0.10609000  0.62020000  0.95233000  1.0
  H  H3  1  0.77707000  0.61893000  0.54640000  1.0
  H  H4  1  0.89392000  0.37973000  0.04768000  1.0
  H  H5  1  0.22292000  0.38110000  0.45360000  1.0
  H  H6  1  0.45350000  0.60225000  0.15813000  1.0
  H  H7  1  0.45304000  0.59958000  0.33773000  1.0
  H  H8  1  0.54646000  0.39775000  0.84190000  1.0
  H  H9  1  0.54696000  0.40043000  0.66227000  1.0
  H  H10  1  0.14123000  0.76895000  0.20490000  1.0
  H  H11  1  0.59857000  0.76724000  0.29556000  1.0
  H  H12  1  0.85867000  0.23106000  0.79510000  1.0
  H  H13  1  0.40147000  0.23275000  0.70442000  1.0
  H  H14  1  0.19756000  0.99084000  0.09746000  1.0
  H  H15  1  0.31346000  0.98730000  0.40477000  1.0
  H  H16  1  0.80242000  0.00914000  0.90255000  1.0
  H  H17  1  0.68663000  0.01273000  0.59521000  1.0
  H  H18  1  0.54747000  0.86028000  0.08422000  1.0
  H  H19  1  0.09729000  0.85529000  0.41618000  1.0
  H  H20  1  0.45246000  0.13970000  0.91579000  1.0
  H  H21  1  0.90272000  0.14478000  0.58379000  1.0
  H  H22  1  0.24034000  0.91485000  0.94273000  1.0
  H  H23  1  0.34790000  0.91365000  0.55844000  1.0
  H  H24  1  0.75961000  0.08511000  0.05728000  1.0
  H  H25  1  0.65208000  0.08636000  0.44154000  1.0
  H  H26  1  0.53447000  0.72120000  0.94646000  1.0
  H  H27  1  0.24695000  0.72048000  0.55288000  1.0
  H  H28  1  0.46548000  0.27880000  0.05355000  1.0
  H  H29  1  0.75302000  0.27955000  0.44709000  1.0
  C  C30  1  0.13122000  0.62753000  0.08670000  1.0
  C  C31  1  0.74685000  0.62329000  0.41180000  1.0
  C  C32  1  0.86872000  0.37244000  0.91332000  1.0
  C  C33  1  0.25317000  0.37671000  0.58819000  1.0
  C  C34  1  0.27318000  0.71159000  0.14147000  1.0
  C  C35  1  0.52258000  0.70832000  0.35741000  1.0
  C  C36  1  0.72678000  0.28842000  0.85855000  1.0
  C  C37  1  0.47738000  0.29172000  0.64258000  1.0
  C  C38  1  0.34660000  0.85480000  0.07920000  1.0
  C  C39  1  0.30289000  0.85109000  0.42142000  1.0
  C  C40  1  0.65334000  0.14518000  0.92080000  1.0
  C  C41  1  0.69713000  0.14894000  0.57857000  1.0
  C  C42  1  0.33231000  0.79782000  0.98387000  1.0
  C  C43  1  0.37327000  0.79596000  0.51618000  1.0
  C  C44  1  0.66761000  0.20214000  0.01614000  1.0
  C  C45  1  0.62675000  0.20405000  0.48381000  1.0
  N  N46  1  0.66487000  0.15308000  0.25188000  1.0
  N  N47  1  0.33519000  0.84694000  0.74812000  1.0
  N  N48  1  0.16327000  0.68171000  0.00122000  1.0
  N  N49  1  0.65882000  0.67854000  0.49784000  1.0
  N  N50  1  0.83672000  0.31824000  0.99881000  1.0
  N  N51  1  0.34118000  0.32148000  0.50215000  1.0
  O  O52  1  0.00481000  0.51913000  0.11482000  1.0
  O  O53  1  0.98166000  0.51279000  0.38289000  1.0
  O  O54  1  0.99528000  0.48079000  0.88518000  1.0
  O  O55  1  0.01836000  0.48725000  0.61712000  1.0
  O  O56  1  0.47733000  0.08709000  0.24809000  1.0
  O  O57  1  0.89516000  0.05249000  0.26691000  1.0
  O  O58  1  0.52276000  0.91290000  0.75188000  1.0
  O  O59  1  0.10496000  0.94757000  0.73306000  1.0
  O  O60  1  0.61565000  0.32462000  0.24044000  1.0
  O  O61  1  0.38435000  0.67541000  0.75960000  1.0
