# generated using pymatgen
data_MnH10(C6N5)2
_symmetry_space_group_name_H-M   'P 1'
_cell_length_a   8.53329000
_cell_length_b   14.50060000
_cell_length_c   14.92490000
_cell_angle_alpha   75.27800000
_cell_angle_beta   89.97570000
_cell_angle_gamma   72.92000000
_symmetry_Int_Tables_number   1
_chemical_formula_structural   MnH10(C6N5)2
_chemical_formula_sum   'Mn4 H40 C48 N40'
_cell_volume   1701.85852136
_cell_formula_units_Z   4
loop_
 _symmetry_equiv_pos_site_id
 _symmetry_equiv_pos_as_xyz
  1  'x, y, z'
loop_
 _atom_site_type_symbol
 _atom_site_label
 _atom_site_symmetry_multiplicity
 _atom_site_fract_x
 _atom_site_fract_y
 _atom_site_fract_z
 _atom_site_occupancy
  Mn  Mn0  1  0.51018000  0.49213000  0.61719000  1.0
  Mn  Mn1  1  0.00210000  0.50795000  0.88280000  1.0
  Mn  Mn2  1  0.48982000  0.50795000  0.38279000  1.0
  Mn  Mn3  1  0.99783000  0.49212000  0.11718000  1.0
  H  H4  1  0.38094000  0.71972000  0.62055000  1.0
  H  H5  1  0.13435000  0.52585000  0.57971000  1.0
  H  H6  1  0.85843000  0.65368000  0.57465000  1.0
  H  H7  1  0.84979000  0.82222000  0.59284000  1.0
  H  H8  1  0.24368000  0.89296000  0.61839000  1.0
  H  H9  1  0.77182000  0.09358000  0.63802000  1.0
  H  H10  1  0.16782000  0.16794000  0.64320000  1.0
  H  H11  1  0.16289000  0.33868000  0.65298000  1.0
  H  H12  1  0.89056000  0.46645000  0.65218000  1.0
  H  H13  1  0.63937000  0.26294000  0.64634000  1.0
  H  H14  1  0.09984000  0.28029000  0.87999000  1.0
  H  H15  1  0.65923000  0.47456000  0.91968000  1.0
  H  H16  1  0.51127000  0.34636000  0.92560000  1.0
  H  H17  1  0.67091000  0.17787000  0.90731000  1.0
  H  H18  1  0.13555000  0.10758000  0.88144000  1.0
  H  H19  1  0.86588000  0.90616000  0.86193000  1.0
  H  H20  1  0.33639000  0.83220000  0.85681000  1.0
  H  H21  1  0.50197000  0.66143000  0.84708000  1.0
  H  H22  1  0.35732000  0.53340000  0.84872000  1.0
  H  H23  1  0.90275000  0.73725000  0.85319000  1.0
  H  H24  1  0.61905000  0.28027000  0.37944000  1.0
  H  H25  1  0.86563000  0.47416000  0.42029000  1.0
  H  H26  1  0.14156000  0.34633000  0.42534000  1.0
  H  H27  1  0.15020000  0.17779000  0.40714000  1.0
  H  H28  1  0.75632000  0.10705000  0.38159000  1.0
  H  H29  1  0.22817000  0.90643000  0.36197000  1.0
  H  H30  1  0.83216000  0.83208000  0.35679000  1.0
  H  H31  1  0.83708000  0.66133000  0.34702000  1.0
  H  H32  1  0.10941000  0.53355000  0.34782000  1.0
  H  H33  1  0.36062000  0.73705000  0.35365000  1.0
  H  H34  1  0.90017000  0.71969000  0.12003000  1.0
  H  H35  1  0.34079000  0.52544000  0.08033000  1.0
  H  H36  1  0.48872000  0.65364000  0.07440000  1.0
  H  H37  1  0.32909000  0.82213000  0.09269000  1.0
  H  H38  1  0.86444000  0.89242000  0.11856000  1.0
  H  H39  1  0.13411000  0.09383000  0.13806000  1.0
  H  H40  1  0.66361000  0.16780000  0.14318000  1.0
  H  H41  1  0.49804000  0.33857000  0.15293000  1.0
  H  H42  1  0.64271000  0.46660000  0.15130000  1.0
  H  H43  1  0.09726000  0.26274000  0.14683000  1.0
  C  C44  1  0.26224000  0.70820000  0.61026000  1.0
  C  C45  1  0.12391000  0.59965000  0.58892000  1.0
  C  C46  1  0.97156000  0.67062000  0.58624000  1.0
  C  C47  1  0.96619000  0.76421000  0.59570000  1.0
  C  C48  1  0.11493000  0.78455000  0.60761000  1.0
  C  C49  1  0.12254000  0.88080000  0.61630000  1.0
  C  C50  1  0.89314000  0.10585000  0.63692000  1.0
  C  C51  1  0.90303000  0.20238000  0.64351000  1.0
  C  C52  1  0.05249000  0.22461000  0.64582000  1.0
  C  C53  1  0.04915000  0.31953000  0.65053000  1.0
  C  C54  1  0.89791000  0.39075000  0.65005000  1.0
  C  C55  1  0.75748000  0.27787000  0.64597000  1.0
  C  C56  1  0.96950000  0.29194000  0.89000000  1.0
  C  C57  1  0.72267000  0.40056000  0.91098000  1.0
  C  C58  1  0.64129000  0.32948000  0.91393000  1.0
  C  C59  1  0.72940000  0.23588000  0.90447000  1.0
  C  C60  1  0.89845000  0.21557000  0.89261000  1.0
  C  C61  1  0.00239000  0.11944000  0.88377000  1.0
  C  C62  1  0.99940000  0.89416000  0.86305000  1.0
  C  C63  1  0.10602000  0.79774000  0.85637000  1.0
  C  C64  1  0.27766000  0.77554000  0.85411000  1.0
  C  C65  1  0.36912000  0.68059000  0.84950000  1.0
  C  C66  1  0.28902000  0.60928000  0.85029000  1.0
  C  C67  1  0.03579000  0.72229000  0.85379000  1.0
  C  C68  1  0.73774000  0.29180000  0.38973000  1.0
  C  C69  1  0.87607000  0.40036000  0.41107000  1.0
  C  C70  1  0.02843000  0.32939000  0.41375000  1.0
  C  C71  1  0.03379000  0.23579000  0.40428000  1.0
  C  C72  1  0.88506000  0.21546000  0.39238000  1.0
  C  C73  1  0.87745000  0.11921000  0.38368000  1.0
  C  C74  1  0.10686000  0.89416000  0.36305000  1.0
  C  C75  1  0.09695000  0.79763000  0.35647000  1.0
  C  C76  1  0.94749000  0.77540000  0.35417000  1.0
  C  C77  1  0.95083000  0.68048000  0.34946000  1.0
  C  C78  1  0.10207000  0.60925000  0.34995000  1.0
  C  C79  1  0.24251000  0.72214000  0.35402000  1.0
  C  C80  1  0.03050000  0.70805000  0.11001000  1.0
  C  C81  1  0.27733000  0.59943000  0.08904000  1.0
  C  C82  1  0.35871000  0.67051000  0.08607000  1.0
  C  C83  1  0.27061000  0.76412000  0.09553000  1.0
  C  C84  1  0.10155000  0.78443000  0.10740000  1.0
  C  C85  1  0.99762000  0.88056000  0.11623000  1.0
  C  C86  1  0.00060000  0.10584000  0.13694000  1.0
  C  C87  1  0.89399000  0.20226000  0.14363000  1.0
  C  C88  1  0.72235000  0.22446000  0.14589000  1.0
  C  C89  1  0.63089000  0.31941000  0.15050000  1.0
  C  C90  1  0.71099000  0.39072000  0.14972000  1.0
  C  C91  1  0.96422000  0.27771000  0.14622000  1.0
  N  N92  1  0.26734000  0.61746000  0.60155000  1.0
  N  N93  1  0.99051000  0.95085000  0.62157000  1.0
  N  N94  1  0.02397000  0.03680000  0.62833000  1.0
  N  N95  1  0.75398000  0.37070000  0.64723000  1.0
  N  N96  1  0.41367000  0.42921000  0.51325000  1.0
  N  N97  1  0.40646000  0.34473000  0.52644000  1.0
  N  N98  1  0.40014000  0.26300000  0.53922000  1.0
  N  N99  1  0.41448000  0.39635000  0.72307000  1.0
  N  N100  1  0.29427000  0.41255000  0.76357000  1.0
  N  N101  1  0.17408000  0.42584000  0.80406000  1.0
  N  N102  1  0.88397000  0.38273000  0.89852000  1.0
  N  N103  1  0.94093000  0.04908000  0.87872000  1.0
  N  N104  1  0.06075000  0.96336000  0.87183000  1.0
  N  N105  1  0.12503000  0.62938000  0.85282000  1.0
  N  N106  1  0.84326000  0.57093000  0.98690000  1.0
  N  N107  1  0.75152000  0.65537000  0.97361000  1.0
  N  N108  1  0.66339000  0.73706000  0.96067000  1.0
  N  N109  1  0.81066000  0.60356000  0.77722000  1.0
  N  N110  1  0.70697000  0.58747000  0.73638000  1.0
  N  N111  1  0.60032000  0.57442000  0.69550000  1.0
  N  N112  1  0.73265000  0.38254000  0.39845000  1.0
  N  N113  1  0.00948000  0.04917000  0.37840000  1.0
  N  N114  1  0.97601000  0.96322000  0.37164000  1.0
  N  N115  1  0.24601000  0.62930000  0.35277000  1.0
  N  N116  1  0.58630000  0.57079000  0.48675000  1.0
  N  N117  1  0.59352000  0.65527000  0.47357000  1.0
  N  N118  1  0.59985000  0.73699000  0.46078000  1.0
  N  N119  1  0.58553000  0.60364000  0.27692000  1.0
  N  N120  1  0.70574000  0.58742000  0.23644000  1.0
  N  N121  1  0.82596000  0.57413000  0.19597000  1.0
  N  N122  1  0.11604000  0.61727000  0.10150000  1.0
  N  N123  1  0.05908000  0.95091000  0.12128000  1.0
  N  N124  1  0.93925000  0.03663000  0.12817000  1.0
  N  N125  1  0.87499000  0.37062000  0.14719000  1.0
  N  N126  1  0.15678000  0.42905000  0.01313000  1.0
  N  N127  1  0.24851000  0.34460000  0.02643000  1.0
  N  N128  1  0.33663000  0.26293000  0.03934000  1.0
  N  N129  1  0.18940000  0.39640000  0.22282000  1.0
  N  N130  1  0.29309000  0.41249000  0.26365000  1.0
  N  N131  1  0.39971000  0.42559000  0.30450000  1.0
