# generated using pymatgen
data_PrH8C6NO7
_symmetry_space_group_name_H-M   'P 1'
_cell_length_a   6.99854000
_cell_length_b   10.17750000
_cell_length_c   12.11160000
_cell_angle_alpha   90.00000000
_cell_angle_beta   90.00000000
_cell_angle_gamma   90.00000000
_symmetry_Int_Tables_number   1
_chemical_formula_structural   PrH8C6NO7
_chemical_formula_sum   'Pr4 H32 C24 N4 O28'
_cell_volume   862.68069492
_cell_formula_units_Z   4
loop_
 _symmetry_equiv_pos_site_id
 _symmetry_equiv_pos_as_xyz
  1  'x, y, z'
loop_
 _atom_site_type_symbol
 _atom_site_label
 _atom_site_symmetry_multiplicity
 _atom_site_fract_x
 _atom_site_fract_y
 _atom_site_fract_z
 _atom_site_occupancy
  Pr  Pr0  1  0.13515000  0.14873000  0.39793000  1.0
  Pr  Pr1  1  0.36485000  0.85127000  0.89792000  1.0
  Pr  Pr2  1  0.86485000  0.64873000  0.10207000  1.0
  Pr  Pr3  1  0.63515000  0.35127000  0.60207000  1.0
  H  H4  1  0.26967000  0.72570000  0.42830000  1.0
  H  H5  1  0.23034000  0.27430000  0.92830000  1.0
  H  H6  1  0.73034000  0.22570000  0.07170000  1.0
  H  H7  1  0.76967000  0.77430000  0.57170000  1.0
  H  H8  1  0.40418000  0.77766000  0.31492000  1.0
  H  H9  1  0.09582000  0.22233000  0.81492000  1.0
  H  H10  1  0.59582000  0.27766000  0.18508000  1.0
  H  H11  1  0.90418000  0.72234000  0.68508000  1.0
  H  H12  1  0.48545000  0.95055000  0.59610000  1.0
  H  H13  1  0.01455000  0.04945000  0.09610000  1.0
  H  H14  1  0.51455000  0.45055000  0.90390000  1.0
  H  H15  1  0.98545000  0.54946000  0.40390000  1.0
  H  H16  1  0.38528000  0.79418000  0.57472000  1.0
  H  H17  1  0.11472000  0.20582000  0.07472000  1.0
  H  H18  1  0.61472000  0.29418000  0.92528000  1.0
  H  H19  1  0.88528000  0.70582000  0.42528000  1.0
  H  H20  1  0.55598000  0.96218000  0.30997000  1.0
  H  H21  1  0.94402000  0.03782000  0.80997000  1.0
  H  H22  1  0.44402000  0.46219000  0.19003000  1.0
  H  H23  1  0.05598000  0.53782000  0.69003000  1.0
  H  H24  1  0.66721000  0.89144000  0.42719000  1.0
  H  H25  1  0.83279000  0.10855000  0.92719000  1.0
  H  H26  1  0.33279000  0.39144000  0.07281000  1.0
  H  H27  1  0.16721000  0.60856000  0.57281000  1.0
  H  H28  1  0.36574000  0.42005000  0.36225000  1.0
  H  H29  1  0.13426000  0.57995000  0.86225000  1.0
  H  H30  1  0.63426000  0.92005000  0.13775000  1.0
  H  H31  1  0.86574000  0.07995000  0.63775000  1.0
  H  H32  1  0.17700000  0.41626000  0.27895000  1.0
  H  H33  1  0.32300000  0.58374000  0.77895000  1.0
  H  H34  1  0.82300000  0.91626000  0.22105000  1.0
  H  H35  1  0.67700000  0.08374000  0.72105000  1.0
  C  C36  1  0.11317000  0.83114000  0.30790000  1.0
  C  C37  1  0.38683000  0.16885000  0.80790000  1.0
  C  C38  1  0.88683000  0.33115000  0.19210000  1.0
  C  C39  1  0.61318000  0.66885000  0.69210000  1.0
  C  C40  1  0.29502000  0.81095000  0.37408000  1.0
  C  C41  1  0.20498000  0.18905000  0.87408000  1.0
  C  C42  1  0.70498000  0.31095000  0.12592000  1.0
  C  C43  1  0.79502000  0.68905000  0.62591000  1.0
  C  C44  1  0.36425000  0.89926000  0.55770000  1.0
  C  C45  1  0.13575000  0.10074000  0.05770000  1.0
  C  C46  1  0.63575000  0.39926000  0.94230000  1.0
  C  C47  1  0.86425000  0.60074000  0.44230000  1.0
  C  C48  1  0.18911000  0.94418000  0.62261000  1.0
  C  C49  1  0.31088000  0.05582000  0.12261000  1.0
  C  C50  1  0.81088000  0.44418000  0.87739000  1.0
  C  C51  1  0.68912000  0.55582000  0.37739000  1.0
  C  C52  1  0.55611000  0.96146000  0.40039000  1.0
  C  C53  1  0.94388000  0.03854000  0.90039000  1.0
  C  C54  1  0.44388000  0.46146000  0.09961000  1.0
  C  C55  1  0.05612000  0.53854000  0.59961000  1.0
  C  C56  1  0.61304000  0.09834000  0.43564000  1.0
  C  C57  1  0.88696000  0.90165000  0.93564000  1.0
  C  C58  1  0.38696000  0.59834000  0.06436000  1.0
  C  C59  1  0.11304000  0.40166000  0.56436000  1.0
  N  N60  1  0.36359000  0.92488000  0.43781000  1.0
  N  N61  1  0.13641000  0.07512000  0.93781000  1.0
  N  N62  1  0.63641000  0.42488000  0.06219000  1.0
  N  N63  1  0.86359000  0.57512000  0.56219000  1.0
  O  O64  1  0.02248000  0.93997000  0.31306000  1.0
  O  O65  1  0.47752000  0.06003000  0.81306000  1.0
  O  O66  1  0.97752000  0.43997000  0.18694000  1.0
  O  O67  1  0.52248000  0.56003000  0.68693000  1.0
  O  O68  1  0.06229000  0.73309000  0.25173000  1.0
  O  O69  1  0.43771000  0.26691000  0.75173000  1.0
  O  O70  1  0.93771000  0.23309000  0.24827000  1.0
  O  O71  1  0.56229000  0.76691000  0.74827000  1.0
  O  O72  1  0.07373000  0.02399000  0.57538000  1.0
  O  O73  1  0.42627000  0.97601000  0.07538000  1.0
  O  O74  1  0.92627000  0.52399000  0.92462000  1.0
  O  O75  1  0.57373000  0.47601000  0.42462000  1.0
  O  O76  1  0.17081000  0.90240000  0.72024000  1.0
  O  O77  1  0.32919000  0.09760000  0.22024000  1.0
  O  O78  1  0.82918000  0.40241000  0.77976000  1.0
  O  O79  1  0.67081000  0.59760000  0.27976000  1.0
  O  O80  1  0.47934000  0.17670000  0.46762000  1.0
  O  O81  1  0.02066000  0.82330000  0.96762000  1.0
  O  O82  1  0.52066000  0.67670000  0.03238000  1.0
  O  O83  1  0.97934000  0.32330000  0.53238000  1.0
  O  O84  1  0.78479000  0.13138000  0.43229000  1.0
  O  O85  1  0.71521000  0.86862000  0.93229000  1.0
  O  O86  1  0.21521000  0.63138000  0.06771000  1.0
  O  O87  1  0.28479000  0.36862000  0.56772000  1.0
  O  O88  1  0.25199000  0.36998000  0.33628000  1.0
  O  O89  1  0.24801000  0.63002000  0.83628000  1.0
  O  O90  1  0.74801000  0.86998000  0.16372000  1.0
  O  O91  1  0.75199000  0.13002000  0.66372000  1.0
