# generated using pymatgen
data_LiH9C5O2
_symmetry_space_group_name_H-M   'P 1'
_cell_length_a   4.96602000
_cell_length_b   8.23693000
_cell_length_c   14.68210000
_cell_angle_alpha   88.42060000
_cell_angle_beta   89.99500000
_cell_angle_gamma   89.99210000
_symmetry_Int_Tables_number   1
_chemical_formula_structural   LiH9C5O2
_chemical_formula_sum   'Li4 H36 C20 O8'
_cell_volume   600.33959395
_cell_formula_units_Z   4
loop_
 _symmetry_equiv_pos_site_id
 _symmetry_equiv_pos_as_xyz
  1  'x, y, z'
loop_
 _atom_site_type_symbol
 _atom_site_label
 _atom_site_symmetry_multiplicity
 _atom_site_fract_x
 _atom_site_fract_y
 _atom_site_fract_z
 _atom_site_occupancy
  Li  Li0  1  0.09606000  0.35209000  0.99594000  1.0
  Li  Li1  1  0.59607000  0.14788000  0.00405000  1.0
  Li  Li2  1  0.90392000  0.64790000  0.00407000  1.0
  Li  Li3  1  0.40394000  0.85210000  0.99594000  1.0
  H  H4  1  0.59413000  0.36245000  0.16874000  1.0
  H  H5  1  0.09415000  0.13746000  0.83124000  1.0
  H  H6  1  0.40585000  0.63753000  0.83125000  1.0
  H  H7  1  0.90587000  0.86251000  0.16876000  1.0
  H  H8  1  0.12374000  0.35985000  0.22440000  1.0
  H  H9  1  0.62376000  0.14015000  0.77562000  1.0
  H  H10  1  0.87625000  0.64014000  0.77560000  1.0
  H  H11  1  0.37628000  0.85985000  0.22438000  1.0
  H  H12  1  0.15381000  0.55710000  0.26455000  1.0
  H  H13  1  0.65384000  0.94290000  0.73545000  1.0
  H  H14  1  0.84617000  0.44289000  0.73544000  1.0
  H  H15  1  0.34618000  0.05711000  0.26455000  1.0
  H  H16  1  0.99618000  0.46160000  0.42106000  1.0
  H  H17  1  0.49617000  0.03846000  0.57895000  1.0
  H  H18  1  0.00381000  0.53845000  0.57893000  1.0
  H  H19  1  0.50383000  0.96156000  0.42105000  1.0
  H  H20  1  0.46537000  0.26364000  0.34259000  1.0
  H  H21  1  0.96535000  0.23634000  0.65742000  1.0
  H  H22  1  0.53458000  0.73636000  0.65742000  1.0
  H  H23  1  0.03470000  0.76366000  0.34258000  1.0
  H  H24  1  0.16724000  0.30082000  0.47939000  1.0
  H  H25  1  0.66721000  0.19925000  0.52063000  1.0
  H  H26  1  0.83271000  0.69922000  0.52062000  1.0
  H  H27  1  0.33281000  0.80078000  0.47937000  1.0
  H  H28  1  0.66207000  0.54678000  0.22203000  1.0
  H  H29  1  0.16210000  0.95313000  0.77794000  1.0
  H  H30  1  0.33793000  0.45319000  0.77797000  1.0
  H  H31  1  0.83792000  0.04685000  0.22206000  1.0
  H  H32  1  0.96822000  0.26104000  0.38186000  1.0
  H  H33  1  0.46820000  0.23902000  0.61818000  1.0
  H  H34  1  0.03172000  0.73901000  0.61814000  1.0
  H  H35  1  0.53184000  0.76101000  0.38183000  1.0
  H  H36  1  0.49100000  0.46322000  0.38138000  1.0
  H  H37  1  0.99099000  0.03676000  0.61861000  1.0
  H  H38  1  0.50899000  0.53678000  0.61861000  1.0
  H  H39  1  0.00902000  0.96324000  0.38139000  1.0
  C  C40  1  0.40873000  0.56891000  0.10449000  1.0
  C  C41  1  0.90880000  0.93104000  0.89551000  1.0
  C  C42  1  0.59125000  0.43108000  0.89552000  1.0
  C  C43  1  0.09122000  0.06894000  0.10449000  1.0
  C  C44  1  0.50069000  0.47712000  0.19005000  1.0
  C  C45  1  0.00072000  0.02281000  0.80994000  1.0
  C  C46  1  0.49930000  0.52286000  0.80995000  1.0
  C  C47  1  0.99931000  0.97717000  0.19006000  1.0
  C  C48  1  0.26697000  0.44347000  0.25581000  1.0
  C  C49  1  0.76699000  0.05651000  0.74420000  1.0
  C  C50  1  0.73301000  0.55652000  0.74419000  1.0
  C  C51  1  0.23304000  0.94349000  0.25580000  1.0
  C  C52  1  0.35137000  0.37747000  0.34964000  1.0
  C  C53  1  0.85136000  0.12252000  0.65036000  1.0
  C  C54  1  0.64861000  0.62254000  0.65036000  1.0
  C  C55  1  0.14867000  0.87747000  0.34964000  1.0
  C  C56  1  0.10849000  0.34823000  0.41164000  1.0
  C  C57  1  0.60848000  0.15181000  0.58838000  1.0
  C  C58  1  0.89148000  0.65181000  0.58836000  1.0
  C  C59  1  0.39155000  0.84821000  0.41162000  1.0
  O  O60  1  0.17494000  0.53799000  0.07397000  1.0
  O  O61  1  0.67497000  0.96195000  0.92603000  1.0
  O  O62  1  0.82504000  0.46200000  0.92604000  1.0
  O  O63  1  0.32504000  0.03803000  0.07397000  1.0
  O  O64  1  0.56457000  0.67471000  0.06727000  1.0
  O  O65  1  0.06469000  0.82526000  0.93273000  1.0
  O  O66  1  0.43541000  0.32529000  0.93273000  1.0
  O  O67  1  0.93532000  0.17472000  0.06727000  1.0
