# generated using pymatgen
data_YbH21C36(NO4)2
_symmetry_space_group_name_H-M   'P 1'
_cell_length_a   10.81360000
_cell_length_b   12.06050000
_cell_length_c   12.26300000
_cell_angle_alpha   94.28960000
_cell_angle_beta   106.20500000
_cell_angle_gamma   101.09400000
_symmetry_Int_Tables_number   1
_chemical_formula_structural   YbH21C36(NO4)2
_chemical_formula_sum   'Yb2 H42 C72 N4 O16'
_cell_volume   1492.99072221
_cell_formula_units_Z   2
loop_
 _symmetry_equiv_pos_site_id
 _symmetry_equiv_pos_as_xyz
  1  'x, y, z'
loop_
 _atom_site_type_symbol
 _atom_site_label
 _atom_site_symmetry_multiplicity
 _atom_site_fract_x
 _atom_site_fract_y
 _atom_site_fract_z
 _atom_site_occupancy
  Yb  Yb0  1  0.08449000  0.80883000  0.99759000  1.0
  Yb  Yb1  1  0.91551000  0.19118000  0.00240000  1.0
  H  H2  1  0.26543000  0.07362000  0.01410000  1.0
  H  H3  1  0.73457000  0.92638000  0.98589000  1.0
  H  H4  1  0.49875000  0.18836000  0.08379000  1.0
  H  H5  1  0.50126000  0.81164000  0.91620000  1.0
  H  H6  1  0.67662000  0.10087000  0.19351000  1.0
  H  H7  1  0.32338000  0.89912000  0.80648000  1.0
  H  H8  1  0.74053000  0.92984000  0.28176000  1.0
  H  H9  1  0.25947000  0.07015000  0.71824000  1.0
  H  H10  1  0.67587000  0.72992000  0.31649000  1.0
  H  H11  1  0.32412000  0.27007000  0.68351000  1.0
  H  H12  1  0.49655000  0.55479000  0.29744000  1.0
  H  H13  1  0.50344000  0.44520000  0.70256000  1.0
  H  H14  1  0.25832000  0.45829000  0.21939000  1.0
  H  H15  1  0.74167000  0.54171000  0.78060000  1.0
  H  H16  1  0.09943000  0.56190000  0.10486000  1.0
  H  H17  1  0.90057000  0.43810000  0.89512000  1.0
  H  H18  1  0.27372000  0.70905000  0.69173000  1.0
  H  H19  1  0.72628000  0.29095000  0.30827000  1.0
  H  H20  1  0.25204000  0.60825000  0.50113000  1.0
  H  H21  1  0.74796000  0.39175000  0.49886000  1.0
  H  H22  1  0.88248000  0.52858000  0.67244000  1.0
  H  H23  1  0.11752000  0.47142000  0.32756000  1.0
  H  H24  1  0.83734000  0.54858000  0.17915000  1.0
  H  H25  1  0.16268000  0.45143000  0.82086000  1.0
  H  H26  1  0.63852000  0.40773000  0.18526000  1.0
  H  H27  1  0.36150000  0.59227000  0.81475000  1.0
  H  H28  1  0.60168000  0.67419000  0.89163000  1.0
  H  H29  1  0.39834000  0.32581000  0.10839000  1.0
  H  H30  1  0.02696000  0.80383000  0.27543000  1.0
  H  H31  1  0.97304000  0.19619000  0.72457000  1.0
  H  H32  1  0.02517000  0.77430000  0.47399000  1.0
  H  H33  1  0.97484000  0.22573000  0.52601000  1.0
  H  H34  1  0.98285000  0.14823000  0.33505000  1.0
  H  H35  1  0.01715000  0.85180000  0.66494000  1.0
  H  H36  1  0.22153000  0.22301000  0.17770000  1.0
  H  H37  1  0.77845000  0.77696000  0.82229000  1.0
  H  H38  1  0.57854000  0.30444000  0.50216000  1.0
  H  H39  1  0.42145000  0.69555000  0.49784000  1.0
  H  H40  1  0.70081000  0.18228000  0.62904000  1.0
  H  H41  1  0.29920000  0.81771000  0.37096000  1.0
  H  H42  1  0.28545000  0.00876000  0.31423000  1.0
  H  H43  1  0.71455000  0.99122000  0.68578000  1.0
  C  C44  1  0.34522000  0.03647000  0.06150000  1.0
  C  C45  1  0.65479000  0.96353000  0.93850000  1.0
  C  C46  1  0.47588000  0.10127000  0.10250000  1.0
  C  C47  1  0.52413000  0.89873000  0.89750000  1.0
  C  C48  1  0.57439000  0.05255000  0.16387000  1.0
  C  C49  1  0.42562000  0.94744000  0.83612000  1.0
  C  C50  1  0.54173000  0.93864000  0.18482000  1.0
  C  C51  1  0.45827000  0.06136000  0.81518000  1.0
  C  C52  1  0.63806000  0.88249000  0.24854000  1.0
  C  C53  1  0.36193000  0.11750000  0.75145000  1.0
  C  C54  1  0.60238000  0.77242000  0.26757000  1.0
  C  C55  1  0.39761000  0.22757000  0.73243000  1.0
  C  C56  1  0.46774000  0.71059000  0.22493000  1.0
  C  C57  1  0.53226000  0.28941000  0.77506000  1.0
  C  C58  1  0.42553000  0.59871000  0.24740000  1.0
  C  C59  1  0.57447000  0.40129000  0.75259000  1.0
  C  C60  1  0.29355000  0.54502000  0.20468000  1.0
  C  C61  1  0.70644000  0.45498000  0.79531000  1.0
  C  C62  1  0.20404000  0.60263000  0.13917000  1.0
  C  C63  1  0.79596000  0.39736000  0.86082000  1.0
  C  C64  1  0.37007000  0.76307000  0.15928000  1.0
  C  C65  1  0.62993000  0.23692000  0.84071000  1.0
  C  C66  1  0.40753000  0.87906000  0.13905000  1.0
  C  C67  1  0.59246000  0.12094000  0.86095000  1.0
  C  C68  1  0.09273000  0.68008000  0.81029000  1.0
  C  C69  1  0.90727000  0.31992000  0.18971000  1.0
  C  C70  1  0.07873000  0.62286000  0.69389000  1.0
  C  C71  1  0.92127000  0.37713000  0.30611000  1.0
  C  C72  1  0.18364000  0.64674000  0.64458000  1.0
  C  C73  1  0.81636000  0.35326000  0.35542000  1.0
  C  C74  1  0.17125000  0.59139000  0.53856000  1.0
  C  C75  1  0.82875000  0.40861000  0.46144000  1.0
  C  C76  1  0.96246000  0.54568000  0.63400000  1.0
  C  C77  1  0.03753000  0.45432000  0.36599000  1.0
  C  C78  1  0.05348000  0.51140000  0.47564000  1.0
  C  C79  1  0.94651000  0.48860000  0.52435000  1.0
  C  C80  1  0.85171000  0.69638000  0.02729000  1.0
  C  C81  1  0.14830000  0.30362000  0.97272000  1.0
  C  C82  1  0.72990000  0.62102000  0.03587000  1.0
  C  C83  1  0.27012000  0.37899000  0.96414000  1.0
  C  C84  1  0.74053000  0.54480000  0.11921000  1.0
  C  C85  1  0.25948000  0.45520000  0.88080000  1.0
  C  C86  1  0.63085000  0.46675000  0.12184000  1.0
  C  C87  1  0.36916000  0.53326000  0.87817000  1.0
  C  C88  1  0.60858000  0.61889000  0.95832000  1.0
  C  C89  1  0.39143000  0.38111000  0.04170000  1.0
  C  C90  1  0.50571000  0.46070000  0.04131000  1.0
  C  C91  1  0.49431000  0.53930000  0.95871000  1.0
  C  C92  1  0.00814000  0.99537000  0.17568000  1.0
  C  C93  1  0.99185000  0.00464000  0.82431000  1.0
  C  C94  1  0.00567000  0.97879000  0.29466000  1.0
  C  C95  1  0.99433000  0.02123000  0.70534000  1.0
  C  C96  1  0.01842000  0.87241000  0.33411000  1.0
  C  C97  1  0.98158000  0.12762000  0.66588000  1.0
  C  C98  1  0.01685000  0.85623000  0.44366000  1.0
  C  C99  1  0.98316000  0.14381000  0.55634000  1.0
  C  C100  1  0.99278000  0.06718000  0.36637000  1.0
  C  C101  1  0.00722000  0.93284000  0.63363000  1.0
  C  C102  1  0.00590000  0.94609000  0.51976000  1.0
  C  C103  1  0.99410000  0.05393000  0.48023000  1.0
  C  C104  1  0.36776000  0.23666000  0.31824000  1.0
  C  C105  1  0.63220000  0.76331000  0.68177000  1.0
  C  C106  1  0.42662000  0.16280000  0.40048000  1.0
  C  C107  1  0.57337000  0.83718000  0.59953000  1.0
  C  C108  1  0.54373000  0.21224000  0.49060000  1.0
  C  C109  1  0.45626000  0.78776000  0.50940000  1.0
  C  C110  1  0.60965000  0.14500000  0.56055000  1.0
  C  C111  1  0.39035000  0.85499000  0.43945000  1.0
  C  C112  1  0.37496000  0.04632000  0.38410000  1.0
  C  C113  1  0.62504000  0.95367000  0.61592000  1.0
  C  C114  1  0.56021000  0.02500000  0.54471000  1.0
  C  C115  1  0.43980000  0.97499000  0.45530000  1.0
  N  N116  1  0.31152000  0.92814000  0.07802000  1.0
  N  N117  1  0.68849000  0.07187000  0.92198000  1.0
  N  N118  1  0.24024000  0.70882000  0.11705000  1.0
  N  N119  1  0.75976000  0.29118000  0.88294000  1.0
  O  O120  1  0.19740000  0.75411000  0.86529000  1.0
  O  O121  1  0.80259000  0.24590000  0.13470000  1.0
  O  O122  1  0.99683000  0.65553000  0.85323000  1.0
  O  O123  1  0.00317000  0.34447000  0.14677000  1.0
  O  O124  1  0.96408000  0.68657000  0.08960000  1.0
  O  O125  1  0.03593000  0.31344000  0.91040000  1.0
  O  O126  1  0.84635000  0.77001000  0.95633000  1.0
  O  O127  1  0.15365000  0.22999000  0.04367000  1.0
  O  O128  1  0.06649000  0.93288000  0.12923000  1.0
  O  O129  1  0.93350000  0.06713000  0.87076000  1.0
  O  O130  1  0.95195000  0.07026000  0.12812000  1.0
  O  O131  1  0.04804000  0.92975000  0.87187000  1.0
  O  O132  1  0.24880000  0.18437000  0.24804000  1.0
  O  O133  1  0.75118000  0.81559000  0.75195000  1.0
  O  O134  1  0.42583000  0.33405000  0.31331000  1.0
  O  O135  1  0.57413000  0.66592000  0.68670000  1.0
