# generated using pymatgen
data_ZnH9C13NO5
_symmetry_space_group_name_H-M   'P 1'
_cell_length_a   10.02130000
_cell_length_b   11.26580000
_cell_length_c   11.32020000
_cell_angle_alpha   104.95300000
_cell_angle_beta   96.41910000
_cell_angle_gamma   108.24000000
_symmetry_Int_Tables_number   1
_chemical_formula_structural   ZnH9C13NO5
_chemical_formula_sum   'Zn4 H36 C52 N4 O20'
_cell_volume   1146.59570021
_cell_formula_units_Z   4
loop_
 _symmetry_equiv_pos_site_id
 _symmetry_equiv_pos_as_xyz
  1  'x, y, z'
loop_
 _atom_site_type_symbol
 _atom_site_label
 _atom_site_symmetry_multiplicity
 _atom_site_fract_x
 _atom_site_fract_y
 _atom_site_fract_z
 _atom_site_occupancy
  Zn  Zn0  1  0.22023000  0.35644000  0.64502000  1.0
  Zn  Zn1  1  0.77977000  0.64356000  0.35498000  1.0
  Zn  Zn2  1  0.25155000  0.64881000  0.30073000  1.0
  Zn  Zn3  1  0.74845000  0.35119000  0.69927000  1.0
  H  H4  1  0.48765000  0.47454000  0.60460000  1.0
  H  H5  1  0.51235000  0.52546000  0.39540000  1.0
  H  H6  1  0.37428000  0.40609000  0.47246000  1.0
  H  H7  1  0.62572000  0.59391000  0.52754000  1.0
  H  H8  1  0.08577000  0.43915000  0.46090000  1.0
  H  H9  1  0.91423000  0.56085000  0.53910000  1.0
  H  H10  1  0.22111000  0.54883000  0.55191000  1.0
  H  H11  1  0.77889000  0.45117000  0.44809000  1.0
  H  H12  1  0.68635000  0.84625000  0.52537000  1.0
  H  H13  1  0.31365000  0.15375000  0.47463000  1.0
  H  H14  1  0.78940000  0.03593000  0.72036000  1.0
  H  H15  1  0.21060000  0.96407000  0.27964000  1.0
  H  H16  1  0.07753000  0.41720000  0.04714000  1.0
  H  H17  1  0.92247000  0.58279000  0.95286000  1.0
  H  H18  1  0.15116000  0.99043000  0.93007000  1.0
  H  H19  1  0.84884000  0.00957000  0.06993000  1.0
  H  H20  1  0.24906000  0.14379000  0.14735000  1.0
  H  H21  1  0.75094000  0.85621000  0.85265000  1.0
  H  H22  1  0.19232000  0.97173000  0.72014000  1.0
  H  H23  1  0.80767000  0.02826000  0.27986000  1.0
  H  H24  1  0.48922000  0.50509000  0.84418000  1.0
  H  H25  1  0.51078000  0.49491000  0.15582000  1.0
  H  H26  1  0.10704000  0.56913000  0.77026000  1.0
  H  H27  1  0.89296000  0.43087000  0.22974000  1.0
  H  H28  1  0.07593000  0.79358000  0.51721000  1.0
  H  H29  1  0.92407000  0.20642000  0.48278000  1.0
  H  H30  1  0.58534000  0.70110000  0.03274000  1.0
  H  H31  1  0.41466000  0.29890000  0.96726000  1.0
  H  H32  1  0.18733000  0.76803000  0.95673000  1.0
  H  H33  1  0.81267000  0.23197000  0.04328000  1.0
  H  H34  1  0.63259000  0.97717000  0.42863000  1.0
  H  H35  1  0.36741000  0.02284000  0.57137000  1.0
  H  H36  1  0.37135000  0.98895000  0.03622000  1.0
  H  H37  1  0.62865000  0.01105000  0.96378000  1.0
  H  H38  1  0.47504000  0.19179000  0.22216000  1.0
  H  H39  1  0.52496000  0.80821000  0.77784000  1.0
  C  C40  1  0.97148000  0.28627000  0.80344000  1.0
  C  C41  1  0.02852000  0.71373000  0.19656000  1.0
  C  C42  1  0.54475000  0.74372000  0.25179000  1.0
  C  C43  1  0.45525000  0.25628000  0.74821000  1.0
  C  C44  1  0.04540000  0.24142000  0.89711000  1.0
  C  C45  1  0.95460000  0.75858000  0.10289000  1.0
  C  C46  1  0.79962000  0.88081000  0.56945000  1.0
  C  C47  1  0.20038000  0.11919000  0.43055000  1.0
  C  C48  1  0.85783000  0.98555000  0.67939000  1.0
  C  C49  1  0.14217000  0.01445000  0.32061000  1.0
  C  C50  1  0.00120000  0.01970000  0.73871000  1.0
  C  C51  1  0.99880000  0.98029000  0.26129000  1.0
  C  C52  1  0.06494000  0.11927000  0.86310000  1.0
  C  C53  1  0.93505000  0.88072000  0.13690000  1.0
  C  C54  1  0.09543000  0.32414000  0.02085000  1.0
  C  C55  1  0.90457000  0.67586000  0.97915000  1.0
  C  C56  1  0.16949000  0.28992000  0.11135000  1.0
  C  C57  1  0.83051000  0.71008000  0.88865000  1.0
  C  C58  1  0.22413000  0.38005000  0.24384000  1.0
  C  C59  1  0.77587000  0.61995000  0.75616000  1.0
  C  C60  1  0.13984000  0.08645000  0.95475000  1.0
  C  C61  1  0.86016000  0.91355000  0.04525000  1.0
  C  C62  1  0.19273000  0.17063000  0.07660000  1.0
  C  C63  1  0.80727000  0.82937000  0.92340000  1.0
  C  C64  1  0.07998000  0.94782000  0.67975000  1.0
  C  C65  1  0.92002000  0.05218000  0.32024000  1.0
  C  C66  1  0.42500000  0.56539000  0.87306000  1.0
  C  C67  1  0.57500000  0.43461000  0.12694000  1.0
  C  C68  1  0.21266000  0.60214000  0.83081000  1.0
  C  C69  1  0.78734000  0.39786000  0.16919000  1.0
  C  C70  1  0.01575000  0.84785000  0.56737000  1.0
  C  C71  1  0.98425000  0.15215000  0.43263000  1.0
  C  C72  1  0.52038000  0.86519000  0.23843000  1.0
  C  C73  1  0.47962000  0.13481000  0.76157000  1.0
  C  C74  1  0.44552000  0.86769000  0.12630000  1.0
  C  C75  1  0.55448000  0.13231000  0.87370000  1.0
  C  C76  1  0.47787000  0.67528000  0.97866000  1.0
  C  C77  1  0.52213000  0.32472000  0.02133000  1.0
  C  C78  1  0.25903000  0.71413000  0.93435000  1.0
  C  C79  1  0.74098000  0.28587000  0.06565000  1.0
  C  C80  1  0.39356000  0.75189000  0.01287000  1.0
  C  C81  1  0.60644000  0.24811000  0.98713000  1.0
  C  C82  1  0.57462000  0.97825000  0.34197000  1.0
  C  C83  1  0.42538000  0.02175000  0.65803000  1.0
  C  C84  1  0.55980000  0.09574000  0.33597000  1.0
  C  C85  1  0.44020000  0.90426000  0.66403000  1.0
  C  C86  1  0.42679000  0.98556000  0.12307000  1.0
  C  C87  1  0.57321000  0.01444000  0.87693000  1.0
  C  C88  1  0.63084000  0.21913000  0.44393000  1.0
  C  C89  1  0.36916000  0.78087000  0.55607000  1.0
  C  C90  1  0.48483000  0.09899000  0.22551000  1.0
  C  C91  1  0.51517000  0.90101000  0.77449000  1.0
  N  N92  1  0.29374000  0.52766000  0.80074000  1.0
  N  N93  1  0.70626000  0.47235000  0.19926000  1.0
  N  N94  1  0.87661000  0.81290000  0.51343000  1.0
  N  N95  1  0.12339000  0.18711000  0.48657000  1.0
  O  O96  1  0.43557000  0.64433000  0.24690000  1.0
  O  O97  1  0.56443000  0.35567000  0.75310000  1.0
  O  O98  1  0.01684000  0.29610000  0.70584000  1.0
  O  O99  1  0.98317000  0.70390000  0.29416000  1.0
  O  O100  1  0.15738000  0.46065000  0.27973000  1.0
  O  O101  1  0.84262000  0.53935000  0.72027000  1.0
  O  O102  1  0.86084000  0.31286000  0.83116000  1.0
  O  O103  1  0.13916000  0.68714000  0.16884000  1.0
  O  O104  1  0.39797000  0.40222000  0.55864000  1.0
  O  O105  1  0.60203000  0.59779000  0.44136000  1.0
  O  O106  1  0.32788000  0.37179000  0.31048000  1.0
  O  O107  1  0.67212000  0.62821000  0.68952000  1.0
  O  O108  1  0.13274000  0.47398000  0.54933000  1.0
  O  O109  1  0.86726000  0.52602000  0.45067000  1.0
  O  O110  1  0.67320000  0.74810000  0.26647000  1.0
  O  O111  1  0.32680000  0.25190000  0.73353000  1.0
  O  O112  1  0.63399000  0.32664000  0.43013000  1.0
  O  O113  1  0.36601000  0.67336000  0.56987000  1.0
  O  O114  1  0.68723000  0.20393000  0.54539000  1.0
  O  O115  1  0.31277000  0.79607000  0.45461000  1.0
