# generated using pymatgen
data_CoH8C6(N4O3)2
_symmetry_space_group_name_H-M   'P 1'
_cell_length_a   6.61812000
_cell_length_b   6.66842000
_cell_length_c   8.55368000
_cell_angle_alpha   107.71300000
_cell_angle_beta   97.46590000
_cell_angle_gamma   106.20600000
_symmetry_Int_Tables_number   1
_chemical_formula_structural   CoH8C6(N4O3)2
_chemical_formula_sum   'Co1 H8 C6 N8 O6'
_cell_volume   335.64973195
_cell_formula_units_Z   1
loop_
 _symmetry_equiv_pos_site_id
 _symmetry_equiv_pos_as_xyz
  1  'x, y, z'
loop_
 _atom_site_type_symbol
 _atom_site_label
 _atom_site_symmetry_multiplicity
 _atom_site_fract_x
 _atom_site_fract_y
 _atom_site_fract_z
 _atom_site_occupancy
  Co  Co0  1  0.49998000  0.49997000  0.50002000  1.0
  H  H1  1  0.74586000  0.97171000  0.72254000  1.0
  H  H2  1  0.25414000  0.02824000  0.27747000  1.0
  H  H3  1  0.25966000  0.65714000  0.27866000  1.0
  H  H4  1  0.74036000  0.34282000  0.72136000  1.0
  H  H5  1  0.09825000  0.43212000  0.55195000  1.0
  H  H6  1  0.90145000  0.56832000  0.44779000  1.0
  H  H7  1  0.03321000  0.24529000  0.37193000  1.0
  H  H8  1  0.96687000  0.75471000  0.62805000  1.0
  C  C9  1  0.63642000  0.98261000  0.62178000  1.0
  C  C10  1  0.36358000  0.01735000  0.37824000  1.0
  C  C11  1  0.36725000  0.81028000  0.37762000  1.0
  C  C12  1  0.63276000  0.18969000  0.62240000  1.0
  C  C13  1  0.42816000  0.31930000  0.12100000  1.0
  C  C14  1  0.57184000  0.68065000  0.87902000  1.0
  N  N15  1  0.50352000  0.79132000  0.49941000  1.0
  N  N16  1  0.49649000  0.20865000  0.50062000  1.0
  N  N17  1  0.48347000  0.39778000  0.26908000  1.0
  N  N18  1  0.51658000  0.60218000  0.73097000  1.0
  N  N19  1  0.23531000  0.04825000  0.87771000  1.0
  N  N20  1  0.76472000  0.95175000  0.12233000  1.0
  N  N21  1  0.37357000  0.25948000  0.95725000  1.0
  N  N22  1  0.62641000  0.74044000  0.04281000  1.0
  O  O23  1  0.14141000  0.39580000  0.44475000  1.0
  O  O24  1  0.85872000  0.60418000  0.55518000  1.0
  O  O25  1  0.18411000  0.91261000  0.95165000  1.0
  O  O26  1  0.81586000  0.08737000  0.04835000  1.0
  O  O27  1  0.16128000  0.99823000  0.72112000  1.0
  O  O28  1  0.83876000  0.00174000  0.27893000  1.0
