# generated using pymatgen
data_ZnH8C13N3O8
_symmetry_space_group_name_H-M   'P 1'
_cell_length_a   8.19046000
_cell_length_b   8.72052000
_cell_length_c   15.18810000
_cell_angle_alpha   74.77910000
_cell_angle_beta   89.65540000
_cell_angle_gamma   86.80590000
_symmetry_Int_Tables_number   1
_chemical_formula_structural   ZnH8C13N3O8
_chemical_formula_sum   'Zn2 H16 C26 N6 O16'
_cell_volume   1045.08888716
_cell_formula_units_Z   2
loop_
 _symmetry_equiv_pos_site_id
 _symmetry_equiv_pos_as_xyz
  1  'x, y, z'
loop_
 _atom_site_type_symbol
 _atom_site_label
 _atom_site_symmetry_multiplicity
 _atom_site_fract_x
 _atom_site_fract_y
 _atom_site_fract_z
 _atom_site_occupancy
  Zn  Zn0  1  0.68741000  0.50692000  0.49908000  1.0
  Zn  Zn1  1  0.31259000  0.49312000  0.50091000  1.0
  H  H2  1  0.74022000  0.39931000  0.78837000  1.0
  H  H3  1  0.25978000  0.60071000  0.21164000  1.0
  H  H4  1  0.25748000  0.62369000  0.76043000  1.0
  H  H5  1  0.74252000  0.37630000  0.23957000  1.0
  H  H6  1  0.11993000  0.68571000  0.89285000  1.0
  H  H7  1  0.88009000  0.31429000  0.10716000  1.0
  H  H8  1  0.98965000  0.17799000  0.62709000  1.0
  H  H9  1  0.19196000  0.21997000  0.65254000  1.0
  H  H10  1  0.03477000  0.21429000  0.73462000  1.0
  H  H11  1  0.09334000  0.49348000  0.65851000  1.0
  H  H12  1  0.88754000  0.45474000  0.63479000  1.0
  H  H13  1  0.80806000  0.78004000  0.34743000  1.0
  H  H14  1  0.01036000  0.82200000  0.37289000  1.0
  H  H15  1  0.96526000  0.78569000  0.26536000  1.0
  H  H16  1  0.11245000  0.54524000  0.36520000  1.0
  H  H17  1  0.90664000  0.50651000  0.34148000  1.0
  C  C18  1  0.45034000  0.80078000  0.46857000  1.0
  C  C19  1  0.54967000  0.19926000  0.53144000  1.0
  C  C20  1  0.49889000  0.48713000  0.33281000  1.0
  C  C21  1  0.50111000  0.51288000  0.66718000  1.0
  C  C22  1  0.63683000  0.44610000  0.82008000  1.0
  C  C23  1  0.36317000  0.55388000  0.17993000  1.0
  C  C24  1  0.49997000  0.51178000  0.76598000  1.0
  C  C25  1  0.50003000  0.48820000  0.23403000  1.0
  C  C26  1  0.36332000  0.57239000  0.80347000  1.0
  C  C27  1  0.63668000  0.42759000  0.19653000  1.0
  C  C28  1  0.36325000  0.56985000  0.89618000  1.0
  C  C29  1  0.63674000  0.43015000  0.10383000  1.0
  C  C30  1  0.50146000  0.50104000  0.95297000  1.0
  C  C31  1  0.49853000  0.49896000  0.04704000  1.0
  C  C32  1  0.63973000  0.43555000  0.91380000  1.0
  C  C33  1  0.36027000  0.56444000  0.08621000  1.0
  C  C34  1  0.22587000  0.63357000  0.93545000  1.0
  C  C35  1  0.77412000  0.36643000  0.06455000  1.0
  C  C36  1  0.22492000  0.63234000  0.02555000  1.0
  C  C37  1  0.77510000  0.36765000  0.97444000  1.0
  C  C38  1  0.43821000  0.95995000  0.48982000  1.0
  C  C39  1  0.56177000  0.04005000  0.51020000  1.0
  C  C40  1  0.01696000  0.42577000  0.62470000  1.0
  C  C41  1  0.06176000  0.24783000  0.66141000  1.0
  C  C42  1  0.98303000  0.57423000  0.37528000  1.0
  C  C43  1  0.93825000  0.75217000  0.33856000  1.0
  N  N44  1  0.05786000  0.47909000  0.52787000  1.0
  N  N45  1  0.94212000  0.52092000  0.47211000  1.0
  N  N46  1  0.07757000  0.70616000  0.05703000  1.0
  N  N47  1  0.92244000  0.29387000  0.94298000  1.0
  N  N48  1  0.26660000  0.02127000  0.49319000  1.0
  N  N49  1  0.73340000  0.97873000  0.50683000  1.0
  O  O50  1  0.59377000  0.74212000  0.46284000  1.0
  O  O51  1  0.40623000  0.25793000  0.53715000  1.0
  O  O52  1  0.31573000  0.74040000  0.46147000  1.0
  O  O53  1  0.68429000  0.25964000  0.53854000  1.0
  O  O54  1  0.63676000  0.48315000  0.37157000  1.0
  O  O55  1  0.36324000  0.51687000  0.62842000  1.0
  O  O56  1  0.35970000  0.49057000  0.37006000  1.0
  O  O57  1  0.64030000  0.50946000  0.62993000  1.0
  O  O58  1  0.94597000  0.70110000  0.01802000  1.0
  O  O59  1  0.09269000  0.77135000  0.12000000  1.0
  O  O60  1  0.05403000  0.29894000  0.98198000  1.0
  O  O61  1  0.90735000  0.22869000  0.88000000  1.0
  O  O62  1  0.19603000  0.97365000  0.56633000  1.0
  O  O63  1  0.20686000  0.10586000  0.42128000  1.0
  O  O64  1  0.80397000  0.02633000  0.43369000  1.0
  O  O65  1  0.79312000  0.89413000  0.57875000  1.0
