# generated using pymatgen
data_AlH18C24(NO)6
_symmetry_space_group_name_H-M   'P 1'
_cell_length_a   3.95252000
_cell_length_b   29.17567696
_cell_length_c   29.17690000
_cell_angle_alpha   60.00184015
_cell_angle_beta   89.99800000
_cell_angle_gamma   89.99289967
_symmetry_Int_Tables_number   1
_chemical_formula_structural   AlH18C24(NO)6
_chemical_formula_sum   'Al2 H36 C48 N12 O12'
_cell_volume   2913.88793709
_cell_formula_units_Z   2
loop_
 _symmetry_equiv_pos_site_id
 _symmetry_equiv_pos_as_xyz
  1  'x, y, z'
loop_
 _atom_site_type_symbol
 _atom_site_label
 _atom_site_symmetry_multiplicity
 _atom_site_fract_x
 _atom_site_fract_y
 _atom_site_fract_z
 _atom_site_occupancy
  Al  Al0  1  0.99996000  0.49999000  0.00003000  1.0
  Al  Al1  1  0.00034000  0.16666000  0.66668000  1.0
  H  H2  1  0.79008000  0.35276000  0.41953000  1.0
  H  H3  1  0.21020000  0.22775000  0.41953000  1.0
  H  H4  1  0.21113000  0.43902000  0.24720000  1.0
  H  H5  1  0.78889000  0.31381000  0.24721000  1.0
  H  H6  1  0.79023000  0.22776000  0.85276000  1.0
  H  H7  1  0.21024000  0.35277000  0.72774000  1.0
  H  H8  1  0.21120000  0.31380000  0.93902000  1.0
  H  H9  1  0.78876000  0.43903000  0.81381000  1.0
  H  H10  1  0.79019000  0.91951000  0.72768000  1.0
  H  H11  1  0.21027000  0.91948000  0.85271000  1.0
  H  H12  1  0.21135000  0.74714000  0.81373000  1.0
  H  H13  1  0.78888000  0.74721000  0.93892000  1.0
  H  H14  1  0.89234000  0.28587000  0.56006000  1.0
  H  H15  1  0.00153000  0.33883000  0.49973000  1.0
  H  H16  1  0.10831000  0.15408000  0.56006000  1.0
  H  H17  1  0.99919000  0.16146000  0.49972000  1.0
  H  H18  1  0.10836000  0.51263000  0.10667000  1.0
  H  H19  1  0.99973000  0.50529000  0.16700000  1.0
  H  H20  1  0.89160000  0.38070000  0.10668000  1.0
  H  H21  1  0.00027000  0.32772000  0.16702000  1.0
  H  H22  1  0.89231000  0.15409000  0.78588000  1.0
  H  H23  1  0.00163000  0.16147000  0.83883000  1.0
  H  H24  1  0.10816000  0.28588000  0.65410000  1.0
  H  H25  1  0.99908000  0.33884000  0.66147000  1.0
  H  H26  1  0.10845000  0.38070000  0.01265000  1.0
  H  H27  1  0.99983000  0.32772000  0.00530000  1.0
  H  H28  1  0.89144000  0.51263000  0.88074000  1.0
  H  H29  1  0.00008000  0.50529000  0.82776000  1.0
  H  H30  1  0.89247000  0.06004000  0.65408000  1.0
  H  H31  1  0.00164000  0.99972000  0.66143000  1.0
  H  H32  1  0.10840000  0.06001000  0.78589000  1.0
  H  H33  1  0.99923000  0.99968000  0.83883000  1.0
  H  H34  1  0.10846000  0.60661000  0.88073000  1.0
  H  H35  1  0.99988000  0.66693000  0.82772000  1.0
  H  H36  1  0.89144000  0.60667000  0.01263000  1.0
  H  H37  1  0.00014000  0.66701000  0.00525000  1.0
  C  C38  1  0.49995000  0.58303000  0.95850000  1.0
  C  C39  1  0.49999000  0.45846000  0.08308000  1.0
  C  C40  1  0.49998000  0.45846000  0.95851000  1.0
  C  C41  1  0.50024000  0.20818000  0.58368000  1.0
  C  C42  1  0.50022000  0.20816000  0.70820000  1.0
  C  C43  1  0.50028000  0.08365000  0.70816000  1.0
  C  C44  1  0.50022000  0.23709000  0.52588000  1.0
  C  C45  1  0.67059000  0.28713000  0.49674000  1.0
  C  C46  1  0.66017000  0.31489000  0.44131000  1.0
  C  C47  1  0.50009000  0.29321000  0.41365000  1.0
  C  C48  1  0.34012000  0.24386000  0.44131000  1.0
  C  C49  1  0.33003000  0.21616000  0.49674000  1.0
  C  C50  1  0.50010000  0.32128000  0.35749000  1.0
  C  C51  1  0.50012000  0.34543000  0.30920000  1.0
  C  C52  1  0.50002000  0.37349000  0.25306000  1.0
  C  C53  1  0.34066000  0.42290000  0.22540000  1.0
  C  C54  1  0.33026000  0.45056000  0.16997000  1.0
  C  C55  1  0.50002000  0.42957000  0.14087000  1.0
  C  C56  1  0.66980000  0.37948000  0.16998000  1.0
  C  C57  1  0.65942000  0.35173000  0.22541000  1.0
  C  C58  1  0.50023000  0.23707000  0.73709000  1.0
  C  C59  1  0.67064000  0.21616000  0.78713000  1.0
  C  C60  1  0.66036000  0.24384000  0.81487000  1.0
  C  C61  1  0.50017000  0.29318000  0.79319000  1.0
  C  C62  1  0.34017000  0.31488000  0.74384000  1.0
  C  C63  1  0.33004000  0.28714000  0.71615000  1.0
  C  C64  1  0.50013000  0.32128000  0.82126000  1.0
  C  C65  1  0.50007000  0.34542000  0.84540000  1.0
  C  C66  1  0.49997000  0.37349000  0.87349000  1.0
  C  C67  1  0.34066000  0.35173000  0.92290000  1.0
  C  C68  1  0.33028000  0.37949000  0.95058000  1.0
  C  C69  1  0.50001000  0.42958000  0.92960000  1.0
  C  C70  1  0.66974000  0.45057000  0.87950000  1.0
  C  C71  1  0.65932000  0.42291000  0.85173000  1.0
  C  C72  1  0.50027000  0.02586000  0.73704000  1.0
  C  C73  1  0.67063000  0.99673000  0.71611000  1.0
  C  C74  1  0.66025000  0.94130000  0.74377000  1.0
  C  C75  1  0.50013000  0.91362000  0.79311000  1.0
  C  C76  1  0.34017000  0.94128000  0.81482000  1.0
  C  C77  1  0.33007000  0.99671000  0.78710000  1.0
  C  C78  1  0.50019000  0.85745000  0.82119000  1.0
  C  C79  1  0.50020000  0.80918000  0.84529000  1.0
  C  C80  1  0.50017000  0.75303000  0.87340000  1.0
  C  C81  1  0.34080000  0.72536000  0.85167000  1.0
  C  C82  1  0.33039000  0.66992000  0.87946000  1.0
  C  C83  1  0.50006000  0.64083000  0.92957000  1.0
  C  C84  1  0.66982000  0.66996000  0.95052000  1.0
  C  C85  1  0.65948000  0.72539000  0.92282000  1.0
  N  N86  1  0.82774000  0.31079000  0.52169000  1.0
  N  N87  1  0.17294000  0.16754000  0.52169000  1.0
  N  N88  1  0.17340000  0.49920000  0.14503000  1.0
  N  N89  1  0.82658000  0.35578000  0.14504000  1.0
  N  N90  1  0.82778000  0.16755000  0.81080000  1.0
  N  N91  1  0.17284000  0.31079000  0.66756000  1.0
  N  N92  1  0.17348000  0.35578000  0.99922000  1.0
  N  N93  1  0.82644000  0.49920000  0.85582000  1.0
  N  N94  1  0.82784000  0.02168000  0.66752000  1.0
  N  N95  1  0.17299000  0.02164000  0.81078000  1.0
  N  N96  1  0.17352000  0.64496000  0.85579000  1.0
  N  N97  1  0.82648000  0.64503000  0.99917000  1.0
  O  O98  1  0.26772000  0.44880000  0.99344000  1.0
  O  O99  1  0.26765000  0.55776000  0.94885000  1.0
  O  O100  1  0.26769000  0.49339000  0.05781000  1.0
  O  O101  1  0.73226000  0.49339000  0.94885000  1.0
  O  O102  1  0.73232000  0.44880000  0.05781000  1.0
  O  O103  1  0.73226000  0.55777000  0.99343000  1.0
  O  O104  1  0.26799000  0.10891000  0.71784000  1.0
  O  O105  1  0.26796000  0.17325000  0.60894000  1.0
  O  O106  1  0.26793000  0.21782000  0.67328000  1.0
  O  O107  1  0.73261000  0.10892000  0.67324000  1.0
  O  O108  1  0.73250000  0.17323000  0.71785000  1.0
  O  O109  1  0.73253000  0.21784000  0.60895000  1.0
