# generated using pymatgen
data_CuH12C12(NO2)2
_symmetry_space_group_name_H-M   'P 1'
_cell_length_a   9.77350000
_cell_length_b   10.99420000
_cell_length_c   12.23420000
_cell_angle_alpha   90.00020000
_cell_angle_beta   90.00030000
_cell_angle_gamma   83.43200000
_symmetry_Int_Tables_number   1
_chemical_formula_structural   CuH12C12(NO2)2
_chemical_formula_sum   'Cu4 H48 C48 N8 O16'
_cell_volume   1305.95908672
_cell_formula_units_Z   4
loop_
 _symmetry_equiv_pos_site_id
 _symmetry_equiv_pos_as_xyz
  1  'x, y, z'
loop_
 _atom_site_type_symbol
 _atom_site_label
 _atom_site_symmetry_multiplicity
 _atom_site_fract_x
 _atom_site_fract_y
 _atom_site_fract_z
 _atom_site_occupancy
  Cu  Cu0  1  0.64803000  0.62047000  0.38277000  1.0
  Cu  Cu1  1  0.85197000  0.87953000  0.88277000  1.0
  Cu  Cu2  1  0.35197000  0.37953000  0.61723000  1.0
  Cu  Cu3  1  0.14803000  0.12047000  0.11723000  1.0
  H  H4  1  0.78408000  0.24658000  0.49180000  1.0
  H  H5  1  0.71594000  0.25342000  0.99179000  1.0
  H  H6  1  0.21594000  0.75342000  0.50821000  1.0
  H  H7  1  0.28408000  0.74658000  0.00820000  1.0
  H  H8  1  0.69598000  0.25242000  0.62127000  1.0
  H  H9  1  0.80402000  0.24758000  0.12127000  1.0
  H  H10  1  0.30402000  0.74758000  0.37873000  1.0
  H  H11  1  0.19599000  0.75242000  0.87873000  1.0
  H  H12  1  0.86239000  0.30150000  0.61103000  1.0
  H  H13  1  0.63762000  0.19851000  0.11102000  1.0
  H  H14  1  0.13762000  0.69850000  0.38898000  1.0
  H  H15  1  0.36239000  0.80150000  0.88897000  1.0
  H  H16  1  0.40187000  0.93291000  0.18308000  1.0
  H  H17  1  0.09812000  0.56709000  0.68307000  1.0
  H  H18  1  0.59813000  0.06709000  0.81693000  1.0
  H  H19  1  0.90187000  0.43292000  0.31692000  1.0
  H  H20  1  0.55322000  0.96968000  0.11738000  1.0
  H  H21  1  0.94678000  0.53032000  0.61738000  1.0
  H  H22  1  0.44678000  0.03032000  0.88262000  1.0
  H  H23  1  0.05322000  0.46968000  0.38262000  1.0
  H  H24  1  0.52965000  0.99516000  0.26142000  1.0
  H  H25  1  0.97036000  0.50483000  0.76142000  1.0
  H  H26  1  0.47037000  0.00483000  0.73859000  1.0
  H  H27  1  0.02965000  0.49517000  0.23859000  1.0
  H  H28  1  0.44563000  0.77594000  0.67966000  1.0
  H  H29  1  0.05436000  0.72406000  0.17966000  1.0
  H  H30  1  0.55436000  0.22406000  0.32034000  1.0
  H  H31  1  0.94564000  0.27594000  0.82034000  1.0
  H  H32  1  0.57528000  0.70712000  0.77148000  1.0
  H  H33  1  0.92471000  0.79289000  0.27148000  1.0
  H  H34  1  0.42471000  0.29289000  0.22853000  1.0
  H  H35  1  0.07529000  0.20712000  0.72852000  1.0
  H  H36  1  0.42731000  0.63261000  0.74401000  1.0
  H  H37  1  0.07268000  0.86740000  0.24400000  1.0
  H  H38  1  0.57267000  0.36740000  0.25600000  1.0
  H  H39  1  0.92731000  0.13261000  0.75600000  1.0
  H  H40  1  0.83060000  0.45542000  0.08239000  1.0
  H  H41  1  0.66941000  0.04457000  0.58239000  1.0
  H  H42  1  0.16941000  0.54458000  0.91761000  1.0
  H  H43  1  0.33059000  0.95543000  0.41761000  1.0
  H  H44  1  0.83581000  0.59676000  0.00965000  1.0
  H  H45  1  0.66419000  0.90324000  0.50964000  1.0
  H  H46  1  0.16418000  0.40324000  0.99034000  1.0
  H  H47  1  0.33582000  0.09676000  0.49034000  1.0
  H  H48  1  0.69226000  0.51410000  0.99512000  1.0
  H  H49  1  0.80774000  0.98590000  0.49512000  1.0
  H  H50  1  0.30773000  0.48590000  0.00488000  1.0
  H  H51  1  0.19227000  0.01411000  0.50488000  1.0
  C  C52  1  0.57757000  0.80726000  0.21929000  1.0
  C  C53  1  0.92243000  0.69274000  0.71930000  1.0
  C  C54  1  0.42243000  0.19274000  0.78071000  1.0
  C  C55  1  0.07756000  0.30726000  0.28070000  1.0
  C  C56  1  0.70249000  0.42637000  0.54243000  1.0
  C  C57  1  0.79751000  0.07363000  0.04242000  1.0
  C  C58  1  0.29751000  0.57363000  0.45758000  1.0
  C  C59  1  0.20249000  0.92637000  0.95757000  1.0
  C  C60  1  0.70187000  0.60732000  0.14939000  1.0
  C  C61  1  0.79814000  0.89268000  0.64939000  1.0
  C  C62  1  0.29814000  0.39267000  0.85061000  1.0
  C  C63  1  0.20187000  0.10732000  0.35061000  1.0
  C  C64  1  0.57194000  0.62322000  0.61249000  1.0
  C  C65  1  0.92806000  0.87678000  0.11249000  1.0
  C  C66  1  0.42805000  0.37678000  0.38751000  1.0
  C  C67  1  0.07194000  0.12322000  0.88751000  1.0
  C  C68  1  0.64221000  0.50293000  0.62844000  1.0
  C  C69  1  0.85780000  0.99708000  0.12844000  1.0
  C  C70  1  0.35780000  0.49707000  0.37157000  1.0
  C  C71  1  0.14221000  0.00292000  0.87156000  1.0
  C  C72  1  0.63734000  0.72974000  0.13400000  1.0
  C  C73  1  0.86266000  0.77026000  0.63400000  1.0
  C  C74  1  0.36266000  0.27026000  0.86600000  1.0
  C  C75  1  0.13733000  0.22974000  0.36600000  1.0
  C  C76  1  0.63369000  0.77540000  0.02646000  1.0
  C  C77  1  0.86631000  0.72459000  0.52646000  1.0
  C  C78  1  0.36631000  0.22459000  0.97354000  1.0
  C  C79  1  0.13369000  0.27541000  0.47354000  1.0
  C  C80  1  0.64866000  0.45414000  0.73575000  1.0
  C  C81  1  0.85134000  0.04587000  0.23574000  1.0
  C  C82  1  0.35135000  0.54586000  0.26426000  1.0
  C  C83  1  0.14866000  0.95413000  0.76425000  1.0
  C  C84  1  0.76414000  0.29833000  0.56776000  1.0
  C  C85  1  0.73587000  0.20167000  0.06776000  1.0
  C  C86  1  0.23587000  0.70167000  0.43225000  1.0
  C  C87  1  0.26414000  0.79833000  0.93224000  1.0
  C  C88  1  0.51355000  0.93397000  0.19307000  1.0
  C  C89  1  0.98645000  0.56603000  0.69307000  1.0
  C  C90  1  0.48645000  0.06603000  0.80693000  1.0
  C  C91  1  0.01355000  0.43397000  0.30693000  1.0
  C  C92  1  0.50097000  0.68929000  0.70754000  1.0
  C  C93  1  0.99902000  0.81071000  0.20753000  1.0
  C  C94  1  0.49902000  0.31071000  0.29247000  1.0
  C  C95  1  0.00097000  0.18929000  0.79246000  1.0
  C  C96  1  0.76956000  0.53912000  0.05400000  1.0
  C  C97  1  0.73044000  0.96088000  0.55400000  1.0
  C  C98  1  0.23044000  0.46088000  0.94600000  1.0
  C  C99  1  0.26956000  0.03912000  0.44600000  1.0
  N  N100  1  0.63528000  0.81104000  0.93606000  1.0
  N  N101  1  0.86471000  0.68895000  0.43606000  1.0
  N  N102  1  0.36471000  0.18896000  0.06394000  1.0
  N  N103  1  0.13529000  0.31105000  0.56394000  1.0
  N  N104  1  0.65582000  0.41275000  0.82413000  1.0
  N  N105  1  0.84419000  0.08725000  0.32413000  1.0
  N  N106  1  0.34419000  0.58725000  0.17588000  1.0
  N  N107  1  0.15581000  0.91275000  0.67587000  1.0
  O  O108  1  0.70758000  0.45978000  0.44312000  1.0
  O  O109  1  0.79242000  0.04021000  0.94312000  1.0
  O  O110  1  0.29241000  0.54021000  0.55688000  1.0
  O  O111  1  0.20758000  0.95978000  0.05688000  1.0
  O  O112  1  0.57358000  0.77558000  0.31929000  1.0
  O  O113  1  0.92640000  0.72442000  0.81929000  1.0
  O  O114  1  0.42642000  0.22442000  0.68071000  1.0
  O  O115  1  0.07357000  0.27558000  0.18071000  1.0
  O  O116  1  0.70675000  0.55228000  0.24085000  1.0
  O  O117  1  0.79327000  0.94772000  0.74084000  1.0
  O  O118  1  0.29327000  0.44771000  0.75915000  1.0
  O  O119  1  0.20675000  0.05229000  0.25915000  1.0
  O  O120  1  0.56296000  0.67833000  0.52093000  1.0
  O  O121  1  0.93704000  0.82167000  0.02092000  1.0
  O  O122  1  0.43702000  0.32165000  0.47908000  1.0
  O  O123  1  0.06296000  0.17833000  0.97908000  1.0
