# generated using pymatgen
data_ZnH8C21Br6NO9
_symmetry_space_group_name_H-M   'P 1'
_cell_length_a   11.12970000
_cell_length_b   18.24290000
_cell_length_c   19.31750000
_cell_angle_alpha   88.52030000
_cell_angle_beta   89.40070000
_cell_angle_gamma   74.08800000
_symmetry_Int_Tables_number   1
_chemical_formula_structural   ZnH8C21Br6NO9
_chemical_formula_sum   'Zn2 H16 C42 Br12 N2 O18'
_cell_volume   3770.62269479
_cell_formula_units_Z   2
loop_
 _symmetry_equiv_pos_site_id
 _symmetry_equiv_pos_as_xyz
  1  'x, y, z'
loop_
 _atom_site_type_symbol
 _atom_site_label
 _atom_site_symmetry_multiplicity
 _atom_site_fract_x
 _atom_site_fract_y
 _atom_site_fract_z
 _atom_site_occupancy
  Zn  Zn0  1  0.52240000  0.42206000  0.50373000  1.0
  Zn  Zn1  1  0.45089000  0.59045000  0.49717000  1.0
  H  H2  1  0.33976000  0.19999000  0.51782000  1.0
  H  H3  1  0.21295000  0.61133000  0.11132000  1.0
  H  H4  1  0.34159000  0.41989000  0.87380000  1.0
  H  H5  1  0.47983000  0.60750000  0.12553000  1.0
  H  H6  1  0.27992000  0.42333000  0.10963000  1.0
  H  H7  1  0.53182000  0.60981000  0.88947000  1.0
  H  H8  1  0.74938000  0.32593000  0.49137000  1.0
  H  H9  1  0.23540000  0.69695000  0.50127000  1.0
  H  H10  1  0.67546000  0.79396000  0.50536000  1.0
  H  H11  1  0.34912000  0.33535000  0.51380000  1.0
  H  H12  1  0.64366000  0.66351000  0.50244000  1.0
  H  H13  1  0.41635000  0.94704000  0.60371000  1.0
  H  H14  1  0.61426000  0.05450000  0.40946000  1.0
  H  H15  1  0.20151000  0.58678000  0.71228000  1.0
  H  H16  1  0.28763000  0.61538000  0.34392000  1.0
  H  H17  1  0.22456000  0.57785000  0.87367000  1.0
  C  C18  1  0.44119000  0.50607000  0.36860000  1.0
  C  C19  1  0.41473000  0.52011000  0.92713000  1.0
  C  C20  1  0.65147000  0.25241000  0.50248000  1.0
  C  C21  1  0.34769000  0.76236000  0.49604000  1.0
  C  C22  1  0.65331000  0.17428000  0.50613000  1.0
  C  C23  1  0.35876000  0.83802000  0.49557000  1.0
  C  C24  1  0.54123000  0.15428000  0.51130000  1.0
  C  C25  1  0.47683000  0.85038000  0.49909000  1.0
  C  C26  1  0.42908000  0.21336000  0.51396000  1.0
  C  C27  1  0.58193000  0.78652000  0.50241000  1.0
  C  C28  1  0.43349000  0.28798000  0.51147000  1.0
  C  C29  1  0.51406000  0.50355000  0.63104000  1.0
  C  C30  1  0.56519000  0.71459000  0.50142000  1.0
  C  C31  1  0.47795000  0.04271000  0.56593000  1.0
  C  C32  1  0.55354000  0.95857000  0.44756000  1.0
  C  C33  1  0.24477000  0.53250000  0.51912000  1.0
  C  C34  1  0.72156000  0.48740000  0.46804000  1.0
  C  C35  1  0.45939000  0.97063000  0.56088000  1.0
  C  C36  1  0.57147000  0.03088000  0.45241000  1.0
  C  C37  1  0.49574000  0.92763000  0.50144000  1.0
  C  C38  1  0.53287000  0.07459000  0.51133000  1.0
  C  C39  1  0.11513000  0.52310000  0.51954000  1.0
  C  C40  1  0.49520000  0.50794000  0.70834000  1.0
  C  C41  1  0.85030000  0.49438000  0.45397000  1.0
  C  C42  1  0.07563000  0.47486000  0.47975000  1.0
  C  C43  1  0.95535000  0.45763000  0.48802000  1.0
  C  C44  1  0.37370000  0.54054000  0.73233000  1.0
  C  C45  1  0.32780000  0.56227000  0.26110000  1.0
  C  C46  1  0.34997000  0.54420000  0.80391000  1.0
  C  C47  1  0.30838000  0.56249000  0.18878000  1.0
  C  C48  1  0.44545000  0.51441000  0.85204000  1.0
  C  C49  1  0.39130000  0.50981000  0.14707000  1.0
  C  C50  1  0.56796000  0.48085000  0.82708000  1.0
  C  C51  1  0.42764000  0.50548000  0.29177000  1.0
  C  C52  1  0.49238000  0.45403000  0.17799000  1.0
  C  C53  1  0.59233000  0.47873000  0.75577000  1.0
  C  C54  1  0.51030000  0.45134000  0.24954000  1.0
  C  C55  1  0.35095000  0.47075000  0.95829000  1.0
  C  C56  1  0.44094000  0.57119000  0.03888000  1.0
  C  C57  1  0.33355000  0.47096000  0.03033000  1.0
  C  C58  1  0.45655000  0.57190000  0.96690000  1.0
  C  C59  1  0.38193000  0.51954000  0.07036000  1.0
  Br  Br60  1  0.96360000  0.37753000  0.55481000  1.0
  Br  Br61  1  0.60460000  0.38630000  0.11856000  1.0
  Br  Br62  1  0.75678000  0.43918000  0.72083000  1.0
  Br  Br63  1  0.65394000  0.37975000  0.28696000  1.0
  Br  Br64  1  0.17551000  0.42036000  0.40678000  1.0
  Br  Br65  1  0.81017000  0.10019000  0.50556000  1.0
  Br  Br66  1  0.21167000  0.91977000  0.48853000  1.0
  Br  Br67  1  0.42970000  0.09543000  0.64982000  1.0
  Br  Br68  1  0.60529000  0.90410000  0.36498000  1.0
  Br  Br69  1  0.85926000  0.57195000  0.38822000  1.0
  Br  Br70  1  0.00364000  0.58155000  0.58541000  1.0
  Br  Br71  1  0.69615000  0.43737000  0.89183000  1.0
  N  N72  1  0.54241000  0.30731000  0.50558000  1.0
  N  N73  1  0.45046000  0.70267000  0.49782000  1.0
  O  O74  1  0.48614000  0.44403000  0.40123000  1.0
  O  O75  1  0.24883000  0.61756000  0.29712000  1.0
  O  O76  1  0.22918000  0.57837000  0.82292000  1.0
  O  O77  1  0.21064000  0.61747000  0.16169000  1.0
  O  O78  1  0.31007000  0.41922000  0.92117000  1.0
  O  O79  1  0.49020000  0.61850000  0.07635000  1.0
  O  O80  1  0.27626000  0.42013000  0.05933000  1.0
  O  O81  1  0.51730000  0.62125000  0.93849000  1.0
  O  O82  1  0.75949000  0.26988000  0.49612000  1.0
  O  O83  1  0.23418000  0.75149000  0.49448000  1.0
  O  O84  1  0.49619000  0.56667000  0.59806000  1.0
  O  O85  1  0.40242000  0.57173000  0.39716000  1.0
  O  O86  1  0.54102000  0.43754000  0.60582000  1.0
  O  O87  1  0.33035000  0.47065000  0.52164000  1.0
  O  O88  1  0.63540000  0.54899000  0.46534000  1.0
  O  O89  1  0.26028000  0.59918000  0.51701000  1.0
  O  O90  1  0.70692000  0.42191000  0.48283000  1.0
  O  O91  1  0.27924000  0.56786000  0.68629000  1.0
