# generated using pymatgen
data_GdH7C7SO7
_symmetry_space_group_name_H-M   'P 1'
_cell_length_a   8.49400000
_cell_length_b   17.16170000
_cell_length_c   17.16170000
_cell_angle_alpha   89.99990000
_cell_angle_beta   89.99990000
_cell_angle_gamma   89.99990000
_symmetry_Int_Tables_number   1
_chemical_formula_structural   GdH7C7SO7
_chemical_formula_sum   'Gd8 H56 C56 S8 O56'
_cell_volume   2501.68640487
_cell_formula_units_Z   8
loop_
 _symmetry_equiv_pos_site_id
 _symmetry_equiv_pos_as_xyz
  1  'x, y, z'
loop_
 _atom_site_type_symbol
 _atom_site_label
 _atom_site_symmetry_multiplicity
 _atom_site_fract_x
 _atom_site_fract_y
 _atom_site_fract_z
 _atom_site_occupancy
  Gd  Gd0  1  0.84967000  0.96578000  0.88993000  1.0
  Gd  Gd1  1  0.84967000  0.03422000  0.11007000  1.0
  Gd  Gd2  1  0.15033000  0.11007000  0.96578000  1.0
  Gd  Gd3  1  0.15033000  0.88993000  0.03422000  1.0
  Gd  Gd4  1  0.65033000  0.53422000  0.38993000  1.0
  Gd  Gd5  1  0.65033000  0.46578000  0.61007000  1.0
  Gd  Gd6  1  0.34967000  0.38993000  0.46578000  1.0
  Gd  Gd7  1  0.34967000  0.61007000  0.53422000  1.0
  H  H8  1  0.57061000  0.24071000  0.75935000  1.0
  H  H9  1  0.57061000  0.75929000  0.24065000  1.0
  H  H10  1  0.42939000  0.24065000  0.24071000  1.0
  H  H11  1  0.42939000  0.75935000  0.75929000  1.0
  H  H12  1  0.92939000  0.25929000  0.25935000  1.0
  H  H13  1  0.92939000  0.74071000  0.74065000  1.0
  H  H14  1  0.07061000  0.25935000  0.74071000  1.0
  H  H15  1  0.07061000  0.74065000  0.25929000  1.0
  H  H16  1  0.32420000  0.17183000  0.55153000  1.0
  H  H17  1  0.32420000  0.82817000  0.44848000  1.0
  H  H18  1  0.67580000  0.44847000  0.17183000  1.0
  H  H19  1  0.67580000  0.55153000  0.82817000  1.0
  H  H20  1  0.17579000  0.32817000  0.05152000  1.0
  H  H21  1  0.17580000  0.67183000  0.94848000  1.0
  H  H22  1  0.82421000  0.05152000  0.67183000  1.0
  H  H23  1  0.82420000  0.94848000  0.32817000  1.0
  H  H24  1  0.24774000  0.04581000  0.61562000  1.0
  H  H25  1  0.24774000  0.95419000  0.38438000  1.0
  H  H26  1  0.75226000  0.38438000  0.04581000  1.0
  H  H27  1  0.75226000  0.61562000  0.95419000  1.0
  H  H28  1  0.25226000  0.45419000  0.11562000  1.0
  H  H29  1  0.25226000  0.54581000  0.88438000  1.0
  H  H30  1  0.74774000  0.11562000  0.54581000  1.0
  H  H31  1  0.74774000  0.88438000  0.45419000  1.0
  H  H32  1  0.33736000  0.01758000  0.75114000  1.0
  H  H33  1  0.33736000  0.98242000  0.24886000  1.0
  H  H34  1  0.66264000  0.24886000  0.01758000  1.0
  H  H35  1  0.66264000  0.75114000  0.98242000  1.0
  H  H36  1  0.16264000  0.48242000  0.25114000  1.0
  H  H37  1  0.16264000  0.51758000  0.74886000  1.0
  H  H38  1  0.83736000  0.25114000  0.51758000  1.0
  H  H39  1  0.83736000  0.74886000  0.48242000  1.0
  H  H40  1  0.80813000  0.11661000  0.96309000  1.0
  H  H41  1  0.80813000  0.88339000  0.03691000  1.0
  H  H42  1  0.19187000  0.03691000  0.11661000  1.0
  H  H43  1  0.19187000  0.96308000  0.88339000  1.0
  H  H44  1  0.69186000  0.38339000  0.46309000  1.0
  H  H45  1  0.69186000  0.61661000  0.53691000  1.0
  H  H46  1  0.30813000  0.46309000  0.61661000  1.0
  H  H47  1  0.30813000  0.53691000  0.38339000  1.0
  H  H48  1  0.77650000  0.87139000  0.75503000  1.0
  H  H49  1  0.77650000  0.12861000  0.24497000  1.0
  H  H50  1  0.22350000  0.24497000  0.87139000  1.0
  H  H51  1  0.22350000  0.75503000  0.12861000  1.0
  H  H52  1  0.72350000  0.62861000  0.25503000  1.0
  H  H53  1  0.72350000  0.37139000  0.74497000  1.0
  H  H54  1  0.27650000  0.25503000  0.37139000  1.0
  H  H55  1  0.27650000  0.74497000  0.62861000  1.0
  H  H56  1  0.61623000  0.91537000  0.76805000  1.0
  H  H57  1  0.61623000  0.08463000  0.23195000  1.0
  H  H58  1  0.38377000  0.23195000  0.91537000  1.0
  H  H59  1  0.38377000  0.76805000  0.08463000  1.0
  H  H60  1  0.88377000  0.58462000  0.26805000  1.0
  H  H61  1  0.88377000  0.41538000  0.73195000  1.0
  H  H62  1  0.11623000  0.26805000  0.41537000  1.0
  H  H63  1  0.11623000  0.73195000  0.58462000  1.0
  C  C64  1  0.45815000  0.12802000  0.76239000  1.0
  C  C65  1  0.45814000  0.87198000  0.23761000  1.0
  C  C66  1  0.54186000  0.23761000  0.12802000  1.0
  C  C67  1  0.54186000  0.76239000  0.87198000  1.0
  C  C68  1  0.04186000  0.37198000  0.26239000  1.0
  C  C69  1  0.04185000  0.62802000  0.73761000  1.0
  C  C70  1  0.95814000  0.26239000  0.62802000  1.0
  C  C71  1  0.95814000  0.73761000  0.37198000  1.0
  C  C72  1  0.50071000  0.19811000  0.72756000  1.0
  C  C73  1  0.50071000  0.80189000  0.27244000  1.0
  C  C74  1  0.49929000  0.27244000  0.19811000  1.0
  C  C75  1  0.49929000  0.72756000  0.80189000  1.0
  C  C76  1  0.99929000  0.30189000  0.22756000  1.0
  C  C77  1  0.99929000  0.69811000  0.77244000  1.0
  C  C78  1  0.00071000  0.22756000  0.69811000  1.0
  C  C79  1  0.00071000  0.77244000  0.30189000  1.0
  C  C80  1  0.45345000  0.21298000  0.65091000  1.0
  C  C81  1  0.45345000  0.78702000  0.34909000  1.0
  C  C82  1  0.54655000  0.34909000  0.21299000  1.0
  C  C83  1  0.54655000  0.65091000  0.78701000  1.0
  C  C84  1  0.04655000  0.28702000  0.15091000  1.0
  C  C85  1  0.04655000  0.71298000  0.84909000  1.0
  C  C86  1  0.95345000  0.15091000  0.71298000  1.0
  C  C87  1  0.95345000  0.84909000  0.28702000  1.0
  C  C88  1  0.49840000  0.28750000  0.61174000  1.0
  C  C89  1  0.49840000  0.71250000  0.38826000  1.0
  C  C90  1  0.50161000  0.38826000  0.28750000  1.0
  C  C91  1  0.50161000  0.61174000  0.71250000  1.0
  C  C92  1  0.00160000  0.21250000  0.11174000  1.0
  C  C93  1  0.00160000  0.78750000  0.88826000  1.0
  C  C94  1  0.99840000  0.11174000  0.78750000  1.0
  C  C95  1  0.99840000  0.88826000  0.21250000  1.0
  C  C96  1  0.36238000  0.15804000  0.61062000  1.0
  C  C97  1  0.36238000  0.84196000  0.38938000  1.0
  C  C98  1  0.63762000  0.38938000  0.15804000  1.0
  C  C99  1  0.63762000  0.61062000  0.84196000  1.0
  C  C100  1  0.13762000  0.34196000  0.11062000  1.0
  C  C101  1  0.13762000  0.65804000  0.88938000  1.0
  C  C102  1  0.86238000  0.11062000  0.65804000  1.0
  C  C103  1  0.86238000  0.88938000  0.34196000  1.0
  C  C104  1  0.32039000  0.08807000  0.64655000  1.0
  C  C105  1  0.32038000  0.91193000  0.35345000  1.0
  C  C106  1  0.67962000  0.35345000  0.08807000  1.0
  C  C107  1  0.67962000  0.64655000  0.91193000  1.0
  C  C108  1  0.17961000  0.41193000  0.14655000  1.0
  C  C109  1  0.17961000  0.58807000  0.85345000  1.0
  C  C110  1  0.82039000  0.14655000  0.58807000  1.0
  C  C111  1  0.82038000  0.85345000  0.41193000  1.0
  C  C112  1  0.36888000  0.07214000  0.72258000  1.0
  C  C113  1  0.36888000  0.92786000  0.27742000  1.0
  C  C114  1  0.63112000  0.27742000  0.07214000  1.0
  C  C115  1  0.63112000  0.72258000  0.92786000  1.0
  C  C116  1  0.13112000  0.42786000  0.22258000  1.0
  C  C117  1  0.13112000  0.57214000  0.77742000  1.0
  C  C118  1  0.86888000  0.22258000  0.57214000  1.0
  C  C119  1  0.86888000  0.77742000  0.42786000  1.0
  S  S120  1  0.52021000  0.10890000  0.85921000  1.0
  S  S121  1  0.52021000  0.89110000  0.14079000  1.0
  S  S122  1  0.47979000  0.14079000  0.10890000  1.0
  S  S123  1  0.47979000  0.85921000  0.89110000  1.0
  S  S124  1  0.97979000  0.39110000  0.35921000  1.0
  S  S125  1  0.97979000  0.60890000  0.64079000  1.0
  S  S126  1  0.02021000  0.35921000  0.60890000  1.0
  S  S127  1  0.02021000  0.64079000  0.39110000  1.0
  O  O128  1  0.65109000  0.05369000  0.85245000  1.0
  O  O129  1  0.65109000  0.94631000  0.14755000  1.0
  O  O130  1  0.34891000  0.14755000  0.05369000  1.0
  O  O131  1  0.34891000  0.85245000  0.94631000  1.0
  O  O132  1  0.84891000  0.44631000  0.35245000  1.0
  O  O133  1  0.84891000  0.55369000  0.64755000  1.0
  O  O134  1  0.15109000  0.35245000  0.55369000  1.0
  O  O135  1  0.15109000  0.64755000  0.44631000  1.0
  O  O136  1  0.38349000  0.07232000  0.89786000  1.0
  O  O137  1  0.38349000  0.92768000  0.10214000  1.0
  O  O138  1  0.61651000  0.10213000  0.07232000  1.0
  O  O139  1  0.61651000  0.89787000  0.92768000  1.0
  O  O140  1  0.11651000  0.42768000  0.39786000  1.0
  O  O141  1  0.11651000  0.57232000  0.60214000  1.0
  O  O142  1  0.88349000  0.39786000  0.57232000  1.0
  O  O143  1  0.88349000  0.60214000  0.42768000  1.0
  O  O144  1  0.56849000  0.18329000  0.89395000  1.0
  O  O145  1  0.56849000  0.81671000  0.10605000  1.0
  O  O146  1  0.43151000  0.10605000  0.18329000  1.0
  O  O147  1  0.43151000  0.89395000  0.81671000  1.0
  O  O148  1  0.93151000  0.31671000  0.39395000  1.0
  O  O149  1  0.93151000  0.68329000  0.60605000  1.0
  O  O150  1  0.06849000  0.39395000  0.68329000  1.0
  O  O151  1  0.06849000  0.60605000  0.31671000  1.0
  O  O152  1  0.56219000  0.34133000  0.65251000  1.0
  O  O153  1  0.56219000  0.65867000  0.34749000  1.0
  O  O154  1  0.43782000  0.34750000  0.34133000  1.0
  O  O155  1  0.43782000  0.65250000  0.65867000  1.0
  O  O156  1  0.93781000  0.15867000  0.15251000  1.0
  O  O157  1  0.93781000  0.84133000  0.84749000  1.0
  O  O158  1  0.06219000  0.15250000  0.84133000  1.0
  O  O159  1  0.06219000  0.84750000  0.15867000  1.0
  O  O160  1  0.46979000  0.29337000  0.53941000  1.0
  O  O161  1  0.46978000  0.70663000  0.46059000  1.0
  O  O162  1  0.53022000  0.46059000  0.29337000  1.0
  O  O163  1  0.53022000  0.53941000  0.70663000  1.0
  O  O164  1  0.03021000  0.20663000  0.03941000  1.0
  O  O165  1  0.03021000  0.79337000  0.96059000  1.0
  O  O166  1  0.96978000  0.03941000  0.79337000  1.0
  O  O167  1  0.96978000  0.96059000  0.20663000  1.0
  O  O168  1  0.88011000  0.07395000  0.97477000  1.0
  O  O169  1  0.88011000  0.92605000  0.02523000  1.0
  O  O170  1  0.11989000  0.02523000  0.07395000  1.0
  O  O171  1  0.11989000  0.97477000  0.92605000  1.0
  O  O172  1  0.61989000  0.42605000  0.47477000  1.0
  O  O173  1  0.61989000  0.57395000  0.52523000  1.0
  O  O174  1  0.38011000  0.47477000  0.57395000  1.0
  O  O175  1  0.38011000  0.52523000  0.42605000  1.0
  O  O176  1  0.73076000  0.92326000  0.76063000  1.0
  O  O177  1  0.73076000  0.07674000  0.23937000  1.0
  O  O178  1  0.26924000  0.23937000  0.92326000  1.0
  O  O179  1  0.26923000  0.76063000  0.07674000  1.0
  O  O180  1  0.76923000  0.57673000  0.26063000  1.0
  O  O181  1  0.76923000  0.42327000  0.73937000  1.0
  O  O182  1  0.23077000  0.26063000  0.42327000  1.0
  O  O183  1  0.23076000  0.73937000  0.57673000  1.0
