# generated using pymatgen
data_CdH26C34N10(ClO2)2
_symmetry_space_group_name_H-M   'P 1'
_cell_length_a   8.41372000
_cell_length_b   9.11434000
_cell_length_c   11.90160000
_cell_angle_alpha   78.56140000
_cell_angle_beta   75.54830000
_cell_angle_gamma   87.17330000
_symmetry_Int_Tables_number   1
_chemical_formula_structural   CdH26C34N10(ClO2)2
_chemical_formula_sum   'Cd1 H26 C34 N10 Cl2 O4'
_cell_volume   866.24724411
_cell_formula_units_Z   1
loop_
 _symmetry_equiv_pos_site_id
 _symmetry_equiv_pos_as_xyz
  1  'x, y, z'
loop_
 _atom_site_type_symbol
 _atom_site_label
 _atom_site_symmetry_multiplicity
 _atom_site_fract_x
 _atom_site_fract_y
 _atom_site_fract_z
 _atom_site_occupancy
  Cd  Cd0  1  0.50000000  0.50000000  0.00000000  1.0
  H  H1  1  0.19015000  0.79172000  0.63590000  1.0
  H  H2  1  0.80986000  0.20828000  0.36410000  1.0
  H  H3  1  0.94763000  0.69539000  0.58100000  1.0
  H  H4  1  0.05236000  0.30462000  0.41900000  1.0
  H  H5  1  0.31702000  0.63869000  0.78642000  1.0
  H  H6  1  0.68299000  0.36131000  0.21358000  1.0
  H  H7  1  0.25416000  0.11775000  0.75668000  1.0
  H  H8  1  0.74585000  0.88225000  0.24332000  1.0
  H  H9  1  0.32206000  0.09072000  0.95269000  1.0
  H  H10  1  0.67793000  0.90927000  0.04732000  1.0
  H  H11  1  0.40015000  0.83534000  0.05139000  1.0
  H  H12  1  0.59984000  0.16465000  0.94861000  1.0
  H  H13  1  0.35981000  0.13897000  0.31903000  1.0
  H  H14  1  0.64019000  0.86103000  0.68097000  1.0
  H  H15  1  0.25221000  0.08100000  0.15441000  1.0
  H  H16  1  0.74779000  0.91900000  0.84559000  1.0
  H  H17  1  0.06179000  0.85675000  0.19908000  1.0
  H  H18  1  0.93821000  0.14325000  0.80092000  1.0
  H  H19  1  0.78421000  0.60303000  0.76759000  1.0
  H  H20  1  0.21578000  0.39697000  0.23241000  1.0
  H  H21  1  0.39994000  0.31484000  0.81385000  1.0
  H  H22  1  0.60006000  0.68516000  0.18615000  1.0
  H  H23  1  0.47428000  0.29763000  0.59804000  1.0
  H  H24  1  0.52572000  0.70237000  0.40196000  1.0
  H  H25  1  0.70692000  0.45791000  0.46032000  1.0
  H  H26  1  0.29308000  0.54209000  0.53968000  1.0
  C  C27  1  0.32009000  0.74171000  0.81970000  1.0
  C  C28  1  0.67991000  0.25829000  0.18029000  1.0
  C  C29  1  0.28290000  0.88017000  0.75569000  1.0
  C  C30  1  0.71710000  0.11983000  0.24431000  1.0
  C  C31  1  0.28465000  0.00878000  0.80315000  1.0
  C  C32  1  0.71535000  0.99122000  0.19685000  1.0
  C  C33  1  0.32414000  0.99298000  0.91189000  1.0
  C  C34  1  0.67586000  0.00701000  0.08811000  1.0
  C  C35  1  0.36433000  0.85183000  0.96781000  1.0
  C  C36  1  0.63567000  0.14816000  0.03220000  1.0
  C  C37  1  0.28332000  0.99317000  0.54845000  1.0
  C  C38  1  0.71668000  0.00683000  0.45155000  1.0
  C  C39  1  0.22401000  0.95914000  0.44705000  1.0
  C  C40  1  0.77599000  0.04086000  0.55295000  1.0
  C  C41  1  0.27577000  0.04618000  0.33379000  1.0
  C  C42  1  0.72423000  0.95382000  0.66621000  1.0
  C  C43  1  0.21751000  0.01087000  0.24248000  1.0
  C  C44  1  0.78249000  0.98913000  0.75752000  1.0
  C  C45  1  0.11030000  0.89013000  0.26700000  1.0
  C  C46  1  0.88970000  0.10987000  0.73300000  1.0
  C  C47  1  0.06199000  0.81179000  0.38344000  1.0
  C  C48  1  0.93801000  0.18821000  0.61656000  1.0
  C  C49  1  0.93692000  0.68775000  0.41649000  1.0
  C  C50  1  0.06308000  0.31226000  0.58351000  1.0
  C  C51  1  0.76152000  0.54449000  0.60249000  1.0
  C  C52  1  0.23848000  0.45551000  0.39751000  1.0
  C  C53  1  0.71766000  0.53880000  0.72516000  1.0
  C  C54  1  0.28234000  0.46120000  0.27484000  1.0
  C  C55  1  0.50509000  0.37414000  0.75118000  1.0
  C  C56  1  0.49491000  0.62586000  0.24882000  1.0
  C  C57  1  0.54499000  0.36872000  0.63128000  1.0
  C  C58  1  0.45501000  0.63128000  0.36872000  1.0
  C  C59  1  0.67403000  0.45576000  0.55492000  1.0
  C  C60  1  0.32597000  0.54425000  0.44508000  1.0
  N  N61  1  0.36255000  0.72848000  0.92222000  1.0
  N  N62  1  0.63745000  0.27151000  0.07779000  1.0
  N  N63  1  0.24426000  0.88342000  0.64740000  1.0
  N  N64  1  0.75574000  0.11657000  0.35260000  1.0
  N  N65  1  0.11821000  0.84553000  0.47140000  1.0
  N  N66  1  0.88179000  0.15447000  0.52860000  1.0
  N  N67  1  0.88965000  0.63943000  0.53620000  1.0
  N  N68  1  0.11035000  0.36057000  0.46380000  1.0
  N  N69  1  0.59141000  0.45736000  0.79699000  1.0
  N  N70  1  0.40858000  0.54264000  0.20301000  1.0
  Cl  Cl71  1  0.75437000  0.66224000  0.97158000  1.0
  Cl  Cl72  1  0.24563000  0.33776000  0.02842000  1.0
  O  O73  1  0.35818000  0.10973000  0.54023000  1.0
  O  O74  1  0.64182000  0.89027000  0.45977000  1.0
  O  O75  1  0.88483000  0.64045000  0.34197000  1.0
  O  O76  1  0.11517000  0.35955000  0.65803000  1.0
