# generated using pymatgen
data_Mn3H50C64N4O19
_symmetry_space_group_name_H-M   'P 1'
_cell_length_a   16.53490000
_cell_length_b   17.93970000
_cell_length_c   17.93940000
_cell_angle_alpha   67.63250000
_cell_angle_beta   73.01390000
_cell_angle_gamma   73.01390000
_symmetry_Int_Tables_number   1
_chemical_formula_structural   Mn3H50C64N4O19
_chemical_formula_sum   'Mn6 H100 C128 N8 O38'
_cell_volume   4606.76266603
_cell_formula_units_Z   2
loop_
 _symmetry_equiv_pos_site_id
 _symmetry_equiv_pos_as_xyz
  1  'x, y, z'
loop_
 _atom_site_type_symbol
 _atom_site_label
 _atom_site_symmetry_multiplicity
 _atom_site_fract_x
 _atom_site_fract_y
 _atom_site_fract_z
 _atom_site_occupancy
  Mn  Mn0  1  0.00001000  0.49999000  0.99999000  1.0
  Mn  Mn1  1  0.49997000  0.00004000  0.50001000  1.0
  Mn  Mn2  1  0.04337000  0.32126000  0.14591000  1.0
  Mn  Mn3  1  0.45664000  0.85410000  0.67873000  1.0
  Mn  Mn4  1  0.95663000  0.67872000  0.85412000  1.0
  Mn  Mn5  1  0.54338000  0.14589000  0.32125000  1.0
  H  H6  1  0.96039000  0.18671000  0.74505000  1.0
  H  H7  1  0.53961000  0.25496000  0.81328000  1.0
  H  H8  1  0.03961000  0.81329000  0.25495000  1.0
  H  H9  1  0.46040000  0.74505000  0.18671000  1.0
  H  H10  1  0.84871000  0.23330000  0.77275000  1.0
  H  H11  1  0.65130000  0.22726000  0.76670000  1.0
  H  H12  1  0.15129000  0.76670000  0.22725000  1.0
  H  H13  1  0.34871000  0.77275000  0.23330000  1.0
  H  H14  1  0.99821000  0.33445000  0.58078000  1.0
  H  H15  1  0.50179000  0.41922000  0.66555000  1.0
  H  H16  1  0.00179000  0.66555000  0.41922000  1.0
  H  H17  1  0.49821000  0.58078000  0.33445000  1.0
  H  H18  1  0.97379000  0.29130000  0.51625000  1.0
  H  H19  1  0.52621000  0.48375000  0.70870000  1.0
  H  H20  1  0.02620000  0.70871000  0.48375000  1.0
  H  H21  1  0.47380000  0.51626000  0.29130000  1.0
  H  H22  1  0.81067000  0.18002000  0.67436000  1.0
  H  H23  1  0.68933000  0.32564000  0.81998000  1.0
  H  H24  1  0.18933000  0.81999000  0.32564000  1.0
  H  H25  1  0.31067000  0.67436000  0.18002000  1.0
  H  H26  1  0.92269000  0.12973000  0.65917000  1.0
  H  H27  1  0.57731000  0.34083000  0.87027000  1.0
  H  H28  1  0.07731000  0.87027000  0.34083000  1.0
  H  H29  1  0.42269000  0.65918000  0.12973000  1.0
  H  H30  1  0.81584000  0.34816000  0.55731000  1.0
  H  H31  1  0.68417000  0.44269000  0.65184000  1.0
  H  H32  1  0.18417000  0.65184000  0.44269000  1.0
  H  H33  1  0.31583000  0.55731000  0.34816000  1.0
  H  H34  1  0.84293000  0.39230000  0.61927000  1.0
  H  H35  1  0.65707000  0.38074000  0.60770000  1.0
  H  H36  1  0.15707000  0.60771000  0.38073000  1.0
  H  H37  1  0.34293000  0.61927000  0.39230000  1.0
  H  H38  1  0.91646000  0.19423000  0.88128000  1.0
  H  H39  1  0.58354000  0.11874000  0.80576000  1.0
  H  H40  1  0.08353000  0.80576000  0.11873000  1.0
  H  H41  1  0.41646000  0.88127000  0.19424000  1.0
  H  H42  1  0.95827000  0.20025000  0.00111000  1.0
  H  H43  1  0.54172000  0.99891000  0.79974000  1.0
  H  H44  1  0.04173000  0.79974000  0.99890000  1.0
  H  H45  1  0.45827000  0.00110000  0.20026000  1.0
  H  H46  1  0.04608000  0.42484000  0.85162000  1.0
  H  H47  1  0.45391000  0.14840000  0.57514000  1.0
  H  H48  1  0.95392000  0.57514000  0.14840000  1.0
  H  H49  1  0.54608000  0.85161000  0.42486000  1.0
  H  H50  1  0.00359000  0.42036000  0.73059000  1.0
  H  H51  1  0.49642000  0.26943000  0.57963000  1.0
  H  H52  1  0.99642000  0.57964000  0.26942000  1.0
  H  H53  1  0.50359000  0.73058000  0.42037000  1.0
  H  H54  1  0.17620000  0.09305000  0.63757000  1.0
  H  H55  1  0.32380000  0.36242000  0.90694000  1.0
  H  H56  1  0.82379000  0.90694000  0.36242000  1.0
  H  H57  1  0.67621000  0.63757000  0.09305000  1.0
  H  H58  1  0.32585000  0.08031000  0.55416000  1.0
  H  H59  1  0.17414000  0.44583000  0.91968000  1.0
  H  H60  1  0.67414000  0.91968000  0.44584000  1.0
  H  H61  1  0.82586000  0.55416000  0.08031000  1.0
  H  H62  1  0.24772000  0.30857000  0.36904000  1.0
  H  H63  1  0.25228000  0.63095000  0.69143000  1.0
  H  H64  1  0.75228000  0.69142000  0.63095000  1.0
  H  H65  1  0.74771000  0.36905000  0.30858000  1.0
  H  H66  1  0.09940000  0.32433000  0.45365000  1.0
  H  H67  1  0.40060000  0.54635000  0.67567000  1.0
  H  H68  1  0.90060000  0.67567000  0.54634000  1.0
  H  H69  1  0.59940000  0.45365000  0.32433000  1.0
  H  H70  1  0.78274000  0.08325000  0.65282000  1.0
  H  H71  1  0.71726000  0.34718000  0.91676000  1.0
  H  H72  1  0.21727000  0.91676000  0.34718000  1.0
  H  H73  1  0.28274000  0.65282000  0.08324000  1.0
  H  H74  1  0.68346000  0.03938000  0.60467000  1.0
  H  H75  1  0.81654000  0.39532000  0.96063000  1.0
  H  H76  1  0.31654000  0.96062000  0.39533000  1.0
  H  H77  1  0.18346000  0.60467000  0.03937000  1.0
  H  H78  1  0.75619000  0.19998000  0.35921000  1.0
  H  H79  1  0.74382000  0.64077000  0.80002000  1.0
  H  H80  1  0.24382000  0.80001000  0.64078000  1.0
  H  H81  1  0.25619000  0.35922000  0.19998000  1.0
  H  H82  1  0.85476000  0.24704000  0.40613000  1.0
  H  H83  1  0.64524000  0.59387000  0.75297000  1.0
  H  H84  1  0.14525000  0.75296000  0.59387000  1.0
  H  H85  1  0.35476000  0.40614000  0.24703000  1.0
  H  H86  1  0.21224000  0.23595000  0.24550000  1.0
  H  H87  1  0.28776000  0.75451000  0.76404000  1.0
  H  H88  1  0.78777000  0.76404000  0.75451000  1.0
  H  H89  1  0.71224000  0.24549000  0.23595000  1.0
  H  H90  1  0.19815000  0.10572000  0.39273000  1.0
  H  H91  1  0.30185000  0.60728000  0.89427000  1.0
  H  H92  1  0.80184000  0.89427000  0.60729000  1.0
  H  H93  1  0.69815000  0.39272000  0.10572000  1.0
  H  H94  1  0.96896000  0.17593000  0.29978000  1.0
  H  H95  1  0.53104000  0.70021000  0.82407000  1.0
  H  H96  1  0.03104000  0.82406000  0.70021000  1.0
  H  H97  1  0.46896000  0.29979000  0.17594000  1.0
  H  H98  1  0.09493000  0.07330000  0.51994000  1.0
  H  H99  1  0.40507000  0.48006000  0.92670000  1.0
  H  H100  1  0.90507000  0.92670000  0.48006000  1.0
  H  H101  1  0.59493000  0.51994000  0.07330000  1.0
  H  H102  1  0.02815000  0.96725000  0.63891000  1.0
  H  H103  1  0.47185000  0.36109000  0.03274000  1.0
  H  H104  1  0.97184000  0.03274000  0.36109000  1.0
  H  H105  1  0.52815000  0.63891000  0.96726000  1.0
  C  C106  1  0.89870000  0.26154000  0.64091000  1.0
  C  C107  1  0.60130000  0.35910000  0.73846000  1.0
  C  C108  1  0.10130000  0.73846000  0.35909000  1.0
  C  C109  1  0.39870000  0.64091000  0.26154000  1.0
  C  C110  1  0.91010000  0.24255000  0.72857000  1.0
  C  C111  1  0.58990000  0.27144000  0.75745000  1.0
  C  C112  1  0.08990000  0.75746000  0.27144000  1.0
  C  C113  1  0.41010000  0.72857000  0.24254000  1.0
  C  C114  1  0.98192000  0.28012000  0.57860000  1.0
  C  C115  1  0.51809000  0.42140000  0.71988000  1.0
  C  C116  1  0.01808000  0.71989000  0.42140000  1.0
  C  C117  1  0.48192000  0.57860000  0.28011000  1.0
  C  C118  1  0.87550000  0.18644000  0.63668000  1.0
  C  C119  1  0.62450000  0.36332000  0.81356000  1.0
  C  C120  1  0.12450000  0.81356000  0.36332000  1.0
  C  C121  1  0.37550000  0.63669000  0.18644000  1.0
  C  C122  1  0.82587000  0.33716000  0.61923000  1.0
  C  C123  1  0.67413000  0.38077000  0.66284000  1.0
  C  C124  1  0.17413000  0.66285000  0.38076000  1.0
  C  C125  1  0.32587000  0.61924000  0.33716000  1.0
  C  C126  1  0.95751000  0.30770000  0.79854000  1.0
  C  C127  1  0.54249000  0.20147000  0.69229000  1.0
  C  C128  1  0.04249000  0.69230000  0.20147000  1.0
  C  C129  1  0.45751000  0.79853000  0.30770000  1.0
  C  C130  1  0.94478000  0.24483000  0.87425000  1.0
  C  C131  1  0.55522000  0.12576000  0.75517000  1.0
  C  C132  1  0.05522000  0.75517000  0.12575000  1.0
  C  C133  1  0.44478000  0.87425000  0.24483000  1.0
  C  C134  1  0.96840000  0.24793000  0.94140000  1.0
  C  C135  1  0.53159000  0.05861000  0.75206000  1.0
  C  C136  1  0.03159000  0.75206000  0.05860000  1.0
  C  C137  1  0.46840000  0.94140000  0.24794000  1.0
  C  C138  1  0.00496000  0.31239000  0.93379000  1.0
  C  C139  1  0.49503000  0.06623000  0.68761000  1.0
  C  C140  1  0.99503000  0.68760000  0.06622000  1.0
  C  C141  1  0.50496000  0.93378000  0.31240000  1.0
  C  C142  1  0.01797000  0.37460000  0.85721000  1.0
  C  C143  1  0.48203000  0.14281000  0.62539000  1.0
  C  C144  1  0.98203000  0.62539000  0.14280000  1.0
  C  C145  1  0.51797000  0.85720000  0.37461000  1.0
  C  C146  1  0.99428000  0.37250000  0.79026000  1.0
  C  C147  1  0.50572000  0.20975000  0.62749000  1.0
  C  C148  1  0.00572000  0.62750000  0.20975000  1.0
  C  C149  1  0.49428000  0.79026000  0.37250000  1.0
  C  C150  1  0.02747000  0.31707000  0.00546000  1.0
  C  C151  1  0.47252000  0.99456000  0.68293000  1.0
  C  C152  1  0.97253000  0.68291000  0.99455000  1.0
  C  C153  1  0.52747000  0.00545000  0.31709000  1.0
  C  C154  1  0.12865000  0.20858000  0.55073000  1.0
  C  C155  1  0.37135000  0.44927000  0.79141000  1.0
  C  C156  1  0.87134000  0.79141000  0.44927000  1.0
  C  C157  1  0.62866000  0.55073000  0.20858000  1.0
  C  C158  1  0.19278000  0.13980000  0.57850000  1.0
  C  C159  1  0.30722000  0.42149000  0.86019000  1.0
  C  C160  1  0.80721000  0.86019000  0.42150000  1.0
  C  C161  1  0.69278000  0.57850000  0.13980000  1.0
  C  C162  1  0.27603000  0.13295000  0.53165000  1.0
  C  C163  1  0.22396000  0.46835000  0.86705000  1.0
  C  C164  1  0.72396000  0.86705000  0.46835000  1.0
  C  C165  1  0.77604000  0.53164000  0.13295000  1.0
  C  C166  1  0.29628000  0.19355000  0.45535000  1.0
  C  C167  1  0.20372000  0.54464000  0.80645000  1.0
  C  C168  1  0.70371000  0.80645000  0.54465000  1.0
  C  C169  1  0.79628000  0.45535000  0.19355000  1.0
  C  C170  1  0.23170000  0.26178000  0.42820000  1.0
  C  C171  1  0.26830000  0.57180000  0.73821000  1.0
  C  C172  1  0.76829000  0.73821000  0.57180000  1.0
  C  C173  1  0.73170000  0.42820000  0.26179000  1.0
  C  C174  1  0.14826000  0.27040000  0.47560000  1.0
  C  C175  1  0.35174000  0.52439000  0.72960000  1.0
  C  C176  1  0.85173000  0.72960000  0.52439000  1.0
  C  C177  1  0.64826000  0.47561000  0.27040000  1.0
  C  C178  1  0.38437000  0.18548000  0.40363000  1.0
  C  C179  1  0.11563000  0.59636000  0.81452000  1.0
  C  C180  1  0.61562000  0.81453000  0.59637000  1.0
  C  C181  1  0.88437000  0.40363000  0.18548000  1.0
  C  C182  1  0.82389000  0.16918000  0.53234000  1.0
  C  C183  1  0.67611000  0.46766000  0.83082000  1.0
  C  C184  1  0.17611000  0.83082000  0.46766000  1.0
  C  C185  1  0.32389000  0.53234000  0.16918000  1.0
  C  C186  1  0.77726000  0.10946000  0.58846000  1.0
  C  C187  1  0.72274000  0.41154000  0.89055000  1.0
  C  C188  1  0.22274000  0.89055000  0.41154000  1.0
  C  C189  1  0.27726000  0.58846000  0.10945000  1.0
  C  C190  1  0.72220000  0.08392000  0.56137000  1.0
  C  C191  1  0.77780000  0.43862000  0.91609000  1.0
  C  C192  1  0.27780000  0.91608000  0.43863000  1.0
  C  C193  1  0.22220000  0.56138000  0.08391000  1.0
  C  C194  1  0.71371000  0.11633000  0.47906000  1.0
  C  C195  1  0.78629000  0.52093000  0.88368000  1.0
  C  C196  1  0.28630000  0.88367000  0.52093000  1.0
  C  C197  1  0.21371000  0.47907000  0.11633000  1.0
  C  C198  1  0.76287000  0.17452000  0.42326000  1.0
  C  C199  1  0.73714000  0.57674000  0.82548000  1.0
  C  C200  1  0.23714000  0.82547000  0.57674000  1.0
  C  C201  1  0.26287000  0.42326000  0.17452000  1.0
  C  C202  1  0.81765000  0.20086000  0.44909000  1.0
  C  C203  1  0.68235000  0.55091000  0.79915000  1.0
  C  C204  1  0.18236000  0.79914000  0.55091000  1.0
  C  C205  1  0.31765000  0.44909000  0.20086000  1.0
  C  C206  1  0.65050000  0.09310000  0.45136000  1.0
  C  C207  1  0.84950000  0.54861000  0.90691000  1.0
  C  C208  1  0.34951000  0.90692000  0.54862000  1.0
  C  C209  1  0.15050000  0.45138000  0.09309000  1.0
  C  C210  1  0.16002000  0.20330000  0.27840000  1.0
  C  C211  1  0.33998000  0.72161000  0.79669000  1.0
  C  C212  1  0.83998000  0.79669000  0.72161000  1.0
  C  C213  1  0.66003000  0.27839000  0.20330000  1.0
  C  C214  1  0.15396000  0.13941000  0.35113000  1.0
  C  C215  1  0.34604000  0.64887000  0.86058000  1.0
  C  C216  1  0.84604000  0.86058000  0.64887000  1.0
  C  C217  1  0.65396000  0.35113000  0.13941000  1.0
  C  C218  1  0.03436000  0.17347000  0.30250000  1.0
  C  C219  1  0.46564000  0.69750000  0.82652000  1.0
  C  C220  1  0.96564000  0.82652000  0.69750000  1.0
  C  C221  1  0.53436000  0.30251000  0.17347000  1.0
  C  C222  1  0.03727000  0.05911000  0.43362000  1.0
  C  C223  1  0.46272000  0.56638000  0.94088000  1.0
  C  C224  1  0.96272000  0.94088000  0.56639000  1.0
  C  C225  1  0.53727000  0.43362000  0.05912000  1.0
  C  C226  1  0.05428000  0.04043000  0.51124000  1.0
  C  C227  1  0.44571000  0.48876000  0.95957000  1.0
  C  C228  1  0.94571000  0.95957000  0.48876000  1.0
  C  C229  1  0.55428000  0.51124000  0.04043000  1.0
  C  C230  1  0.01672000  0.98116000  0.57777000  1.0
  C  C231  1  0.48327000  0.42223000  0.01883000  1.0
  C  C232  1  0.98327000  0.01883000  0.42223000  1.0
  C  C233  1  0.51673000  0.57777000  0.98117000  1.0
  N  N234  1  0.08509000  0.22402000  0.24897000  1.0
  N  N235  1  0.41492000  0.75103000  0.77598000  1.0
  N  N236  1  0.91492000  0.77597000  0.75103000  1.0
  N  N237  1  0.58509000  0.24898000  0.22402000  1.0
  N  N238  1  0.07381000  0.12057000  0.36561000  1.0
  N  N239  1  0.42619000  0.63439000  0.87942000  1.0
  N  N240  1  0.92619000  0.87942000  0.63439000  1.0
  N  N241  1  0.57381000  0.36561000  0.12058000  1.0
  O  O242  1  0.75000000  0.32025000  0.67975000  1.0
  O  O243  1  0.25000000  0.67975000  0.32025000  1.0
  O  O244  1  0.93588000  0.31179000  0.72901000  1.0
  O  O245  1  0.56413000  0.27100000  0.68820000  1.0
  O  O246  1  0.06412000  0.68821000  0.27100000  1.0
  O  O247  1  0.43588000  0.72901000  0.31179000  1.0
  O  O248  1  0.04886000  0.20941000  0.60112000  1.0
  O  O249  1  0.45114000  0.39888000  0.79059000  1.0
  O  O250  1  0.95113000  0.79059000  0.39888000  1.0
  O  O251  1  0.54887000  0.60112000  0.20941000  1.0
  O  O252  1  0.87693000  0.20154000  0.55210000  1.0
  O  O253  1  0.62307000  0.44790000  0.79846000  1.0
  O  O254  1  0.12307000  0.79846000  0.44790000  1.0
  O  O255  1  0.37693000  0.55211000  0.20154000  1.0
  O  O256  1  0.01393000  0.26251000  0.07631000  1.0
  O  O257  1  0.48606000  0.92372000  0.73749000  1.0
  O  O258  1  0.98607000  0.73748000  0.92370000  1.0
  O  O259  1  0.51393000  0.07629000  0.26251000  1.0
  O  O260  1  0.06041000  0.37773000  0.99643000  1.0
  O  O261  1  0.43958000  0.00359000  0.62226000  1.0
  O  O262  1  0.93959000  0.62224000  0.00358000  1.0
  O  O263  1  0.56040000  0.99642000  0.37775000  1.0
  O  O264  1  0.44651000  0.12952000  0.43579000  1.0
  O  O265  1  0.05350000  0.56418000  0.87049000  1.0
  O  O266  1  0.55349000  0.87050000  0.56420000  1.0
  O  O267  1  0.94650000  0.43580000  0.12951000  1.0
  O  O268  1  0.40054000  0.23133000  0.32964000  1.0
  O  O269  1  0.09947000  0.67034000  0.76868000  1.0
  O  O270  1  0.59946000  0.76868000  0.67036000  1.0
  O  O271  1  0.90054000  0.32965000  0.23133000  1.0
  O  O272  1  0.60783000  0.03959000  0.50355000  1.0
  O  O273  1  0.89218000  0.49643000  0.96043000  1.0
  O  O274  1  0.39218000  0.96044000  0.49645000  1.0
  O  O275  1  0.10782000  0.50355000  0.03957000  1.0
  O  O276  1  0.64299000  0.13040000  0.37624000  1.0
  O  O277  1  0.85701000  0.62374000  0.86960000  1.0
  O  O278  1  0.35702000  0.86960000  0.62375000  1.0
  O  O279  1  0.14299000  0.37625000  0.13041000  1.0
