# generated using pymatgen
data_CdH9C8NO7
_symmetry_space_group_name_H-M   'P 1'
_cell_length_a   9.50190000
_cell_length_b   10.06330000
_cell_length_c   11.27800000
_cell_angle_alpha   90.00000000
_cell_angle_beta   111.02000000
_cell_angle_gamma   89.99960000
_symmetry_Int_Tables_number   1
_chemical_formula_structural   CdH9C8NO7
_chemical_formula_sum   'Cd4 H36 C32 N4 O28'
_cell_volume   1006.64532292
_cell_formula_units_Z   4
loop_
 _symmetry_equiv_pos_site_id
 _symmetry_equiv_pos_as_xyz
  1  'x, y, z'
loop_
 _atom_site_type_symbol
 _atom_site_label
 _atom_site_symmetry_multiplicity
 _atom_site_fract_x
 _atom_site_fract_y
 _atom_site_fract_z
 _atom_site_occupancy
  Cd  Cd0  1  0.61386000  0.62261000  0.95361000  1.0
  Cd  Cd1  1  0.38614000  0.12261000  0.54640000  1.0
  Cd  Cd2  1  0.38614000  0.37739000  0.04639000  1.0
  Cd  Cd3  1  0.61386000  0.87739000  0.45360000  1.0
  H  H4  1  0.73329000  0.72059000  0.76325000  1.0
  H  H5  1  0.26671000  0.22059000  0.73675000  1.0
  H  H6  1  0.26671000  0.27941000  0.23675000  1.0
  H  H7  1  0.73329000  0.77941000  0.26325000  1.0
  H  H8  1  0.55618000  0.71484000  0.69091000  1.0
  H  H9  1  0.44382000  0.21485000  0.80909000  1.0
  H  H10  1  0.44382000  0.28516000  0.30909000  1.0
  H  H11  1  0.55618000  0.78515000  0.19091000  1.0
  H  H12  1  0.67803000  0.35968000  0.94443000  1.0
  H  H13  1  0.32197000  0.85968000  0.55557000  1.0
  H  H14  1  0.32197000  0.64032000  0.05557000  1.0
  H  H15  1  0.67803000  0.14032000  0.44443000  1.0
  H  H16  1  0.69627000  0.41750000  0.82398000  1.0
  H  H17  1  0.30373000  0.91750000  0.67602000  1.0
  H  H18  1  0.30373000  0.58250000  0.17602000  1.0
  H  H19  1  0.69627000  0.08250000  0.32398000  1.0
  H  H20  1  0.01113000  0.68912000  0.45000000  1.0
  H  H21  1  0.98886000  0.18912000  0.05000000  1.0
  H  H22  1  0.98887000  0.31088000  0.55000000  1.0
  H  H23  1  0.01113000  0.81088000  0.95000000  1.0
  H  H24  1  0.12594000  0.60719000  0.85085000  1.0
  H  H25  1  0.87406000  0.10719000  0.64914000  1.0
  H  H26  1  0.87406000  0.39281000  0.14915000  1.0
  H  H27  1  0.12594000  0.89281000  0.35086000  1.0
  H  H28  1  0.40451000  0.47554000  0.64254000  1.0
  H  H29  1  0.59550000  0.97554000  0.85746000  1.0
  H  H30  1  0.59550000  0.52446000  0.35746000  1.0
  H  H31  1  0.40450000  0.02446000  0.14254000  1.0
  H  H32  1  0.13981000  0.59736000  0.34474000  1.0
  H  H33  1  0.86019000  0.09736000  0.15527000  1.0
  H  H34  1  0.86019000  0.40264000  0.65527000  1.0
  H  H35  1  0.13981000  0.90264000  0.84473000  1.0
  H  H36  1  0.27449000  0.47027000  0.41429000  1.0
  H  H37  1  0.72552000  0.97026000  0.08571000  1.0
  H  H38  1  0.72551000  0.52973000  0.58571000  1.0
  H  H39  1  0.27448000  0.02974000  0.91429000  1.0
  C  C40  1  0.08366000  0.64739000  0.54034000  1.0
  C  C41  1  0.91634000  0.14739000  0.95966000  1.0
  C  C42  1  0.91634000  0.35261000  0.45966000  1.0
  C  C43  1  0.08366000  0.85261000  0.04034000  1.0
  C  C44  1  0.05314000  0.65664000  0.65207000  1.0
  C  C45  1  0.94686000  0.15664000  0.84793000  1.0
  C  C46  1  0.94687000  0.34336000  0.34793000  1.0
  C  C47  1  0.05314000  0.84336000  0.15207000  1.0
  C  C48  1  0.15154000  0.60097000  0.76410000  1.0
  C  C49  1  0.84846000  0.10097000  0.73590000  1.0
  C  C50  1  0.84846000  0.39903000  0.23590000  1.0
  C  C51  1  0.15155000  0.89903000  0.26410000  1.0
  C  C52  1  0.28622000  0.53840000  0.76640000  1.0
  C  C53  1  0.71378000  0.03840000  0.73360000  1.0
  C  C54  1  0.71378000  0.46160000  0.23360000  1.0
  C  C55  1  0.28622000  0.96160000  0.26640000  1.0
  C  C56  1  0.30725000  0.52761000  0.64926000  1.0
  C  C57  1  0.69275000  0.02761000  0.85074000  1.0
  C  C58  1  0.69275000  0.47239000  0.35074000  1.0
  C  C59  1  0.30725000  0.97239000  0.14926000  1.0
  C  C60  1  0.91130000  0.72785000  0.64778000  1.0
  C  C61  1  0.08868000  0.22785000  0.85222000  1.0
  C  C62  1  0.08870000  0.27216000  0.35222000  1.0
  C  C63  1  0.91131000  0.77215000  0.14778000  1.0
  C  C64  1  0.24261000  0.57301000  0.42533000  1.0
  C  C65  1  0.75739000  0.07301000  0.07467000  1.0
  C  C66  1  0.75739000  0.42699000  0.57467000  1.0
  C  C67  1  0.24261000  0.92699000  0.92533000  1.0
  C  C68  1  0.37031000  0.66366000  0.42164000  1.0
  C  C69  1  0.62970000  0.16366000  0.07837000  1.0
  C  C70  1  0.62969000  0.33634000  0.57836000  1.0
  C  C71  1  0.37030000  0.83634000  0.92164000  1.0
  N  N72  1  0.20879000  0.58218000  0.54232000  1.0
  N  N73  1  0.79122000  0.08218000  0.95768000  1.0
  N  N74  1  0.79122000  0.41782000  0.45768000  1.0
  N  N75  1  0.20878000  0.91782000  0.04232000  1.0
  O  O76  1  0.39181000  0.49408000  0.86948000  1.0
  O  O77  1  0.60819000  0.99408000  0.63052000  1.0
  O  O78  1  0.60819000  0.50592000  0.13052000  1.0
  O  O79  1  0.39181000  0.00592000  0.36948000  1.0
  O  O80  1  0.90044000  0.76417000  0.75124000  1.0
  O  O81  1  0.09956000  0.26416000  0.74876000  1.0
  O  O82  1  0.09956000  0.23583000  0.24876000  1.0
  O  O83  1  0.90044000  0.73584000  0.25125000  1.0
  O  O84  1  0.81239000  0.74162000  0.53634000  1.0
  O  O85  1  0.18761000  0.24162000  0.96365000  1.0
  O  O86  1  0.18762000  0.25838000  0.46366000  1.0
  O  O87  1  0.81239000  0.75838000  0.03635000  1.0
  O  O88  1  0.40440000  0.65422000  0.32437000  1.0
  O  O89  1  0.59561000  0.15421000  0.17563000  1.0
  O  O90  1  0.59560000  0.34578000  0.67562000  1.0
  O  O91  1  0.40439000  0.84578000  0.82437000  1.0
  O  O92  1  0.43512000  0.74195000  0.51483000  1.0
  O  O93  1  0.56488000  0.24195000  0.98518000  1.0
  O  O94  1  0.56488000  0.25805000  0.48517000  1.0
  O  O95  1  0.43512000  0.75805000  0.01483000  1.0
  O  O96  1  0.63905000  0.67428000  0.76070000  1.0
  O  O97  1  0.36095000  0.17428000  0.73930000  1.0
  O  O98  1  0.36095000  0.32572000  0.23930000  1.0
  O  O99  1  0.63905000  0.82572000  0.26070000  1.0
  O  O100  1  0.73328000  0.43008000  0.91771000  1.0
  O  O101  1  0.26671000  0.93008000  0.58229000  1.0
  O  O102  1  0.26672000  0.56992000  0.08229000  1.0
  O  O103  1  0.73328000  0.06991000  0.41771000  1.0
