# generated using pymatgen
data_Cs2CaH8(CO3)4
_symmetry_space_group_name_H-M   'P 1'
_cell_length_a   7.65660000
_cell_length_b   9.42797000
_cell_length_c   11.34740000
_cell_angle_alpha   84.77500000
_cell_angle_beta   70.28840000
_cell_angle_gamma   66.08470000
_symmetry_Int_Tables_number   1
_chemical_formula_structural   Cs2CaH8(CO3)4
_chemical_formula_sum   'Cs4 Ca2 H16 C8 O24'
_cell_volume   703.92914713
_cell_formula_units_Z   2
loop_
 _symmetry_equiv_pos_site_id
 _symmetry_equiv_pos_as_xyz
  1  'x, y, z'
loop_
 _atom_site_type_symbol
 _atom_site_label
 _atom_site_symmetry_multiplicity
 _atom_site_fract_x
 _atom_site_fract_y
 _atom_site_fract_z
 _atom_site_occupancy
  Cs  Cs0  1  0.82383000  0.79880000  0.90157000  1.0
  Cs  Cs1  1  0.52374000  0.70120000  0.59855000  1.0
  Cs  Cs2  1  0.17617000  0.20121000  0.09843000  1.0
  Cs  Cs3  1  0.47627000  0.29880000  0.40145000  1.0
  Ca  Ca4  1  0.64950000  0.25006000  0.74980000  1.0
  Ca  Ca5  1  0.35050000  0.74994000  0.25020000  1.0
  H  H6  1  0.78852000  0.04045000  0.13734000  1.0
  H  H7  1  0.96647000  0.45965000  0.36258000  1.0
  H  H8  1  0.21148000  0.95955000  0.86265000  1.0
  H  H9  1  0.03352000  0.54035000  0.63742000  1.0
  H  H10  1  0.89010000  0.91783000  0.22253000  1.0
  H  H11  1  0.03024000  0.58237000  0.27740000  1.0
  H  H12  1  0.10989000  0.08216000  0.77747000  1.0
  H  H13  1  0.96976000  0.41763000  0.72260000  1.0
  H  H14  1  0.40504000  0.06154000  0.77104000  1.0
  H  H15  1  0.23772000  0.43845000  0.72898000  1.0
  H  H16  1  0.59495000  0.93847000  0.22895000  1.0
  H  H17  1  0.76228000  0.56155000  0.27102000  1.0
  H  H18  1  0.61379000  0.00350000  0.65150000  1.0
  H  H19  1  0.26926000  0.49633000  0.84850000  1.0
  H  H20  1  0.38620000  0.99650000  0.34849000  1.0
  H  H21  1  0.73074000  0.50367000  0.15150000  1.0
  C  C22  1  0.97732000  0.24039000  0.48860000  1.0
  C  C23  1  0.70578000  0.25968000  0.01124000  1.0
  C  C24  1  0.02268000  0.75961000  0.51140000  1.0
  C  C25  1  0.29421000  0.74033000  0.98877000  1.0
  C  C26  1  0.09528000  0.10413000  0.55879000  1.0
  C  C27  1  0.75783000  0.39608000  0.94124000  1.0
  C  C28  1  0.90471000  0.89587000  0.44121000  1.0
  C  C29  1  0.24217000  0.60391000  0.05876000  1.0
  O  O30  1  0.78664000  0.30896000  0.54148000  1.0
  O  O31  1  0.63690000  0.19101000  0.95806000  1.0
  O  O32  1  0.21337000  0.69104000  0.45852000  1.0
  O  O33  1  0.36311000  0.80898000  0.04195000  1.0
  O  O34  1  0.08036000  0.27451000  0.38631000  1.0
  O  O35  1  0.74033000  0.22556000  0.11362000  1.0
  O  O36  1  0.91964000  0.72550000  0.61370000  1.0
  O  O37  1  0.25969000  0.77444000  0.88638000  1.0
  O  O38  1  0.28046000  0.02563000  0.50567000  1.0
  O  O39  1  0.81148000  0.47447000  0.99452000  1.0
  O  O40  1  0.71953000  0.97436000  0.49432000  1.0
  O  O41  1  0.18852000  0.52553000  0.00549000  1.0
  O  O42  1  0.99225000  0.08463000  0.66957000  1.0
  O  O43  1  0.74621000  0.41576000  0.83043000  1.0
  O  O44  1  0.00775000  0.91536000  0.33041000  1.0
  O  O45  1  0.25378000  0.58424000  0.16958000  1.0
  O  O46  1  0.82169000  0.92888000  0.15965000  1.0
  O  O47  1  0.91013000  0.57117000  0.34030000  1.0
  O  O48  1  0.17830000  0.07112000  0.84034000  1.0
  O  O49  1  0.08987000  0.42883000  0.65971000  1.0
  O  O50  1  0.55105000  0.04953000  0.73942000  1.0
  O  O51  1  0.34025000  0.45034000  0.76055000  1.0
  O  O52  1  0.44895000  0.95048000  0.26058000  1.0
  O  O53  1  0.65975000  0.54965000  0.23945000  1.0
