# generated using pymatgen
data_SmH14C27N5O6
_symmetry_space_group_name_H-M   'P 1'
_cell_length_a   9.37352000
_cell_length_b   10.07540000
_cell_length_c   13.76820000
_cell_angle_alpha   92.67950000
_cell_angle_beta   92.88590000
_cell_angle_gamma   96.96590000
_symmetry_Int_Tables_number   1
_chemical_formula_structural   SmH14C27N5O6
_chemical_formula_sum   'Sm2 H28 C54 N10 O12'
_cell_volume   1287.22739801
_cell_formula_units_Z   2
loop_
 _symmetry_equiv_pos_site_id
 _symmetry_equiv_pos_as_xyz
  1  'x, y, z'
loop_
 _atom_site_type_symbol
 _atom_site_label
 _atom_site_symmetry_multiplicity
 _atom_site_fract_x
 _atom_site_fract_y
 _atom_site_fract_z
 _atom_site_occupancy
  Sm  Sm0  1  0.88642000  0.44566000  0.11627000  1.0
  Sm  Sm1  1  0.11358000  0.55434000  0.88373000  1.0
  H  H2  1  0.64112000  0.67476000  0.09353000  1.0
  H  H3  1  0.35888000  0.32524000  0.90647000  1.0
  H  H4  1  0.52273000  0.85159000  0.17924000  1.0
  H  H5  1  0.47726000  0.14841000  0.82076000  1.0
  H  H6  1  0.60545000  0.92163000  0.35433000  1.0
  H  H7  1  0.39456000  0.07837000  0.64567000  1.0
  H  H8  1  0.19666000  0.66066000  0.54026000  1.0
  H  H9  1  0.80334000  0.33934000  0.45974000  1.0
  H  H10  1  0.28934000  0.47919000  0.43790000  1.0
  H  H11  1  0.71066000  0.52082000  0.56210000  1.0
  H  H12  1  0.16173000  0.40612000  0.27654000  1.0
  H  H13  1  0.83827000  0.59387000  0.72346000  1.0
  H  H14  1  0.71233000  0.11048000  0.62498000  1.0
  H  H15  1  0.28767000  0.88953000  0.37502000  1.0
  H  H16  1  0.70894000  0.25962000  0.77447000  1.0
  H  H17  1  0.29106000  0.74038000  0.22553000  1.0
  H  H18  1  0.03830000  0.05800000  0.91376000  1.0
  H  H19  1  0.96170000  0.94200000  0.08625000  1.0
  H  H20  1  0.04321000  0.91230000  0.76555000  1.0
  H  H21  1  0.95679000  0.08770000  0.23445000  1.0
  H  H22  1  0.46258000  0.12602000  0.29898000  1.0
  H  H23  1  0.53741000  0.87398000  0.70102000  1.0
  H  H24  1  0.23926000  0.19301000  0.21207000  1.0
  H  H25  1  0.76074000  0.80699000  0.78793000  1.0
  H  H26  1  0.51956000  0.47404000  0.06154000  1.0
  H  H27  1  0.48044000  0.52596000  0.93846000  1.0
  H  H28  1  0.08697000  0.84196000  0.61679000  1.0
  H  H29  1  0.91303000  0.15803000  0.38321000  1.0
  C  C30  1  0.67505000  0.70785000  0.16844000  1.0
  C  C31  1  0.32495000  0.29215000  0.83156000  1.0
  C  C32  1  0.60796000  0.80651000  0.21739000  1.0
  C  C33  1  0.39205000  0.19349000  0.78261000  1.0
  C  C34  1  0.65230000  0.84456000  0.31297000  1.0
  C  C35  1  0.34770000  0.15544000  0.68703000  1.0
  C  C36  1  0.76719000  0.78647000  0.35667000  1.0
  C  C37  1  0.23281000  0.21353000  0.64332000  1.0
  C  C38  1  0.82735000  0.82522000  0.45281000  1.0
  C  C39  1  0.17265000  0.17478000  0.54719000  1.0
  C  C40  1  0.95374000  0.77725000  0.48757000  1.0
  C  C41  1  0.04626000  0.22275000  0.51243000  1.0
  C  C42  1  0.02148000  0.67974000  0.43506000  1.0
  C  C43  1  0.97852000  0.32026000  0.56494000  1.0
  C  C44  1  0.14459000  0.62484000  0.46972000  1.0
  C  C45  1  0.85541000  0.37516000  0.53028000  1.0
  C  C46  1  0.19630000  0.52634000  0.41311000  1.0
  C  C47  1  0.80370000  0.47366000  0.58689000  1.0
  C  C48  1  0.12590000  0.48526000  0.32235000  1.0
  C  C49  1  0.87410000  0.51474000  0.67765000  1.0
  C  C50  1  0.95744000  0.63368000  0.34116000  1.0
  C  C51  1  0.04256000  0.36632000  0.65884000  1.0
  C  C52  1  0.83262000  0.68979000  0.30084000  1.0
  C  C53  1  0.16738000  0.31021000  0.69916000  1.0
  C  C54  1  0.88204000  0.92095000  0.59479000  1.0
  C  C55  1  0.11796000  0.07905000  0.40522000  1.0
  C  C56  1  0.87963000  0.00388000  0.68421000  1.0
  C  C57  1  0.12037000  0.99612000  0.31579000  1.0
  C  C58  1  0.78273000  0.10001000  0.68892000  1.0
  C  C59  1  0.21727000  0.89999000  0.31108000  1.0
  C  C60  1  0.78074000  0.18223000  0.77267000  1.0
  C  C61  1  0.21926000  0.81777000  0.22733000  1.0
  C  C62  1  0.87310000  0.16830000  0.85388000  1.0
  C  C63  1  0.12689000  0.83170000  0.14612000  1.0
  C  C64  1  0.96694000  0.07035000  0.85060000  1.0
  C  C65  1  0.03306000  0.92965000  0.14941000  1.0
  C  C66  1  0.97105000  0.98935000  0.76630000  1.0
  C  C67  1  0.02895000  0.01065000  0.23370000  1.0
  C  C68  1  0.87676000  0.26214000  0.94160000  1.0
  C  C69  1  0.12323000  0.73786000  0.05840000  1.0
  C  C70  1  0.60415000  0.26365000  0.22224000  1.0
  C  C71  1  0.39585000  0.73634000  0.77776000  1.0
  C  C72  1  0.46924000  0.20166000  0.24481000  1.0
  C  C73  1  0.53075000  0.79834000  0.75520000  1.0
  C  C74  1  0.34670000  0.23968000  0.19782000  1.0
  C  C75  1  0.65329000  0.76032000  0.80218000  1.0
  C  C76  1  0.36266000  0.33943000  0.13044000  1.0
  C  C77  1  0.63733000  0.66057000  0.86956000  1.0
  C  C78  1  0.50193000  0.39571000  0.11270000  1.0
  C  C79  1  0.49807000  0.60428000  0.88730000  1.0
  C  C80  1  0.74277000  0.22948000  0.26964000  1.0
  C  C81  1  0.25724000  0.77053000  0.73036000  1.0
  C  C82  1  0.23516000  0.38954000  0.08025000  1.0
  C  C83  1  0.76484000  0.61046000  0.91975000  1.0
  N  N84  1  0.78277000  0.64931000  0.20825000  1.0
  N  N85  1  0.21723000  0.35069000  0.79175000  1.0
  N  N86  1  0.01188000  0.53832000  0.28648000  1.0
  N  N87  1  0.98812000  0.46168000  0.71352000  1.0
  N  N88  1  0.78300000  0.91339000  0.52041000  1.0
  N  N89  1  0.21701000  0.08661000  0.47959000  1.0
  N  N90  1  0.98750000  0.84005000  0.57757000  1.0
  N  N91  1  0.01250000  0.15995000  0.42243000  1.0
  N  N92  1  0.62013000  0.35909000  0.15672000  1.0
  N  N93  1  0.37987000  0.64091000  0.84328000  1.0
  O  O94  1  0.81103000  0.22962000  0.01627000  1.0
  O  O95  1  0.18897000  0.77038000  0.98373000  1.0
  O  O96  1  0.95045000  0.37801000  0.93789000  1.0
  O  O97  1  0.04955000  0.62199000  0.06211000  1.0
  O  O98  1  0.73734000  0.15371000  0.33985000  1.0
  O  O99  1  0.26266000  0.84628000  0.66016000  1.0
  O  O100  1  0.85882000  0.28294000  0.23493000  1.0
  O  O101  1  0.14118000  0.71705000  0.76507000  1.0
  O  O102  1  0.25927000  0.45852000  0.00618000  1.0
  O  O103  1  0.74073000  0.54148000  0.99382000  1.0
  O  O104  1  0.11458000  0.36000000  0.11670000  1.0
  O  O105  1  0.88542000  0.64000000  0.88330000  1.0
