# generated using pymatgen
data_NaH7C3S3(NO)2
_symmetry_space_group_name_H-M   'P 1'
_cell_length_a   6.78905000
_cell_length_b   7.48550000
_cell_length_c   8.59781000
_cell_angle_alpha   78.31300000
_cell_angle_beta   89.99990000
_cell_angle_gamma   89.99980000
_symmetry_Int_Tables_number   1
_chemical_formula_structural   NaH7C3S3(NO)2
_chemical_formula_sum   'Na2 H14 C6 S6 N4 O4'
_cell_volume   427.87763013
_cell_formula_units_Z   2
loop_
 _symmetry_equiv_pos_site_id
 _symmetry_equiv_pos_as_xyz
  1  'x, y, z'
loop_
 _atom_site_type_symbol
 _atom_site_label
 _atom_site_symmetry_multiplicity
 _atom_site_fract_x
 _atom_site_fract_y
 _atom_site_fract_z
 _atom_site_occupancy
  Na  Na0  1  0.25000000  0.92928000  0.93595000  1.0
  Na  Na1  1  0.75000000  0.07071000  0.06405000  1.0
  H  H2  1  0.57230000  0.16124000  0.76566000  1.0
  H  H3  1  0.07230000  0.83876000  0.23433000  1.0
  H  H4  1  0.42770000  0.83876000  0.23433000  1.0
  H  H5  1  0.92770000  0.16124000  0.76566000  1.0
  H  H6  1  0.43564000  0.28542000  0.84874000  1.0
  H  H7  1  0.93564000  0.71457000  0.15126000  1.0
  H  H8  1  0.56436000  0.71456000  0.15126000  1.0
  H  H9  1  0.06436000  0.28542000  0.84874000  1.0
  H  H10  1  0.25000000  0.38103000  0.22423000  1.0
  H  H11  1  0.75000000  0.61897000  0.77578000  1.0
  H  H12  1  0.11646000  0.18044000  0.20866000  1.0
  H  H13  1  0.61646000  0.81958000  0.79134000  1.0
  H  H14  1  0.88355000  0.81958000  0.79134000  1.0
  H  H15  1  0.38355000  0.18043000  0.20866000  1.0
  C  C16  1  0.25000000  0.93862000  0.50956000  1.0
  C  C17  1  0.75000000  0.06140000  0.49045000  1.0
  C  C18  1  0.25000000  0.67386000  0.68372000  1.0
  C  C19  1  0.75000000  0.32615000  0.31628000  1.0
  C  C20  1  0.25000000  0.23155000  0.25612000  1.0
  C  C21  1  0.75000000  0.76847000  0.74388000  1.0
  S  S22  1  0.25000000  0.61668000  0.49709000  1.0
  S  S23  1  0.75000000  0.38331000  0.50290000  1.0
  S  S24  1  0.25000000  0.17571000  0.46950000  1.0
  S  S25  1  0.75000000  0.82428000  0.53051000  1.0
  S  S26  1  0.25000000  0.52780000  0.86187000  1.0
  S  S27  1  0.75000000  0.47220000  0.13812000  1.0
  N  N28  1  0.25000000  0.83539000  0.39964000  1.0
  N  N29  1  0.75000000  0.16460000  0.60034000  1.0
  N  N30  1  0.25000000  0.85682000  0.66592000  1.0
  N  N31  1  0.75000000  0.14318000  0.33407000  1.0
  O  O32  1  0.49919000  0.16369000  0.86501000  1.0
  O  O33  1  0.99920000  0.83632000  0.13500000  1.0
  O  O34  1  0.50079000  0.83632000  0.13500000  1.0
  O  O35  1  0.00080000  0.16369000  0.86501000  1.0
