# generated using pymatgen
data_H11PbC15N3(ClO4)2
_symmetry_space_group_name_H-M   'P 1'
_cell_length_a   9.96293000
_cell_length_b   9.96309000
_cell_length_c   10.22410000
_cell_angle_alpha   96.27280000
_cell_angle_beta   96.27640000
_cell_angle_gamma   115.93600000
_symmetry_Int_Tables_number   1
_chemical_formula_structural   H11PbC15N3(ClO4)2
_chemical_formula_sum   'H22 Pb2 C30 N6 Cl4 O16'
_cell_volume   893.06036148
_cell_formula_units_Z   2
loop_
 _symmetry_equiv_pos_site_id
 _symmetry_equiv_pos_as_xyz
  1  'x, y, z'
loop_
 _atom_site_type_symbol
 _atom_site_label
 _atom_site_symmetry_multiplicity
 _atom_site_fract_x
 _atom_site_fract_y
 _atom_site_fract_z
 _atom_site_occupancy
  H  H0  1  0.09822000  0.81418000  0.31234000  1.0
  H  H1  1  0.68578000  0.40179000  0.18762000  1.0
  H  H2  1  0.90178000  0.18581000  0.68766000  1.0
  H  H3  1  0.31420000  0.59822000  0.81237000  1.0
  H  H4  1  0.96573000  0.53423000  0.24997000  1.0
  H  H5  1  0.03425000  0.46576000  0.75002000  1.0
  H  H6  1  0.19620000  0.03609000  0.35754000  1.0
  H  H7  1  0.46392000  0.30385000  0.14246000  1.0
  H  H8  1  0.80383000  0.96393000  0.64246000  1.0
  H  H9  1  0.53607000  0.69615000  0.85752000  1.0
  H  H10  1  0.30666000  0.31369000  0.42809000  1.0
  H  H11  1  0.18631000  0.19336000  0.07190000  1.0
  H  H12  1  0.69335000  0.68632000  0.57192000  1.0
  H  H13  1  0.81369000  0.80664000  0.92807000  1.0
  H  H14  1  0.13471000  0.43689000  0.42803000  1.0
  H  H15  1  0.06309000  0.36529000  0.07198000  1.0
  H  H16  1  0.86530000  0.56312000  0.57197000  1.0
  H  H17  1  0.93690000  0.63471000  0.92802000  1.0
  H  H18  1  0.85366000  0.27041000  0.35854000  1.0
  H  H19  1  0.22953000  0.64633000  0.14148000  1.0
  H  H20  1  0.14635000  0.72959000  0.64147000  1.0
  H  H21  1  0.77045000  0.35366000  0.85854000  1.0
  Pb  Pb22  1  0.58334000  0.91668000  0.25000000  1.0
  Pb  Pb23  1  0.41667000  0.08333000  0.75001000  1.0
  C  C24  1  0.88975000  0.83592000  0.28448000  1.0
  C  C25  1  0.66407000  0.61027000  0.21552000  1.0
  C  C26  1  0.11025000  0.16408000  0.71552000  1.0
  C  C27  1  0.33593000  0.38973000  0.78447000  1.0
  C  C28  1  0.97553000  0.75575000  0.28520000  1.0
  C  C29  1  0.74423000  0.52448000  0.21477000  1.0
  C  C30  1  0.02447000  0.24425000  0.71480000  1.0
  C  C31  1  0.25577000  0.47553000  0.78522000  1.0
  C  C32  1  0.90122000  0.59876000  0.24998000  1.0
  C  C33  1  0.09877000  0.40124000  0.75001000  1.0
  C  C34  1  0.96377000  0.00367000  0.32391000  1.0
  C  C35  1  0.49632000  0.53626000  0.17609000  1.0
  C  C36  1  0.03624000  0.99634000  0.67609000  1.0
  C  C37  1  0.50368000  0.46375000  0.82390000  1.0
  C  C38  1  0.12152000  0.08922000  0.35985000  1.0
  C  C39  1  0.41078000  0.37852000  0.14014000  1.0
  C  C40  1  0.87850000  0.91079000  0.64014000  1.0
  C  C41  1  0.58922000  0.62149000  0.85984000  1.0
  C  C42  1  0.18441000  0.24582000  0.39878000  1.0
  C  C43  1  0.25417000  0.31561000  0.10121000  1.0
  C  C44  1  0.81561000  0.75418000  0.60122000  1.0
  C  C45  1  0.74583000  0.68439000  0.89877000  1.0
  C  C46  1  0.08913000  0.31465000  0.39930000  1.0
  C  C47  1  0.18532000  0.41088000  0.10072000  1.0
  C  C48  1  0.91088000  0.68536000  0.60071000  1.0
  C  C49  1  0.81467000  0.58912000  0.89928000  1.0
  C  C50  1  0.93383000  0.22321000  0.36113000  1.0
  C  C51  1  0.27676000  0.56618000  0.13888000  1.0
  C  C52  1  0.06619000  0.77679000  0.63888000  1.0
  C  C53  1  0.72323000  0.43382000  0.86112000  1.0
  N  N54  1  0.73711000  0.76291000  0.25000000  1.0
  N  N55  1  0.26290000  0.23710000  0.75000000  1.0
  N  N56  1  0.87304000  0.07208000  0.32564000  1.0
  N  N57  1  0.42789000  0.62698000  0.17437000  1.0
  N  N58  1  0.12698000  0.92793000  0.67437000  1.0
  N  N59  1  0.57210000  0.37303000  0.82563000  1.0
  Cl  Cl60  1  0.24204000  0.91624000  0.02283000  1.0
  Cl  Cl61  1  0.58375000  0.25795000  0.47718000  1.0
  Cl  Cl62  1  0.75795000  0.08375000  0.97718000  1.0
  Cl  Cl63  1  0.41625000  0.74204000  0.52282000  1.0
  O  O64  1  0.28415000  0.89910000  0.15963000  1.0
  O  O65  1  0.60087000  0.21584000  0.34038000  1.0
  O  O66  1  0.71585000  0.10090000  0.84039000  1.0
  O  O67  1  0.39912000  0.78417000  0.65962000  1.0
  O  O68  1  0.36436000  0.05925000  0.99780000  1.0
  O  O69  1  0.44073000  0.13565000  0.50222000  1.0
  O  O70  1  0.63564000  0.94071000  0.00219000  1.0
  O  O71  1  0.55928000  0.86435000  0.49779000  1.0
  O  O72  1  0.23016000  0.78945000  0.92812000  1.0
  O  O73  1  0.71053000  0.26980000  0.57189000  1.0
  O  O74  1  0.76981000  0.21051000  0.07191000  1.0
  O  O75  1  0.28947000  0.73019000  0.42811000  1.0
  O  O76  1  0.10050000  0.92592000  0.00926000  1.0
  O  O77  1  0.57409000  0.39950000  0.49075000  1.0
  O  O78  1  0.89950000  0.07408000  0.99075000  1.0
  O  O79  1  0.42591000  0.60049000  0.50926000  1.0
