# generated using pymatgen
data_CaH12C8(NO3)2
_symmetry_space_group_name_H-M   'P 1'
_cell_length_a   8.01783000
_cell_length_b   8.01783000
_cell_length_c   9.81568000
_cell_angle_alpha   74.03300000
_cell_angle_beta   74.03300000
_cell_angle_gamma   62.08380000
_symmetry_Int_Tables_number   1
_chemical_formula_structural   CaH12C8(NO3)2
_chemical_formula_sum   'Ca2 H24 C16 N4 O12'
_cell_volume   528.05925576
_cell_formula_units_Z   2
loop_
 _symmetry_equiv_pos_site_id
 _symmetry_equiv_pos_as_xyz
  1  'x, y, z'
loop_
 _atom_site_type_symbol
 _atom_site_label
 _atom_site_symmetry_multiplicity
 _atom_site_fract_x
 _atom_site_fract_y
 _atom_site_fract_z
 _atom_site_occupancy
  Ca  Ca0  1  0.61728000  0.38272000  0.75000000  1.0
  Ca  Ca1  1  0.38272000  0.61728000  0.25000000  1.0
  H  H2  1  0.98604000  0.67254000  0.89134000  1.0
  H  H3  1  0.32746000  0.01396000  0.60866000  1.0
  H  H4  1  0.01396000  0.32746000  0.10866000  1.0
  H  H5  1  0.67254000  0.98604000  0.39134000  1.0
  H  H6  1  0.08037000  0.82831000  0.89198000  1.0
  H  H7  1  0.17169000  0.91964000  0.60802000  1.0
  H  H8  1  0.91963000  0.17169000  0.10802000  1.0
  H  H9  1  0.82831000  0.08037000  0.39198000  1.0
  H  H10  1  0.79777000  0.71671000  0.13800000  1.0
  H  H11  1  0.28329000  0.20223000  0.36200000  1.0
  H  H12  1  0.20223000  0.28329000  0.86200000  1.0
  H  H13  1  0.71671000  0.79777000  0.63800000  1.0
  H  H14  1  0.93022000  0.82784000  0.16239000  1.0
  H  H15  1  0.17216000  0.06978000  0.33761000  1.0
  H  H16  1  0.06978000  0.17216000  0.83761000  1.0
  H  H17  1  0.82784000  0.93022000  0.66239000  1.0
  H  H18  1  0.45821000  0.21007000  0.09027000  1.0
  H  H19  1  0.78993000  0.54179000  0.40973000  1.0
  H  H20  1  0.54179000  0.78993000  0.90973000  1.0
  H  H21  1  0.21007000  0.45821000  0.59027000  1.0
  H  H22  1  0.52246000  0.98534000  0.20731000  1.0
  H  H23  1  0.01466000  0.47754000  0.29269000  1.0
  H  H24  1  0.47754000  0.01466000  0.79269000  1.0
  H  H25  1  0.98534000  0.52246000  0.70731000  1.0
  C  C26  1  0.21016000  0.55296000  0.01398000  1.0
  C  C27  1  0.44704000  0.78984000  0.48602000  1.0
  C  C28  1  0.78984000  0.44704000  0.98602000  1.0
  C  C29  1  0.55296000  0.21016000  0.51398000  1.0
  C  C30  1  0.03300000  0.72028000  0.96277000  1.0
  C  C31  1  0.27972000  0.96700000  0.53723000  1.0
  C  C32  1  0.96700000  0.27972000  0.03722000  1.0
  C  C33  1  0.72027000  0.03300000  0.46277000  1.0
  C  C34  1  0.87110000  0.80920000  0.08154000  1.0
  C  C35  1  0.19080000  0.12890000  0.41847000  1.0
  C  C36  1  0.12891000  0.19079000  0.91846000  1.0
  C  C37  1  0.80920000  0.87110000  0.58154000  1.0
  C  C38  1  0.72363000  0.00537000  0.02859000  1.0
  C  C39  1  0.99463000  0.27638000  0.47142000  1.0
  C  C40  1  0.27638000  0.99463000  0.97141000  1.0
  C  C41  1  0.00537000  0.72363000  0.52859000  1.0
  N  N42  1  0.55705000  0.07330000  0.11792000  1.0
  N  N43  1  0.92670000  0.44295000  0.38208000  1.0
  N  N44  1  0.44295000  0.92670000  0.88208000  1.0
  N  N45  1  0.07330000  0.55705000  0.61792000  1.0
  O  O46  1  0.22072000  0.50644000  0.14818000  1.0
  O  O47  1  0.49356000  0.77928000  0.35182000  1.0
  O  O48  1  0.77928000  0.49356000  0.85182000  1.0
  O  O49  1  0.50644000  0.22072000  0.64818000  1.0
  O  O50  1  0.34335000  0.46507000  0.91950000  1.0
  O  O51  1  0.53493000  0.65665000  0.58050000  1.0
  O  O52  1  0.65665000  0.53493000  0.08050000  1.0
  O  O53  1  0.46507000  0.34335000  0.41950000  1.0
  O  O54  1  0.76111000  0.10103000  0.90900000  1.0
  O  O55  1  0.89897000  0.23889000  0.59100000  1.0
  O  O56  1  0.23889000  0.89897000  0.09100000  1.0
  O  O57  1  0.10103000  0.76111000  0.40900000  1.0
