# generated using pymatgen
data_ZnH14C12N4O5
_symmetry_space_group_name_H-M   'P 1'
_cell_length_a   10.46090000
_cell_length_b   11.62040000
_cell_length_c   12.16760000
_cell_angle_alpha   87.80230000
_cell_angle_beta   89.99980000
_cell_angle_gamma   89.99960000
_symmetry_Int_Tables_number   1
_chemical_formula_structural   ZnH14C12N4O5
_chemical_formula_sum   'Zn4 H56 C48 N16 O20'
_cell_volume   1478.00360182
_cell_formula_units_Z   4
loop_
 _symmetry_equiv_pos_site_id
 _symmetry_equiv_pos_as_xyz
  1  'x, y, z'
loop_
 _atom_site_type_symbol
 _atom_site_label
 _atom_site_symmetry_multiplicity
 _atom_site_fract_x
 _atom_site_fract_y
 _atom_site_fract_z
 _atom_site_occupancy
  Zn  Zn0  1  0.35934000  0.01657000  0.69126000  1.0
  Zn  Zn1  1  0.35934000  0.48343000  0.80873000  1.0
  Zn  Zn2  1  0.64066000  0.98343000  0.30874000  1.0
  Zn  Zn3  1  0.64066000  0.51657000  0.19126000  1.0
  H  H4  1  0.21995000  0.90888000  0.47149000  1.0
  H  H5  1  0.21994000  0.59112000  0.02851000  1.0
  H  H6  1  0.78005000  0.09112000  0.52851000  1.0
  H  H7  1  0.78006000  0.40887000  0.97149000  1.0
  H  H8  1  0.89580000  0.83479000  0.66876000  1.0
  H  H9  1  0.89580000  0.66523000  0.83123000  1.0
  H  H10  1  0.10421000  0.16521000  0.33123000  1.0
  H  H11  1  0.10420000  0.33477000  0.16876000  1.0
  H  H12  1  0.09780000  0.90655000  0.80134000  1.0
  H  H13  1  0.09781000  0.59345000  0.69867000  1.0
  H  H14  1  0.90220000  0.09344000  0.19867000  1.0
  H  H15  1  0.90220000  0.40654000  0.30134000  1.0
  H  H16  1  0.99438000  0.88520000  0.37623000  1.0
  H  H17  1  0.99438000  0.61480000  0.12377000  1.0
  H  H18  1  0.00562000  0.11479000  0.62376000  1.0
  H  H19  1  0.00562000  0.38519000  0.87623000  1.0
  H  H20  1  0.86496000  0.84180000  0.46122000  1.0
  H  H21  1  0.86496000  0.65821000  0.03878000  1.0
  H  H22  1  0.13504000  0.15820000  0.53878000  1.0
  H  H23  1  0.13504000  0.34180000  0.96120000  1.0
  H  H24  1  0.96552000  0.64620000  0.49067000  1.0
  H  H25  1  0.96552000  0.85381000  0.00933000  1.0
  H  H26  1  0.03448000  0.35381000  0.50932000  1.0
  H  H27  1  0.03447000  0.14619000  0.99067000  1.0
  H  H28  1  0.92683000  0.68215000  0.34958000  1.0
  H  H29  1  0.92683000  0.81787000  0.15042000  1.0
  H  H30  1  0.07317000  0.31786000  0.65042000  1.0
  H  H31  1  0.07316000  0.18214000  0.84957000  1.0
  H  H32  1  0.10778000  0.55973000  0.27525000  1.0
  H  H33  1  0.10777000  0.94027000  0.22475000  1.0
  H  H34  1  0.89223000  0.44027000  0.72475000  1.0
  H  H35  1  0.89223000  0.05973000  0.77525000  1.0
  H  H36  1  0.09761000  0.51174000  0.41613000  1.0
  H  H37  1  0.09761000  0.98826000  0.08387000  1.0
  H  H38  1  0.90239000  0.48825000  0.58386000  1.0
  H  H39  1  0.90239000  0.01173000  0.91613000  1.0
  H  H40  1  0.33897000  0.61109000  0.30085000  1.0
  H  H41  1  0.33896000  0.88891000  0.19915000  1.0
  H  H42  1  0.66104000  0.38891000  0.69914000  1.0
  H  H43  1  0.66103000  0.11109000  0.80085000  1.0
  H  H44  1  0.30989000  0.46462000  0.33588000  1.0
  H  H45  1  0.30989000  0.03539000  0.16414000  1.0
  H  H46  1  0.69011000  0.53539000  0.66413000  1.0
  H  H47  1  0.69011000  0.96461000  0.83587000  1.0
  H  H48  1  0.42604000  0.73901000  0.44209000  1.0
  H  H49  1  0.42604000  0.76099000  0.05791000  1.0
  H  H50  1  0.57396000  0.26098000  0.55791000  1.0
  H  H51  1  0.57397000  0.23901000  0.94209000  1.0
  H  H52  1  0.46870000  0.71344000  0.66710000  1.0
  H  H53  1  0.46870000  0.78657000  0.83290000  1.0
  H  H54  1  0.53131000  0.28656000  0.33290000  1.0
  H  H55  1  0.53131000  0.21343000  0.16710000  1.0
  H  H56  1  0.28130000  0.41692000  0.55831000  1.0
  H  H57  1  0.28129000  0.08308000  0.94170000  1.0
  H  H58  1  0.71871000  0.58308000  0.44169000  1.0
  H  H59  1  0.71870000  0.91691000  0.05831000  1.0
  C  C60  1  0.16145000  0.89847000  0.54459000  1.0
  C  C61  1  0.16145000  0.60153000  0.95541000  1.0
  C  C62  1  0.83855000  0.10154000  0.45541000  1.0
  C  C63  1  0.83855000  0.39847000  0.04459000  1.0
  C  C64  1  0.99312000  0.86051000  0.64959000  1.0
  C  C65  1  0.99312000  0.63950000  0.85041000  1.0
  C  C66  1  0.00688000  0.13949000  0.35041000  1.0
  C  C67  1  0.00688000  0.36050000  0.14959000  1.0
  C  C68  1  0.09307000  0.89652000  0.71324000  1.0
  C  C69  1  0.09308000  0.60348000  0.78676000  1.0
  C  C70  1  0.90693000  0.10348000  0.28676000  1.0
  C  C71  1  0.90693000  0.39652000  0.21324000  1.0
  C  C72  1  0.96708000  0.82793000  0.44607000  1.0
  C  C73  1  0.96707000  0.67207000  0.05393000  1.0
  C  C74  1  0.03292000  0.17207000  0.55393000  1.0
  C  C75  1  0.03292000  0.32793000  0.94607000  1.0
  C  C76  1  0.98979000  0.70358000  0.41861000  1.0
  C  C77  1  0.98979000  0.79642000  0.08139000  1.0
  C  C78  1  0.01021000  0.29642000  0.58138000  1.0
  C  C79  1  0.01021000  0.20358000  0.91861000  1.0
  C  C80  1  0.14576000  0.57393000  0.35844000  1.0
  C  C81  1  0.14576000  0.92608000  0.14156000  1.0
  C  C82  1  0.85424000  0.42608000  0.64156000  1.0
  C  C83  1  0.85424000  0.07392000  0.85844000  1.0
  C  C84  1  0.28894000  0.55299000  0.35968000  1.0
  C  C85  1  0.28893000  0.94702000  0.14033000  1.0
  C  C86  1  0.71107000  0.44702000  0.64032000  1.0
  C  C87  1  0.71107000  0.05299000  0.85967000  1.0
  C  C88  1  0.40311000  0.66954000  0.50081000  1.0
  C  C89  1  0.40311000  0.83047000  0.99919000  1.0
  C  C90  1  0.59689000  0.33046000  0.49920000  1.0
  C  C91  1  0.59688000  0.16953000  0.00081000  1.0
  C  C92  1  0.42328000  0.65493000  0.61209000  1.0
  C  C93  1  0.42328000  0.84508000  0.88791000  1.0
  C  C94  1  0.57672000  0.34507000  0.38792000  1.0
  C  C95  1  0.57671000  0.15492000  0.11209000  1.0
  C  C96  1  0.32604000  0.50093000  0.55937000  1.0
  C  C97  1  0.32603000  0.99907000  0.94063000  1.0
  C  C98  1  0.67397000  0.49907000  0.44063000  1.0
  C  C99  1  0.67397000  0.00092000  0.05937000  1.0
  C  C100  1  0.43853000  0.25000000  0.75000000  1.0
  C  C101  1  0.56147000  0.75000000  0.24999000  1.0
  C  C102  1  0.29014000  0.25000000  0.75000000  1.0
  C  C103  1  0.70986000  0.75000000  0.25000000  1.0
  C  C104  1  0.45675000  0.04617000  0.46871000  1.0
  C  C105  1  0.45676000  0.45381000  0.03129000  1.0
  C  C106  1  0.54324000  0.95381000  0.53129000  1.0
  C  C107  1  0.54325000  0.54618000  0.96871000  1.0
  N  N108  1  0.19706000  0.92051000  0.64677000  1.0
  N  N109  1  0.19706000  0.57950000  0.85323000  1.0
  N  N110  1  0.80294000  0.07950000  0.35323000  1.0
  N  N111  1  0.80294000  0.42051000  0.14677000  1.0
  N  N112  1  0.03828000  0.86223000  0.54276000  1.0
  N  N113  1  0.03828000  0.63778000  0.95724000  1.0
  N  N114  1  0.96172000  0.13778000  0.45724000  1.0
  N  N115  1  0.96172000  0.36223000  0.04275000  1.0
  N  N116  1  0.34208000  0.57099000  0.46862000  1.0
  N  N117  1  0.34207000  0.92901000  0.03139000  1.0
  N  N118  1  0.65793000  0.42901000  0.53139000  1.0
  N  N119  1  0.65792000  0.07098000  0.96861000  1.0
  N  N120  1  0.37448000  0.54942000  0.64772000  1.0
  N  N121  1  0.37447000  0.95058000  0.85228000  1.0
  N  N122  1  0.62553000  0.45058000  0.35228000  1.0
  N  N123  1  0.62553000  0.04942000  0.14772000  1.0
  O  O124  1  0.36154000  0.08448000  0.51984000  1.0
  O  O125  1  0.36154000  0.41554000  0.98015000  1.0
  O  O126  1  0.63847000  0.91553000  0.48016000  1.0
  O  O127  1  0.63846000  0.58448000  0.01984000  1.0
  O  O128  1  0.48820000  0.07606000  0.37090000  1.0
  O  O129  1  0.48820000  0.42393000  0.12910000  1.0
  O  O130  1  0.51180000  0.92395000  0.62910000  1.0
  O  O131  1  0.51179000  0.57606000  0.87091000  1.0
  O  O132  1  0.49346000  0.15993000  0.71856000  1.0
  O  O133  1  0.49345000  0.34006000  0.78143000  1.0
  O  O134  1  0.50655000  0.84006000  0.28144000  1.0
  O  O135  1  0.50654000  0.65994000  0.21857000  1.0
  O  O136  1  0.23394000  0.15506000  0.73547000  1.0
  O  O137  1  0.23395000  0.34493000  0.76453000  1.0
  O  O138  1  0.76606000  0.84493000  0.26453000  1.0
  O  O139  1  0.76605000  0.65507000  0.23548000  1.0
  O  O140  1  0.12090000  0.68815000  0.39055000  1.0
  O  O141  1  0.12090000  0.81186000  0.10945000  1.0
  O  O142  1  0.87910000  0.31186000  0.60945000  1.0
  O  O143  1  0.87910000  0.18814000  0.89055000  1.0
