# generated using pymatgen
data_HgH12C20(NCl)2
_symmetry_space_group_name_H-M   'P 1'
_cell_length_a   4.88782000
_cell_length_b   12.28670000
_cell_length_c   15.28380000
_cell_angle_alpha   98.37930000
_cell_angle_beta   89.99970000
_cell_angle_gamma   90.00000000
_symmetry_Int_Tables_number   1
_chemical_formula_structural   HgH12C20(NCl)2
_chemical_formula_sum   'Hg2 H24 C40 N4 Cl4'
_cell_volume   908.07309495
_cell_formula_units_Z   2
loop_
 _symmetry_equiv_pos_site_id
 _symmetry_equiv_pos_as_xyz
  1  'x, y, z'
loop_
 _atom_site_type_symbol
 _atom_site_label
 _atom_site_symmetry_multiplicity
 _atom_site_fract_x
 _atom_site_fract_y
 _atom_site_fract_z
 _atom_site_occupancy
  Hg  Hg0  1  0.02010000  0.50000000  0.25000000  1.0
  Hg  Hg1  1  0.97990000  0.50000000  0.75000000  1.0
  H  H2  1  0.71018000  0.46239000  0.43504000  1.0
  H  H3  1  0.71018000  0.53761000  0.06496000  1.0
  H  H4  1  0.28982000  0.53762000  0.56496000  1.0
  H  H5  1  0.28982000  0.46239000  0.93504000  1.0
  H  H6  1  0.29939000  0.15645000  0.23485000  1.0
  H  H7  1  0.29939000  0.84355000  0.26515000  1.0
  H  H8  1  0.70061000  0.84355000  0.76515000  1.0
  H  H9  1  0.70061000  0.15645000  0.73485000  1.0
  H  H10  1  0.34609000  0.34956000  0.49470000  1.0
  H  H11  1  0.34608000  0.65045000  0.00531000  1.0
  H  H12  1  0.65392000  0.65045000  0.50530000  1.0
  H  H13  1  0.65392000  0.34955000  0.99470000  1.0
  H  H14  1  0.66250000  0.27968000  0.18595000  1.0
  H  H15  1  0.66250000  0.72032000  0.31405000  1.0
  H  H16  1  0.33750000  0.72032000  0.81405000  1.0
  H  H17  1  0.33750000  0.27967000  0.68595000  1.0
  H  H18  1  0.66182000  0.17868000  0.58180000  1.0
  H  H19  1  0.66182000  0.82131000  0.91820000  1.0
  H  H20  1  0.33818000  0.82132000  0.41820000  1.0
  H  H21  1  0.33818000  0.17868000  0.08180000  1.0
  H  H22  1  0.70215000  0.92865000  0.35330000  1.0
  H  H23  1  0.70215000  0.07135000  0.14669000  1.0
  H  H24  1  0.29785000  0.07135000  0.64669000  1.0
  H  H25  1  0.29785000  0.92865000  0.85330000  1.0
  C  C26  1  0.08708000  0.17745000  0.39972000  1.0
  C  C27  1  0.08708000  0.82255000  0.10028000  1.0
  C  C28  1  0.91293000  0.82255000  0.60027000  1.0
  C  C29  1  0.91292000  0.17745000  0.89972000  1.0
  C  C30  1  0.61121000  0.39437000  0.39296000  1.0
  C  C31  1  0.61120000  0.60563000  0.10704000  1.0
  C  C32  1  0.38879000  0.60563000  0.60704000  1.0
  C  C33  1  0.38880000  0.39437000  0.89296000  1.0
  C  C34  1  0.29219000  0.24339000  0.36915000  1.0
  C  C35  1  0.29219000  0.75661000  0.13085000  1.0
  C  C36  1  0.70781000  0.75661000  0.63085000  1.0
  C  C37  1  0.70781000  0.24339000  0.86915000  1.0
  C  C38  1  0.38602000  0.22335000  0.28107000  1.0
  C  C39  1  0.38602000  0.77665000  0.21894000  1.0
  C  C40  1  0.61398000  0.77665000  0.71894000  1.0
  C  C41  1  0.61398000  0.22335000  0.78106000  1.0
  C  C42  1  0.91017000  0.12175000  0.42796000  1.0
  C  C43  1  0.91017000  0.87825000  0.07204000  1.0
  C  C44  1  0.08982000  0.87825000  0.57204000  1.0
  C  C45  1  0.08982000  0.12175000  0.92796000  1.0
  C  C46  1  0.70512000  0.06037000  0.46365000  1.0
  C  C47  1  0.70512000  0.93963000  0.03635000  1.0
  C  C48  1  0.29488000  0.93963000  0.53635000  1.0
  C  C49  1  0.29487000  0.06037000  0.96365000  1.0
  C  C50  1  0.41094000  0.33138000  0.42597000  1.0
  C  C51  1  0.41094000  0.66862000  0.07403000  1.0
  C  C52  1  0.58906000  0.66862000  0.57403000  1.0
  C  C53  1  0.58906000  0.33138000  0.92597000  1.0
  C  C54  1  0.58615000  0.29107000  0.25381000  1.0
  C  C55  1  0.58615000  0.70893000  0.24619000  1.0
  C  C56  1  0.41385000  0.70893000  0.74619000  1.0
  C  C57  1  0.41385000  0.29107000  0.75381000  1.0
  C  C58  1  0.58998000  0.10004000  0.54700000  1.0
  C  C59  1  0.58998000  0.89996000  0.95300000  1.0
  C  C60  1  0.41002000  0.89996000  0.45299000  1.0
  C  C61  1  0.41002000  0.10004000  0.04700000  1.0
  C  C62  1  0.61167000  0.95942000  0.41733000  1.0
  C  C63  1  0.61167000  0.04058000  0.08266000  1.0
  C  C64  1  0.38832000  0.04058000  0.58266000  1.0
  C  C65  1  0.38832000  0.95942000  0.91734000  1.0
  N  N66  1  0.69637000  0.37530000  0.30846000  1.0
  N  N67  1  0.69636000  0.62470000  0.19154000  1.0
  N  N68  1  0.30364000  0.62470000  0.69154000  1.0
  N  N69  1  0.30364000  0.37530000  0.80846000  1.0
  Cl  Cl70  1  0.11834000  0.61301000  0.38879000  1.0
  Cl  Cl71  1  0.11834000  0.38699000  0.11121000  1.0
  Cl  Cl72  1  0.88166000  0.38699000  0.61121000  1.0
  Cl  Cl73  1  0.88166000  0.61301000  0.88879000  1.0
