# generated using pymatgen
data_ZnH26C30S5NO19
_symmetry_space_group_name_H-M   'P 1'
_cell_length_a   10.66950000
_cell_length_b   16.74420000
_cell_length_c   18.21630000
_cell_angle_alpha   83.88530000
_cell_angle_beta   84.67600000
_cell_angle_gamma   84.70310000
_symmetry_Int_Tables_number   1
_chemical_formula_structural   ZnH26C30S5NO19
_chemical_formula_sum   'Zn2 H52 C60 S10 N2 O38'
_cell_volume   3210.71973135
_cell_formula_units_Z   2
loop_
 _symmetry_equiv_pos_site_id
 _symmetry_equiv_pos_as_xyz
  1  'x, y, z'
loop_
 _atom_site_type_symbol
 _atom_site_label
 _atom_site_symmetry_multiplicity
 _atom_site_fract_x
 _atom_site_fract_y
 _atom_site_fract_z
 _atom_site_occupancy
  Zn  Zn0  1  0.52072000  0.40232000  0.49790000  1.0
  Zn  Zn1  1  0.49674000  0.59281000  0.49854000  1.0
  H  H2  1  0.15464000  0.88496000  0.51174000  1.0
  H  H3  1  0.83744000  0.12334000  0.46529000  1.0
  H  H4  1  0.64693000  0.56498000  0.85675000  1.0
  H  H5  1  0.34925000  0.43601000  0.11751000  1.0
  H  H6  1  0.40756000  0.30178000  0.41544000  1.0
  H  H7  1  0.46999000  0.69687000  0.61278000  1.0
  H  H8  1  0.53687000  0.10419000  0.61742000  1.0
  H  H9  1  0.49834000  0.89142000  0.39276000  1.0
  H  H10  1  0.12392000  0.79337000  0.62458000  1.0
  H  H11  1  0.85273000  0.21882000  0.35189000  1.0
  H  H12  1  0.85817000  0.62216000  0.48837000  1.0
  H  H13  1  0.16104000  0.38089000  0.48547000  1.0
  H  H14  1  0.49244000  0.16221000  0.30739000  1.0
  H  H15  1  0.37885000  0.09630000  0.29123000  1.0
  H  H16  1  0.49128000  0.06438000  0.35680000  1.0
  H  H17  1  0.27458000  0.10616000  0.41829000  1.0
  H  H18  1  0.28252000  0.20353000  0.37045000  1.0
  H  H19  1  0.28404000  0.79817000  0.69858000  1.0
  H  H20  1  0.32374000  0.87847000  0.74621000  1.0
  H  H21  1  0.26162000  0.90005000  0.65850000  1.0
  H  H22  1  0.51820000  0.80646000  0.68737000  1.0
  H  H23  1  0.49901000  0.90861000  0.65073000  1.0
  H  H24  1  0.51157000  0.18067000  0.72566000  1.0
  H  H25  1  0.66470000  0.14168000  0.69123000  1.0
  H  H26  1  0.64893000  0.22585000  0.74280000  1.0
  H  H27  1  0.68751000  0.27402000  0.60991000  1.0
  H  H28  1  0.54148000  0.31197000  0.64748000  1.0
  H  H29  1  0.37923000  0.74568000  0.30907000  1.0
  H  H30  1  0.46398000  0.83324000  0.29263000  1.0
  H  H31  1  0.51865000  0.74639000  0.24821000  1.0
  H  H32  1  0.65237000  0.75006000  0.34941000  1.0
  H  H33  1  0.55901000  0.66877000  0.37090000  1.0
  H  H34  1  0.13793000  0.51137000  0.65286000  1.0
  H  H35  1  0.08330000  0.44298000  0.33170000  1.0
  H  H36  1  0.29506000  0.59569000  0.35113000  1.0
  H  H37  1  0.87862000  0.43149000  0.64185000  1.0
  H  H38  1  0.07729000  0.96877000  0.41889000  1.0
  H  H39  1  0.24456000  0.95162000  0.41638000  1.0
  H  H40  1  0.17117000  0.98388000  0.33389000  1.0
  H  H41  1  0.23806000  0.83919000  0.33474000  1.0
  H  H42  1  0.07559000  0.85618000  0.33456000  1.0
  H  H43  1  0.05513000  0.06606000  0.53125000  1.0
  H  H44  1  0.11686000  0.12795000  0.59066000  1.0
  H  H45  1  0.04955000  0.03750000  0.62847000  1.0
  H  H46  1  0.89797000  0.15718000  0.65215000  1.0
  H  H47  1  0.83626000  0.09589000  0.59355000  1.0
  H  H48  1  0.44399000  0.38780000  0.99646000  1.0
  H  H49  1  0.53309000  0.68091000  0.99143000  1.0
  H  H50  1  0.16767000  0.36757000  0.82352000  1.0
  H  H51  1  0.84203000  0.57485000  0.15240000  1.0
  H  H52  1  0.87223000  0.61386000  0.73672000  1.0
  H  H53  1  0.14927000  0.35000000  0.23513000  1.0
  C  C54  1  0.49673000  0.49321000  0.34004000  1.0
  C  C55  1  0.49578000  0.49491000  0.64236000  1.0
  C  C56  1  0.88065000  0.49479000  0.48262000  1.0
  C  C57  1  0.13773000  0.50782000  0.49162000  1.0
  C  C58  1  0.96569000  0.42539000  0.48100000  1.0
  C  C59  1  0.05391000  0.57768000  0.49261000  1.0
  C  C60  1  0.40006000  0.44933000  0.85118000  1.0
  C  C61  1  0.57291000  0.56494000  0.13287000  1.0
  C  C62  1  0.39940000  0.45019000  0.77387000  1.0
  C  C63  1  0.58562000  0.54805000  0.20957000  1.0
  C  C64  1  0.49111000  0.49014000  0.72643000  1.0
  C  C65  1  0.50403000  0.49801000  0.25499000  1.0
  C  C66  1  0.58281000  0.52834000  0.75772000  1.0
  C  C67  1  0.41775000  0.45904000  0.21968000  1.0
  C  C68  1  0.57784000  0.53351000  0.83320000  1.0
  C  C69  1  0.41388000  0.46861000  0.14352000  1.0
  C  C70  1  0.48479000  0.49561000  0.88077000  1.0
  C  C71  1  0.49168000  0.52085000  0.09839000  1.0
  C  C72  1  0.48287000  0.50432000  0.95719000  1.0
  C  C73  1  0.48850000  0.51798000  0.02131000  1.0
  C  C74  1  0.40682000  0.17647000  0.45681000  1.0
  C  C75  1  0.46724000  0.82390000  0.57669000  1.0
  C  C76  1  0.27579000  0.50904000  0.49634000  1.0
  C  C77  1  0.74145000  0.49096000  0.48336000  1.0
  C  C78  1  0.43423000  0.25586000  0.45950000  1.0
  C  C79  1  0.47642000  0.74263000  0.56572000  1.0
  C  C80  1  0.53054000  0.22761000  0.57100000  1.0
  C  C81  1  0.51105000  0.76680000  0.43663000  1.0
  C  C82  1  0.50750000  0.14714000  0.57192000  1.0
  C  C83  1  0.49177000  0.84931000  0.44253000  1.0
  C  C84  1  0.44929000  0.12014000  0.51437000  1.0
  C  C85  1  0.46870000  0.87890000  0.51216000  1.0
  C  C86  1  0.44183000  0.03630000  0.51448000  1.0
  C  C87  1  0.45191000  0.96306000  0.51583000  1.0
  C  C88  1  0.12026000  0.77129000  0.57078000  1.0
  C  C89  1  0.87280000  0.23717000  0.40495000  1.0
  C  C90  1  0.09660000  0.69131000  0.56667000  1.0
  C  C91  1  0.91117000  0.31415000  0.40874000  1.0
  C  C92  1  0.09291000  0.66066000  0.49784000  1.0
  C  C93  1  0.92969000  0.34205000  0.47687000  1.0
  C  C94  1  0.11694000  0.71443000  0.43303000  1.0
  C  C95  1  0.92390000  0.28524000  0.54053000  1.0
  C  C96  1  0.13713000  0.79657000  0.43625000  1.0
  C  C97  1  0.89707000  0.20474000  0.53638000  1.0
  C  C98  1  0.13853000  0.82261000  0.50683000  1.0
  C  C99  1  0.86463000  0.18406000  0.46839000  1.0
  C  C100  1  0.92616000  0.56960000  0.48782000  1.0
  C  C101  1  0.09314000  0.43350000  0.48548000  1.0
  C  C102  1  0.33985000  0.15139000  0.39496000  1.0
  C  C103  1  0.43133000  0.11638000  0.33406000  1.0
  C  C104  1  0.45847000  0.85015000  0.65357000  1.0
  C  C105  1  0.32377000  0.85702000  0.69128000  1.0
  C  C106  1  0.59378000  0.25607000  0.63219000  1.0
  C  C107  1  0.60504000  0.19713000  0.70147000  1.0
  C  C108  1  0.55421000  0.73484000  0.36391000  1.0
  C  C109  1  0.47397000  0.76699000  0.30018000  1.0
  C  C110  1  0.15355000  0.85832000  0.36958000  1.0
  C  C111  1  0.16194000  0.94506000  0.38631000  1.0
  C  C112  1  0.91103000  0.13620000  0.59691000  1.0
  C  C113  1  0.04114000  0.08906000  0.58602000  1.0
  S  S114  1  0.08235000  0.63843000  0.65716000  1.0
  S  S115  1  0.93834000  0.36530000  0.31828000  1.0
  S  S116  1  0.11536000  0.67557000  0.34371000  1.0
  S  S117  1  0.96019000  0.30770000  0.63155000  1.0
  S  S118  1  0.30316000  0.39212000  0.92113000  1.0
  S  S119  1  0.64666000  0.64983000  0.08143000  1.0
  S  S120  1  0.28577000  0.40135000  0.72835000  1.0
  S  S121  1  0.72019000  0.58223000  0.24979000  1.0
  S  S122  1  0.71190000  0.56908000  0.69882000  1.0
  S  S123  1  0.31991000  0.38639000  0.27001000  1.0
  N  N124  1  0.49569000  0.28109000  0.51330000  1.0
  N  N125  1  0.49661000  0.71462000  0.49842000  1.0
  O  O126  1  0.53026000  0.42735000  0.37510000  1.0
  O  O127  1  0.48510000  0.56641000  0.61217000  1.0
  O  O128  1  0.44957000  0.55860000  0.36487000  1.0
  O  O129  1  0.51372000  0.43032000  0.61260000  1.0
  O  O130  1  0.34083000  0.44200000  0.49559000  1.0
  O  O131  1  0.67416000  0.55787000  0.47833000  1.0
  O  O132  1  0.31681000  0.57747000  0.50054000  1.0
  O  O133  1  0.70113000  0.42114000  0.49066000  1.0
  O  O134  1  0.19808000  0.64300000  0.69087000  1.0
  O  O135  1  0.96553000  0.67219000  0.69522000  1.0
  O  O136  1  0.05834000  0.54996000  0.64855000  1.0
  O  O137  1  0.04093000  0.31457000  0.28167000  1.0
  O  O138  1  0.82201000  0.37861000  0.28423000  1.0
  O  O139  1  0.98966000  0.44832000  0.32578000  1.0
  O  O140  1  0.99011000  0.65381000  0.33716000  1.0
  O  O141  1  0.17374000  0.72984000  0.28668000  1.0
  O  O142  1  0.20091000  0.59318000  0.35024000  1.0
  O  O143  1  0.85973000  0.28263000  0.68529000  1.0
  O  O144  1  0.08831000  0.27502000  0.63932000  1.0
  O  O145  1  0.96266000  0.40168000  0.63021000  1.0
  O  O146  1  0.22113000  0.44817000  0.96123000  1.0
  O  O147  1  0.25280000  0.32639000  0.89111000  1.0
  O  O148  1  0.40675000  0.34662000  0.97170000  1.0
  O  O149  1  0.58243000  0.72178000  0.10740000  1.0
  O  O150  1  0.78221000  0.63409000  0.07638000  1.0
  O  O151  1  0.61252000  0.64744000  0.99777000  1.0
  O  O152  1  0.25813000  0.45386000  0.66244000  1.0
  O  O153  1  0.33311000  0.31934000  0.72323000  1.0
  O  O154  1  0.15905000  0.40892000  0.77950000  1.0
  O  O155  1  0.71859000  0.66817000  0.23432000  1.0
  O  O156  1  0.72447000  0.54329000  0.32303000  1.0
  O  O157  1  0.83375000  0.54104000  0.20086000  1.0
  O  O158  1  0.75755000  0.50669000  0.65105000  1.0
  O  O159  1  0.67798000  0.64884000  0.66536000  1.0
  O  O160  1  0.80728000  0.57334000  0.75854000  1.0
  O  O161  1  0.39951000  0.31387000  0.28640000  1.0
  O  O162  1  0.24513000  0.42160000  0.33137000  1.0
  O  O163  1  0.23024000  0.37503000  0.20920000  1.0
