# generated using pymatgen
data_CuH5C9N2O
_symmetry_space_group_name_H-M   'P 1'
_cell_length_a   24.97300000
_cell_length_b   25.18080000
_cell_length_c   25.77460000
_cell_angle_alpha   92.49760000
_cell_angle_beta   92.88610000
_cell_angle_gamma   91.09120000
_symmetry_Int_Tables_number   1
_chemical_formula_structural   CuH5C9N2O
_chemical_formula_sum   'Cu12 H60 C108 N24 O12'
_cell_volume   16168.50288833
_cell_formula_units_Z   12
loop_
 _symmetry_equiv_pos_site_id
 _symmetry_equiv_pos_as_xyz
  1  'x, y, z'
loop_
 _atom_site_type_symbol
 _atom_site_label
 _atom_site_symmetry_multiplicity
 _atom_site_fract_x
 _atom_site_fract_y
 _atom_site_fract_z
 _atom_site_occupancy
  Cu  Cu0  1  0.21160000  0.20575000  0.18025000  1.0
  Cu  Cu1  1  0.19900000  0.11338000  0.26405000  1.0
  Cu  Cu2  1  0.14482000  0.21930000  0.28149000  1.0
  Cu  Cu3  1  0.78830000  0.25158000  0.86292000  1.0
  Cu  Cu4  1  0.74138000  0.15295000  0.79289000  1.0
  Cu  Cu5  1  0.84685000  0.21425000  0.76196000  1.0
  Cu  Cu6  1  0.25782000  0.78504000  0.85814000  1.0
  Cu  Cu7  1  0.22396000  0.84426000  0.75709000  1.0
  Cu  Cu8  1  0.15824000  0.74060000  0.78705000  1.0
  Cu  Cu9  1  0.82434000  0.81740000  0.05645000  1.0
  Cu  Cu10  1  0.80440000  0.88356000  0.15935000  1.0
  Cu  Cu11  1  0.87467000  0.77615000  0.15889000  1.0
  H  H12  1  0.31349000  0.16117000  0.12223000  1.0
  H  H13  1  0.29123000  0.04009000  0.23402000  1.0
  H  H14  1  0.08503000  0.32321000  0.26084000  1.0
  H  H15  1  0.16356000  0.30426000  0.11522000  1.0
  H  H16  1  0.14629000  0.04449000  0.35448000  1.0
  H  H17  1  0.09691000  0.20494000  0.39290000  1.0
  H  H18  1  0.69455000  0.26800000  0.94020000  1.0
  H  H19  1  0.63525000  0.12669000  0.85197000  1.0
  H  H20  1  0.94435000  0.29713000  0.76627000  1.0
  H  H21  1  0.87506000  0.33647000  0.91356000  1.0
  H  H22  1  0.73827000  0.05595000  0.71018000  1.0
  H  H23  1  0.88005000  0.14120000  0.66574000  1.0
  H  H24  1  0.34534000  0.86851000  0.91044000  1.0
  H  H25  1  0.31224000  0.93710000  0.76112000  1.0
  H  H26  1  0.13079000  0.63364000  0.84515000  1.0
  H  H27  1  0.27086000  0.69350000  0.93712000  1.0
  H  H28  1  0.14865000  0.88427000  0.66519000  1.0
  H  H29  1  0.05865000  0.74488000  0.70675000  1.0
  H  H30  1  0.74304000  0.86763000  0.97769000  1.0
  H  H31  1  0.70475000  0.95529000  0.11907000  1.0
  H  H32  1  0.93718000  0.67302000  0.11440000  1.0
  H  H33  1  0.87742000  0.74295000  0.97255000  1.0
  H  H34  1  0.83518000  0.92844000  0.27473000  1.0
  H  H35  1  0.90369000  0.77183000  0.27873000  1.0
  H  H36  1  0.94963000  0.07253000  0.54234000  1.0
  H  H37  1  0.90484000  0.90619000  0.53245000  1.0
  H  H38  1  0.06761000  0.96931000  0.54674000  1.0
  H  H39  1  0.98557000  0.98838000  0.41396000  1.0
  H  H40  1  0.53032000  0.99249000  0.08619000  1.0
  H  H41  1  0.53406000  0.05906000  0.93465000  1.0
  H  H42  1  0.47418000  0.13654000  0.07229000  1.0
  H  H43  1  0.39088000  0.00991000  0.00910000  1.0
  H  H44  1  0.14574000  0.47743000  0.07110000  1.0
  H  H45  1  0.06268000  0.52513000  0.93010000  1.0
  H  H46  1  0.99727000  0.52469000  0.08218000  1.0
  H  H47  1  0.02250000  0.38481000  0.01272000  1.0
  H  H48  1  0.39049000  0.00299000  0.21385000  1.0
  H  H49  1  0.47091000  0.97875000  0.14946000  1.0
  H  H50  1  0.58650000  0.27654000  0.97467000  1.0
  H  H51  1  0.50763000  0.22694000  0.02556000  1.0
  H  H52  1  0.42124000  0.98799000  0.78304000  1.0
  H  H53  1  0.48467000  0.05049000  0.85158000  1.0
  H  H54  1  0.68591000  0.94342000  0.92382000  1.0
  H  H55  1  0.59383000  0.99869000  0.90868000  1.0
  H  H56  1  0.03699000  0.41034000  0.22755000  1.0
  H  H57  1  0.00304000  0.48178000  0.15708000  1.0
  H  H58  1  0.94410000  0.67609000  0.91807000  1.0
  H  H59  1  0.00427000  0.58785000  0.90369000  1.0
  H  H60  1  0.99849000  0.40301000  0.78440000  1.0
  H  H61  1  0.06084000  0.46913000  0.85047000  1.0
  H  H62  1  0.28073000  0.59102000  0.97380000  1.0
  H  H63  1  0.23324000  0.51158000  0.02525000  1.0
  H  H64  1  0.11150000  0.16431000  0.50148000  1.0
  H  H65  1  0.04691000  0.10527000  0.56126000  1.0
  H  H66  1  0.97546000  0.77483000  0.64302000  1.0
  H  H67  1  0.92166000  0.83676000  0.57511000  1.0
  H  H68  1  0.85847000  0.78432000  0.38817000  1.0
  H  H69  1  0.89308000  0.83372000  0.48060000  1.0
  H  H70  1  0.76076000  0.97564000  0.63595000  1.0
  H  H71  1  0.82131000  0.92480000  0.56469000  1.0
  C  C72  1  0.30047000  0.13601000  0.15252000  1.0
  C  C73  1  0.32292000  0.08904000  0.17061000  1.0
  C  C74  1  0.28924000  0.07423000  0.20978000  1.0
  C  C75  1  0.10898000  0.31137000  0.22850000  1.0
  C  C76  1  0.11218000  0.33358000  0.17970000  1.0
  C  C77  1  0.14901000  0.30150000  0.15398000  1.0
  C  C78  1  0.13791000  0.08664000  0.35613000  1.0
  C  C79  1  0.11176000  0.11707000  0.39384000  1.0
  C  C80  1  0.11339000  0.16896000  0.37602000  1.0
  C  C81  1  0.68727000  0.23424000  0.91298000  1.0
  C  C82  1  0.64449000  0.19695000  0.90937000  1.0
  C  C83  1  0.65717000  0.16164000  0.86826000  1.0
  C  C84  1  0.92015000  0.30083000  0.79998000  1.0
  C  C85  1  0.92820000  0.33349000  0.84538000  1.0
  C  C86  1  0.88495000  0.32035000  0.87560000  1.0
  C  C87  1  0.77142000  0.08355000  0.70560000  1.0
  C  C88  1  0.81277000  0.08089000  0.67059000  1.0
  C  C89  1  0.84388000  0.12727000  0.68289000  1.0
  C  C90  1  0.33054000  0.87843000  0.87184000  1.0
  C  C91  1  0.34611000  0.92051000  0.84143000  1.0
  C  C92  1  0.31423000  0.91321000  0.79516000  1.0
  C  C93  1  0.16555000  0.65559000  0.86233000  1.0
  C  C94  1  0.20013000  0.64341000  0.90470000  1.0
  C  C95  1  0.23752000  0.68603000  0.90896000  1.0
  C  C96  1  0.13374000  0.84809000  0.68128000  1.0
  C  C97  1  0.08521000  0.81997000  0.66967000  1.0
  C  C98  1  0.08758000  0.77691000  0.70262000  1.0
  C  C99  1  0.74105000  0.88519000  0.01673000  1.0
  C  C100  1  0.70571000  0.92304000  0.03604000  1.0
  C  C101  1  0.72109000  0.92954000  0.08923000  1.0
  C  C102  1  0.91800000  0.69656000  0.08481000  1.0
  C  C103  1  0.91896000  0.69067000  0.03033000  1.0
  C  C104  1  0.88777000  0.73246000  0.01213000  1.0
  C  C105  1  0.84999000  0.88887000  0.26652000  1.0
  C  C106  1  0.87512000  0.85372000  0.30040000  1.0
  C  C107  1  0.88424000  0.80842000  0.26863000  1.0
  C  C108  1  0.99951000  0.00982000  0.50099000  1.0
  C  C109  1  0.95261000  0.03041000  0.53211000  1.0
  C  C110  1  0.91783000  0.99198000  0.54415000  1.0
  C  C111  1  0.93361000  0.93701000  0.52302000  1.0
  C  C112  1  0.02526000  0.96645000  0.53468000  1.0
  C  C113  1  0.99017000  0.92827000  0.54706000  1.0
  C  C114  1  0.97378000  0.97946000  0.45270000  1.0
  C  C115  1  0.93941000  0.94038000  0.46440000  1.0
  C  C116  1  0.46460000  0.04707000  0.05453000  1.0
  C  C117  1  0.51693000  0.01571000  0.05362000  1.0
  C  C118  1  0.54241000  0.01956000  0.00906000  1.0
  C  C119  1  0.51298000  0.05529000  0.97043000  1.0
  C  C120  1  0.48124000  0.10452000  0.04392000  1.0
  C  C121  1  0.50787000  0.10894000  0.00009000  1.0
  C  C122  1  0.43102000  0.02649000  0.00571000  1.0
  C  C123  1  0.45672000  0.03042000  0.96135000  1.0
  C  C124  1  0.05611000  0.46176000  0.05405000  1.0
  C  C125  1  0.11285000  0.48104000  0.04225000  1.0
  C  C126  1  0.11532000  0.50556000  0.99704000  1.0
  C  C127  1  0.06070000  0.50601000  0.96720000  1.0
  C  C128  1  0.02129000  0.51131000  0.05034000  1.0
  C  C129  1  0.02334000  0.53469000  0.00446000  1.0
  C  C130  1  0.03681000  0.42513000  0.00718000  1.0
  C  C131  1  0.03883000  0.44856000  0.96134000  1.0
  C  C132  1  0.36965000  0.06086000  0.15519000  1.0
  C  C133  1  0.39836000  0.02095000  0.17743000  1.0
  C  C134  1  0.44073000  0.00866000  0.14396000  1.0
  C  C135  1  0.43587000  0.04161000  0.10324000  1.0
  C  C136  1  0.59938000  0.19601000  0.94202000  1.0
  C  C137  1  0.57571000  0.23453000  0.97226000  1.0
  C  C138  1  0.53453000  0.20884000  0.99852000  1.0
  C  C139  1  0.53478000  0.15564000  0.98340000  1.0
  C  C140  1  0.38647000  0.96118000  0.85420000  1.0
  C  C141  1  0.42005000  0.99041000  0.82510000  1.0
  C  C142  1  0.45364000  0.02221000  0.86087000  1.0
  C  C143  1  0.43864000  0.01129000  0.91017000  1.0
  C  C144  1  0.66494000  0.94890000  0.00559000  1.0
  C  C145  1  0.65873000  0.95661000  0.95305000  1.0
  C  C146  1  0.61132000  0.98609000  0.94538000  1.0
  C  C147  1  0.59041000  0.99471000  0.99354000  1.0
  C  C148  1  0.08262000  0.37878000  0.16276000  1.0
  C  C149  1  0.04812000  0.41211000  0.18751000  1.0
  C  C150  1  0.03036000  0.44949000  0.15059000  1.0
  C  C151  1  0.05480000  0.43720000  0.10540000  1.0
  C  C152  1  0.94656000  0.65238000  0.99925000  1.0
  C  C153  1  0.95705000  0.64863000  0.94723000  1.0
  C  C154  1  0.98884000  0.60300000  0.93990000  1.0
  C  C155  1  0.99607000  0.58073000  0.98771000  1.0
  C  C156  1  0.96995000  0.37306000  0.85704000  1.0
  C  C157  1  0.00023000  0.40427000  0.82658000  1.0
  C  C158  1  0.03189000  0.43930000  0.86101000  1.0
  C  C159  1  0.01998000  0.42747000  0.91097000  1.0
  C  C160  1  0.19966000  0.59907000  0.93813000  1.0
  C  C161  1  0.23894000  0.57816000  0.97024000  1.0
  C  C162  1  0.21441000  0.53671000  0.99679000  1.0
  C  C163  1  0.16108000  0.53408000  0.98001000  1.0
  C  C164  1  0.08887000  0.10238000  0.44174000  1.0
  C  C165  1  0.08931000  0.12791000  0.48990000  1.0
  C  C166  1  0.05599000  0.09702000  0.52102000  1.0
  C  C167  1  0.03713000  0.05427000  0.49035000  1.0
  C  C168  1  0.04107000  0.83283000  0.63495000  1.0
  C  C169  1  0.99067000  0.81018000  0.62562000  1.0
  C  C170  1  0.96272000  0.84265000  0.59023000  1.0
  C  C171  1  0.99727000  0.88369000  0.57907000  1.0
  C  C172  1  0.88577000  0.85866000  0.35604000  1.0
  C  C173  1  0.87657000  0.82375000  0.39431000  1.0
  C  C174  1  0.89341000  0.85004000  0.44239000  1.0
  C  C175  1  0.91283000  0.89977000  0.43125000  1.0
  C  C176  1  0.82254000  0.03867000  0.63318000  1.0
  C  C177  1  0.79741000  0.99036000  0.62024000  1.0
  C  C178  1  0.82924000  0.96370000  0.58350000  1.0
  C  C179  1  0.87221000  0.99704000  0.57528000  1.0
  N  N180  1  0.24993000  0.10971000  0.21472000  1.0
  N  N181  1  0.25677000  0.14818000  0.17929000  1.0
  N  N182  1  0.16619000  0.26297000  0.18543000  1.0
  N  N183  1  0.14130000  0.26933000  0.23154000  1.0
  N  N184  1  0.13876000  0.16941000  0.33118000  1.0
  N  N185  1  0.15401000  0.11846000  0.31878000  1.0
  N  N186  1  0.70391000  0.17712000  0.84886000  1.0
  N  N187  1  0.72259000  0.22203000  0.87668000  1.0
  N  N188  1  0.85346000  0.28281000  0.84978000  1.0
  N  N189  1  0.87535000  0.27064000  0.80300000  1.0
  N  N190  1  0.82254000  0.15515000  0.72238000  1.0
  N  N191  1  0.77769000  0.12803000  0.73647000  1.0
  N  N192  1  0.28215000  0.86989000  0.79789000  1.0
  N  N193  1  0.29230000  0.84826000  0.84531000  1.0
  N  N194  1  0.22609000  0.72074000  0.87191000  1.0
  N  N195  1  0.18155000  0.70194000  0.84288000  1.0
  N  N196  1  0.13390000  0.77951000  0.73182000  1.0
  N  N197  1  0.16255000  0.82355000  0.71853000  1.0
  N  N198  1  0.76281000  0.89789000  0.10040000  1.0
  N  N199  1  0.77495000  0.87046000  0.05545000  1.0
  N  N200  1  0.86978000  0.76104000  0.05277000  1.0
  N  N201  1  0.88841000  0.73895000  0.09780000  1.0
  N  N202  1  0.86574000  0.81595000  0.21954000  1.0
  N  N203  1  0.84425000  0.86580000  0.21824000  1.0
  O  O204  1  0.39240000  0.07392000  0.10956000  1.0
  O  O205  1  0.57413000  0.14769000  0.94792000  1.0
  O  O206  1  0.39732000  0.97379000  0.90623000  1.0
  O  O207  1  0.62330000  0.97187000  0.03080000  1.0
  O  O208  1  0.08704000  0.39385000  0.11228000  1.0
  O  O209  1  0.96996000  0.61093000  0.02432000  1.0
  O  O210  1  0.98195000  0.38667000  0.90872000  1.0
  O  O211  1  0.15191000  0.57188000  0.94318000  1.0
  O  O212  1  0.05720000  0.05665000  0.44171000  1.0
  O  O213  1  0.04575000  0.87760000  0.60643000  1.0
  O  O214  1  0.90807000  0.90548000  0.37814000  1.0
  O  O215  1  0.86802000  0.04339000  0.60551000  1.0
