# generated using pymatgen
data_CuH24C26S2(N3O2)2
_symmetry_space_group_name_H-M   'P 1'
_cell_length_a   7.09849000
_cell_length_b   9.24230000
_cell_length_c   10.57630000
_cell_angle_alpha   94.44840000
_cell_angle_beta   96.61260000
_cell_angle_gamma   108.56900000
_symmetry_Int_Tables_number   1
_chemical_formula_structural   CuH24C26S2(N3O2)2
_chemical_formula_sum   'Cu1 H24 C26 S2 N6 O4'
_cell_volume   648.54896807
_cell_formula_units_Z   1
loop_
 _symmetry_equiv_pos_site_id
 _symmetry_equiv_pos_as_xyz
  1  'x, y, z'
loop_
 _atom_site_type_symbol
 _atom_site_label
 _atom_site_symmetry_multiplicity
 _atom_site_fract_x
 _atom_site_fract_y
 _atom_site_fract_z
 _atom_site_occupancy
  Cu  Cu0  1  0.00000000  0.00000000  0.00000000  1.0
  H  H1  1  0.06617000  0.98342000  0.28202000  1.0
  H  H2  1  0.93382000  0.01658000  0.71798000  1.0
  H  H3  1  0.99824000  0.77772000  0.42927000  1.0
  H  H4  1  0.00176000  0.22228000  0.57074000  1.0
  H  H5  1  0.85922000  0.50114000  0.33164000  1.0
  H  H6  1  0.14077000  0.49886000  0.66836000  1.0
  H  H7  1  0.80455000  0.44178000  0.09313000  1.0
  H  H8  1  0.19545000  0.55822000  0.90687000  1.0
  H  H9  1  0.87966000  0.66223000  0.95941000  1.0
  H  H10  1  0.12035000  0.33777000  0.04059000  1.0
  H  H11  1  0.51407000  0.87450000  0.08060000  1.0
  H  H12  1  0.48592000  0.12551000  0.91939000  1.0
  H  H13  1  0.34071000  0.60767000  0.12297000  1.0
  H  H14  1  0.65928000  0.39233000  0.87703000  1.0
  H  H15  1  0.51734000  0.74593000  0.52889000  1.0
  H  H16  1  0.48267000  0.25407000  0.47111000  1.0
  H  H17  1  0.69846000  0.01153000  0.48692000  1.0
  H  H18  1  0.30155000  0.98847000  0.51308000  1.0
  H  H19  1  0.25960000  0.49250000  0.44624000  1.0
  H  H20  1  0.74040000  0.50750000  0.55376000  1.0
  H  H21  1  0.42203000  0.43085000  0.35648000  1.0
  H  H22  1  0.57796000  0.56915000  0.64352000  1.0
  H  H23  1  0.18910000  0.43361000  0.27931000  1.0
  H  H24  1  0.81089000  0.56639000  0.72069000  1.0
  C  C25  1  0.00765000  0.86184000  0.24470000  1.0
  C  C26  1  0.99235000  0.13816000  0.75530000  1.0
  C  C27  1  0.96921000  0.74729000  0.32562000  1.0
  C  C28  1  0.03079000  0.25271000  0.67438000  1.0
  C  C29  1  0.89295000  0.59408000  0.27159000  1.0
  C  C30  1  0.10704000  0.40592000  0.72841000  1.0
  C  C31  1  0.86149000  0.56051000  0.13837000  1.0
  C  C32  1  0.13851000  0.43949000  0.86163000  1.0
  C  C33  1  0.90308000  0.68117000  0.06375000  1.0
  C  C34  1  0.09693000  0.31883000  0.93625000  1.0
  C  C35  1  0.61682000  0.95782000  0.28170000  1.0
  C  C36  1  0.38319000  0.04218000  0.71829000  1.0
  C  C37  1  0.51531000  0.84551000  0.17843000  1.0
  C  C38  1  0.48469000  0.15449000  0.82157000  1.0
  C  C39  1  0.41865000  0.69616000  0.20305000  1.0
  C  C40  1  0.58135000  0.30384000  0.79695000  1.0
  C  C41  1  0.41843000  0.65721000  0.32865000  1.0
  C  C42  1  0.58158000  0.34279000  0.67135000  1.0
  C  C43  1  0.51947000  0.77280000  0.43037000  1.0
  C  C44  1  0.48053000  0.22720000  0.56963000  1.0
  C  C45  1  0.61957000  0.92229000  0.40777000  1.0
  C  C46  1  0.38044000  0.07771000  0.59223000  1.0
  C  C47  1  0.31608000  0.49563000  0.35387000  1.0
  C  C48  1  0.68392000  0.50437000  0.64613000  1.0
  C  C49  1  0.59969000  0.82802000  0.82494000  1.0
  C  C50  1  0.40031000  0.17197000  0.17506000  1.0
  S  S51  1  0.26440000  0.85052000  0.74660000  1.0
  S  S52  1  0.73561000  0.14948000  0.25341000  1.0
  N  N53  1  0.97304000  0.82909000  0.11632000  1.0
  N  N54  1  0.02696000  0.17091000  0.88368000  1.0
  N  N55  1  0.75451000  0.87503000  0.89415000  1.0
  N  N56  1  0.24549000  0.12497000  0.10585000  1.0
  N  N57  1  0.43663000  0.76827000  0.74505000  1.0
  N  N58  1  0.56338000  0.23174000  0.25495000  1.0
  O  O59  1  0.20234000  0.85439000  0.87331000  1.0
  O  O60  1  0.79766000  0.14561000  0.12669000  1.0
  O  O61  1  0.88835000  0.22748000  0.36183000  1.0
  O  O62  1  0.11165000  0.77252000  0.63816000  1.0
