# generated using pymatgen
data_AgH8C15N5(ClO2)2
_symmetry_space_group_name_H-M   'P 1'
_cell_length_a   7.76391000
_cell_length_b   8.98410000
_cell_length_c   12.47490000
_cell_angle_alpha   101.82600000
_cell_angle_beta   100.73900000
_cell_angle_gamma   91.36820000
_symmetry_Int_Tables_number   1
_chemical_formula_structural   AgH8C15N5(ClO2)2
_chemical_formula_sum   'Ag2 H16 C30 N10 Cl4 O8'
_cell_volume   835.01601973
_cell_formula_units_Z   2
loop_
 _symmetry_equiv_pos_site_id
 _symmetry_equiv_pos_as_xyz
  1  'x, y, z'
loop_
 _atom_site_type_symbol
 _atom_site_label
 _atom_site_symmetry_multiplicity
 _atom_site_fract_x
 _atom_site_fract_y
 _atom_site_fract_z
 _atom_site_occupancy
  Ag  Ag0  1  0.56653000  0.81549000  0.98815000  1.0
  Ag  Ag1  1  0.43347000  0.18450000  0.01185000  1.0
  H  H2  1  0.50346000  0.86873000  0.40794000  1.0
  H  H3  1  0.49653000  0.13127000  0.59206000  1.0
  H  H4  1  0.18856000  0.36369000  0.35788000  1.0
  H  H5  1  0.81144000  0.63631000  0.64212000  1.0
  H  H6  1  0.27179000  0.44082000  0.19548000  1.0
  H  H7  1  0.72821000  0.55918000  0.80452000  1.0
  H  H8  1  0.97620000  0.22294000  0.96913000  1.0
  H  H9  1  0.02380000  0.77706000  0.03088000  1.0
  H  H10  1  0.85906000  0.93034000  0.63944000  1.0
  H  H11  1  0.14094000  0.06966000  0.36056000  1.0
  H  H12  1  0.01000000  0.12202000  0.56650000  1.0
  H  H13  1  0.99000000  0.87798000  0.43350000  1.0
  H  H14  1  0.29416000  0.60843000  0.64465000  1.0
  H  H15  1  0.70584000  0.39157000  0.35534000  1.0
  H  H16  1  0.21642000  0.48874000  0.74554000  1.0
  H  H17  1  0.78358000  0.51126000  0.25446000  1.0
  C  C18  1  0.44490000  0.70780000  0.19892000  1.0
  C  C19  1  0.55510000  0.29221000  0.80108000  1.0
  C  C20  1  0.39457000  0.65997000  0.29029000  1.0
  C  C21  1  0.60543000  0.34003000  0.70971000  1.0
  C  C22  1  0.43485000  0.75788000  0.39643000  1.0
  C  C23  1  0.56515000  0.24212000  0.60357000  1.0
  C  C24  1  0.38669000  0.71307000  0.48697000  1.0
  C  C25  1  0.61331000  0.28693000  0.51303000  1.0
  C  C26  1  0.29954000  0.56827000  0.47634000  1.0
  C  C27  1  0.70046000  0.43173000  0.52365000  1.0
  C  C28  1  0.25896000  0.47294000  0.36861000  1.0
  C  C29  1  0.74104000  0.52706000  0.63139000  1.0
  C  C30  1  0.30487000  0.51739000  0.27724000  1.0
  C  C31  1  0.69514000  0.48261000  0.72276000  1.0
  C  C32  1  0.18226000  0.39104000  0.57807000  1.0
  C  C33  1  0.81774000  0.60896000  0.42193000  1.0
  C  C34  1  0.08080000  0.28074000  0.72424000  1.0
  C  C35  1  0.91921000  0.71926000  0.27576000  1.0
  C  C36  1  0.07033000  0.30554000  0.83907000  1.0
  C  C37  1  0.92967000  0.69447000  0.16093000  1.0
  C  C38  1  0.98266000  0.20112000  0.88092000  1.0
  C  C39  1  0.01734000  0.79888000  0.11908000  1.0
  C  C40  1  0.90367000  0.06566000  0.80859000  1.0
  C  C41  1  0.09633000  0.93434000  0.19141000  1.0
  C  C42  1  0.81419000  0.96023000  0.85214000  1.0
  C  C43  1  0.18582000  0.03977000  0.14786000  1.0
  C  C44  1  0.91536000  0.03685000  0.69519000  1.0
  C  C45  1  0.08464000  0.96315000  0.30481000  1.0
  C  C46  1  0.00197000  0.14287000  0.65420000  1.0
  C  C47  1  0.99803000  0.85713000  0.34580000  1.0
  N  N48  1  0.48879000  0.74982000  0.12504000  1.0
  N  N49  1  0.51121000  0.25018000  0.87496000  1.0
  N  N50  1  0.26015000  0.52861000  0.57064000  1.0
  N  N51  1  0.73985000  0.47139000  0.42936000  1.0
  N  N52  1  0.16623000  0.39137000  0.68725000  1.0
  N  N53  1  0.83377000  0.60863000  0.31275000  1.0
  N  N54  1  0.73743000  0.87758000  0.89022000  1.0
  N  N55  1  0.26257000  0.12241000  0.10979000  1.0
  N  N56  1  0.21793000  0.76655000  0.82396000  1.0
  N  N57  1  0.78208000  0.23345000  0.17604000  1.0
  Cl  Cl58  1  0.43607000  0.83821000  0.61544000  1.0
  Cl  Cl59  1  0.56393000  0.16179000  0.38456000  1.0
  Cl  Cl60  1  0.17252000  0.46819000  0.93102000  1.0
  Cl  Cl61  1  0.82748000  0.53181000  0.06898000  1.0
  O  O62  1  0.13513000  0.28234000  0.49861000  1.0
  O  O63  1  0.86487000  0.71766000  0.50140000  1.0
  O  O64  1  0.24333000  0.87215000  0.91084000  1.0
  O  O65  1  0.75667000  0.12785000  0.08916000  1.0
  O  O66  1  0.34602000  0.68144000  0.80463000  1.0
  O  O67  1  0.65398000  0.31856000  0.19538000  1.0
  O  O68  1  0.07361000  0.74108000  0.75769000  1.0
  O  O69  1  0.92640000  0.25892000  0.24231000  1.0
