# generated using pymatgen
data_Cs2H3C7NO5
_symmetry_space_group_name_H-M   'P 1'
_cell_length_a   4.08816000
_cell_length_b   15.22440000
_cell_length_c   16.91370000
_cell_angle_alpha   90.00020000
_cell_angle_beta   90.00120000
_cell_angle_gamma   91.25650000
_symmetry_Int_Tables_number   1
_chemical_formula_structural   Cs2H3C7NO5
_chemical_formula_sum   'Cs8 H12 C28 N4 O20'
_cell_volume   1052.45189193
_cell_formula_units_Z   4
loop_
 _symmetry_equiv_pos_site_id
 _symmetry_equiv_pos_as_xyz
  1  'x, y, z'
loop_
 _atom_site_type_symbol
 _atom_site_label
 _atom_site_symmetry_multiplicity
 _atom_site_fract_x
 _atom_site_fract_y
 _atom_site_fract_z
 _atom_site_occupancy
  Cs  Cs0  1  0.63365000  0.40463000  0.69279000  1.0
  Cs  Cs1  1  0.13363000  0.90463000  0.80721000  1.0
  Cs  Cs2  1  0.36634000  0.59538000  0.30721000  1.0
  Cs  Cs3  1  0.86636000  0.09537000  0.19279000  1.0
  Cs  Cs4  1  0.57308000  0.56779000  0.88653000  1.0
  Cs  Cs5  1  0.07308000  0.06779000  0.61347000  1.0
  Cs  Cs6  1  0.42693000  0.43221000  0.11347000  1.0
  Cs  Cs7  1  0.92692000  0.93221000  0.38653000  1.0
  H  H8  1  0.76126000  0.77365000  0.69078000  1.0
  H  H9  1  0.26124000  0.27365000  0.80922000  1.0
  H  H10  1  0.23876000  0.22635000  0.30922000  1.0
  H  H11  1  0.73876000  0.72635000  0.19078000  1.0
  H  H12  1  0.09355000  0.55195000  0.57245000  1.0
  H  H13  1  0.59351000  0.05195000  0.92755000  1.0
  H  H14  1  0.90646000  0.44806000  0.42754000  1.0
  H  H15  1  0.40648000  0.94805000  0.07245000  1.0
  H  H16  1  0.56792000  0.75696000  0.44925000  1.0
  H  H17  1  0.06790000  0.25696000  0.05075000  1.0
  H  H18  1  0.43207000  0.24304000  0.55075000  1.0
  H  H19  1  0.93210000  0.74304000  0.94925000  1.0
  C  C20  1  0.93910000  0.66220000  0.64033000  1.0
  C  C21  1  0.43908000  0.16220000  0.85968000  1.0
  C  C22  1  0.06089000  0.33780000  0.35967000  1.0
  C  C23  1  0.56092000  0.83780000  0.14032000  1.0
  C  C24  1  0.06487000  0.63584000  0.72152000  1.0
  C  C25  1  0.56486000  0.13583000  0.77849000  1.0
  C  C26  1  0.93513000  0.36416000  0.27848000  1.0
  C  C27  1  0.43514000  0.86416000  0.22151000  1.0
  C  C28  1  0.97136000  0.61491000  0.57176000  1.0
  C  C29  1  0.47134000  0.11491000  0.92825000  1.0
  C  C30  1  0.02864000  0.38508000  0.42824000  1.0
  C  C31  1  0.52867000  0.88509000  0.07175000  1.0
  C  C32  1  0.84445000  0.64751000  0.49783000  1.0
  C  C33  1  0.34442000  0.14751000  0.00217000  1.0
  C  C34  1  0.15554000  0.35249000  0.50217000  1.0
  C  C35  1  0.65558000  0.85249000  0.99783000  1.0
  C  C36  1  0.67781000  0.72993000  0.50236000  1.0
  C  C37  1  0.17779000  0.22992000  0.99764000  1.0
  C  C38  1  0.32218000  0.27007000  0.49764000  1.0
  C  C39  1  0.82222000  0.77008000  0.00236000  1.0
  C  C40  1  0.65386000  0.77477000  0.57234000  1.0
  C  C41  1  0.15383000  0.27476000  0.92766000  1.0
  C  C42  1  0.34615000  0.22524000  0.42766000  1.0
  C  C43  1  0.84617000  0.72524000  0.07234000  1.0
  C  C44  1  0.49628000  0.86350000  0.58262000  1.0
  C  C45  1  0.99626000  0.36350000  0.91738000  1.0
  C  C46  1  0.50373000  0.13650000  0.41738000  1.0
  C  C47  1  0.00375000  0.63650000  0.08261000  1.0
  N  N48  1  0.78387000  0.74020000  0.63882000  1.0
  N  N49  1  0.28384000  0.24020000  0.86119000  1.0
  N  N50  1  0.21615000  0.25980000  0.36118000  1.0
  N  N51  1  0.71617000  0.75980000  0.13881000  1.0
  O  O52  1  0.03278000  0.69238000  0.77634000  1.0
  O  O53  1  0.53274000  0.19237000  0.72366000  1.0
  O  O54  1  0.96721000  0.30763000  0.22366000  1.0
  O  O55  1  0.46725000  0.80761000  0.27634000  1.0
  O  O56  1  0.18386000  0.56011000  0.72803000  1.0
  O  O57  1  0.68386000  0.06011000  0.77198000  1.0
  O  O58  1  0.81614000  0.43990000  0.27197000  1.0
  O  O59  1  0.31614000  0.93988000  0.22803000  1.0
  O  O60  1  0.87831000  0.60680000  0.43265000  1.0
  O  O61  1  0.37830000  0.10680000  0.06735000  1.0
  O  O62  1  0.12167000  0.39320000  0.56735000  1.0
  O  O63  1  0.62169000  0.89320000  0.93265000  1.0
  O  O64  1  0.51246000  0.89624000  0.65179000  1.0
  O  O65  1  0.01244000  0.39623000  0.84821000  1.0
  O  O66  1  0.48755000  0.10376000  0.34820000  1.0
  O  O67  1  0.98756000  0.60377000  0.15179000  1.0
  O  O68  1  0.36916000  0.89755000  0.52211000  1.0
  O  O69  1  0.86915000  0.39755000  0.97789000  1.0
  O  O70  1  0.63084000  0.10245000  0.47789000  1.0
  O  O71  1  0.13084000  0.60245000  0.02210000  1.0
