# generated using pymatgen
data_SmH7C8NO8
_symmetry_space_group_name_H-M   'P 1'
_cell_length_a   7.54398000
_cell_length_b   9.91411000
_cell_length_c   14.87320000
_cell_angle_alpha   89.99980000
_cell_angle_beta   82.09520000
_cell_angle_gamma   89.99980000
_symmetry_Int_Tables_number   1
_chemical_formula_structural   SmH7C8NO8
_chemical_formula_sum   'Sm4 H28 C32 N4 O32'
_cell_volume   1101.82407736
_cell_formula_units_Z   4
loop_
 _symmetry_equiv_pos_site_id
 _symmetry_equiv_pos_as_xyz
  1  'x, y, z'
loop_
 _atom_site_type_symbol
 _atom_site_label
 _atom_site_symmetry_multiplicity
 _atom_site_fract_x
 _atom_site_fract_y
 _atom_site_fract_z
 _atom_site_occupancy
  Sm  Sm0  1  0.14367000  0.95716000  0.14290000  1.0
  Sm  Sm1  1  0.35633000  0.45716000  0.35710000  1.0
  Sm  Sm2  1  0.85633000  0.04284000  0.85710000  1.0
  Sm  Sm3  1  0.64367000  0.54284000  0.64290000  1.0
  H  H4  1  0.39278000  0.71610000  0.97923000  1.0
  H  H5  1  0.10722000  0.21610000  0.52077000  1.0
  H  H6  1  0.60723000  0.28390000  0.02077000  1.0
  H  H7  1  0.89279000  0.78389000  0.47923000  1.0
  H  H8  1  0.16915000  0.38407000  0.14382000  1.0
  H  H9  1  0.33084000  0.88407000  0.35618000  1.0
  H  H10  1  0.83084000  0.61593000  0.85618000  1.0
  H  H11  1  0.66915000  0.11592000  0.64382000  1.0
  H  H12  1  0.21064000  0.38183000  0.85168000  1.0
  H  H13  1  0.28938000  0.88183000  0.64832000  1.0
  H  H14  1  0.78938000  0.61817000  0.14832000  1.0
  H  H15  1  0.71064000  0.11817000  0.35168000  1.0
  H  H16  1  0.03262000  0.72797000  0.29350000  1.0
  H  H17  1  0.46738000  0.22797000  0.20649000  1.0
  H  H18  1  0.96738000  0.27203000  0.70649000  1.0
  H  H19  1  0.53262000  0.77203000  0.79350000  1.0
  H  H20  1  0.92042000  0.86342000  0.32078000  1.0
  H  H21  1  0.57959000  0.36342000  0.17922000  1.0
  H  H22  1  0.07959000  0.13658000  0.67922000  1.0
  H  H23  1  0.42042000  0.63658000  0.82078000  1.0
  H  H24  1  0.75169000  0.94939000  0.20721000  1.0
  H  H25  1  0.74831000  0.44940000  0.29279000  1.0
  H  H26  1  0.24831000  0.05061000  0.79279000  1.0
  H  H27  1  0.25169000  0.55061000  0.70721000  1.0
  H  H28  1  0.78461000  0.05790000  0.13084000  1.0
  H  H29  1  0.71539000  0.55790000  0.36916000  1.0
  H  H30  1  0.21539000  0.94210000  0.86916000  1.0
  H  H31  1  0.28461000  0.44210000  0.63084000  1.0
  C  C32  1  0.33089000  0.61699000  0.98626000  1.0
  C  C33  1  0.16912000  0.11699000  0.51374000  1.0
  C  C34  1  0.66912000  0.38301000  0.01374000  1.0
  C  C35  1  0.83089000  0.88301000  0.48626000  1.0
  C  C36  1  0.28089000  0.56213000  0.07248000  1.0
  C  C37  1  0.21911000  0.06214000  0.42752000  1.0
  C  C38  1  0.71911000  0.43786000  0.92752000  1.0
  C  C39  1  0.78089000  0.93786000  0.57248000  1.0
  C  C40  1  0.20600000  0.43314000  0.07833000  1.0
  C  C41  1  0.29400000  0.93314000  0.42167000  1.0
  C  C42  1  0.79400000  0.56686000  0.92167000  1.0
  C  C43  1  0.70600000  0.06686000  0.57833000  1.0
  C  C44  1  0.17678000  0.36753000  0.99859000  1.0
  C  C45  1  0.32322000  0.86753000  0.50140000  1.0
  C  C46  1  0.82322000  0.63247000  0.00140000  1.0
  C  C47  1  0.67679000  0.13247000  0.49859000  1.0
  C  C48  1  0.22993000  0.43130000  0.91521000  1.0
  C  C49  1  0.27007000  0.93130000  0.58479000  1.0
  C  C50  1  0.77007000  0.56870000  0.08479000  1.0
  C  C51  1  0.72993000  0.06870000  0.41521000  1.0
  C  C52  1  0.30965000  0.64173000  0.15511000  1.0
  C  C53  1  0.19033000  0.14174000  0.34489000  1.0
  C  C54  1  0.69034000  0.35826000  0.84490000  1.0
  C  C55  1  0.80966000  0.85826000  0.65511000  1.0
  C  C56  1  0.09160000  0.23048000  0.00129000  1.0
  C  C57  1  0.40840000  0.73048000  0.49870000  1.0
  C  C58  1  0.90841000  0.76951000  0.99870000  1.0
  C  C59  1  0.59160000  0.26951000  0.50129000  1.0
  C  C60  1  0.54477000  0.03199000  0.03882000  1.0
  C  C61  1  0.95522000  0.53199000  0.46119000  1.0
  C  C62  1  0.45522000  0.96801000  0.96120000  1.0
  C  C63  1  0.04477000  0.46801000  0.53882000  1.0
  N  N64  1  0.30856000  0.55310000  0.90917000  1.0
  N  N65  1  0.19145000  0.05310000  0.59083000  1.0
  N  N66  1  0.69145000  0.44690000  0.09083000  1.0
  N  N67  1  0.80856000  0.94690000  0.40917000  1.0
  O  O68  1  0.33488000  0.76822000  0.14589000  1.0
  O  O69  1  0.16511000  0.26823000  0.35412000  1.0
  O  O70  1  0.66511000  0.23177000  0.85412000  1.0
  O  O71  1  0.83489000  0.73178000  0.64589000  1.0
  O  O72  1  0.30546000  0.57911000  0.22940000  1.0
  O  O73  1  0.19451000  0.07912000  0.27060000  1.0
  O  O74  1  0.69451000  0.42088000  0.77060000  1.0
  O  O75  1  0.80546000  0.92089000  0.72940000  1.0
  O  O76  1  0.03246000  0.19211000  0.92977000  1.0
  O  O77  1  0.46755000  0.69211000  0.57023000  1.0
  O  O78  1  0.96756000  0.80789000  0.07022000  1.0
  O  O79  1  0.53245000  0.30790000  0.42977000  1.0
  O  O80  1  0.08519000  0.16346000  0.07419000  1.0
  O  O81  1  0.41482000  0.66346000  0.42581000  1.0
  O  O82  1  0.91482000  0.83654000  0.92581000  1.0
  O  O83  1  0.58519000  0.33654000  0.57419000  1.0
  O  O84  1  0.44762000  0.05349000  0.11377000  1.0
  O  O85  1  0.05236000  0.55348000  0.38625000  1.0
  O  O86  1  0.55237000  0.94652000  0.88625000  1.0
  O  O87  1  0.94762000  0.44651000  0.61377000  1.0
  O  O88  1  0.71024000  0.05916000  0.02116000  1.0
  O  O89  1  0.78975000  0.55915000  0.47885000  1.0
  O  O90  1  0.28975000  0.94085000  0.97885000  1.0
  O  O91  1  0.21024000  0.44085000  0.52116000  1.0
  O  O92  1  0.99649000  0.81396000  0.26931000  1.0
  O  O93  1  0.50352000  0.31396000  0.23069000  1.0
  O  O94  1  0.00352000  0.18604000  0.73069000  1.0
  O  O95  1  0.49649000  0.68605000  0.76931000  1.0
  O  O96  1  0.82566000  0.02776000  0.18850000  1.0
  O  O97  1  0.67434000  0.52776000  0.31150000  1.0
  O  O98  1  0.17434000  0.97224000  0.81150000  1.0
  O  O99  1  0.32566000  0.47225000  0.68850000  1.0
