# generated using pymatgen
data_Co3H8C14(NO)6
_symmetry_space_group_name_H-M   'P 1'
_cell_length_a   10.78800000
_cell_length_b   10.94710000
_cell_length_c   10.94810000
_cell_angle_alpha   75.33650000
_cell_angle_beta   87.17330000
_cell_angle_gamma   87.14810000
_symmetry_Int_Tables_number   1
_chemical_formula_structural   Co3H8C14(NO)6
_chemical_formula_sum   'Co6 H16 C28 N12 O12'
_cell_volume   1248.37744084
_cell_formula_units_Z   2
loop_
 _symmetry_equiv_pos_site_id
 _symmetry_equiv_pos_as_xyz
  1  'x, y, z'
loop_
 _atom_site_type_symbol
 _atom_site_label
 _atom_site_symmetry_multiplicity
 _atom_site_fract_x
 _atom_site_fract_y
 _atom_site_fract_z
 _atom_site_occupancy
  Co  Co0  1  0.74992000  0.08556000  0.91441000  1.0
  Co  Co1  1  0.25008000  0.91444000  0.08560000  1.0
  Co  Co2  1  0.00451000  0.84677000  0.98380000  1.0
  Co  Co3  1  0.49539000  0.01611000  0.15348000  1.0
  Co  Co4  1  0.99549000  0.15323000  0.01620000  1.0
  Co  Co5  1  0.50461000  0.98389000  0.84652000  1.0
  H  H6  1  0.94265000  0.55960000  0.94213000  1.0
  H  H7  1  0.55771000  0.05683000  0.44053000  1.0
  H  H8  1  0.05735000  0.44038000  0.05788000  1.0
  H  H9  1  0.44229000  0.94316000  0.55947000  1.0
  H  H10  1  0.48828000  0.65727000  0.85111000  1.0
  H  H11  1  0.01138000  0.15046000  0.34217000  1.0
  H  H12  1  0.51172000  0.34274000  0.14888000  1.0
  H  H13  1  0.98862000  0.84955000  0.65783000  1.0
  H  H14  1  0.58617000  0.44258000  0.86024000  1.0
  H  H15  1  0.91351000  0.14160000  0.55677000  1.0
  H  H16  1  0.41383000  0.55743000  0.13975000  1.0
  H  H17  1  0.08649000  0.85841000  0.44323000  1.0
  H  H18  1  0.95914000  0.09019000  0.80982000  1.0
  H  H19  1  0.54094000  0.19030000  0.90970000  1.0
  H  H20  1  0.04085000  0.90981000  0.19018000  1.0
  H  H21  1  0.45908000  0.80970000  0.09030000  1.0
  C  C22  1  0.81827000  0.35738000  0.91001000  1.0
  C  C23  1  0.68180000  0.09014000  0.64245000  1.0
  C  C24  1  0.18172000  0.64262000  0.08999000  1.0
  C  C25  1  0.31821000  0.90985000  0.35755000  1.0
  C  C26  1  0.76865000  0.48954000  0.90126000  1.0
  C  C27  1  0.73140000  0.09904000  0.51023000  1.0
  C  C28  1  0.23134000  0.51046000  0.09874000  1.0
  C  C29  1  0.26860000  0.90096000  0.48977000  1.0
  C  C30  1  0.84506000  0.58038000  0.92266000  1.0
  C  C31  1  0.65516000  0.07687000  0.41961000  1.0
  C  C32  1  0.15494000  0.41961000  0.07735000  1.0
  C  C33  1  0.34484000  0.92314000  0.58039000  1.0
  C  C34  1  0.79035000  0.69989000  0.91922000  1.0
  C  C35  1  0.70981000  0.08033000  0.30012000  1.0
  C  C36  1  0.20965000  0.30010000  0.08078000  1.0
  C  C37  1  0.29019000  0.91968000  0.69988000  1.0
  C  C38  1  0.66321000  0.72742000  0.89215000  1.0
  C  C39  1  0.83681000  0.10793000  0.27248000  1.0
  C  C40  1  0.33679000  0.27258000  0.10785000  1.0
  C  C41  1  0.16320000  0.89207000  0.72752000  1.0
  C  C42  1  0.58628000  0.63602000  0.87005000  1.0
  C  C43  1  0.91353000  0.13099000  0.36356000  1.0
  C  C44  1  0.41372000  0.36399000  0.12995000  1.0
  C  C45  1  0.08647000  0.86902000  0.63644000  1.0
  C  C46  1  0.64086000  0.51800000  0.87534000  1.0
  C  C47  1  0.85899000  0.12575000  0.48155000  1.0
  C  C48  1  0.35913000  0.48200000  0.12465000  1.0
  C  C49  1  0.14101000  0.87425000  0.51845000  1.0
  N  N50  1  0.63920000  0.85017000  0.89508000  1.0
  N  N51  1  0.86088000  0.10470000  0.14984000  1.0
  N  N52  1  0.36080000  0.14983000  0.10492000  1.0
  N  N53  1  0.13912000  0.89530000  0.85016000  1.0
  N  N54  1  0.74368000  0.89476000  0.92336000  1.0
  N  N55  1  0.75650000  0.07601000  0.10534000  1.0
  N  N56  1  0.25633000  0.10524000  0.07664000  1.0
  N  N57  1  0.24350000  0.92399000  0.89465000  1.0
  N  N58  1  0.83713000  0.80815000  0.93843000  1.0
  N  N59  1  0.66309000  0.06082000  0.19196000  1.0
  N  N60  1  0.16287000  0.19185000  0.06157000  1.0
  N  N61  1  0.33692000  0.93918000  0.80804000  1.0
  O  O62  1  0.74416000  0.28064000  0.88594000  1.0
  O  O63  1  0.75586000  0.11404000  0.71932000  1.0
  O  O64  1  0.25583000  0.71935000  0.11405000  1.0
  O  O65  1  0.24414000  0.88595000  0.28068000  1.0
  O  O66  1  0.93106000  0.33001000  0.94309000  1.0
  O  O67  1  0.56901000  0.05699000  0.66970000  1.0
  O  O68  1  0.06894000  0.66998000  0.05691000  1.0
  O  O69  1  0.43099000  0.94301000  0.33030000  1.0
  O  O70  1  0.93967000  0.06021000  0.89996000  1.0
  O  O71  1  0.56019000  0.10010000  0.93982000  1.0
  O  O72  1  0.06034000  0.93978000  0.10003000  1.0
  O  O73  1  0.43981000  0.89990000  0.06018000  1.0
