# generated using pymatgen
data_V2NiH8C4(N4O3)2
_symmetry_space_group_name_H-M   'P 1'
_cell_length_a   10.21760000
_cell_length_b   10.21770000
_cell_length_c   10.21780000
_cell_angle_alpha   99.72320000
_cell_angle_beta   99.72370000
_cell_angle_gamma   99.72290000
_symmetry_Int_Tables_number   1
_chemical_formula_structural   V2NiH8C4(N4O3)2
_chemical_formula_sum   'V6 Ni3 H24 C12 N24 O18'
_cell_volume   1014.69222774
_cell_formula_units_Z   3
loop_
 _symmetry_equiv_pos_site_id
 _symmetry_equiv_pos_as_xyz
  1  'x, y, z'
loop_
 _atom_site_type_symbol
 _atom_site_label
 _atom_site_symmetry_multiplicity
 _atom_site_fract_x
 _atom_site_fract_y
 _atom_site_fract_z
 _atom_site_occupancy
  V  V0  1  0.40738000  0.61321000  0.26545000  1.0
  V  V1  1  0.61321000  0.26546000  0.40738000  1.0
  V  V2  1  0.26545000  0.40738000  0.61320000  1.0
  V  V3  1  0.59264000  0.38681000  0.73451000  1.0
  V  V4  1  0.38681000  0.73451000  0.59262000  1.0
  V  V5  1  0.73451000  0.59264000  0.38681000  1.0
  Ni  Ni6  1  0.25706000  0.25707000  0.25707000  1.0
  Ni  Ni7  1  0.74265000  0.74265000  0.74266000  1.0
  Ni  Ni8  1  0.00023000  0.00023000  0.00023000  1.0
  H  H9  1  0.80166000  0.21781000  0.93550000  1.0
  H  H10  1  0.21781000  0.93550000  0.80166000  1.0
  H  H11  1  0.93550000  0.80166000  0.21781000  1.0
  H  H12  1  0.19817000  0.78239000  0.06461000  1.0
  H  H13  1  0.78239000  0.06461000  0.19817000  1.0
  H  H14  1  0.06462000  0.19816000  0.78239000  1.0
  H  H15  1  0.84088000  0.44907000  0.09415000  1.0
  H  H16  1  0.44907000  0.09416000  0.84088000  1.0
  H  H17  1  0.09416000  0.84088000  0.44907000  1.0
  H  H18  1  0.15911000  0.55104000  0.90600000  1.0
  H  H19  1  0.55105000  0.90600000  0.15911000  1.0
  H  H20  1  0.90600000  0.15910000  0.55105000  1.0
  H  H21  1  0.15051000  0.50016000  0.36494000  1.0
  H  H22  1  0.50016000  0.36494000  0.15051000  1.0
  H  H23  1  0.36494000  0.15052000  0.50016000  1.0
  H  H24  1  0.84957000  0.50003000  0.63500000  1.0
  H  H25  1  0.50002000  0.63501000  0.84957000  1.0
  H  H26  1  0.63500000  0.84957000  0.50003000  1.0
  H  H27  1  0.00906000  0.57274000  0.31721000  1.0
  H  H28  1  0.57274000  0.31721000  0.00907000  1.0
  H  H29  1  0.31721000  0.00907000  0.57274000  1.0
  H  H30  1  0.99093000  0.42728000  0.68271000  1.0
  H  H31  1  0.42728000  0.68271000  0.99092000  1.0
  H  H32  1  0.68272000  0.99093000  0.42729000  1.0
  C  C33  1  0.02216000  0.40009000  0.19509000  1.0
  C  C34  1  0.40009000  0.19510000  0.02217000  1.0
  C  C35  1  0.19510000  0.02217000  0.40009000  1.0
  C  C36  1  0.97782000  0.59989000  0.80482000  1.0
  C  C37  1  0.59989000  0.80482000  0.97782000  1.0
  C  C38  1  0.80482000  0.97782000  0.59989000  1.0
  C  C39  1  0.88736000  0.25855000  0.01906000  1.0
  C  C40  1  0.25856000  0.01905000  0.88737000  1.0
  C  C41  1  0.01906000  0.88737000  0.25855000  1.0
  C  C42  1  0.11254000  0.74147000  0.98098000  1.0
  C  C43  1  0.74148000  0.98098000  0.11254000  1.0
  C  C44  1  0.98098000  0.11253000  0.74148000  1.0
  N  N45  1  0.07349000  0.28840000  0.17080000  1.0
  N  N46  1  0.28841000  0.17080000  0.07349000  1.0
  N  N47  1  0.17080000  0.07349000  0.28841000  1.0
  N  N48  1  0.92636000  0.71145000  0.82896000  1.0
  N  N49  1  0.71145000  0.82896000  0.92636000  1.0
  N  N50  1  0.82896000  0.92636000  0.71145000  1.0
  N  N51  1  0.98773000  0.20072000  0.06057000  1.0
  N  N52  1  0.20072000  0.06057000  0.98774000  1.0
  N  N53  1  0.06057000  0.98773000  0.20072000  1.0
  N  N54  1  0.01228000  0.79946000  0.93957000  1.0
  N  N55  1  0.79947000  0.93957000  0.01228000  1.0
  N  N56  1  0.93957000  0.01227000  0.79947000  1.0
  N  N57  1  0.90524000  0.38362000  0.09998000  1.0
  N  N58  1  0.38363000  0.09998000  0.90525000  1.0
  N  N59  1  0.09998000  0.90525000  0.38363000  1.0
  N  N60  1  0.09473000  0.61645000  0.90009000  1.0
  N  N61  1  0.61645000  0.90009000  0.09473000  1.0
  N  N62  1  0.90009000  0.09472000  0.61645000  1.0
  N  N63  1  0.07599000  0.51216000  0.29071000  1.0
  N  N64  1  0.51216000  0.29071000  0.07600000  1.0
  N  N65  1  0.29071000  0.07600000  0.51216000  1.0
  N  N66  1  0.92401000  0.48780000  0.70919000  1.0
  N  N67  1  0.48780000  0.70919000  0.92401000  1.0
  N  N68  1  0.70919000  0.92401000  0.48780000  1.0
  O  O69  1  0.34918000  0.44620000  0.23567000  1.0
  O  O70  1  0.44619000  0.23567000  0.34918000  1.0
  O  O71  1  0.23567000  0.34918000  0.44619000  1.0
  O  O72  1  0.65084000  0.55382000  0.76439000  1.0
  O  O73  1  0.55381000  0.76438000  0.65082000  1.0
  O  O74  1  0.76439000  0.65084000  0.55381000  1.0
  O  O75  1  0.35673000  0.70164000  0.41102000  1.0
  O  O76  1  0.70164000  0.41104000  0.35674000  1.0
  O  O77  1  0.41104000  0.35674000  0.70164000  1.0
  O  O78  1  0.64328000  0.29835000  0.58900000  1.0
  O  O79  1  0.29834000  0.58901000  0.64328000  1.0
  O  O80  1  0.58900000  0.64328000  0.29834000  1.0
  O  O81  1  0.35570000  0.67600000  0.13033000  1.0
  O  O82  1  0.67601000  0.13033000  0.35569000  1.0
  O  O83  1  0.13032000  0.35569000  0.67600000  1.0
  O  O84  1  0.64423000  0.32390000  0.86960000  1.0
  O  O85  1  0.32389000  0.86959000  0.64421000  1.0
  O  O86  1  0.86959000  0.64423000  0.32390000  1.0
