# generated using pymatgen
data_CuH16C18SN4O7
_symmetry_space_group_name_H-M   'P 1'
_cell_length_a   10.45890000
_cell_length_b   10.90760000
_cell_length_c   11.72220000
_cell_angle_alpha   64.91130000
_cell_angle_beta   77.79100000
_cell_angle_gamma   68.25130000
_symmetry_Int_Tables_number   1
_chemical_formula_structural   CuH16C18SN4O7
_chemical_formula_sum   'Cu2 H32 C36 S2 N8 O14'
_cell_volume   1122.55509724
_cell_formula_units_Z   2
loop_
 _symmetry_equiv_pos_site_id
 _symmetry_equiv_pos_as_xyz
  1  'x, y, z'
loop_
 _atom_site_type_symbol
 _atom_site_label
 _atom_site_symmetry_multiplicity
 _atom_site_fract_x
 _atom_site_fract_y
 _atom_site_fract_z
 _atom_site_occupancy
  Cu  Cu0  1  0.37404000  0.32759000  0.12796000  1.0
  Cu  Cu1  1  0.62595000  0.67241000  0.87204000  1.0
  H  H2  1  0.36040000  0.67070000  0.30720000  1.0
  H  H3  1  0.63961000  0.32930000  0.69281000  1.0
  H  H4  1  0.11309000  0.58716000  0.21264000  1.0
  H  H5  1  0.88691000  0.41284000  0.78736000  1.0
  H  H6  1  0.57373000  0.26075000  0.25394000  1.0
  H  H7  1  0.42627000  0.73925000  0.74606000  1.0
  H  H8  1  0.46700000  0.41008000  0.25287000  1.0
  H  H9  1  0.53300000  0.58992000  0.74713000  1.0
  H  H10  1  0.42722000  0.09889000  0.04296000  1.0
  H  H11  1  0.57277000  0.90111000  0.95704000  1.0
  H  H12  1  0.40461000  0.85539000  0.13326000  1.0
  H  H13  1  0.59539000  0.14461000  0.86674000  1.0
  H  H14  1  0.32134000  0.88588000  0.49991000  1.0
  H  H15  1  0.67865000  0.11412000  0.50010000  1.0
  H  H16  1  0.34602000  0.12962000  0.39263000  1.0
  H  H17  1  0.65399000  0.87038000  0.60737000  1.0
  H  H18  1  0.37907000  0.37897000  0.68892000  1.0
  H  H19  1  0.62093000  0.62103000  0.31108000  1.0
  H  H20  1  0.31123000  0.16791000  0.72317000  1.0
  H  H21  1  0.68877000  0.83208000  0.27683000  1.0
  H  H22  1  0.17289000  0.18362000  0.56420000  1.0
  H  H23  1  0.82711000  0.81638000  0.43579000  1.0
  H  H24  1  0.17343000  0.61471000  0.34356000  1.0
  H  H25  1  0.82657000  0.38530000  0.65643000  1.0
  H  H26  1  0.04128000  0.71181000  0.00845000  1.0
  H  H27  1  0.95871000  0.28819000  0.99155000  1.0
  H  H28  1  0.86804000  0.77423000  0.85964000  1.0
  H  H29  1  0.13196000  0.22578000  0.14037000  1.0
  H  H30  1  0.67779000  0.48845000  0.12872000  1.0
  H  H31  1  0.32221000  0.51155000  0.87129000  1.0
  H  H32  1  0.85076000  0.40162000  0.28055000  1.0
  H  H33  1  0.14924000  0.59838000  0.71945000  1.0
  C  C34  1  0.40415000  0.04690000  0.14357000  1.0
  C  C35  1  0.59584000  0.95311000  0.85642000  1.0
  C  C36  1  0.39210000  0.91183000  0.19461000  1.0
  C  C37  1  0.60789000  0.08817000  0.80540000  1.0
  C  C38  1  0.35943000  0.85035000  0.32538000  1.0
  C  C39  1  0.64057000  0.14965000  0.67462000  1.0
  C  C40  1  0.34401000  0.92967000  0.39873000  1.0
  C  C41  1  0.65599000  0.07033000  0.60127000  1.0
  C  C42  1  0.35772000  0.06472000  0.33928000  1.0
  C  C43  1  0.64228000  0.93528000  0.66072000  1.0
  C  C44  1  0.32049000  0.63341000  0.49692000  1.0
  C  C45  1  0.67951000  0.36658000  0.50308000  1.0
  C  C46  1  0.28327000  0.50712000  0.51280000  1.0
  C  C47  1  0.71673000  0.49288000  0.48720000  1.0
  C  C48  1  0.32073000  0.38210000  0.62052000  1.0
  C  C49  1  0.67926000  0.61790000  0.37948000  1.0
  C  C50  1  0.28243000  0.26502000  0.63901000  1.0
  C  C51  1  0.71757000  0.73498000  0.36099000  1.0
  C  C52  1  0.20628000  0.27271000  0.55065000  1.0
  C  C53  1  0.79373000  0.72729000  0.44935000  1.0
  C  C54  1  0.16776000  0.39774000  0.44233000  1.0
  C  C55  1  0.83224000  0.60227000  0.55766000  1.0
  C  C56  1  0.20574000  0.51505000  0.42462000  1.0
  C  C57  1  0.79426000  0.48495000  0.57537000  1.0
  C  C58  1  0.08373000  0.39828000  0.35341000  1.0
  C  C59  1  0.91627000  0.60171000  0.64659000  1.0
  C  C60  1  0.96141000  0.55073000  0.15825000  1.0
  C  C61  1  0.03858000  0.44928000  0.84175000  1.0
  C  C62  1  0.96301000  0.65873000  0.03743000  1.0
  C  C63  1  0.03699000  0.34128000  0.96257000  1.0
  C  C64  1  0.86541000  0.69503000  0.95525000  1.0
  C  C65  1  0.13459000  0.30497000  0.04475000  1.0
  C  C66  1  0.76188000  0.53261000  0.10404000  1.0
  C  C67  1  0.23811000  0.46739000  0.89597000  1.0
  C  C68  1  0.85856000  0.48571000  0.18979000  1.0
  C  C69  1  0.14144000  0.51429000  0.81021000  1.0
  S  S70  1  0.34828000  0.64727000  0.08987000  1.0
  S  S71  1  0.65173000  0.35274000  0.91013000  1.0
  N  N72  1  0.38607000  0.12384000  0.21395000  1.0
  N  N73  1  0.61393000  0.87616000  0.78605000  1.0
  N  N74  1  0.76472000  0.63424000  0.98754000  1.0
  N  N75  1  0.23527000  0.36576000  0.01246000  1.0
  N  N76  1  0.34235000  0.71780000  0.37219000  1.0
  N  N77  1  0.65766000  0.28220000  0.62781000  1.0
  N  N78  1  0.05635000  0.51756000  0.24190000  1.0
  N  N79  1  0.94365000  0.48244000  0.75810000  1.0
  O  O80  1  0.34887000  0.53401000  0.04757000  1.0
  O  O81  1  0.65112000  0.46599000  0.95244000  1.0
  O  O82  1  0.43319000  0.57515000  0.20422000  1.0
  O  O83  1  0.56682000  0.42485000  0.79578000  1.0
  O  O84  1  0.20532000  0.72049000  0.12562000  1.0
  O  O85  1  0.79468000  0.27952000  0.87439000  1.0
  O  O86  1  0.41166000  0.74706000  0.98551000  1.0
  O  O87  1  0.58835000  0.25294000  0.01449000  1.0
  O  O88  1  0.47573000  0.30798000  0.26718000  1.0
  O  O89  1  0.52427000  0.69202000  0.73282000  1.0
  O  O90  1  0.32967000  0.65898000  0.58757000  1.0
  O  O91  1  0.67034000  0.34101000  0.41243000  1.0
  O  O92  1  0.04235000  0.29620000  0.37963000  1.0
  O  O93  1  0.95766000  0.70379000  0.62036000  1.0
