# generated using pymatgen
data_Cu4H15C9S3I(N4O)3
_symmetry_space_group_name_H-M   'P 1'
_cell_length_a   10.26520000
_cell_length_b   10.26540000
_cell_length_c   10.26530000
_cell_angle_alpha   84.57780000
_cell_angle_beta   84.57840000
_cell_angle_gamma   84.57690000
_symmetry_Int_Tables_number   1
_chemical_formula_structural   Cu4H15C9S3I(N4O)3
_chemical_formula_sum   'Cu8 H30 C18 S6 I2 N24 O6'
_cell_volume   1068.05791212
_cell_formula_units_Z   2
loop_
 _symmetry_equiv_pos_site_id
 _symmetry_equiv_pos_as_xyz
  1  'x, y, z'
loop_
 _atom_site_type_symbol
 _atom_site_label
 _atom_site_symmetry_multiplicity
 _atom_site_fract_x
 _atom_site_fract_y
 _atom_site_fract_z
 _atom_site_occupancy
  Cu  Cu0  1  0.91834000  0.91835000  0.91835000  1.0
  Cu  Cu1  1  0.08165000  0.08166000  0.08165000  1.0
  Cu  Cu2  1  0.65140000  0.89708000  0.97389000  1.0
  Cu  Cu3  1  0.89706000  0.97388000  0.65140000  1.0
  Cu  Cu4  1  0.97388000  0.65140000  0.89707000  1.0
  Cu  Cu5  1  0.34860000  0.10293000  0.02613000  1.0
  Cu  Cu6  1  0.10292000  0.02612000  0.34860000  1.0
  Cu  Cu7  1  0.02611000  0.34860000  0.10293000  1.0
  H  H8  1  0.34389000  0.57493000  0.61372000  1.0
  H  H9  1  0.57495000  0.61371000  0.34388000  1.0
  H  H10  1  0.61375000  0.34382000  0.57494000  1.0
  H  H11  1  0.65614000  0.42505000  0.38628000  1.0
  H  H12  1  0.42509000  0.38627000  0.65613000  1.0
  H  H13  1  0.38629000  0.65613000  0.42506000  1.0
  H  H14  1  0.42235000  0.84145000  0.79596000  1.0
  H  H15  1  0.84146000  0.79597000  0.42236000  1.0
  H  H16  1  0.79591000  0.42241000  0.84145000  1.0
  H  H17  1  0.57760000  0.15855000  0.20404000  1.0
  H  H18  1  0.15855000  0.20406000  0.57763000  1.0
  H  H19  1  0.20406000  0.57764000  0.15854000  1.0
  H  H20  1  0.48554000  0.78051000  0.64339000  1.0
  H  H21  1  0.78053000  0.64339000  0.48555000  1.0
  H  H22  1  0.64334000  0.48554000  0.78045000  1.0
  H  H23  1  0.51444000  0.21950000  0.35661000  1.0
  H  H24  1  0.21952000  0.35663000  0.51446000  1.0
  H  H25  1  0.35663000  0.51446000  0.21950000  1.0
  H  H26  1  0.47500000  0.61244000  0.84213000  1.0
  H  H27  1  0.61244000  0.84211000  0.47502000  1.0
  H  H28  1  0.84209000  0.47504000  0.61243000  1.0
  H  H29  1  0.52497000  0.38757000  0.15789000  1.0
  H  H30  1  0.38757000  0.15788000  0.52500000  1.0
  H  H31  1  0.15790000  0.52498000  0.38756000  1.0
  H  H32  1  0.30138000  0.63399000  0.84839000  1.0
  H  H33  1  0.63400000  0.84839000  0.30139000  1.0
  H  H34  1  0.84845000  0.30141000  0.63402000  1.0
  H  H35  1  0.69860000  0.36599000  0.15158000  1.0
  H  H36  1  0.36600000  0.15159000  0.69862000  1.0
  H  H37  1  0.15159000  0.69861000  0.36600000  1.0
  C  C38  1  0.16138000  0.85044000  0.71675000  1.0
  C  C39  1  0.85045000  0.71676000  0.16139000  1.0
  C  C40  1  0.71675000  0.16139000  0.85044000  1.0
  C  C41  1  0.83860000  0.14955000  0.28324000  1.0
  C  C42  1  0.14956000  0.28325000  0.83862000  1.0
  C  C43  1  0.28325000  0.83862000  0.14956000  1.0
  C  C44  1  0.40389000  0.77809000  0.72009000  1.0
  C  C45  1  0.77810000  0.72010000  0.40390000  1.0
  C  C46  1  0.72007000  0.40391000  0.77807000  1.0
  C  C47  1  0.59608000  0.22191000  0.27990000  1.0
  C  C48  1  0.22192000  0.27991000  0.59610000  1.0
  C  C49  1  0.27992000  0.59610000  0.22192000  1.0
  C  C50  1  0.39178000  0.63792000  0.78186000  1.0
  C  C51  1  0.63793000  0.78186000  0.39180000  1.0
  C  C52  1  0.78187000  0.39179000  0.63792000  1.0
  C  C53  1  0.60820000  0.36208000  0.21813000  1.0
  C  C54  1  0.36209000  0.21813000  0.60822000  1.0
  C  C55  1  0.21814000  0.60821000  0.36209000  1.0
  S  S56  1  0.11765000  0.81095000  0.87945000  1.0
  S  S57  1  0.81096000  0.87945000  0.11766000  1.0
  S  S58  1  0.87945000  0.11765000  0.81093000  1.0
  S  S59  1  0.88234000  0.18906000  0.12054000  1.0
  S  S60  1  0.18905000  0.12055000  0.88235000  1.0
  S  S61  1  0.12055000  0.88235000  0.18905000  1.0
  I  I62  1  0.76513000  0.76514000  0.76514000  1.0
  I  I63  1  0.23485000  0.23486000  0.23487000  1.0
  N  N64  1  0.08763000  0.91332000  0.62397000  1.0
  N  N65  1  0.91332000  0.62397000  0.08764000  1.0
  N  N66  1  0.62397000  0.08765000  0.91332000  1.0
  N  N67  1  0.91234000  0.08668000  0.37602000  1.0
  N  N68  1  0.08668000  0.37603000  0.91236000  1.0
  N  N69  1  0.37603000  0.91237000  0.08669000  1.0
  N  N70  1  0.17123000  0.93715000  0.51441000  1.0
  N  N71  1  0.93715000  0.51441000  0.17124000  1.0
  N  N72  1  0.51441000  0.17125000  0.93716000  1.0
  N  N73  1  0.82874000  0.06283000  0.48558000  1.0
  N  N74  1  0.06285000  0.48560000  0.82876000  1.0
  N  N75  1  0.48559000  0.82877000  0.06286000  1.0
  N  N76  1  0.29125000  0.89101000  0.53386000  1.0
  N  N77  1  0.89102000  0.53386000  0.29126000  1.0
  N  N78  1  0.53386000  0.29127000  0.89101000  1.0
  N  N79  1  0.70872000  0.10897000  0.46612000  1.0
  N  N80  1  0.10900000  0.46614000  0.70874000  1.0
  N  N81  1  0.46615000  0.70875000  0.10900000  1.0
  N  N82  1  0.28635000  0.83519000  0.65882000  1.0
  N  N83  1  0.83520000  0.65882000  0.28636000  1.0
  N  N84  1  0.65881000  0.28636000  0.83518000  1.0
  N  N85  1  0.71363000  0.16480000  0.34117000  1.0
  N  N86  1  0.16482000  0.34119000  0.71365000  1.0
  N  N87  1  0.34119000  0.71365000  0.16482000  1.0
  O  O88  1  0.39807000  0.54422000  0.68792000  1.0
  O  O89  1  0.54424000  0.68791000  0.39807000  1.0
  O  O90  1  0.68795000  0.39798000  0.54421000  1.0
  O  O91  1  0.60196000  0.45576000  0.31208000  1.0
  O  O92  1  0.45579000  0.31206000  0.60196000  1.0
  O  O93  1  0.31208000  0.60196000  0.45578000  1.0
