# generated using pymatgen
data_Zn3H18C24(N3O7)2
_symmetry_space_group_name_H-M   'P 1'
_cell_length_a   11.79290000
_cell_length_b   12.05900000
_cell_length_c   12.28510000
_cell_angle_alpha   108.73400000
_cell_angle_beta   105.24300000
_cell_angle_gamma   111.67500000
_symmetry_Int_Tables_number   1
_chemical_formula_structural   Zn3H18C24(N3O7)2
_chemical_formula_sum   'Zn6 H36 C48 N12 O28'
_cell_volume   1385.52212483
_cell_formula_units_Z   2
loop_
 _symmetry_equiv_pos_site_id
 _symmetry_equiv_pos_as_xyz
  1  'x, y, z'
loop_
 _atom_site_type_symbol
 _atom_site_label
 _atom_site_symmetry_multiplicity
 _atom_site_fract_x
 _atom_site_fract_y
 _atom_site_fract_z
 _atom_site_occupancy
  Zn  Zn0  1  0.62306000  0.28852000  0.33267000  1.0
  Zn  Zn1  1  0.37694000  0.71148000  0.66733000  1.0
  Zn  Zn2  1  0.25355000  0.01334000  0.25328000  1.0
  Zn  Zn3  1  0.74645000  0.98666000  0.74672000  1.0
  Zn  Zn4  1  0.89754000  0.71086000  0.16994000  1.0
  Zn  Zn5  1  0.10246000  0.28914000  0.83006000  1.0
  H  H6  1  0.49083000  0.14694000  0.44970000  1.0
  H  H7  1  0.50917000  0.85306000  0.55030000  1.0
  H  H8  1  0.38330000  0.07421000  0.49437000  1.0
  H  H9  1  0.61670000  0.92579000  0.50563000  1.0
  H  H10  1  0.01898000  0.92841000  0.07183000  1.0
  H  H11  1  0.98102000  0.07159000  0.92817000  1.0
  H  H12  1  0.12643000  0.96690000  0.01762000  1.0
  H  H13  1  0.87357000  0.03310000  0.98238000  1.0
  H  H14  1  0.55254000  0.52465000  0.37060000  1.0
  H  H15  1  0.44746000  0.47535000  0.62941000  1.0
  H  H16  1  0.14252000  0.23660000  0.24328000  1.0
  H  H17  1  0.85748000  0.76339000  0.75672000  1.0
  H  H18  1  0.38168000  0.61523000  0.41020000  1.0
  H  H19  1  0.61832000  0.38477000  0.58980000  1.0
  H  H20  1  0.20931000  0.49288000  0.34503000  1.0
  H  H21  1  0.79069000  0.50712000  0.65497000  1.0
  H  H22  1  0.40146000  0.82958000  0.28629000  1.0
  H  H23  1  0.59854000  0.17042000  0.71371000  1.0
  H  H24  1  0.00448000  0.50370000  0.14471000  1.0
  H  H25  1  0.99552000  0.49630000  0.85530000  1.0
  H  H26  1  0.36644000  0.58164000  0.19431000  1.0
  H  H27  1  0.63356000  0.41836000  0.80569000  1.0
  H  H28  1  0.20018000  0.44485000  0.12045000  1.0
  H  H29  1  0.79982000  0.55515000  0.87955000  1.0
  H  H30  1  0.30045000  0.75332000  0.01768000  1.0
  H  H31  1  0.69955000  0.24668000  0.98232000  1.0
  H  H32  1  0.55185000  0.59283000  0.92372000  1.0
  H  H33  1  0.44815000  0.40717000  0.07629000  1.0
  H  H34  1  0.71916000  0.02258000  0.13123000  1.0
  H  H35  1  0.28084000  0.97742000  0.86877000  1.0
  H  H36  1  0.10454000  0.62434000  0.43728000  1.0
  H  H37  1  0.89546000  0.37566000  0.56272000  1.0
  H  H38  1  0.22280000  0.04327000  0.64362000  1.0
  H  H39  1  0.77720000  0.95673000  0.35638000  1.0
  H  H40  1  0.81830000  0.73311000  0.52147000  1.0
  H  H41  1  0.18170000  0.26689000  0.47853000  1.0
  C  C42  1  0.46055000  0.43122000  0.33679000  1.0
  C  C43  1  0.53945000  0.56878000  0.66322000  1.0
  C  C44  1  0.25045000  0.28252000  0.27002000  1.0
  C  C45  1  0.74955000  0.71748000  0.72998000  1.0
  C  C46  1  0.29891000  0.52200000  0.32607000  1.0
  C  C47  1  0.70109000  0.47800000  0.67393000  1.0
  C  C48  1  0.29245000  0.76971000  0.25174000  1.0
  C  C49  1  0.70755000  0.23029000  0.74826000  1.0
  C  C50  1  0.08958000  0.60272000  0.17934000  1.0
  C  C51  1  0.91042000  0.39727000  0.82066000  1.0
  C  C52  1  0.27320000  0.54119000  0.20620000  1.0
  C  C53  1  0.72680000  0.45881000  0.79380000  1.0
  C  C54  1  0.50860000  0.89961000  0.08262000  1.0
  C  C55  1  0.49140000  0.10039000  0.91737000  1.0
  C  C56  1  0.39830000  0.76886000  0.02029000  1.0
  C  C57  1  0.60170000  0.23115000  0.97971000  1.0
  C  C58  1  0.41291000  0.65830000  0.96027000  1.0
  C  C59  1  0.58709000  0.34170000  0.03973000  1.0
  C  C60  1  0.53936000  0.67939000  0.96534000  1.0
  C  C61  1  0.46064000  0.32061000  0.03466000  1.0
  C  C62  1  0.64994000  0.81006000  0.02606000  1.0
  C  C63  1  0.35006000  0.18994000  0.97394000  1.0
  C  C64  1  0.63373000  0.92040000  0.08311000  1.0
  C  C65  1  0.36627000  0.07959000  0.91689000  1.0
  C  C66  1  0.49434000  0.01659000  0.15358000  1.0
  C  C67  1  0.50566000  0.98342000  0.84642000  1.0
  C  C68  1  0.29730000  0.51802000  0.89754000  1.0
  C  C69  1  0.70269000  0.48198000  0.10246000  1.0
  C  C70  1  0.78631000  0.83048000  0.03726000  1.0
  C  C71  1  0.21369000  0.16952000  0.96274000  1.0
  C  C72  1  0.94984000  0.66300000  0.46958000  1.0
  C  C73  1  0.05016000  0.33700000  0.53042000  1.0
  C  C74  1  0.08051000  0.70205000  0.47861000  1.0
  C  C75  1  0.91949000  0.29795000  0.52139000  1.0
  C  C76  1  0.17908000  0.83834000  0.54131000  1.0
  C  C77  1  0.82092000  0.16166000  0.45869000  1.0
  C  C78  1  0.14654000  0.93684000  0.59470000  1.0
  C  C79  1  0.85346000  0.06316000  0.40530000  1.0
  C  C80  1  0.01736000  0.89849000  0.58942000  1.0
  C  C81  1  0.98264000  0.10151000  0.41058000  1.0
  C  C82  1  0.91924000  0.76173000  0.52652000  1.0
  C  C83  1  0.08076000  0.23827000  0.47348000  1.0
  C  C84  1  0.84796000  0.51592000  0.40268000  1.0
  C  C85  1  0.15203000  0.48408000  0.59732000  1.0
  C  C86  1  0.32019000  0.88008000  0.55668000  1.0
  C  C87  1  0.67981000  0.11992000  0.44332000  1.0
  C  C88  1  0.98579000  0.00267000  0.65699000  1.0
  C  C89  1  0.01421000  0.99733000  0.34301000  1.0
  N  N90  1  0.45315000  0.31295000  0.31231000  1.0
  N  N91  1  0.54685000  0.68706000  0.68769000  1.0
  N  N92  1  0.32056000  0.21909000  0.26974000  1.0
  N  N93  1  0.67944000  0.78091000  0.73026000  1.0
  N  N94  1  0.33493000  0.41624000  0.31185000  1.0
  N  N95  1  0.66507000  0.58376000  0.68815000  1.0
  N  N96  1  0.20833000  0.81774000  0.24183000  1.0
  N  N97  1  0.79167000  0.18226000  0.75817000  1.0
  N  N98  1  0.08043000  0.71250000  0.19618000  1.0
  N  N99  1  0.91957000  0.28750000  0.80382000  1.0
  N  N100  1  0.22132000  0.63474000  0.21306000  1.0
  N  N101  1  0.77868000  0.36526000  0.78694000  1.0
  O  O102  1  0.39757000  0.12396000  0.44383000  1.0
  O  O103  1  0.60244000  0.87604000  0.55618000  1.0
  O  O104  1  0.10123000  0.92253000  0.06986000  1.0
  O  O105  1  0.89877000  0.07747000  0.93014000  1.0
  O  O106  1  0.59683000  0.13365000  0.19575000  1.0
  O  O107  1  0.40317000  0.86635000  0.80425000  1.0
  O  O108  1  0.38857000  0.99476000  0.16979000  1.0
  O  O109  1  0.61143000  0.00524000  0.83021000  1.0
  O  O110  1  0.19670000  0.49905000  0.92731000  1.0
  O  O111  1  0.80329000  0.50095000  0.07269000  1.0
  O  O112  1  0.29977000  0.42022000  0.82143000  1.0
  O  O113  1  0.70023000  0.57978000  0.17857000  1.0
  O  O114  1  0.80376000  0.72755000  0.01723000  1.0
  O  O115  1  0.19624000  0.27244000  0.98277000  1.0
  O  O116  1  0.87943000  0.94588000  0.06739000  1.0
  O  O117  1  0.12057000  0.05412000  0.93261000  1.0
  O  O118  1  0.74307000  0.48386000  0.42933000  1.0
  O  O119  1  0.25693000  0.51614000  0.57068000  1.0
  O  O120  1  0.86432000  0.43096000  0.32887000  1.0
  O  O121  1  0.13568000  0.56904000  0.67113000  1.0
  O  O122  1  0.35623000  0.78766000  0.53917000  1.0
  O  O123  1  0.64377000  0.21233000  0.46083000  1.0
  O  O124  1  0.39988000  0.99915000  0.58558000  1.0
  O  O125  1  0.60012000  0.00085000  0.41442000  1.0
  O  O126  1  0.07291000  0.12574000  0.69625000  1.0
  O  O127  1  0.92709000  0.87426000  0.30376000  1.0
  O  O128  1  0.87849000  0.96096000  0.67133000  1.0
  O  O129  1  0.12152000  0.03904000  0.32867000  1.0
