# generated using pymatgen
data_CuH14C13NO5
_symmetry_space_group_name_H-M   'P 1'
_cell_length_a   7.85910000
_cell_length_b   14.51820000
_cell_length_c   25.16890000
_cell_angle_alpha   75.72200000
_cell_angle_beta   90.04020000
_cell_angle_gamma   90.00520000
_symmetry_Int_Tables_number   1
_chemical_formula_structural   CuH14C13NO5
_chemical_formula_sum   'Cu8 H112 C104 N8 O40'
_cell_volume   2783.06286102
_cell_formula_units_Z   8
loop_
 _symmetry_equiv_pos_site_id
 _symmetry_equiv_pos_as_xyz
  1  'x, y, z'
loop_
 _atom_site_type_symbol
 _atom_site_label
 _atom_site_symmetry_multiplicity
 _atom_site_fract_x
 _atom_site_fract_y
 _atom_site_fract_z
 _atom_site_occupancy
  Cu  Cu0  1  0.09950000  0.21789000  0.50508000  1.0
  Cu  Cu1  1  0.59872000  0.28204000  0.99450000  1.0
  Cu  Cu2  1  0.90036000  0.78213000  0.49500000  1.0
  Cu  Cu3  1  0.40025000  0.71787000  0.00500000  1.0
  Cu  Cu4  1  0.94852000  0.23148000  0.59543000  1.0
  Cu  Cu5  1  0.44940000  0.26855000  0.90516000  1.0
  Cu  Cu6  1  0.05136000  0.76854000  0.40466000  1.0
  Cu  Cu7  1  0.55149000  0.73144000  0.09535000  1.0
  H  H8  1  0.61018000  0.90026000  0.13797000  1.0
  H  H9  1  0.11014000  0.59974000  0.36197000  1.0
  H  H10  1  0.39029000  0.09983000  0.86211000  1.0
  H  H11  1  0.88989000  0.40027000  0.63802000  1.0
  H  H12  1  0.69714000  0.95147000  0.22188000  1.0
  H  H13  1  0.19713000  0.54851000  0.27811000  1.0
  H  H14  1  0.30295000  0.04860000  0.77826000  1.0
  H  H15  1  0.80287000  0.45151000  0.72188000  1.0
  H  H16  1  0.80737000  0.82707000  0.30322000  1.0
  H  H17  1  0.30734000  0.67291000  0.19682000  1.0
  H  H18  1  0.19265000  0.17296000  0.69691000  1.0
  H  H19  1  0.69264000  0.32711000  0.80317000  1.0
  H  H20  1  0.83547000  0.66022000  0.29498000  1.0
  H  H21  1  0.33549000  0.83975000  0.20507000  1.0
  H  H22  1  0.16457000  0.33980000  0.70518000  1.0
  H  H23  1  0.66454000  0.16027000  0.79492000  1.0
  H  H24  1  0.64141000  0.56419000  0.19690000  1.0
  H  H25  1  0.14157000  0.93584000  0.30307000  1.0
  H  H26  1  0.35867000  0.43600000  0.80314000  1.0
  H  H27  1  0.85844000  0.06416000  0.69693000  1.0
  H  H28  1  0.83119000  0.60628000  0.16149000  1.0
  H  H29  1  0.33132000  0.89367000  0.33856000  1.0
  H  H30  1  0.16892000  0.39385000  0.83855000  1.0
  H  H31  1  0.66869000  0.10634000  0.66143000  1.0
  H  H32  1  0.02976000  0.39447000  0.30211000  1.0
  H  H33  1  0.52987000  0.10544000  0.19796000  1.0
  H  H34  1  0.97027000  0.60551000  0.69790000  1.0
  H  H35  1  0.47011000  0.89455000  0.80203000  1.0
  H  H36  1  0.90710000  0.27682000  0.38296000  1.0
  H  H37  1  0.40699000  0.22311000  0.11710000  1.0
  H  H38  1  0.09292000  0.72316000  0.61705000  1.0
  H  H39  1  0.59295000  0.77691000  0.88292000  1.0
  H  H40  1  0.60714000  0.28534000  0.40820000  1.0
  H  H41  1  0.10693000  0.21465000  0.09182000  1.0
  H  H42  1  0.39287000  0.71465000  0.59180000  1.0
  H  H43  1  0.89302000  0.78537000  0.90820000  1.0
  H  H44  1  0.54188000  0.53702000  0.27662000  1.0
  H  H45  1  0.04195000  0.96298000  0.22336000  1.0
  H  H46  1  0.45819000  0.46298000  0.72338000  1.0
  H  H47  1  0.95802000  0.03701000  0.77662000  1.0
  H  H48  1  0.18712000  0.39073000  0.40433000  1.0
  H  H49  1  0.68692000  0.10922000  0.09554000  1.0
  H  H50  1  0.81290000  0.60928000  0.59566000  1.0
  H  H51  1  0.31306000  0.89068000  0.90439000  1.0
  H  H52  1  0.38262000  0.34784000  0.43537000  1.0
  H  H53  1  0.88237000  0.15212000  0.06458000  1.0
  H  H54  1  0.61740000  0.65216000  0.56463000  1.0
  H  H55  1  0.11765000  0.84780000  0.93540000  1.0
  H  H56  1  0.35390000  0.30207000  0.30067000  1.0
  H  H57  1  0.85396000  0.19793000  0.19921000  1.0
  H  H58  1  0.64612000  0.69792000  0.69933000  1.0
  H  H59  1  0.14608000  0.80213000  0.80066000  1.0
  H  H60  1  0.28971000  0.14122000  0.28587000  1.0
  H  H61  1  0.78981000  0.35876000  0.21404000  1.0
  H  H62  1  0.71030000  0.85876000  0.71414000  1.0
  H  H63  1  0.21022000  0.64130000  0.78584000  1.0
  H  H64  1  0.17417000  0.01477000  0.36574000  1.0
  H  H65  1  0.67422000  0.48523000  0.13410000  1.0
  H  H66  1  0.82584000  0.98522000  0.63426000  1.0
  H  H67  1  0.32594000  0.51481000  0.86573000  1.0
  H  H68  1  0.12108000  0.05779000  0.45425000  1.0
  H  H69  1  0.62059000  0.44216000  0.04563000  1.0
  H  H70  1  0.87893000  0.94221000  0.54576000  1.0
  H  H71  1  0.37898000  0.55772000  0.95429000  1.0
  H  H72  1  0.21668000  0.91658000  0.61015000  1.0
  H  H73  1  0.71759000  0.58384000  0.88951000  1.0
  H  H74  1  0.78332000  0.08343000  0.38982000  1.0
  H  H75  1  0.28328000  0.41658000  0.11020000  1.0
  H  H76  1  0.38311000  0.98644000  0.62774000  1.0
  H  H77  1  0.88386000  0.51383000  0.87209000  1.0
  H  H78  1  0.61693000  0.01354000  0.37225000  1.0
  H  H79  1  0.11700000  0.48654000  0.12769000  1.0
  H  H80  1  0.20726000  0.95324000  0.67333000  1.0
  H  H81  1  0.70792000  0.54698000  0.82642000  1.0
  H  H82  1  0.79277000  0.04675000  0.32665000  1.0
  H  H83  1  0.29291000  0.45334000  0.17334000  1.0
  H  H84  1  0.53091000  0.37852000  0.56238000  1.0
  H  H85  1  0.03161000  0.12159000  0.93756000  1.0
  H  H86  1  0.46910000  0.62148000  0.43760000  1.0
  H  H87  1  0.96917000  0.87844000  0.06237000  1.0
  H  H88  1  0.42380000  0.38654000  0.62459000  1.0
  H  H89  1  0.92405000  0.11360000  0.87536000  1.0
  H  H90  1  0.57625000  0.61347000  0.37540000  1.0
  H  H91  1  0.07646000  0.88643000  0.12460000  1.0
  H  H92  1  0.52818000  0.28031000  0.61910000  1.0
  H  H93  1  0.02865000  0.21979000  0.88081000  1.0
  H  H94  1  0.47181000  0.71969000  0.38090000  1.0
  H  H95  1  0.97201000  0.78021000  0.11907000  1.0
  H  H96  1  0.68742000  0.45141000  0.45165000  1.0
  H  H97  1  0.18652000  0.04826000  0.04853000  1.0
  H  H98  1  0.31261000  0.54860000  0.54833000  1.0
  H  H99  1  0.81251000  0.95130000  0.95174000  1.0
  H  H100  1  0.77561000  0.51892000  0.49527000  1.0
  H  H101  1  0.27455000  0.98059000  0.00497000  1.0
  H  H102  1  0.22442000  0.48109000  0.50470000  1.0
  H  H103  1  0.72454000  0.01890000  0.99531000  1.0
  H  H104  1  0.88332000  0.51135000  0.43343000  1.0
  H  H105  1  0.38236000  0.98834000  0.06680000  1.0
  H  H106  1  0.11674000  0.48865000  0.56655000  1.0
  H  H107  1  0.61663000  0.01130000  0.93345000  1.0
  H  H108  1  0.48668000  0.15083000  0.51216000  1.0
  H  H109  1  0.98599000  0.34905000  0.98785000  1.0
  H  H110  1  0.51335000  0.84917000  0.48782000  1.0
  H  H111  1  0.01329000  0.65088000  0.01225000  1.0
  H  H112  1  0.59982000  0.10184000  0.46317000  1.0
  H  H113  1  0.09957000  0.39788000  0.03688000  1.0
  H  H114  1  0.40023000  0.89817000  0.53680000  1.0
  H  H115  1  0.89999000  0.60190000  0.96323000  1.0
  H  H116  1  0.57442000  0.03542000  0.53250000  1.0
  H  H117  1  0.07352000  0.46448000  0.96764000  1.0
  H  H118  1  0.42560000  0.96459000  0.46747000  1.0
  H  H119  1  0.92560000  0.53544000  0.03255000  1.0
  C  C120  1  0.66151000  0.84954000  0.17378000  1.0
  C  C121  1  0.16150000  0.65047000  0.32620000  1.0
  C  C122  1  0.33892000  0.15057000  0.82632000  1.0
  C  C123  1  0.83853000  0.34954000  0.67380000  1.0
  C  C124  1  0.70959000  0.87747000  0.22066000  1.0
  C  C125  1  0.20958000  0.62252000  0.27933000  1.0
  C  C126  1  0.29058000  0.12263000  0.77945000  1.0
  C  C127  1  0.79043000  0.37749000  0.72066000  1.0
  C  C128  1  0.77079000  0.80862000  0.26536000  1.0
  C  C129  1  0.27075000  0.69137000  0.23466000  1.0
  C  C130  1  0.22930000  0.19143000  0.73475000  1.0
  C  C131  1  0.72924000  0.30866000  0.76533000  1.0
  C  C132  1  0.78670000  0.71515000  0.26088000  1.0
  C  C133  1  0.28669000  0.78483000  0.23915000  1.0
  C  C134  1  0.21350000  0.28489000  0.73925000  1.0
  C  C135  1  0.71331000  0.21519000  0.76085000  1.0
  C  C136  1  0.74076000  0.69358000  0.21186000  1.0
  C  C137  1  0.24075000  0.80640000  0.28815000  1.0
  C  C138  1  0.25959000  0.30649000  0.78825000  1.0
  C  C139  1  0.75926000  0.19361000  0.71185000  1.0
  C  C140  1  0.76572000  0.59680000  0.20101000  1.0
  C  C141  1  0.26584000  0.90317000  0.29900000  1.0
  C  C142  1  0.23444000  0.40330000  0.79903000  1.0
  C  C143  1  0.73416000  0.09684000  0.70099000  1.0
  C  C144  1  0.79424000  0.47276000  0.28406000  1.0
  C  C145  1  0.29431000  0.02719000  0.21597000  1.0
  C  C146  1  0.20581000  0.52722000  0.71594000  1.0
  C  C147  1  0.70563000  0.97282000  0.78402000  1.0
  C  C148  1  0.89786000  0.39943000  0.31437000  1.0
  C  C149  1  0.39789000  0.10052000  0.18569000  1.0
  C  C150  1  0.10216000  0.60055000  0.68563000  1.0
  C  C151  1  0.60206000  0.89950000  0.81431000  1.0
  C  C152  1  0.82857000  0.33374000  0.35878000  1.0
  C  C153  1  0.32849000  0.16621000  0.14128000  1.0
  C  C154  1  0.17144000  0.66623000  0.64122000  1.0
  C  C155  1  0.67144000  0.83382000  0.85874000  1.0
  C  C156  1  0.65791000  0.33857000  0.37364000  1.0
  C  C157  1  0.15778000  0.16142000  0.12638000  1.0
  C  C158  1  0.34211000  0.66142000  0.62636000  1.0
  C  C159  1  0.84216000  0.83861000  0.87363000  1.0
  C  C160  1  0.55686000  0.41205000  0.34308000  1.0
  C  C161  1  0.05679000  0.08794000  0.15691000  1.0
  C  C162  1  0.44318000  0.58794000  0.65691000  1.0
  C  C163  1  0.94316000  0.91207000  0.84309000  1.0
  C  C164  1  0.62429000  0.47993000  0.29845000  1.0
  C  C165  1  0.12432000  0.02006000  0.20155000  1.0
  C  C166  1  0.37575000  0.52005000  0.70154000  1.0
  C  C167  1  0.87562000  0.97996000  0.79845000  1.0
  C  C168  1  0.30824000  0.35803000  0.39722000  1.0
  C  C169  1  0.80804000  0.14191000  0.10271000  1.0
  C  C170  1  0.69178000  0.64197000  0.60278000  1.0
  C  C171  1  0.19191000  0.85802000  0.89725000  1.0
  C  C172  1  0.27301000  0.26293000  0.38516000  1.0
  C  C173  1  0.77275000  0.23703000  0.11474000  1.0
  C  C174  1  0.72701000  0.73706000  0.61484000  1.0
  C  C175  1  0.22703000  0.76292000  0.88518000  1.0
  C  C176  1  0.30247000  0.24582000  0.33366000  1.0
  C  C177  1  0.80240000  0.25418000  0.16624000  1.0
  C  C178  1  0.69755000  0.75418000  0.66634000  1.0
  C  C179  1  0.19754000  0.74585000  0.83366000  1.0
  C  C180  1  0.26688000  0.15613000  0.32569000  1.0
  C  C181  1  0.76688000  0.34385000  0.17421000  1.0
  C  C182  1  0.73312000  0.84385000  0.67432000  1.0
  C  C183  1  0.23308000  0.65618000  0.82568000  1.0
  C  C184  1  0.20259000  0.08621000  0.36942000  1.0
  C  C185  1  0.70246000  0.41376000  0.13047000  1.0
  C  C186  1  0.79742000  0.91378000  0.63059000  1.0
  C  C187  1  0.29743000  0.58622000  0.86941000  1.0
  C  C188  1  0.17411000  0.10939000  0.41913000  1.0
  C  C189  1  0.67376000  0.39056000  0.08075000  1.0
  C  C190  1  0.82590000  0.89061000  0.58088000  1.0
  C  C191  1  0.32593000  0.60935000  0.91915000  1.0
  C  C192  1  0.15586000  0.06445000  0.60021000  1.0
  C  C193  1  0.65631000  0.43611000  0.89956000  1.0
  C  C194  1  0.84415000  0.93557000  0.39980000  1.0
  C  C195  1  0.34420000  0.56443000  0.10017000  1.0
  C  C196  1  0.24501000  0.97389000  0.63019000  1.0
  C  C197  1  0.74576000  0.52635000  0.86959000  1.0
  C  C198  1  0.75501000  0.02611000  0.36979000  1.0
  C  C199  1  0.25508000  0.47393000  0.13020000  1.0
  C  C200  1  0.29155000  0.30286000  0.57740000  1.0
  C  C201  1  0.79233000  0.19709000  0.92254000  1.0
  C  C202  1  0.70840000  0.69715000  0.42262000  1.0
  C  C203  1  0.20848000  0.80278000  0.07739000  1.0
  C  C204  1  0.45234000  0.34124000  0.59686000  1.0
  C  C205  1  0.95279000  0.15894000  0.90311000  1.0
  C  C206  1  0.54766000  0.65876000  0.40313000  1.0
  C  C207  1  0.04779000  0.84114000  0.09686000  1.0
  C  C208  1  0.89483000  0.38379000  0.49956000  1.0
  C  C209  1  0.39418000  0.11557000  0.00065000  1.0
  C  C210  1  0.10513000  0.61621000  0.50046000  1.0
  C  C211  1  0.60506000  0.88379000  0.99955000  1.0
  C  C212  1  0.80653000  0.47304000  0.46804000  1.0
  C  C213  1  0.30557000  0.02666000  0.03213000  1.0
  C  C214  1  0.19351000  0.52697000  0.53194000  1.0
  C  C215  1  0.69347000  0.97301000  0.96808000  1.0
  C  C216  1  0.75696000  0.14698000  0.52245000  1.0
  C  C217  1  0.25619000  0.35311000  0.97758000  1.0
  C  C218  1  0.24305000  0.85302000  0.47756000  1.0
  C  C219  1  0.74300000  0.64700000  0.02246000  1.0
  C  C220  1  0.59417000  0.10658000  0.50579000  1.0
  C  C221  1  0.09365000  0.39320000  0.99422000  1.0
  C  C222  1  0.40587000  0.89343000  0.49418000  1.0
  C  C223  1  0.90580000  0.60662000  0.00586000  1.0
  N  N224  1  0.67512000  0.75950000  0.16931000  1.0
  N  N225  1  0.17507000  0.74050000  0.33067000  1.0
  N  N226  1  0.32544000  0.24062000  0.83079000  1.0
  N  N227  1  0.82497000  0.25950000  0.66933000  1.0
  N  N228  1  0.20832000  0.19574000  0.42713000  1.0
  N  N229  1  0.70783000  0.30419000  0.07276000  1.0
  N  N230  1  0.79169000  0.80427000  0.57287000  1.0
  N  N231  1  0.29169000  0.69569000  0.92716000  1.0
  O  O232  1  0.87052000  0.53374000  0.24023000  1.0
  O  O233  1  0.37065000  0.96620000  0.25983000  1.0
  O  O234  1  0.12956000  0.46623000  0.75978000  1.0
  O  O235  1  0.62931000  0.03382000  0.74016000  1.0
  O  O236  1  0.38754000  0.42462000  0.35294000  1.0
  O  O237  1  0.88743000  0.07537000  0.14702000  1.0
  O  O238  1  0.61249000  0.57538000  0.64705000  1.0
  O  O239  1  0.11252000  0.92463000  0.85297000  1.0
  O  O240  1  0.07631000  0.11053000  0.62964000  1.0
  O  O241  1  0.57471000  0.39017000  0.87040000  1.0
  O  O242  1  0.92376000  0.88946000  0.37039000  1.0
  O  O243  1  0.42391000  0.61051000  0.12959000  1.0
  O  O244  1  0.16990000  0.08765000  0.54831000  1.0
  O  O245  1  0.67088000  0.41225000  0.95150000  1.0
  O  O246  1  0.83007000  0.91240000  0.45170000  1.0
  O  O247  1  0.33001000  0.58758000  0.04827000  1.0
  O  O248  1  0.15835000  0.30279000  0.60627000  1.0
  O  O249  1  0.65885000  0.19809000  0.89352000  1.0
  O  O250  1  0.84163000  0.69723000  0.39377000  1.0
  O  O251  1  0.34172000  0.80266000  0.10628000  1.0
  O  O252  1  0.30358000  0.27152000  0.53443000  1.0
  O  O253  1  0.80279000  0.22756000  0.96593000  1.0
  O  O254  1  0.69631000  0.72849000  0.46559000  1.0
  O  O255  1  0.19635000  0.77153000  0.03437000  1.0
  O  O256  1  0.84583000  0.35032000  0.54867000  1.0
  O  O257  1  0.34738000  0.14888000  0.95121000  1.0
  O  O258  1  0.15412000  0.64970000  0.45133000  1.0
  O  O259  1  0.65408000  0.85034000  0.04869000  1.0
  O  O260  1  0.00740000  0.34856000  0.47400000  1.0
  O  O261  1  0.50609000  0.15162000  0.02619000  1.0
  O  O262  1  0.99256000  0.65141000  0.52602000  1.0
  O  O263  1  0.49249000  0.84855000  0.97396000  1.0
  O  O264  1  0.76174000  0.15731000  0.57132000  1.0
  O  O265  1  0.26129000  0.34184000  0.92885000  1.0
  O  O266  1  0.23824000  0.84266000  0.42869000  1.0
  O  O267  1  0.73832000  0.65735000  0.07131000  1.0
  O  O268  1  0.87472000  0.16747000  0.48675000  1.0
  O  O269  1  0.37551000  0.33357000  0.01292000  1.0
  O  O270  1  0.12532000  0.83254000  0.51326000  1.0
  O  O271  1  0.62512000  0.66746000  0.98674000  1.0
