# generated using pymatgen
data_NaH7C3S(NO)4
_symmetry_space_group_name_H-M   'P 1'
_cell_length_a   6.44970000
_cell_length_b   8.59628000
_cell_length_c   8.67206489
_cell_angle_alpha   71.05115057
_cell_angle_beta   68.17645405
_cell_angle_gamma   89.96930000
_symmetry_Int_Tables_number   1
_chemical_formula_structural   NaH7C3S(NO)4
_chemical_formula_sum   'Na2 H14 C6 S2 N8 O8'
_cell_volume   418.18937403
_cell_formula_units_Z   2
loop_
 _symmetry_equiv_pos_site_id
 _symmetry_equiv_pos_as_xyz
  1  'x, y, z'
loop_
 _atom_site_type_symbol
 _atom_site_label
 _atom_site_symmetry_multiplicity
 _atom_site_fract_x
 _atom_site_fract_y
 _atom_site_fract_z
 _atom_site_occupancy
  Na  Na0  1  0.78347000  0.99997000  0.00004000  1.0
  Na  Na1  1  0.21653000  0.00004000  0.99996000  1.0
  H  H2  1  0.58620000  0.55872000  0.82840000  1.0
  H  H3  1  0.41380000  0.44128000  0.17160000  1.0
  H  H4  1  0.39788000  0.68672000  0.92502000  1.0
  H  H5  1  0.32247000  0.31345000  0.07471000  1.0
  H  H6  1  0.60211000  0.31328000  0.07498000  1.0
  H  H7  1  0.67752000  0.68655000  0.92529000  1.0
  H  H8  1  0.17439000  0.04293000  0.65160000  1.0
  H  H9  1  0.82561000  0.95707000  0.34840000  1.0
  H  H10  1  0.95401000  0.67304000  0.09225000  1.0
  H  H11  1  0.04599000  0.32697000  0.90774000  1.0
  H  H12  1  0.17617000  0.22629000  0.64789000  1.0
  H  H13  1  0.82383000  0.77371000  0.35211000  1.0
  H  H14  1  0.05940000  0.72896000  0.88204000  1.0
  H  H15  1  0.94060000  0.27105000  0.11796000  1.0
  C  C16  1  0.76540000  0.22697000  0.46878000  1.0
  C  C17  1  0.23460000  0.77303000  0.53122000  1.0
  C  C18  1  0.66533000  0.96112000  0.66964000  1.0
  C  C19  1  0.33467000  0.03887000  0.33036000  1.0
  C  C20  1  0.57439000  0.67653000  0.85194000  1.0
  C  C21  1  0.42561000  0.32347000  0.14806000  1.0
  S  S22  1  0.69033000  0.33154000  0.61950000  1.0
  S  S23  1  0.30967000  0.66846000  0.38050000  1.0
  N  N24  1  0.84846000  0.33923000  0.30214000  1.0
  N  N25  1  0.15152000  0.66076000  0.69787000  1.0
  N  N26  1  0.85007000  0.49509000  0.29913000  1.0
  N  N27  1  0.14994000  0.50491000  0.70086000  1.0
  N  N28  1  0.75005000  0.06485000  0.49963000  1.0
  N  N29  1  0.24996000  0.93515000  0.50036000  1.0
  N  N30  1  0.77487000  0.51666000  0.45008000  1.0
  N  N31  1  0.22514000  0.48334000  0.54992000  1.0
  O  O32  1  0.59703000  0.00029000  0.80638000  1.0
  O  O33  1  0.40298000  0.99971000  0.19362000  1.0
  O  O34  1  0.13503000  0.11096000  0.73031000  1.0
  O  O35  1  0.86497000  0.88904000  0.26969000  1.0
  O  O36  1  0.66150000  0.80144000  0.67799000  1.0
  O  O37  1  0.33850000  0.19856000  0.32201000  1.0
  O  O38  1  0.00939000  0.77239000  0.98201000  1.0
  O  O39  1  0.99061000  0.22761000  0.01799000  1.0
