# generated using pymatgen
data_CuH8C8N4(ClO4)2
_symmetry_space_group_name_H-M   'P 1'
_cell_length_a   8.49949000
_cell_length_b   8.49951000
_cell_length_c   9.82065000
_cell_angle_alpha   84.40120000
_cell_angle_beta   84.40130000
_cell_angle_gamma   69.40820000
_symmetry_Int_Tables_number   1
_chemical_formula_structural   CuH8C8N4(ClO4)2
_chemical_formula_sum   'Cu2 H16 C16 N8 Cl4 O16'
_cell_volume   659.43797393
_cell_formula_units_Z   2
loop_
 _symmetry_equiv_pos_site_id
 _symmetry_equiv_pos_as_xyz
  1  'x, y, z'
loop_
 _atom_site_type_symbol
 _atom_site_label
 _atom_site_symmetry_multiplicity
 _atom_site_fract_x
 _atom_site_fract_y
 _atom_site_fract_z
 _atom_site_occupancy
  Cu  Cu0  1  0.74995000  0.25004000  0.25000000  1.0
  Cu  Cu1  1  0.25006000  0.74994000  0.75000000  1.0
  H  H2  1  0.10208000  0.17811000  0.12058000  1.0
  H  H3  1  0.82189000  0.89792000  0.37942000  1.0
  H  H4  1  0.89792000  0.82187000  0.87940000  1.0
  H  H5  1  0.17813000  0.10208000  0.62060000  1.0
  H  H6  1  0.71917000  0.99395000  0.06532000  1.0
  H  H7  1  0.00605000  0.28082000  0.43468000  1.0
  H  H8  1  0.28085000  0.00604000  0.93466000  1.0
  H  H9  1  0.99396000  0.71915000  0.56534000  1.0
  H  H10  1  0.65957000  0.60914000  0.13512000  1.0
  H  H11  1  0.39086000  0.34044000  0.36488000  1.0
  H  H12  1  0.34042000  0.39086000  0.86487000  1.0
  H  H13  1  0.60914000  0.65958000  0.63513000  1.0
  H  H14  1  0.50813000  0.21218000  0.05128000  1.0
  H  H15  1  0.78782000  0.49187000  0.44872000  1.0
  H  H16  1  0.49187000  0.78784000  0.94872000  1.0
  H  H17  1  0.21216000  0.50813000  0.55128000  1.0
  C  C18  1  0.05636000  0.09789000  0.06760000  1.0
  C  C19  1  0.90211000  0.94364000  0.43240000  1.0
  C  C20  1  0.94364000  0.90211000  0.93239000  1.0
  C  C21  1  0.09789000  0.05636000  0.56761000  1.0
  C  C22  1  0.84358000  0.99957000  0.03582000  1.0
  C  C23  1  0.00043000  0.15641000  0.46418000  1.0
  C  C24  1  0.15641000  0.00043000  0.96417000  1.0
  C  C25  1  0.99957000  0.84359000  0.53583000  1.0
  C  C26  1  0.58803000  0.55925000  0.07595000  1.0
  C  C27  1  0.44075000  0.41197000  0.42406000  1.0
  C  C28  1  0.41199000  0.44074000  0.92406000  1.0
  C  C29  1  0.55927000  0.58802000  0.57594000  1.0
  C  C30  1  0.50678000  0.34030000  0.02876000  1.0
  C  C31  1  0.65970000  0.49323000  0.47124000  1.0
  C  C32  1  0.49324000  0.65969000  0.97125000  1.0
  C  C33  1  0.34031000  0.50676000  0.52876000  1.0
  N  N34  1  0.89978000  0.09762000  0.10263000  1.0
  N  N35  1  0.90238000  0.10022000  0.39737000  1.0
  N  N36  1  0.10026000  0.90234000  0.89733000  1.0
  N  N37  1  0.09766000  0.89974000  0.60267000  1.0
  N  N38  1  0.59503000  0.39921000  0.10385000  1.0
  N  N39  1  0.60078000  0.40497000  0.39615000  1.0
  N  N40  1  0.40494000  0.60082000  0.89612000  1.0
  N  N41  1  0.39918000  0.59506000  0.60388000  1.0
  Cl  Cl42  1  0.99196000  0.55563000  0.22123000  1.0
  Cl  Cl43  1  0.44437000  0.00805000  0.27877000  1.0
  Cl  Cl44  1  0.00805000  0.44443000  0.77877000  1.0
  Cl  Cl45  1  0.55557000  0.99195000  0.72123000  1.0
  O  O46  1  0.93879000  0.41068000  0.20673000  1.0
  O  O47  1  0.58932000  0.06121000  0.29327000  1.0
  O  O48  1  0.06124000  0.58933000  0.79323000  1.0
  O  O49  1  0.41067000  0.93876000  0.70677000  1.0
  O  O50  1  0.04712000  0.54218000  0.35940000  1.0
  O  O51  1  0.45782000  0.95288000  0.14060000  1.0
  O  O52  1  0.95289000  0.45783000  0.64058000  1.0
  O  O53  1  0.54217000  0.04711000  0.85942000  1.0
  O  O54  1  0.84643000  0.70948000  0.20258000  1.0
  O  O55  1  0.29052000  0.15357000  0.29742000  1.0
  O  O56  1  0.15358000  0.29053000  0.79743000  1.0
  O  O57  1  0.70947000  0.84642000  0.70258000  1.0
  O  O58  1  0.12791000  0.55476000  0.11985000  1.0
  O  O59  1  0.44524000  0.87209000  0.38014000  1.0
  O  O60  1  0.87210000  0.44532000  0.88014000  1.0
  O  O61  1  0.55469000  0.12790000  0.61986000  1.0
