# generated using pymatgen
data_ZnH17C15N2O7
_symmetry_space_group_name_H-M   'P 1'
_cell_length_a   9.01571000
_cell_length_b   9.76359000
_cell_length_c   10.61460000
_cell_angle_alpha   101.27700000
_cell_angle_beta   95.63980000
_cell_angle_gamma   113.34500000
_symmetry_Int_Tables_number   1
_chemical_formula_structural   ZnH17C15N2O7
_chemical_formula_sum   'Zn2 H34 C30 N4 O14'
_cell_volume   825.11938787
_cell_formula_units_Z   2
loop_
 _symmetry_equiv_pos_site_id
 _symmetry_equiv_pos_as_xyz
  1  'x, y, z'
loop_
 _atom_site_type_symbol
 _atom_site_label
 _atom_site_symmetry_multiplicity
 _atom_site_fract_x
 _atom_site_fract_y
 _atom_site_fract_z
 _atom_site_occupancy
  Zn  Zn0  1  0.10269000  0.34811000  0.64352000  1.0
  Zn  Zn1  1  0.89731000  0.65189000  0.35648000  1.0
  H  H2  1  0.36807000  0.70375000  0.97681000  1.0
  H  H3  1  0.63193000  0.29625000  0.02319000  1.0
  H  H4  1  0.15317000  0.60079000  0.97172000  1.0
  H  H5  1  0.84683000  0.39921000  0.02828000  1.0
  H  H6  1  0.18091000  0.50840000  0.11569000  1.0
  H  H7  1  0.81908000  0.49160000  0.88431000  1.0
  H  H8  1  0.13503000  0.31585000  0.24510000  1.0
  H  H9  1  0.86496000  0.68414000  0.75490000  1.0
  H  H10  1  0.28084000  0.04270000  0.95571000  1.0
  H  H11  1  0.71915000  0.95730000  0.04428000  1.0
  H  H12  1  0.32336000  0.23345000  0.82495000  1.0
  H  H13  1  0.67663000  0.76655000  0.17505000  1.0
  H  H14  1  0.29859000  0.93240000  0.13206000  1.0
  H  H15  1  0.70141000  0.06760000  0.86794000  1.0
  H  H16  1  0.09905000  0.86867000  0.03698000  1.0
  H  H17  1  0.90095000  0.13133000  0.96302000  1.0
  H  H18  1  0.49837000  0.52143000  0.74402000  1.0
  H  H19  1  0.50163000  0.47856000  0.25598000  1.0
  H  H20  1  0.70090000  0.41147000  0.61681000  1.0
  H  H21  1  0.29911000  0.58853000  0.38319000  1.0
  H  H22  1  0.20677000  0.14590000  0.41837000  1.0
  H  H23  1  0.79324000  0.85411000  0.58163000  1.0
  H  H24  1  0.65437000  0.21220000  0.41708000  1.0
  H  H25  1  0.34564000  0.78781000  0.58293000  1.0
  H  H26  1  0.46960000  0.14550000  0.30136000  1.0
  H  H27  1  0.53041000  0.85451000  0.69864000  1.0
  H  H28  1  0.32919000  0.93893000  0.41342000  1.0
  H  H29  1  0.67082000  0.06108000  0.58658000  1.0
  H  H30  1  0.50252000  0.92524000  0.35848000  1.0
  H  H31  1  0.49749000  0.07477000  0.64152000  1.0
  H  H32  1  0.92075000  0.34782000  0.40893000  1.0
  H  H33  1  0.07925000  0.65217000  0.59107000  1.0
  H  H34  1  0.91774000  0.18344000  0.39857000  1.0
  H  H35  1  0.08227000  0.81655000  0.60143000  1.0
  C  C36  1  0.20723000  0.66959000  0.79833000  1.0
  C  C37  1  0.79276000  0.33041000  0.20167000  1.0
  C  C38  1  0.25161000  0.61443000  0.91476000  1.0
  C  C39  1  0.74839000  0.38557000  0.08524000  1.0
  C  C40  1  0.25341000  0.38142000  0.95979000  1.0
  C  C41  1  0.74658000  0.61858000  0.04021000  1.0
  C  C42  1  0.20317000  0.40734000  0.07932000  1.0
  C  C43  1  0.79682000  0.59265000  0.92068000  1.0
  C  C44  1  0.17831000  0.29960000  0.15341000  1.0
  C  C45  1  0.82167000  0.70040000  0.84659000  1.0
  C  C46  1  0.20496000  0.16791000  0.11034000  1.0
  C  C47  1  0.79503000  0.83208000  0.88966000  1.0
  C  C48  1  0.26085000  0.14499000  0.99279000  1.0
  C  C49  1  0.73914000  0.85501000  0.00721000  1.0
  C  C50  1  0.28479000  0.25233000  0.91840000  1.0
  C  C51  1  0.71520000  0.74767000  0.08161000  1.0
  C  C52  1  0.17290000  0.92145000  0.13731000  1.0
  C  C53  1  0.82710000  0.07855000  0.86268000  1.0
  C  C54  1  0.46788000  0.42923000  0.65693000  1.0
  C  C55  1  0.53212000  0.57077000  0.34307000  1.0
  C  C56  1  0.56930000  0.37683000  0.59518000  1.0
  C  C57  1  0.43070000  0.62317000  0.40482000  1.0
  C  C58  1  0.31104000  0.23490000  0.49078000  1.0
  C  C59  1  0.68896000  0.76511000  0.50922000  1.0
  C  C60  1  0.51998000  0.15458000  0.40247000  1.0
  C  C61  1  0.48003000  0.84543000  0.59753000  1.0
  C  C62  1  0.46443000  0.99605000  0.43038000  1.0
  C  C63  1  0.53558000  0.00396000  0.56962000  1.0
  C  C64  1  0.09773000  0.81042000  0.21949000  1.0
  C  C65  1  0.90227000  0.18957000  0.78051000  1.0
  N  N66  1  0.30727000  0.33950000  0.59089000  1.0
  N  N67  1  0.69273000  0.66051000  0.40911000  1.0
  N  N68  1  0.46843000  0.25504000  0.49042000  1.0
  N  N69  1  0.53158000  0.74496000  0.50958000  1.0
  O  O70  1  0.13897000  0.56840000  0.68454000  1.0
  O  O71  1  0.86103000  0.43160000  0.31546000  1.0
  O  O72  1  0.23164000  0.80686000  0.81638000  1.0
  O  O73  1  0.76836000  0.19313000  0.18362000  1.0
  O  O74  1  0.94788000  0.28155000  0.46187000  1.0
  O  O75  1  0.05213000  0.71845000  0.53813000  1.0
  O  O76  1  0.26687000  0.47303000  0.87260000  1.0
  O  O77  1  0.73312000  0.52697000  0.12740000  1.0
  O  O78  1  0.17274000  0.06738000  0.18923000  1.0
  O  O79  1  0.82725000  0.93261000  0.81077000  1.0
  O  O80  1  0.01940000  0.84722000  0.30589000  1.0
  O  O81  1  0.98060000  0.15278000  0.69411000  1.0
  O  O82  1  0.11106000  0.68537000  0.19604000  1.0
  O  O83  1  0.88895000  0.31463000  0.80396000  1.0
