# generated using pymatgen
data_AgH2C7I3O2
_symmetry_space_group_name_H-M   'P 1'
_cell_length_a   5.76573000
_cell_length_b   13.03650000
_cell_length_c   14.78560000
_cell_angle_alpha   108.27200000
_cell_angle_beta   89.99990000
_cell_angle_gamma   90.00000000
_symmetry_Int_Tables_number   1
_chemical_formula_structural   AgH2C7I3O2
_chemical_formula_sum   'Ag4 H8 C28 I12 O8'
_cell_volume   1055.32269475
_cell_formula_units_Z   4
loop_
 _symmetry_equiv_pos_site_id
 _symmetry_equiv_pos_as_xyz
  1  'x, y, z'
loop_
 _atom_site_type_symbol
 _atom_site_label
 _atom_site_symmetry_multiplicity
 _atom_site_fract_x
 _atom_site_fract_y
 _atom_site_fract_z
 _atom_site_occupancy
  Ag  Ag0  1  0.30462000  0.95701000  0.94365000  1.0
  Ag  Ag1  1  0.19538000  0.45701000  0.44365000  1.0
  Ag  Ag2  1  0.69537000  0.04299000  0.05635000  1.0
  Ag  Ag3  1  0.80463000  0.54299000  0.55635000  1.0
  H  H4  1  0.79517000  0.56423000  0.97344000  1.0
  H  H5  1  0.70484000  0.06423000  0.47344000  1.0
  H  H6  1  0.20483000  0.43577000  0.02656000  1.0
  H  H7  1  0.29517000  0.93577000  0.52656000  1.0
  H  H8  1  0.59414000  0.39888000  0.68241000  1.0
  H  H9  1  0.90586000  0.89888000  0.18241000  1.0
  H  H10  1  0.40586000  0.60112000  0.31759000  1.0
  H  H11  1  0.09414000  0.10112000  0.81759000  1.0
  C  C12  1  0.39811000  0.54097000  0.75473000  1.0
  C  C13  1  0.10189000  0.04097000  0.25473000  1.0
  C  C14  1  0.60189000  0.45903000  0.24527000  1.0
  C  C15  1  0.89811000  0.95903000  0.74527000  1.0
  C  C16  1  0.36568000  0.62676000  0.83984000  1.0
  C  C17  1  0.13432000  0.12677000  0.33985000  1.0
  C  C18  1  0.63432000  0.37323000  0.16015000  1.0
  C  C19  1  0.86568000  0.87323000  0.66015000  1.0
  C  C20  1  0.51433000  0.63548000  0.91721000  1.0
  C  C21  1  0.98566000  0.13548000  0.41721000  1.0
  C  C22  1  0.48567000  0.36452000  0.08279000  1.0
  C  C23  1  0.01433000  0.86452000  0.58279000  1.0
  C  C24  1  0.68272000  0.55656000  0.91246000  1.0
  C  C25  1  0.81728000  0.05656000  0.41246000  1.0
  C  C26  1  0.31728000  0.44344000  0.08754000  1.0
  C  C27  1  0.18271000  0.94344000  0.58754000  1.0
  C  C28  1  0.70820000  0.47065000  0.82864000  1.0
  C  C29  1  0.79180000  0.97066000  0.32864000  1.0
  C  C30  1  0.29180000  0.52935000  0.17136000  1.0
  C  C31  1  0.20820000  0.02935000  0.67136000  1.0
  C  C32  1  0.57087000  0.46360000  0.74943000  1.0
  C  C33  1  0.92913000  0.96360000  0.24943000  1.0
  C  C34  1  0.42913000  0.53640000  0.25057000  1.0
  C  C35  1  0.07087000  0.03640000  0.75057000  1.0
  C  C36  1  0.25587000  0.52745000  0.66599000  1.0
  C  C37  1  0.24413000  0.02745000  0.16599000  1.0
  C  C38  1  0.74413000  0.47255000  0.33401000  1.0
  C  C39  1  0.75587000  0.97255000  0.83401000  1.0
  I  I40  1  0.10285000  0.74229000  0.84990000  1.0
  I  I41  1  0.39715000  0.24229000  0.34990000  1.0
  I  I42  1  0.89715000  0.25771000  0.15010000  1.0
  I  I43  1  0.60285000  0.75771000  0.65010000  1.0
  I  I44  1  0.51394000  0.76852000  0.04267000  1.0
  I  I45  1  0.98606000  0.26852000  0.54267000  1.0
  I  I46  1  0.48606000  0.23148000  0.95733000  1.0
  I  I47  1  0.01394000  0.73148000  0.45733000  1.0
  I  I48  1  0.97406000  0.35768000  0.82209000  1.0
  I  I49  1  0.52594000  0.85768000  0.32209000  1.0
  I  I50  1  0.02594000  0.64232000  0.17791000  1.0
  I  I51  1  0.47406000  0.14232000  0.67791000  1.0
  O  O52  1  0.03725000  0.52963000  0.67418000  1.0
  O  O53  1  0.46276000  0.02963000  0.17418000  1.0
  O  O54  1  0.96276000  0.47037000  0.32582000  1.0
  O  O55  1  0.53724000  0.97037000  0.82582000  1.0
  O  O56  1  0.37008000  0.51321000  0.58908000  1.0
  O  O57  1  0.12993000  0.01321000  0.08908000  1.0
  O  O58  1  0.62993000  0.48679000  0.41092000  1.0
  O  O59  1  0.87007000  0.98679000  0.91092000  1.0
