# generated using pymatgen
data_ZnH7C10NO4
_symmetry_space_group_name_H-M   'P 1'
_cell_length_a   9.66724000
_cell_length_b   9.66722000
_cell_length_c   14.23550000
_cell_angle_alpha   76.98610000
_cell_angle_beta   76.98610000
_cell_angle_gamma   64.17470000
_symmetry_Int_Tables_number   1
_chemical_formula_structural   ZnH7C10NO4
_chemical_formula_sum   'Zn4 H28 C40 N4 O16'
_cell_volume   1154.44007672
_cell_formula_units_Z   4
loop_
 _symmetry_equiv_pos_site_id
 _symmetry_equiv_pos_as_xyz
  1  'x, y, z'
loop_
 _atom_site_type_symbol
 _atom_site_label
 _atom_site_symmetry_multiplicity
 _atom_site_fract_x
 _atom_site_fract_y
 _atom_site_fract_z
 _atom_site_occupancy
  Zn  Zn0  1  0.40864000  0.90597000  0.51458000  1.0
  Zn  Zn1  1  0.09402000  0.59136000  0.98541000  1.0
  Zn  Zn2  1  0.59136000  0.09403000  0.48542000  1.0
  Zn  Zn3  1  0.90597000  0.40865000  0.01458000  1.0
  H  H4  1  0.25825000  0.41406000  0.26964000  1.0
  H  H5  1  0.58594000  0.74175000  0.23036000  1.0
  H  H6  1  0.74175000  0.58594000  0.73036000  1.0
  H  H7  1  0.41405000  0.25825000  0.76964000  1.0
  H  H8  1  0.13405000  0.16163000  0.29201000  1.0
  H  H9  1  0.83839000  0.86594000  0.20800000  1.0
  H  H10  1  0.86595000  0.83838000  0.70799000  1.0
  H  H11  1  0.16163000  0.13404000  0.79201000  1.0
  H  H12  1  0.13605000  0.94460000  0.43413000  1.0
  H  H13  1  0.05540000  0.86396000  0.06587000  1.0
  H  H14  1  0.86396000  0.05540000  0.56587000  1.0
  H  H15  1  0.94460000  0.13605000  0.93413000  1.0
  H  H16  1  0.98632000  0.79150000  0.43329000  1.0
  H  H17  1  0.20850000  0.01368000  0.06671000  1.0
  H  H18  1  0.01368000  0.20850000  0.56670000  1.0
  H  H19  1  0.79150000  0.98632000  0.93329000  1.0
  H  H20  1  0.30693000  0.41263000  0.60994000  1.0
  H  H21  1  0.58737000  0.69307000  0.89006000  1.0
  H  H22  1  0.69307000  0.58738000  0.39006000  1.0
  H  H23  1  0.41263000  0.30693000  0.10994000  1.0
  H  H24  1  0.43756000  0.58766000  0.60715000  1.0
  H  H25  1  0.41234000  0.56245000  0.89285000  1.0
  H  H26  1  0.56244000  0.41234000  0.39284000  1.0
  H  H27  1  0.58766000  0.43756000  0.10716000  1.0
  H  H28  1  0.10535000  0.37103000  0.57001000  1.0
  H  H29  1  0.62897000  0.89465000  0.92999000  1.0
  H  H30  1  0.89465000  0.62897000  0.42999000  1.0
  H  H31  1  0.37103000  0.10535000  0.07002000  1.0
  C  C32  1  0.30996000  0.21687000  0.38931000  1.0
  C  C33  1  0.78313000  0.69004000  0.11069000  1.0
  C  C34  1  0.69004000  0.78312000  0.61069000  1.0
  C  C35  1  0.21687000  0.30996000  0.88931000  1.0
  C  C36  1  0.23571000  0.31101000  0.30208000  1.0
  C  C37  1  0.68899000  0.76429000  0.19792000  1.0
  C  C38  1  0.76429000  0.68899000  0.69792000  1.0
  C  C39  1  0.31100000  0.23571000  0.80208000  1.0
  C  C40  1  0.15647000  0.26453000  0.25905000  1.0
  C  C41  1  0.73548000  0.84352000  0.24095000  1.0
  C  C42  1  0.84353000  0.73548000  0.74095000  1.0
  C  C43  1  0.26453000  0.15646000  0.75906000  1.0
  C  C44  1  0.09680000  0.34647000  0.16540000  1.0
  C  C45  1  0.65353000  0.90319000  0.33460000  1.0
  C  C46  1  0.90320000  0.65353000  0.83460000  1.0
  C  C47  1  0.34647000  0.09680000  0.66540000  1.0
  C  C48  1  0.16846000  0.82610000  0.47222000  1.0
  C  C49  1  0.17389000  0.83154000  0.02778000  1.0
  C  C50  1  0.83154000  0.17389000  0.52777000  1.0
  C  C51  1  0.82611000  0.16846000  0.97223000  1.0
  C  C52  1  0.08715000  0.73875000  0.47144000  1.0
  C  C53  1  0.26125000  0.91285000  0.02856000  1.0
  C  C54  1  0.91285000  0.26125000  0.52855000  1.0
  C  C55  1  0.73875000  0.08715000  0.97145000  1.0
  C  C56  1  0.13484000  0.58580000  0.52153000  1.0
  C  C57  1  0.41419000  0.86517000  0.97847000  1.0
  C  C58  1  0.86517000  0.41419000  0.47846000  1.0
  C  C59  1  0.58580000  0.13483000  0.02153000  1.0
  C  C60  1  0.26328000  0.53092000  0.57137000  1.0
  C  C61  1  0.46908000  0.73673000  0.92863000  1.0
  C  C62  1  0.73672000  0.46908000  0.42862000  1.0
  C  C63  1  0.53092000  0.26328000  0.07138000  1.0
  C  C64  1  0.33764000  0.62628000  0.56944000  1.0
  C  C65  1  0.37372000  0.66237000  0.93056000  1.0
  C  C66  1  0.66236000  0.37372000  0.43055000  1.0
  C  C67  1  0.62628000  0.33764000  0.06945000  1.0
  C  C68  1  0.05899000  0.48350000  0.52444000  1.0
  C  C69  1  0.51650000  0.94101000  0.97556000  1.0
  C  C70  1  0.94101000  0.51650000  0.47556000  1.0
  C  C71  1  0.48350000  0.05899000  0.02444000  1.0
  N  N72  1  0.29180000  0.77167000  0.52030000  1.0
  N  N73  1  0.22833000  0.70820000  0.97970000  1.0
  N  N74  1  0.70820000  0.22833000  0.47970000  1.0
  N  N75  1  0.77167000  0.29180000  0.02030000  1.0
  O  O76  1  0.26930000  0.10846000  0.43581000  1.0
  O  O77  1  0.89154000  0.73070000  0.06419000  1.0
  O  O78  1  0.73070000  0.89154000  0.56419000  1.0
  O  O79  1  0.10846000  0.26930000  0.93581000  1.0
  O  O80  1  0.41439000  0.24992000  0.40800000  1.0
  O  O81  1  0.75008000  0.58561000  0.09200000  1.0
  O  O82  1  0.58561000  0.75008000  0.59200000  1.0
  O  O83  1  0.24992000  0.41440000  0.90800000  1.0
  O  O84  1  0.00768000  0.30082000  0.13925000  1.0
  O  O85  1  0.69918000  0.99232000  0.36075000  1.0
  O  O86  1  0.99231000  0.69919000  0.86075000  1.0
  O  O87  1  0.30083000  0.00767000  0.63925000  1.0
  O  O88  1  0.14100000  0.45263000  0.11847000  1.0
  O  O89  1  0.54737000  0.85900000  0.38152000  1.0
  O  O90  1  0.85900000  0.54737000  0.88152000  1.0
  O  O91  1  0.45263000  0.14100000  0.61848000  1.0
