# generated using pymatgen
data_AgH8C13NO4
_symmetry_space_group_name_H-M   'P 1'
_cell_length_a   5.15887000
_cell_length_b   7.42785000
_cell_length_c   14.85970406
_cell_angle_alpha   99.62474397
_cell_angle_beta   99.63930603
_cell_angle_gamma   102.61100000
_symmetry_Int_Tables_number   1
_chemical_formula_structural   AgH8C13NO4
_chemical_formula_sum   'Ag2 H16 C26 N2 O8'
_cell_volume   535.40482682
_cell_formula_units_Z   2
loop_
 _symmetry_equiv_pos_site_id
 _symmetry_equiv_pos_as_xyz
  1  'x, y, z'
loop_
 _atom_site_type_symbol
 _atom_site_label
 _atom_site_symmetry_multiplicity
 _atom_site_fract_x
 _atom_site_fract_y
 _atom_site_fract_z
 _atom_site_occupancy
  Ag  Ag0  1  0.18813000  0.87798000  0.02653000  1.0
  Ag  Ag1  1  0.81186000  0.12202000  0.97347000  1.0
  H  H2  1  0.02768000  0.62468000  0.46666000  1.0
  H  H3  1  0.97235000  0.37532000  0.53334000  1.0
  H  H4  1  0.82931000  0.01885000  0.54751000  1.0
  H  H5  1  0.17071000  0.98116000  0.45249000  1.0
  H  H6  1  0.63267000  0.24132000  0.63888000  1.0
  H  H7  1  0.36734000  0.75869000  0.36112000  1.0
  H  H8  1  0.24845000  0.79381000  0.76194000  1.0
  H  H9  1  0.75156000  0.20618000  0.23806000  1.0
  H  H10  1  0.44296000  0.57113000  0.66796000  1.0
  H  H11  1  0.55706000  0.42887000  0.33204000  1.0
  H  H12  1  0.68436000  0.41366000  0.77311000  1.0
  H  H13  1  0.31561000  0.58634000  0.22689000  1.0
  H  H14  1  0.15309000  0.52643000  0.95567000  1.0
  H  H15  1  0.84690000  0.47356000  0.04433000  1.0
  H  H16  1  0.01074000  0.98032000  0.80361000  1.0
  H  H17  1  0.98926000  0.01968000  0.19639000  1.0
  C  C18  1  0.70192000  0.96981000  0.59432000  1.0
  C  C19  1  0.29809000  0.03020000  0.40568000  1.0
  C  C20  1  0.79362000  0.65213000  0.55602000  1.0
  C  C21  1  0.20639000  0.34787000  0.44399000  1.0
  C  C22  1  0.59278000  0.09528000  0.64682000  1.0
  C  C23  1  0.40723000  0.90474000  0.35319000  1.0
  C  C24  1  0.61163000  0.69400000  0.89645000  1.0
  C  C25  1  0.38836000  0.30599000  0.10355000  1.0
  C  C26  1  0.37394000  0.84397000  0.71456000  1.0
  C  C27  1  0.62607000  0.15604000  0.28544000  1.0
  C  C28  1  0.65500000  0.78135000  0.60369000  1.0
  C  C29  1  0.34501000  0.21865000  0.39631000  1.0
  C  C30  1  0.43439000  0.49493000  0.86517000  1.0
  C  C31  1  0.56561000  0.50507000  0.13483000  1.0
  C  C32  1  0.48435000  0.71855000  0.66242000  1.0
  C  C33  1  0.51566000  0.28145000  0.33758000  1.0
  C  C34  1  0.50425000  0.36518000  0.80029000  1.0
  C  C35  1  0.49573000  0.63482000  0.19971000  1.0
  C  C36  1  0.21262000  0.42986000  0.90410000  1.0
  C  C37  1  0.78738000  0.57014000  0.09590000  1.0
  C  C38  1  0.43481000  0.03615000  0.71006000  1.0
  C  C39  1  0.56519000  0.96387000  0.28995000  1.0
  C  C40  1  0.35292000  0.17629000  0.77459000  1.0
  C  C41  1  0.64708000  0.82371000  0.22541000  1.0
  C  C42  1  0.13501000  0.12507000  0.81820000  1.0
  C  C43  1  0.86499000  0.87493000  0.18180000  1.0
  N  N44  1  0.06879000  0.24830000  0.88219000  1.0
  N  N45  1  0.93120000  0.75169000  0.11781000  1.0
  O  O46  1  0.84113000  0.72520000  0.87462000  1.0
  O  O47  1  0.15885000  0.27479000  0.12538000  1.0
  O  O48  1  0.52336000  0.81838000  0.94465000  1.0
  O  O49  1  0.47663000  0.18161000  0.05535000  1.0
  O  O50  1  0.79702000  0.49551000  0.57633000  1.0
  O  O51  1  0.20300000  0.50450000  0.42367000  1.0
  O  O52  1  0.91710000  0.71506000  0.49205000  1.0
  O  O53  1  0.08290000  0.28495000  0.50795000  1.0
