# generated using pymatgen
data_AlH4C8O5F
_symmetry_space_group_name_H-M   'P 1'
_cell_length_a   6.71604000
_cell_length_b   11.13796145
_cell_length_c   11.13850000
_cell_angle_alpha   93.16814677
_cell_angle_beta   106.97240000
_cell_angle_gamma   106.96191437
_symmetry_Int_Tables_number   1
_chemical_formula_structural   AlH4C8O5F
_chemical_formula_sum   'Al2 H8 C16 O10 F2'
_cell_volume   753.20413910
_cell_formula_units_Z   2
loop_
 _symmetry_equiv_pos_site_id
 _symmetry_equiv_pos_as_xyz
  1  'x, y, z'
loop_
 _atom_site_type_symbol
 _atom_site_label
 _atom_site_symmetry_multiplicity
 _atom_site_fract_x
 _atom_site_fract_y
 _atom_site_fract_z
 _atom_site_occupancy
  Al  Al0  1  0.99993000  0.50088000  0.49899000  1.0
  Al  Al1  1  0.49995000  0.50391000  0.49605000  1.0
  H  H2  1  0.36646000  0.58376000  0.65089000  1.0
  H  H3  1  0.63320000  0.34914000  0.41596000  1.0
  H  H4  1  0.36813000  0.49067000  0.10914000  1.0
  H  H5  1  0.75052000  0.51780000  0.12588000  1.0
  H  H6  1  0.24033000  0.49145000  0.87416000  1.0
  H  H7  1  0.63263000  0.89132000  0.51064000  1.0
  H  H8  1  0.24873000  0.87364000  0.48187000  1.0
  H  H9  1  0.76058000  0.12615000  0.50938000  1.0
  C  C10  1  0.86066000  0.72833000  0.49830000  1.0
  C  C11  1  0.86177000  0.50805000  0.72699000  1.0
  C  C12  1  0.13859000  0.27288000  0.49170000  1.0
  C  C13  1  0.13893000  0.50200000  0.27161000  1.0
  C  C14  1  0.92711000  0.50641000  0.86707000  1.0
  C  C15  1  0.06732000  0.50383000  0.13162000  1.0
  C  C16  1  0.79301000  0.51400000  0.94135000  1.0
  C  C17  1  0.20612000  0.49685000  0.06070000  1.0
  C  C18  1  0.85888000  0.51221000  0.07117000  1.0
  C  C19  1  0.13531000  0.49758000  0.93064000  1.0
  C  C20  1  0.07308000  0.13282000  0.49345000  1.0
  C  C21  1  0.93264000  0.86834000  0.49659000  1.0
  C  C22  1  0.20672000  0.05831000  0.48564000  1.0
  C  C23  1  0.79435000  0.93950000  0.50398000  1.0
  C  C24  1  0.14076000  0.92853000  0.48775000  1.0
  C  C25  1  0.86524000  0.06953000  0.50295000  1.0
  O  O26  1  0.00249000  0.67278000  0.50176000  1.0
  O  O27  1  0.66975000  0.51191000  0.67117000  1.0
  O  O28  1  0.33127000  0.32874000  0.48883000  1.0
  O  O29  1  0.99742000  0.49940000  0.32716000  1.0
  O  O30  1  0.99364000  0.32559000  0.49260000  1.0
  O  O31  1  0.33448000  0.50196000  0.32387000  1.0
  O  O32  1  0.66453000  0.67606000  0.49728000  1.0
  O  O33  1  0.00634000  0.50622000  0.67427000  1.0
  O  O34  1  0.30718000  0.55887000  0.55937000  1.0
  O  O35  1  0.69268000  0.44063000  0.44096000  1.0
  F  F36  1  0.58992000  0.52443000  0.88806000  1.0
  F  F37  1  0.40936000  0.11126000  0.47448000  1.0
