# generated using pymatgen
data_Sn2H18C8O5
_symmetry_space_group_name_H-M   'P 1'
_cell_length_a   7.61828000
_cell_length_b   11.12120000
_cell_length_c   16.34400000
_cell_angle_alpha   103.58900000
_cell_angle_beta   90.00000000
_cell_angle_gamma   90.00000000
_symmetry_Int_Tables_number   1
_chemical_formula_structural   Sn2H18C8O5
_chemical_formula_sum   'Sn8 H72 C32 O20'
_cell_volume   1345.97172767
_cell_formula_units_Z   4
loop_
 _symmetry_equiv_pos_site_id
 _symmetry_equiv_pos_as_xyz
  1  'x, y, z'
loop_
 _atom_site_type_symbol
 _atom_site_label
 _atom_site_symmetry_multiplicity
 _atom_site_fract_x
 _atom_site_fract_y
 _atom_site_fract_z
 _atom_site_occupancy
  Sn  Sn0  1  0.27401000  0.50916000  0.16029000  1.0
  Sn  Sn1  1  0.72600000  0.50915000  0.66031000  1.0
  Sn  Sn2  1  0.17386000  0.20227000  0.21408000  1.0
  Sn  Sn3  1  0.82614000  0.20226000  0.71411000  1.0
  Sn  Sn4  1  0.31041000  0.19743000  0.01913000  1.0
  Sn  Sn5  1  0.68959000  0.19743000  0.51914000  1.0
  Sn  Sn6  1  0.24429000  0.88696000  0.06410000  1.0
  Sn  Sn7  1  0.75570000  0.88693000  0.56410000  1.0
  H  H8  1  0.59046000  0.56561000  0.10494000  1.0
  H  H9  1  0.40955000  0.56561000  0.60495000  1.0
  H  H10  1  0.61407000  0.52933000  0.20633000  1.0
  H  H11  1  0.38594000  0.52933000  0.70633000  1.0
  H  H12  1  0.52962000  0.67701000  0.19884000  1.0
  H  H13  1  0.47039000  0.67700000  0.69885000  1.0
  H  H14  1  0.94485000  0.57254000  0.12402000  1.0
  H  H15  1  0.05514000  0.57255000  0.62403000  1.0
  H  H16  1  0.02263000  0.67732000  0.21764000  1.0
  H  H17  1  0.97736000  0.67732000  0.71765000  1.0
  H  H18  1  0.94789000  0.52621000  0.22256000  1.0
  H  H19  1  0.05213000  0.52623000  0.72257000  1.0
  H  H20  1  0.63514000  0.24405000  0.96300000  1.0
  H  H21  1  0.36488000  0.24406000  0.46300000  1.0
  H  H22  1  0.65197000  0.16132000  0.04409000  1.0
  H  H23  1  0.34802000  0.16133000  0.54409000  1.0
  H  H24  1  0.60677000  0.32376000  0.07133000  1.0
  H  H25  1  0.39324000  0.32377000  0.57134000  1.0
  H  H26  1  0.11064000  0.25241000  0.89609000  1.0
  H  H27  1  0.88935000  0.25240000  0.39610000  1.0
  H  H28  1  0.99083000  0.28008000  0.99230000  1.0
  H  H29  1  0.00916000  0.28007000  0.49231000  1.0
  H  H30  1  0.01560000  0.12445000  0.92954000  1.0
  H  H31  1  0.98439000  0.12445000  0.42954000  1.0
  H  H32  1  0.83073000  0.19529000  0.25553000  1.0
  H  H33  1  0.16929000  0.19530000  0.75552000  1.0
  H  H34  1  0.86031000  0.12891000  0.14542000  1.0
  H  H35  1  0.13970000  0.12893000  0.64541000  1.0
  H  H36  1  0.86135000  0.29396000  0.18398000  1.0
  H  H37  1  0.13862000  0.29397000  0.68398000  1.0
  H  H38  1  0.39071000  0.17092000  0.33932000  1.0
  H  H39  1  0.60925000  0.17092000  0.83933000  1.0
  H  H40  1  0.47357000  0.29116000  0.29255000  1.0
  H  H41  1  0.52644000  0.29115000  0.79255000  1.0
  H  H42  1  0.49937000  0.13126000  0.23995000  1.0
  H  H43  1  0.50062000  0.13126000  0.73995000  1.0
  H  H44  1  0.58288000  0.93715000  0.03792000  1.0
  H  H45  1  0.41710000  0.93714000  0.53793000  1.0
  H  H46  1  0.52491000  0.79039000  0.97154000  1.0
  H  H47  1  0.47507000  0.79038000  0.47156000  1.0
  H  H48  1  0.56927000  0.80334000  0.08134000  1.0
  H  H49  1  0.43072000  0.80333000  0.58136000  1.0
  H  H50  1  0.90122000  0.94172000  0.08814000  1.0
  H  H51  1  0.09877000  0.94173000  0.58815000  1.0
  H  H52  1  0.94628000  0.80083000  0.11952000  1.0
  H  H53  1  0.05372000  0.80085000  0.61951000  1.0
  H  H54  1  0.92749000  0.80009000  0.00992000  1.0
  H  H55  1  0.07252000  0.80011000  0.50992000  1.0
  H  H56  1  0.10460000  0.88417000  0.37317000  1.0
  H  H57  1  0.89543000  0.88418000  0.87318000  1.0
  H  H58  1  0.32349000  0.94175000  0.38127000  1.0
  H  H59  1  0.67653000  0.94175000  0.88127000  1.0
  H  H60  1  0.28380000  0.78557000  0.32706000  1.0
  H  H61  1  0.71623000  0.78558000  0.82706000  1.0
  H  H62  1  0.40676000  0.90410000  0.75778000  1.0
  H  H63  1  0.59324000  0.90408000  0.25777000  1.0
  H  H64  1  0.18222000  0.95073000  0.76303000  1.0
  H  H65  1  0.81776000  0.95071000  0.26303000  1.0
  H  H66  1  0.23532000  0.79654000  0.76701000  1.0
  H  H67  1  0.76465000  0.79653000  0.26701000  1.0
  H  H68  1  0.22775000  0.63120000  0.88274000  1.0
  H  H69  1  0.77227000  0.63118000  0.38275000  1.0
  H  H70  1  0.19550000  0.46665000  0.86375000  1.0
  H  H71  1  0.80452000  0.46664000  0.36375000  1.0
  H  H72  1  0.41122000  0.52969000  0.87454000  1.0
  H  H73  1  0.58880000  0.52968000  0.37455000  1.0
  H  H74  1  0.30425000  0.61088000  0.45984000  1.0
  H  H75  1  0.69574000  0.61087000  0.95984000  1.0
  H  H76  1  0.25810000  0.45887000  0.47436000  1.0
  H  H77  1  0.74188000  0.45886000  0.97438000  1.0
  H  H78  1  0.08326000  0.56000000  0.46660000  1.0
  H  H79  1  0.91674000  0.55999000  0.96661000  1.0
  C  C80  1  0.53585000  0.57837000  0.16828000  1.0
  C  C81  1  0.46417000  0.57836000  0.66829000  1.0
  C  C82  1  0.01415000  0.58015000  0.18362000  1.0
  C  C83  1  0.98584000  0.58015000  0.68363000  1.0
  C  C84  1  0.58518000  0.23710000  0.02440000  1.0
  C  C85  1  0.41482000  0.23710000  0.52440000  1.0
  C  C86  1  0.07798000  0.21520000  0.95045000  1.0
  C  C87  1  0.92201000  0.21519000  0.45045000  1.0
  C  C88  1  0.89650000  0.20551000  0.19806000  1.0
  C  C89  1  0.10350000  0.20551000  0.69806000  1.0
  C  C90  1  0.41385000  0.19909000  0.28058000  1.0
  C  C91  1  0.58614000  0.19909000  0.78059000  1.0
  C  C92  1  0.51446000  0.84976000  0.03507000  1.0
  C  C93  1  0.48553000  0.84975000  0.53509000  1.0
  C  C94  1  0.97040000  0.85315000  0.07176000  1.0
  C  C95  1  0.02960000  0.85315000  0.57176000  1.0
  C  C96  1  0.20877000  0.47797000  0.34915000  1.0
  C  C97  1  0.79123000  0.47795000  0.84916000  1.0
  C  C98  1  0.21028000  0.92568000  0.26077000  1.0
  C  C99  1  0.78974000  0.92568000  0.76078000  1.0
  C  C100  1  0.23056000  0.87974000  0.34008000  1.0
  C  C101  1  0.76946000  0.87974000  0.84008000  1.0
  C  C102  1  0.28591000  0.93638000  0.88035000  1.0
  C  C103  1  0.71405000  0.93637000  0.38035000  1.0
  C  C104  1  0.27913000  0.89289000  0.78597000  1.0
  C  C105  1  0.72085000  0.89287000  0.28597000  1.0
  C  C106  1  0.26849000  0.55448000  0.99028000  1.0
  C  C107  1  0.73152000  0.55447000  0.49029000  1.0
  C  C108  1  0.27506000  0.54533000  0.89700000  1.0
  C  C109  1  0.72495000  0.54532000  0.39701000  1.0
  C  C110  1  0.21560000  0.53145000  0.44328000  1.0
  C  C111  1  0.78438000  0.53144000  0.94329000  1.0
  O  O112  1  0.30690000  0.52821000  0.30260000  1.0
  O  O113  1  0.69310000  0.52817000  0.80260000  1.0
  O  O114  1  0.25402000  0.32248000  0.13801000  1.0
  O  O115  1  0.74598000  0.32246000  0.63802000  1.0
  O  O116  1  0.24940000  0.08060000  0.09659000  1.0
  O  O117  1  0.75060000  0.08059000  0.59660000  1.0
  O  O118  1  0.10805000  0.38661000  0.32191000  1.0
  O  O119  1  0.89195000  0.38659000  0.82194000  1.0
  O  O120  1  0.10995000  0.01702000  0.26177000  1.0
  O  O121  1  0.89006000  0.01703000  0.76178000  1.0
  O  O122  1  0.38285000  0.02945000  0.91204000  1.0
  O  O123  1  0.61714000  0.02945000  0.41204000  1.0
  O  O124  1  0.19144000  0.87971000  0.92401000  1.0
  O  O125  1  0.80851000  0.87969000  0.42401000  1.0
  O  O126  1  0.29982000  0.87004000  0.19605000  1.0
  O  O127  1  0.70021000  0.87003000  0.69606000  1.0
  O  O128  1  0.24419000  0.65656000  0.04258000  1.0
  O  O129  1  0.75581000  0.65656000  0.54259000  1.0
  O  O130  1  0.28778000  0.45448000  0.01673000  1.0
  O  O131  1  0.71224000  0.45448000  0.51674000  1.0
