# generated using pymatgen
data_Zn2H22C27(NO)8
_symmetry_space_group_name_H-M   'P 1'
_cell_length_a   8.84559000
_cell_length_b   18.88280000
_cell_length_c   19.81600000
_cell_angle_alpha   87.50280000
_cell_angle_beta   77.12700000
_cell_angle_gamma   89.98670000
_symmetry_Int_Tables_number   1
_chemical_formula_structural   Zn2H22C27(NO)8
_chemical_formula_sum   'Zn8 H88 C108 N32 O32'
_cell_volume   3223.45098020
_cell_formula_units_Z   4
loop_
 _symmetry_equiv_pos_site_id
 _symmetry_equiv_pos_as_xyz
  1  'x, y, z'
loop_
 _atom_site_type_symbol
 _atom_site_label
 _atom_site_symmetry_multiplicity
 _atom_site_fract_x
 _atom_site_fract_y
 _atom_site_fract_z
 _atom_site_occupancy
  Zn  Zn0  1  0.60212000  0.60151000  0.46052000  1.0
  Zn  Zn1  1  0.05497000  0.08657000  0.05986000  1.0
  Zn  Zn2  1  0.06244000  0.89841000  0.53938000  1.0
  Zn  Zn3  1  0.11461000  0.41340000  0.94015000  1.0
  Zn  Zn4  1  0.39787000  0.39849000  0.53948000  1.0
  Zn  Zn5  1  0.94503000  0.91343000  0.94015000  1.0
  Zn  Zn6  1  0.93756000  0.10159000  0.46062000  1.0
  Zn  Zn7  1  0.88539000  0.58660000  0.05986000  1.0
  H  H8  1  0.24630000  0.19616000  0.41093000  1.0
  H  H9  1  0.24247000  0.32840000  0.34257000  1.0
  H  H10  1  0.78445000  0.24765000  0.40669000  1.0
  H  H11  1  0.81690000  0.37069000  0.36390000  1.0
  H  H12  1  0.00219000  0.41159000  0.34491000  1.0
  H  H13  1  0.70788000  0.41108000  0.25746000  1.0
  H  H14  1  0.84956000  0.45331000  0.19215000  1.0
  H  H15  1  0.60890000  0.47034000  0.36474000  1.0
  H  H16  1  0.95640000  0.62499000  0.36031000  1.0
  H  H17  1  0.04183000  0.54503000  0.24310000  1.0
  H  H18  1  0.80470000  0.32284000  0.18901000  1.0
  H  H19  1  0.76827000  0.28427000  0.27423000  1.0
  H  H20  1  0.08393000  0.21428000  0.28256000  1.0
  H  H21  1  0.18434000  0.10677000  0.19435000  1.0
  H  H22  1  0.88080000  0.23691000  0.10825000  1.0
  H  H23  1  0.18410000  0.34773000  0.23932000  1.0
  H  H24  1  0.14346000  0.43739000  0.22395000  1.0
  H  H25  1  0.35876000  0.30958000  0.14060000  1.0
  H  H26  1  0.37568000  0.31875000  0.99873000  1.0
  H  H27  1  0.97988000  0.42904000  0.09930000  1.0
  H  H28  1  0.45173000  0.00440000  0.12765000  1.0
  H  H29  1  0.00784000  0.62001000  0.54277000  1.0
  H  H30  1  0.65583000  0.30361000  0.58912000  1.0
  H  H31  1  0.58360000  0.17142000  0.65747000  1.0
  H  H32  1  0.18974000  0.25233000  0.59321000  1.0
  H  H33  1  0.17952000  0.12919000  0.63602000  1.0
  H  H34  1  0.34583000  0.08834000  0.65510000  1.0
  H  H35  1  0.96432000  0.08864000  0.74236000  1.0
  H  H36  1  0.04071000  0.04661000  0.80784000  1.0
  H  H37  1  0.97276000  0.02921000  0.63535000  1.0
  H  H38  1  0.31683000  0.87499000  0.63971000  1.0
  H  H39  1  0.28475000  0.95494000  0.75692000  1.0
  H  H40  1  0.99251000  0.17697000  0.81109000  1.0
  H  H41  1  0.04087000  0.21560000  0.72589000  1.0
  H  H42  1  0.36483000  0.28561000  0.71741000  1.0
  H  H43  1  0.37709000  0.39319000  0.80552000  1.0
  H  H44  1  0.98794000  0.26301000  0.89184000  1.0
  H  H45  1  0.42221000  0.15218000  0.76055000  1.0
  H  H46  1  0.36630000  0.06251000  0.77591000  1.0
  H  H47  1  0.49863000  0.19020000  0.85909000  1.0
  H  H48  1  0.37465000  0.18101000  0.00104000  1.0
  H  H49  1  0.07849000  0.07088000  0.90075000  1.0
  H  H50  1  0.57895000  0.49551000  0.87233000  1.0
  H  H51  1  0.55127000  0.88004000  0.45714000  1.0
  H  H52  1  0.75369000  0.80384000  0.58908000  1.0
  H  H53  1  0.75753000  0.67159000  0.65743000  1.0
  H  H54  1  0.21555000  0.75235000  0.59330000  1.0
  H  H55  1  0.18311000  0.62931000  0.63610000  1.0
  H  H56  1  0.99781000  0.58840000  0.65509000  1.0
  H  H57  1  0.29212000  0.58892000  0.74254000  1.0
  H  H58  1  0.15043000  0.54669000  0.80785000  1.0
  H  H59  1  0.39110000  0.52966000  0.63527000  1.0
  H  H60  1  0.04360000  0.37501000  0.63969000  1.0
  H  H61  1  0.95817000  0.45496000  0.75690000  1.0
  H  H62  1  0.19531000  0.67716000  0.81099000  1.0
  H  H63  1  0.23173000  0.71573000  0.72577000  1.0
  H  H64  1  0.91608000  0.78572000  0.71744000  1.0
  H  H65  1  0.81567000  0.89323000  0.80565000  1.0
  H  H66  1  0.11921000  0.76308000  0.89175000  1.0
  H  H67  1  0.81591000  0.65227000  0.76068000  1.0
  H  H68  1  0.85654000  0.56261000  0.77605000  1.0
  H  H69  1  0.64125000  0.69042000  0.85940000  1.0
  H  H70  1  0.62432000  0.68126000  0.00127000  1.0
  H  H71  1  0.02013000  0.57096000  0.90070000  1.0
  H  H72  1  0.54826000  0.99560000  0.87235000  1.0
  H  H73  1  0.99216000  0.37999000  0.45723000  1.0
  H  H74  1  0.34416000  0.69639000  0.41088000  1.0
  H  H75  1  0.41640000  0.82859000  0.34253000  1.0
  H  H76  1  0.81025000  0.74768000  0.40679000  1.0
  H  H77  1  0.82048000  0.87081000  0.36398000  1.0
  H  H78  1  0.65417000  0.91166000  0.34491000  1.0
  H  H79  1  0.03568000  0.91136000  0.25764000  1.0
  H  H80  1  0.95928000  0.95339000  0.19215000  1.0
  H  H81  1  0.02724000  0.97079000  0.36465000  1.0
  H  H82  1  0.68317000  0.12501000  0.36029000  1.0
  H  H83  1  0.71525000  0.04506000  0.24308000  1.0
  H  H84  1  0.00749000  0.82303000  0.18891000  1.0
  H  H85  1  0.95913000  0.78440000  0.27411000  1.0
  H  H86  1  0.63518000  0.71439000  0.28259000  1.0
  H  H87  1  0.62292000  0.60681000  0.19448000  1.0
  H  H88  1  0.01207000  0.73699000  0.10817000  1.0
  H  H89  1  0.57780000  0.84782000  0.23945000  1.0
  H  H90  1  0.63370000  0.93748000  0.22410000  1.0
  H  H91  1  0.50137000  0.80980000  0.14091000  1.0
  H  H92  1  0.62535000  0.81898000  0.99897000  1.0
  H  H93  1  0.92151000  0.92912000  0.09925000  1.0
  H  H94  1  0.42106000  0.50449000  0.12767000  1.0
  H  H95  1  0.44873000  0.11996000  0.54285000  1.0
  C  C96  1  0.15094000  0.22493000  0.39717000  1.0
  C  C97  1  0.15144000  0.28936000  0.36235000  1.0
  C  C98  1  0.91012000  0.24826000  0.39593000  1.0
  C  C99  1  0.93612000  0.36617000  0.33346000  1.0
  C  C100  1  0.93877000  0.36961000  0.25503000  1.0
  C  C101  1  0.82728000  0.43189000  0.24568000  1.0
  C  C102  1  0.71510000  0.50165000  0.34888000  1.0
  C  C103  1  0.89677000  0.58098000  0.34398000  1.0
  C  C104  1  0.94319000  0.54091000  0.28699000  1.0
  C  C105  1  0.86083000  0.30441000  0.23084000  1.0
  C  C106  1  0.05622000  0.20321000  0.23372000  1.0
  C  C107  1  0.10701000  0.15026000  0.18929000  1.0
  C  C108  1  0.95129000  0.21559000  0.14253000  1.0
  C  C109  1  0.10916000  0.38296000  0.21617000  1.0
  C  C110  1  0.28216000  0.33383000  0.11077000  1.0
  C  C111  1  0.28954000  0.33905000  0.04095000  1.0
  C  C112  1  0.08354000  0.39681000  0.09118000  1.0
  C  C113  1  0.73447000  0.05194000  0.06877000  1.0
  C  C114  1  0.61387000  0.02731000  0.03183000  1.0
  C  C115  1  0.64288000  0.02477000  0.95915000  1.0
  C  C116  1  0.47119000  0.00256000  0.07140000  1.0
  C  C117  1  0.79116000  0.04980000  0.91070000  1.0
  C  C118  1  0.72336000  0.56600000  0.58214000  1.0
  C  C119  1  0.86041000  0.53051000  0.53681000  1.0
  C  C120  1  0.00193000  0.56680000  0.52455000  1.0
  C  C121  1  0.85901000  0.46266000  0.51030000  1.0
  C  C122  1  0.71209000  0.42272000  0.51201000  1.0
  C  C123  1  0.54672000  0.27489000  0.60285000  1.0
  C  C124  1  0.51233000  0.21048000  0.63768000  1.0
  C  C125  1  0.30464000  0.25170000  0.60400000  1.0
  C  C126  1  0.26827000  0.13377000  0.66649000  1.0
  C  C127  1  0.19254000  0.13030000  0.74490000  1.0
  C  C128  1  0.07197000  0.06796000  0.75427000  1.0
  C  C129  1  0.06327000  0.99800000  0.65120000  1.0
  C  C130  1  0.24068000  0.91895000  0.65604000  1.0
  C  C131  1  0.22988000  0.95902000  0.71305000  1.0
  C  C132  1  0.09028000  0.19543000  0.76922000  1.0
  C  C133  1  0.28833000  0.29666000  0.76624000  1.0
  C  C134  1  0.29492000  0.34963000  0.81064000  1.0
  C  C135  1  0.09259000  0.28433000  0.85751000  1.0
  C  C136  1  0.32420000  0.11695000  0.78371000  1.0
  C  C137  1  0.39232000  0.16601000  0.88903000  1.0
  C  C138  1  0.33039000  0.16074000  0.95888000  1.0
  C  C139  1  0.17410000  0.10312000  0.90878000  1.0
  C  C140  1  0.80309000  0.44809000  0.93126000  1.0
  C  C141  1  0.64556000  0.47269000  0.96818000  1.0
  C  C142  1  0.60219000  0.47529000  0.04086000  1.0
  C  C143  1  0.54236000  0.49739000  0.92859000  1.0
  C  C144  1  0.70225000  0.45026000  0.08927000  1.0
  C  C145  1  0.30542000  0.93378000  0.41794000  1.0
  C  C146  1  0.39724000  0.96933000  0.46323000  1.0
  C  C147  1  0.52685000  0.93322000  0.47539000  1.0
  C  C148  1  0.36905000  0.03715000  0.48977000  1.0
  C  C149  1  0.22355000  0.07685000  0.48810000  1.0
  C  C150  1  0.84906000  0.77507000  0.60283000  1.0
  C  C151  1  0.84856000  0.71063000  0.63765000  1.0
  C  C152  1  0.08988000  0.75174000  0.60407000  1.0
  C  C153  1  0.06388000  0.63383000  0.66654000  1.0
  C  C154  1  0.06123000  0.63039000  0.74497000  1.0
  C  C155  1  0.17271000  0.56811000  0.75432000  1.0
  C  C156  1  0.28490000  0.49835000  0.65112000  1.0
  C  C157  1  0.10323000  0.41902000  0.65602000  1.0
  C  C158  1  0.05681000  0.45908000  0.71301000  1.0
  C  C159  1  0.13918000  0.69559000  0.76916000  1.0
  C  C160  1  0.94378000  0.79679000  0.76628000  1.0
  C  C161  1  0.89299000  0.84974000  0.81071000  1.0
  C  C162  1  0.04871000  0.78441000  0.85747000  1.0
  C  C163  1  0.89084000  0.61704000  0.78383000  1.0
  C  C164  1  0.71785000  0.66617000  0.88923000  1.0
  C  C165  1  0.71047000  0.66096000  0.95905000  1.0
  C  C166  1  0.91647000  0.60319000  0.90882000  1.0
  C  C167  1  0.26552000  0.94806000  0.93122000  1.0
  C  C168  1  0.38612000  0.97269000  0.96817000  1.0
  C  C169  1  0.35712000  0.97523000  0.04085000  1.0
  C  C170  1  0.52881000  0.99744000  0.92860000  1.0
  C  C171  1  0.20884000  0.95020000  0.08930000  1.0
  C  C172  1  0.27664000  0.43401000  0.41786000  1.0
  C  C173  1  0.13959000  0.46949000  0.46319000  1.0
  C  C174  1  0.99808000  0.43320000  0.47545000  1.0
  C  C175  1  0.14099000  0.53734000  0.48969000  1.0
  C  C176  1  0.28791000  0.57729000  0.48798000  1.0
  C  C177  1  0.45327000  0.72512000  0.39715000  1.0
  C  C178  1  0.48767000  0.78952000  0.36232000  1.0
  C  C179  1  0.69536000  0.74830000  0.39600000  1.0
  C  C180  1  0.73174000  0.86623000  0.33351000  1.0
  C  C181  1  0.80746000  0.86970000  0.25510000  1.0
  C  C182  1  0.92803000  0.93204000  0.24573000  1.0
  C  C183  1  0.93673000  0.00200000  0.34880000  1.0
  C  C184  1  0.75932000  0.08105000  0.34396000  1.0
  C  C185  1  0.77012000  0.04098000  0.28695000  1.0
  C  C186  1  0.90972000  0.80457000  0.23078000  1.0
  C  C187  1  0.71167000  0.70334000  0.23376000  1.0
  C  C188  1  0.70508000  0.65037000  0.18936000  1.0
  C  C189  1  0.90742000  0.71567000  0.14249000  1.0
  C  C190  1  0.67580000  0.88305000  0.21629000  1.0
  C  C191  1  0.60768000  0.83398000  0.11097000  1.0
  C  C192  1  0.66961000  0.83926000  0.04113000  1.0
  C  C193  1  0.82589000  0.89688000  0.09122000  1.0
  C  C194  1  0.19692000  0.55192000  0.06874000  1.0
  C  C195  1  0.35445000  0.52731000  0.03182000  1.0
  C  C196  1  0.39782000  0.52471000  0.95914000  1.0
  C  C197  1  0.45765000  0.50262000  0.07141000  1.0
  C  C198  1  0.29775000  0.54975000  0.91073000  1.0
  C  C199  1  0.69457000  0.06621000  0.58206000  1.0
  C  C200  1  0.60276000  0.03066000  0.53677000  1.0
  C  C201  1  0.47315000  0.06677000  0.52461000  1.0
  C  C202  1  0.63095000  0.96285000  0.51023000  1.0
  C  C203  1  0.77645000  0.92315000  0.51190000  1.0
  N  N204  1  0.99991000  0.19992000  0.41771000  1.0
  N  N205  1  0.99783000  0.30307000  0.36145000  1.0
  N  N206  1  0.75441000  0.55635000  0.38189000  1.0
  N  N207  1  0.82720000  0.49055000  0.29121000  1.0
  N  N208  1  0.95775000  0.24458000  0.20347000  1.0
  N  N209  1  0.04033000  0.15845000  0.13273000  1.0
  N  N210  1  0.16506000  0.37822000  0.02945000  1.0
  N  N211  1  0.15094000  0.37046000  0.14189000  1.0
  N  N212  1  0.41628000  0.30000000  0.58229000  1.0
  N  N213  1  0.35785000  0.19686000  0.63851000  1.0
  N  N214  1  0.13600000  0.94340000  0.61815000  1.0
  N  N215  1  0.11774000  0.00924000  0.70884000  1.0
  N  N216  1  0.15978000  0.25529000  0.79658000  1.0
  N  N217  1  0.17187000  0.34149000  0.86722000  1.0
  N  N218  1  0.19433000  0.12164000  0.97048000  1.0
  N  N219  1  0.29198000  0.12944000  0.85800000  1.0
  N  N220  1  0.00008000  0.80008000  0.58229000  1.0
  N  N221  1  0.00217000  0.69693000  0.63855000  1.0
  N  N222  1  0.24559000  0.44365000  0.61811000  1.0
  N  N223  1  0.17280000  0.50945000  0.70879000  1.0
  N  N224  1  0.04226000  0.75542000  0.79653000  1.0
  N  N225  1  0.95968000  0.84155000  0.86727000  1.0
  N  N226  1  0.83495000  0.62178000  0.97055000  1.0
  N  N227  1  0.84906000  0.62955000  0.85811000  1.0
  N  N228  1  0.58372000  0.70000000  0.41771000  1.0
  N  N229  1  0.64215000  0.80314000  0.36149000  1.0
  N  N230  1  0.86400000  0.05660000  0.38185000  1.0
  N  N231  1  0.88226000  0.99076000  0.29116000  1.0
  N  N232  1  0.84022000  0.74471000  0.20342000  1.0
  N  N233  1  0.82814000  0.65851000  0.13278000  1.0
  N  N234  1  0.80566000  0.87836000  0.02952000  1.0
  N  N235  1  0.70802000  0.87056000  0.14201000  1.0
  O  O236  1  0.70661000  0.05184000  0.13344000  1.0
  O  O237  1  0.86569000  0.07023000  0.02741000  1.0
  O  O238  1  0.80251000  0.11116000  0.88450000  1.0
  O  O239  1  0.89775000  0.00171000  0.89305000  1.0
  O  O240  1  0.63645000  0.60731000  0.55321000  1.0
  O  O241  1  0.71065000  0.56005000  0.64616000  1.0
  O  O242  1  0.58634000  0.45121000  0.54630000  1.0
  O  O243  1  0.71532000  0.36671000  0.47996000  1.0
  O  O244  1  0.83973000  0.44818000  0.86659000  1.0
  O  O245  1  0.89315000  0.42996000  0.97261000  1.0
  O  O246  1  0.68771000  0.38886000  0.11541000  1.0
  O  O247  1  0.79106000  0.49837000  0.10697000  1.0
  O  O248  1  0.19011000  0.89224000  0.44691000  1.0
  O  O249  1  0.35635000  0.93983000  0.35391000  1.0
  O  O250  1  0.13229000  0.04830000  0.45375000  1.0
  O  O251  1  0.19417000  0.13279000  0.52023000  1.0
  O  O252  1  0.29338000  0.94816000  0.86656000  1.0
  O  O253  1  0.13431000  0.92977000  0.97259000  1.0
  O  O254  1  0.19750000  0.88884000  0.11550000  1.0
  O  O255  1  0.10225000  0.99828000  0.10695000  1.0
  O  O256  1  0.36355000  0.39270000  0.44679000  1.0
  O  O257  1  0.28934000  0.43995000  0.35384000  1.0
  O  O258  1  0.41366000  0.54880000  0.45369000  1.0
  O  O259  1  0.28468000  0.63329000  0.52004000  1.0
  O  O260  1  0.16028000  0.55183000  0.13341000  1.0
  O  O261  1  0.10686000  0.57005000  0.02739000  1.0
  O  O262  1  0.31231000  0.61114000  0.88458000  1.0
  O  O263  1  0.20895000  0.50164000  0.89303000  1.0
  O  O264  1  0.80988000  0.10775000  0.55309000  1.0
  O  O265  1  0.64363000  0.06017000  0.64609000  1.0
  O  O266  1  0.86772000  0.95170000  0.54625000  1.0
  O  O267  1  0.80583000  0.86721000  0.47977000  1.0
