# generated using pymatgen
data_TlH4C7S2NO2
_symmetry_space_group_name_H-M   'P 1'
_cell_length_a   7.80150000
_cell_length_b   10.72840000
_cell_length_c   11.21850000
_cell_angle_alpha   90.00000000
_cell_angle_beta   104.95500000
_cell_angle_gamma   89.99940000
_symmetry_Int_Tables_number   1
_chemical_formula_structural   TlH4C7S2NO2
_chemical_formula_sum   'Tl4 H16 C28 S8 N4 O8'
_cell_volume   907.15791258
_cell_formula_units_Z   4
loop_
 _symmetry_equiv_pos_site_id
 _symmetry_equiv_pos_as_xyz
  1  'x, y, z'
loop_
 _atom_site_type_symbol
 _atom_site_label
 _atom_site_symmetry_multiplicity
 _atom_site_fract_x
 _atom_site_fract_y
 _atom_site_fract_z
 _atom_site_occupancy
  Tl  Tl0  1  0.67254000  0.36956000  0.62994000  1.0
  Tl  Tl1  1  0.17254000  0.13044000  0.62994000  1.0
  Tl  Tl2  1  0.32746000  0.63045000  0.37006000  1.0
  Tl  Tl3  1  0.82746000  0.86956000  0.37006000  1.0
  H  H4  1  0.84576000  0.50551000  0.00447000  1.0
  H  H5  1  0.34576000  0.99449000  0.00447000  1.0
  H  H6  1  0.15424000  0.49449000  0.99553000  1.0
  H  H7  1  0.65424000  0.00550000  0.99553000  1.0
  H  H8  1  0.92037000  0.31124000  0.90268000  1.0
  H  H9  1  0.42038000  0.18876000  0.90268000  1.0
  H  H10  1  0.07963000  0.68876000  0.09732000  1.0
  H  H11  1  0.57963000  0.81124000  0.09732000  1.0
  H  H12  1  0.93583000  0.10899000  0.00657000  1.0
  H  H13  1  0.43583000  0.39101000  0.00656000  1.0
  H  H14  1  0.06417000  0.89101000  0.99344000  1.0
  H  H15  1  0.56418000  0.60898000  0.99344000  1.0
  H  H16  1  0.87719000  0.09119000  0.21532000  1.0
  H  H17  1  0.37718000  0.40881000  0.21532000  1.0
  H  H18  1  0.12282000  0.90881000  0.78468000  1.0
  H  H19  1  0.62282000  0.59119000  0.78468000  1.0
  C  C20  1  0.82594000  0.40315000  0.16666000  1.0
  C  C21  1  0.32594000  0.09685000  0.16666000  1.0
  C  C22  1  0.17406000  0.59685000  0.83334000  1.0
  C  C23  1  0.67406000  0.90315000  0.83334000  1.0
  C  C24  1  0.85395000  0.41532000  0.05007000  1.0
  C  C25  1  0.35395000  0.08468000  0.05008000  1.0
  C  C26  1  0.14605000  0.58468000  0.94993000  1.0
  C  C27  1  0.64605000  0.91531000  0.94992000  1.0
  C  C28  1  0.89378000  0.30669000  0.99336000  1.0
  C  C29  1  0.39378000  0.19331000  0.99337000  1.0
  C  C30  1  0.10622000  0.69331000  0.00664000  1.0
  C  C31  1  0.60622000  0.80668000  0.00664000  1.0
  C  C32  1  0.90230000  0.19126000  0.05260000  1.0
  C  C33  1  0.40230000  0.30874000  0.05259000  1.0
  C  C34  1  0.09770000  0.80874000  0.94741000  1.0
  C  C35  1  0.59771000  0.69125000  0.94740000  1.0
  C  C36  1  0.86982000  0.18094000  0.16904000  1.0
  C  C37  1  0.36982000  0.31906000  0.16904000  1.0
  C  C38  1  0.13018000  0.81906000  0.83096000  1.0
  C  C39  1  0.63018000  0.68094000  0.83096000  1.0
  C  C40  1  0.83215000  0.28854000  0.22678000  1.0
  C  C41  1  0.33215000  0.21146000  0.22678000  1.0
  C  C42  1  0.16785000  0.71146000  0.77322000  1.0
  C  C43  1  0.66785000  0.78854000  0.77321000  1.0
  C  C44  1  0.79242000  0.30293000  0.34921000  1.0
  C  C45  1  0.29242000  0.19707000  0.34921000  1.0
  C  C46  1  0.20758000  0.69707000  0.65079000  1.0
  C  C47  1  0.70758000  0.80293000  0.65079000  1.0
  S  S48  1  0.77983000  0.51778000  0.26816000  1.0
  S  S49  1  0.27983000  0.98222000  0.26817000  1.0
  S  S50  1  0.22017000  0.48222000  0.73184000  1.0
  S  S51  1  0.72016000  0.01778000  0.73183000  1.0
  S  S52  1  0.77235000  0.17936000  0.43819000  1.0
  S  S53  1  0.27235000  0.32065000  0.43820000  1.0
  S  S54  1  0.22764000  0.82065000  0.56181000  1.0
  S  S55  1  0.72764000  0.67935000  0.56180000  1.0
  N  N56  1  0.76444000  0.42058000  0.37876000  1.0
  N  N57  1  0.26444000  0.07942000  0.37876000  1.0
  N  N58  1  0.23556000  0.57942000  0.62124000  1.0
  N  N59  1  0.73555000  0.92058000  0.62124000  1.0
  O  O60  1  0.60956000  0.57882000  0.21742000  1.0
  O  O61  1  0.10956000  0.92119000  0.21742000  1.0
  O  O62  1  0.39044000  0.42118000  0.78258000  1.0
  O  O63  1  0.89044000  0.07881000  0.78258000  1.0
  O  O64  1  0.92982000  0.60258000  0.30760000  1.0
  O  O65  1  0.42982000  0.89742000  0.30760000  1.0
  O  O66  1  0.07018000  0.39742000  0.69240000  1.0
  O  O67  1  0.57018000  0.10258000  0.69240000  1.0
