# generated using pymatgen
data_CdH10C10SN2O5
_symmetry_space_group_name_H-M   'P 1'
_cell_length_a   7.04343000
_cell_length_b   11.62480000
_cell_length_c   14.97170000
_cell_angle_alpha   90.00000000
_cell_angle_beta   97.33840000
_cell_angle_gamma   90.00000000
_symmetry_Int_Tables_number   1
_chemical_formula_structural   CdH10C10SN2O5
_chemical_formula_sum   'Cd4 H40 C40 S4 N8 O20'
_cell_volume   1215.81887158
_cell_formula_units_Z   4
loop_
 _symmetry_equiv_pos_site_id
 _symmetry_equiv_pos_as_xyz
  1  'x, y, z'
loop_
 _atom_site_type_symbol
 _atom_site_label
 _atom_site_symmetry_multiplicity
 _atom_site_fract_x
 _atom_site_fract_y
 _atom_site_fract_z
 _atom_site_occupancy
  Cd  Cd0  1  0.34638000  0.74026000  0.63637000  1.0
  Cd  Cd1  1  0.15362000  0.24025000  0.36364000  1.0
  Cd  Cd2  1  0.65362000  0.25974000  0.36364000  1.0
  Cd  Cd3  1  0.84638000  0.75974000  0.63636000  1.0
  H  H4  1  0.93980000  0.39760000  0.52884000  1.0
  H  H5  1  0.56020000  0.89761000  0.47116000  1.0
  H  H6  1  0.06020000  0.60239000  0.47116000  1.0
  H  H7  1  0.43980000  0.10240000  0.52884000  1.0
  H  H8  1  0.20142000  0.13993000  0.77961000  1.0
  H  H9  1  0.29858000  0.63993000  0.22039000  1.0
  H  H10  1  0.79858000  0.86007000  0.22039000  1.0
  H  H11  1  0.70142000  0.36007000  0.77961000  1.0
  H  H12  1  0.06724000  0.05570000  0.63173000  1.0
  H  H13  1  0.43275000  0.55570000  0.36827000  1.0
  H  H14  1  0.93276000  0.94430000  0.36827000  1.0
  H  H15  1  0.56724000  0.44430000  0.63173000  1.0
  H  H16  1  0.49333000  0.54508000  0.78698000  1.0
  H  H17  1  0.00667000  0.04508000  0.21303000  1.0
  H  H18  1  0.50667000  0.45492000  0.21303000  1.0
  H  H19  1  0.99334000  0.95492000  0.78697000  1.0
  H  H20  1  0.58996000  0.44004000  0.90601000  1.0
  H  H21  1  0.91004000  0.94004000  0.09399000  1.0
  H  H22  1  0.41004000  0.55996000  0.09399000  1.0
  H  H23  1  0.08996000  0.05996000  0.90601000  1.0
  H  H24  1  0.71776000  0.51109000  0.00131000  1.0
  H  H25  1  0.78225000  0.01109000  0.99869000  1.0
  H  H26  1  0.28225000  0.48891000  0.99869000  1.0
  H  H27  1  0.21775000  0.98891000  0.00131000  1.0
  H  H28  1  0.84593000  0.43790000  0.92272000  1.0
  H  H29  1  0.65408000  0.93791000  0.07728000  1.0
  H  H30  1  0.15407000  0.56210000  0.07728000  1.0
  H  H31  1  0.34592000  0.06210000  0.92272000  1.0
  H  H32  1  0.00838000  0.65145000  0.88850000  1.0
  H  H33  1  0.49163000  0.15145000  0.11150000  1.0
  H  H34  1  0.99162000  0.34855000  0.11150000  1.0
  H  H35  1  0.50838000  0.84855000  0.88850000  1.0
  H  H36  1  0.88110000  0.68830000  0.98133000  1.0
  H  H37  1  0.61890000  0.18830000  0.01867000  1.0
  H  H38  1  0.11890000  0.31170000  0.01866000  1.0
  H  H39  1  0.38110000  0.81170000  0.98133000  1.0
  H  H40  1  0.83153000  0.76213000  0.87578000  1.0
  H  H41  1  0.66848000  0.26213000  0.12422000  1.0
  H  H42  1  0.16847000  0.23787000  0.12422000  1.0
  H  H43  1  0.33153000  0.73787000  0.87578000  1.0
  C  C44  1  0.99516000  0.22104000  0.57036000  1.0
  C  C45  1  0.50484000  0.72104000  0.42964000  1.0
  C  C46  1  0.00484000  0.77895000  0.42964000  1.0
  C  C47  1  0.49515000  0.27896000  0.57036000  1.0
  C  C48  1  0.99614000  0.34083000  0.58392000  1.0
  C  C49  1  0.50386000  0.84083000  0.41608000  1.0
  C  C50  1  0.00386000  0.65917000  0.41608000  1.0
  C  C51  1  0.49614000  0.15917000  0.58392000  1.0
  C  C52  1  0.06908000  0.38872000  0.66655000  1.0
  C  C53  1  0.43092000  0.88872000  0.33345000  1.0
  C  C54  1  0.93092000  0.61128000  0.33345000  1.0
  C  C55  1  0.56908000  0.11128000  0.66655000  1.0
  C  C56  1  0.14148000  0.31400000  0.73671000  1.0
  C  C57  1  0.35852000  0.81400000  0.26329000  1.0
  C  C58  1  0.85852000  0.68599000  0.26329000  1.0
  C  C59  1  0.64148000  0.18600000  0.73671000  1.0
  C  C60  1  0.14125000  0.19453000  0.72430000  1.0
  C  C61  1  0.35875000  0.69453000  0.27571000  1.0
  C  C62  1  0.85875000  0.80547000  0.27571000  1.0
  C  C63  1  0.64125000  0.30547000  0.72429000  1.0
  C  C64  1  0.06722000  0.14829000  0.64234000  1.0
  C  C65  1  0.43278000  0.64829000  0.35766000  1.0
  C  C66  1  0.93278000  0.85171000  0.35766000  1.0
  C  C67  1  0.56721000  0.35171000  0.64234000  1.0
  C  C68  1  0.07881000  0.51854000  0.67242000  1.0
  C  C69  1  0.42119000  0.01854000  0.32758000  1.0
  C  C70  1  0.92119000  0.48145000  0.32758000  1.0
  C  C71  1  0.57882000  0.98146000  0.67242000  1.0
  C  C72  1  0.60204000  0.61260000  0.80289000  1.0
  C  C73  1  0.89796000  0.11260000  0.19711000  1.0
  C  C74  1  0.39796000  0.38740000  0.19711000  1.0
  C  C75  1  0.10204000  0.88740000  0.80289000  1.0
  C  C76  1  0.71847000  0.49002000  0.92988000  1.0
  C  C77  1  0.78153000  0.99002000  0.07012000  1.0
  C  C78  1  0.28153000  0.50998000  0.07012000  1.0
  C  C79  1  0.21847000  0.00998000  0.92988000  1.0
  C  C80  1  0.87048000  0.67948000  0.90794000  1.0
  C  C81  1  0.62952000  0.17949000  0.09206000  1.0
  C  C82  1  0.12952000  0.32051000  0.09206000  1.0
  C  C83  1  0.37048000  0.82052000  0.90794000  1.0
  S  S84  1  0.91806000  0.15343000  0.46789000  1.0
  S  S85  1  0.58194000  0.65343000  0.53211000  1.0
  S  S86  1  0.08194000  0.84657000  0.53211000  1.0
  S  S87  1  0.41806000  0.34657000  0.46789000  1.0
  N  N88  1  0.21712000  0.35851000  0.82363000  1.0
  N  N89  1  0.28288000  0.85851000  0.17637000  1.0
  N  N90  1  0.78288000  0.64149000  0.17637000  1.0
  N  N91  1  0.71712000  0.14149000  0.82363000  1.0
  N  N92  1  0.72199000  0.59587000  0.87792000  1.0
  N  N93  1  0.77802000  0.09587000  0.12208000  1.0
  N  N94  1  0.27801000  0.40413000  0.12208000  1.0
  N  N95  1  0.22199000  0.90413000  0.87792000  1.0
  O  O96  1  0.18188000  0.46096000  0.84185000  1.0
  O  O97  1  0.31811000  0.96096000  0.15815000  1.0
  O  O98  1  0.81811000  0.53904000  0.15815000  1.0
  O  O99  1  0.68189000  0.03905000  0.84185000  1.0
  O  O100  1  0.31586000  0.29392000  0.87823000  1.0
  O  O101  1  0.18415000  0.79392000  0.12177000  1.0
  O  O102  1  0.68414000  0.70608000  0.12177000  1.0
  O  O103  1  0.81586000  0.20608000  0.87823000  1.0
  O  O104  1  0.92222000  0.57073000  0.67495000  1.0
  O  O105  1  0.57778000  0.07073000  0.32505000  1.0
  O  O106  1  0.07778000  0.42927000  0.32505000  1.0
  O  O107  1  0.42222000  0.92927000  0.67495000  1.0
  O  O108  1  0.24316000  0.56097000  0.66717000  1.0
  O  O109  1  0.25684000  0.06097000  0.33283000  1.0
  O  O110  1  0.75683000  0.43903000  0.33283000  1.0
  O  O111  1  0.74317000  0.93903000  0.66717000  1.0
  O  O112  1  0.60424000  0.70038000  0.75320000  1.0
  O  O113  1  0.89576000  0.20038000  0.24680000  1.0
  O  O114  1  0.39576000  0.29962000  0.24680000  1.0
  O  O115  1  0.10424000  0.79962000  0.75320000  1.0
