# generated using pymatgen
data_CsH4C6S2NO4
_symmetry_space_group_name_H-M   'P 1'
_cell_length_a   5.86557000
_cell_length_b   8.31244000
_cell_length_c   11.01830000
_cell_angle_alpha   89.99880000
_cell_angle_beta   74.61300000
_cell_angle_gamma   89.99870000
_symmetry_Int_Tables_number   1
_chemical_formula_structural   CsH4C6S2NO4
_chemical_formula_sum   'Cs2 H8 C12 S4 N2 O8'
_cell_volume   517.96507916
_cell_formula_units_Z   2
loop_
 _symmetry_equiv_pos_site_id
 _symmetry_equiv_pos_as_xyz
  1  'x, y, z'
loop_
 _atom_site_type_symbol
 _atom_site_label
 _atom_site_symmetry_multiplicity
 _atom_site_fract_x
 _atom_site_fract_y
 _atom_site_fract_z
 _atom_site_occupancy
  Cs  Cs0  1  0.98848000  0.75000000  0.02295000  1.0
  Cs  Cs1  1  0.01152000  0.25000000  0.97705000  1.0
  H  H2  1  0.73015000  0.44854000  0.53993000  1.0
  H  H3  1  0.26985000  0.94853000  0.46006000  1.0
  H  H4  1  0.73017000  0.05147000  0.53994000  1.0
  H  H5  1  0.26984000  0.55146000  0.46007000  1.0
  H  H6  1  0.83181000  0.60017000  0.33733000  1.0
  H  H7  1  0.16818000  0.10016000  0.66267000  1.0
  H  H8  1  0.83182000  0.89985000  0.33733000  1.0
  H  H9  1  0.16819000  0.39984000  0.66267000  1.0
  C  C10  1  0.67377000  0.66628000  0.65141000  1.0
  C  C11  1  0.32623000  0.16627000  0.34859000  1.0
  C  C12  1  0.67377000  0.83373000  0.65142000  1.0
  C  C13  1  0.32622000  0.33372000  0.34859000  1.0
  C  C14  1  0.73026000  0.57958000  0.53932000  1.0
  C  C15  1  0.26971000  0.07958000  0.46068000  1.0
  C  C16  1  0.73029000  0.92042000  0.53932000  1.0
  C  C17  1  0.26973000  0.42042000  0.46069000  1.0
  C  C18  1  0.78709000  0.66570000  0.42616000  1.0
  C  C19  1  0.21294000  0.16569000  0.57384000  1.0
  C  C20  1  0.78708000  0.83432000  0.42616000  1.0
  C  C21  1  0.21291000  0.33431000  0.57384000  1.0
  S  S22  1  0.59585000  0.58632000  0.80698000  1.0
  S  S23  1  0.40414000  0.08632000  0.19302000  1.0
  S  S24  1  0.59585000  0.91368000  0.80699000  1.0
  S  S25  1  0.40415000  0.41368000  0.19302000  1.0
  N  N26  1  0.55653000  0.74999000  0.88632000  1.0
  N  N27  1  0.44347000  0.25000000  0.11368000  1.0
  O  O28  1  0.37609000  0.49572000  0.82694000  1.0
  O  O29  1  0.20489000  0.99525000  0.17284000  1.0
  O  O30  1  0.79513000  0.49524000  0.82715000  1.0
  O  O31  1  0.37607000  0.00428000  0.82695000  1.0
  O  O32  1  0.62391000  0.50428000  0.17306000  1.0
  O  O33  1  0.79511000  0.00475000  0.82716000  1.0
  O  O34  1  0.20488000  0.50476000  0.17284000  1.0
  O  O35  1  0.62392000  0.99571000  0.17305000  1.0
