# generated using pymatgen
data_ZnH6C11NO4
_symmetry_space_group_name_H-M   'P 1'
_cell_length_a   9.74360000
_cell_length_b   11.05340000
_cell_length_c   11.96100000
_cell_angle_alpha   89.85320000
_cell_angle_beta   89.64220000
_cell_angle_gamma   89.41090000
_symmetry_Int_Tables_number   1
_chemical_formula_structural   ZnH6C11NO4
_chemical_formula_sum   'Zn2 H12 C22 N2 O8'
_cell_volume   1288.10137666
_cell_formula_units_Z   2
loop_
 _symmetry_equiv_pos_site_id
 _symmetry_equiv_pos_as_xyz
  1  'x, y, z'
loop_
 _atom_site_type_symbol
 _atom_site_label
 _atom_site_symmetry_multiplicity
 _atom_site_fract_x
 _atom_site_fract_y
 _atom_site_fract_z
 _atom_site_occupancy
  Zn  Zn0  1  0.36279000  0.49919000  0.50255000  1.0
  Zn  Zn1  1  0.64827000  0.49619000  0.49962000  1.0
  H  H2  1  0.12929000  0.70136000  0.68723000  1.0
  H  H3  1  0.86868000  0.70056000  0.68512000  1.0
  H  H4  1  0.72625000  0.10649000  0.47288000  1.0
  H  H5  1  0.17785000  0.11121000  0.45197000  1.0
  H  H6  1  0.20145000  0.89736000  0.61698000  1.0
  H  H7  1  0.17480000  0.88369000  0.47001000  1.0
  H  H8  1  0.13905000  0.40863000  0.34845000  1.0
  H  H9  1  0.13093000  0.56016000  0.75985000  1.0
  H  H10  1  0.72518000  0.88160000  0.48331000  1.0
  H  H11  1  0.86889000  0.55961000  0.75830000  1.0
  H  H12  1  0.19925000  0.12391000  0.59936000  1.0
  H  H13  1  0.87984000  0.40674000  0.34742000  1.0
  C  C14  1  0.50767000  0.73282000  0.51111000  1.0
  C  C15  1  0.50680000  0.86761000  0.50711000  1.0
  C  C16  1  0.62937000  0.93275000  0.49123000  1.0
  C  C17  1  0.62996000  0.05872000  0.48496000  1.0
  C  C18  1  0.50787000  0.12801000  0.49391000  1.0
  C  C19  1  0.38729000  0.06301000  0.50891000  1.0
  C  C20  1  0.23314000  0.07438000  0.52448000  1.0
  C  C21  1  0.23268000  0.93169000  0.53440000  1.0
  C  C22  1  0.93177000  0.54507000  0.58138000  1.0
  C  C23  1  0.93607000  0.44683000  0.41625000  1.0
  C  C24  1  0.07923000  0.44773000  0.41687000  1.0
  C  C25  1  0.50295000  0.48768000  0.72171000  1.0
  C  C26  1  0.07489000  0.54579000  0.58214000  1.0
  C  C27  1  0.08194000  0.61186000  0.69235000  1.0
  C  C28  1  0.91865000  0.61135000  0.69126000  1.0
  C  C29  1  0.50970000  0.26279000  0.49076000  1.0
  C  C30  1  0.50291000  0.50804000  0.28076000  1.0
  C  C31  1  0.50439000  0.49142000  0.84259000  1.0
  C  C32  1  0.50394000  0.49687000  0.94480000  1.0
  C  C33  1  0.50336000  0.50218000  0.05760000  1.0
  C  C34  1  0.50281000  0.50634000  0.15985000  1.0
  C  C35  1  0.38677000  0.93677000  0.51597000  1.0
  N  N36  1  0.85909000  0.49641000  0.49987000  1.0
  N  N37  1  0.15186000  0.49810000  0.50128000  1.0
  O  O38  1  0.39098000  0.68130000  0.51073000  1.0
  O  O39  1  0.62396000  0.67886000  0.51357000  1.0
  O  O40  1  0.38516000  0.49121000  0.67629000  1.0
  O  O41  1  0.61928000  0.48204000  0.67286000  1.0
  O  O42  1  0.39343000  0.31690000  0.49555000  1.0
  O  O43  1  0.62617000  0.31413000  0.48500000  1.0
  O  O44  1  0.38593000  0.50608000  0.32872000  1.0
  O  O45  1  0.62011000  0.51085000  0.32708000  1.0
