# generated using pymatgen
data_MnH8(C3O4)2
_symmetry_space_group_name_H-M   'P 1'
_cell_length_a   6.04607000
_cell_length_b   10.42650000
_cell_length_c   13.40080000
_cell_angle_alpha   90.00000000
_cell_angle_beta   90.00000000
_cell_angle_gamma   89.99980000
_symmetry_Int_Tables_number   1
_chemical_formula_structural   MnH8(C3O4)2
_chemical_formula_sum   'Mn4 H32 C24 O32'
_cell_volume   844.77770613
_cell_formula_units_Z   4
loop_
 _symmetry_equiv_pos_site_id
 _symmetry_equiv_pos_as_xyz
  1  'x, y, z'
loop_
 _atom_site_type_symbol
 _atom_site_label
 _atom_site_symmetry_multiplicity
 _atom_site_fract_x
 _atom_site_fract_y
 _atom_site_fract_z
 _atom_site_occupancy
  Mn  Mn0  1  0.09317000  0.83369000  0.44964000  1.0
  Mn  Mn1  1  0.59317000  0.66631000  0.55035000  1.0
  Mn  Mn2  1  0.90683000  0.33369000  0.05035000  1.0
  Mn  Mn3  1  0.40683000  0.16631000  0.94965000  1.0
  H  H4  1  0.02345000  0.08459000  0.36014000  1.0
  H  H5  1  0.52345000  0.41541000  0.63986000  1.0
  H  H6  1  0.97655000  0.58459000  0.13986000  1.0
  H  H7  1  0.47655000  0.91541000  0.86014000  1.0
  H  H8  1  0.61574000  0.19919000  0.55493000  1.0
  H  H9  1  0.11573000  0.30081000  0.44507000  1.0
  H  H10  1  0.38427000  0.69919000  0.94507000  1.0
  H  H11  1  0.88427000  0.80081000  0.05493000  1.0
  H  H12  1  0.28528000  0.89406000  0.62721000  1.0
  H  H13  1  0.78527000  0.60594000  0.37279000  1.0
  H  H14  1  0.71473000  0.39406000  0.87279000  1.0
  H  H15  1  0.21473000  0.10594000  0.12721000  1.0
  H  H16  1  0.17169000  0.02519000  0.58818000  1.0
  H  H17  1  0.67169000  0.47481000  0.41182000  1.0
  H  H18  1  0.82831000  0.52519000  0.91182000  1.0
  H  H19  1  0.32831000  0.97481000  0.08818000  1.0
  H  H20  1  0.60631000  0.89996000  0.19990000  1.0
  H  H21  1  0.10631000  0.60004000  0.80010000  1.0
  H  H22  1  0.39370000  0.39996000  0.30010000  1.0
  H  H23  1  0.89369000  0.10004000  0.69990000  1.0
  H  H24  1  0.86448000  0.97496000  0.18564000  1.0
  H  H25  1  0.36448000  0.52504000  0.81436000  1.0
  H  H26  1  0.13552000  0.47496000  0.31436000  1.0
  H  H27  1  0.63552000  0.02504000  0.68564000  1.0
  H  H28  1  0.70013000  0.15912000  0.25713000  1.0
  H  H29  1  0.20013000  0.34088000  0.74287000  1.0
  H  H30  1  0.29987000  0.65912000  0.24287000  1.0
  H  H31  1  0.79986000  0.84088000  0.75713000  1.0
  H  H32  1  0.45237000  0.08810000  0.30050000  1.0
  H  H33  1  0.95237000  0.41190000  0.69950000  1.0
  H  H34  1  0.54763000  0.58810000  0.19950000  1.0
  H  H35  1  0.04763000  0.91190000  0.80050000  1.0
  C  C36  1  0.87668000  0.78063000  0.23682000  1.0
  C  C37  1  0.37668000  0.71937000  0.76318000  1.0
  C  C38  1  0.12332000  0.28063000  0.26318000  1.0
  C  C39  1  0.62332000  0.21937000  0.73682000  1.0
  C  C40  1  0.76880000  0.91199000  0.23549000  1.0
  C  C41  1  0.26879000  0.58801000  0.76451000  1.0
  C  C42  1  0.23121000  0.41199000  0.26451000  1.0
  C  C43  1  0.73120000  0.08801000  0.73549000  1.0
  C  C44  1  0.74322000  0.97937000  0.33681000  1.0
  C  C45  1  0.24322000  0.52063000  0.66319000  1.0
  C  C46  1  0.25678000  0.47937000  0.16319000  1.0
  C  C47  1  0.75678000  0.02063000  0.83681000  1.0
  C  C48  1  0.60683000  0.89214000  0.40725000  1.0
  C  C49  1  0.10683000  0.60786000  0.59275000  1.0
  C  C50  1  0.39317000  0.39214000  0.09275000  1.0
  C  C51  1  0.89317000  0.10786000  0.90725000  1.0
  C  C52  1  0.62535000  0.10799000  0.32013000  1.0
  C  C53  1  0.12535000  0.39201000  0.67987000  1.0
  C  C54  1  0.37465000  0.60799000  0.17987000  1.0
  C  C55  1  0.87465000  0.89201000  0.82013000  1.0
  C  C56  1  0.62603000  0.19650000  0.40922000  1.0
  C  C57  1  0.12603000  0.30349000  0.59078000  1.0
  C  C58  1  0.37397000  0.69651000  0.09078000  1.0
  C  C59  1  0.87397000  0.80349000  0.90922000  1.0
  O  O60  1  0.95682000  0.99840000  0.38018000  1.0
  O  O61  1  0.45682000  0.50160000  0.61982000  1.0
  O  O62  1  0.04318000  0.49840000  0.11982000  1.0
  O  O63  1  0.54318000  0.00160000  0.88018000  1.0
  O  O64  1  0.95487000  0.73132000  0.31645000  1.0
  O  O65  1  0.45487000  0.76868000  0.68355000  1.0
  O  O66  1  0.04513000  0.23132000  0.18355000  1.0
  O  O67  1  0.54513000  0.26868000  0.81645000  1.0
  O  O68  1  0.87807000  0.72064000  0.15350000  1.0
  O  O69  1  0.37807000  0.77936000  0.84650000  1.0
  O  O70  1  0.12193000  0.22064000  0.34650000  1.0
  O  O71  1  0.62193000  0.27936000  0.65350000  1.0
  O  O72  1  0.70834000  0.83822000  0.48020000  1.0
  O  O73  1  0.20834000  0.66178000  0.51980000  1.0
  O  O74  1  0.29166000  0.33822000  0.01980000  1.0
  O  O75  1  0.79166000  0.16178000  0.98020000  1.0
  O  O76  1  0.40687000  0.87503000  0.38448000  1.0
  O  O77  1  0.90687000  0.62497000  0.61553000  1.0
  O  O78  1  0.59313000  0.37503000  0.11553000  1.0
  O  O79  1  0.09313000  0.12498000  0.88447000  1.0
  O  O80  1  0.60497000  0.13696000  0.49573000  1.0
  O  O81  1  0.10496000  0.36304000  0.50427000  1.0
  O  O82  1  0.39504000  0.63696000  0.00427000  1.0
  O  O83  1  0.89504000  0.86304000  0.99573000  1.0
  O  O84  1  0.64350000  0.31398000  0.40005000  1.0
  O  O85  1  0.14351000  0.18603000  0.59995000  1.0
  O  O86  1  0.35649000  0.81397000  0.09996000  1.0
  O  O87  1  0.85649000  0.68602000  0.90004000  1.0
  O  O88  1  0.16244000  0.93037000  0.58800000  1.0
  O  O89  1  0.66244000  0.56963000  0.41200000  1.0
  O  O90  1  0.83756000  0.43037000  0.91200000  1.0
  O  O91  1  0.33756000  0.06964000  0.08800000  1.0
