# generated using pymatgen
data_TbH12C12N3O11
_symmetry_space_group_name_H-M   'P 1'
_cell_length_a   7.85406000
_cell_length_b   10.29600000
_cell_length_c   10.29820000
_cell_angle_alpha   85.25930000
_cell_angle_beta   73.35560000
_cell_angle_gamma   82.22200000
_symmetry_Int_Tables_number   1
_chemical_formula_structural   TbH12C12N3O11
_chemical_formula_sum   'Tb2 H24 C24 N6 O22'
_cell_volume   789.69019330
_cell_formula_units_Z   2
loop_
 _symmetry_equiv_pos_site_id
 _symmetry_equiv_pos_as_xyz
  1  'x, y, z'
loop_
 _atom_site_type_symbol
 _atom_site_label
 _atom_site_symmetry_multiplicity
 _atom_site_fract_x
 _atom_site_fract_y
 _atom_site_fract_z
 _atom_site_occupancy
  Tb  Tb0  1  0.71208000  0.22250000  0.02766000  1.0
  Tb  Tb1  1  0.28793000  0.77750000  0.97234000  1.0
  H  H2  1  0.99262000  0.41727000  0.94749000  1.0
  H  H3  1  0.00738000  0.58270000  0.05250000  1.0
  H  H4  1  0.00394000  0.30907000  0.06490000  1.0
  H  H5  1  0.99606000  0.69092000  0.93510000  1.0
  H  H6  1  0.10167000  0.09097000  0.01685000  1.0
  H  H7  1  0.89833000  0.90903000  0.98314000  1.0
  H  H8  1  0.97721000  0.08132000  0.16744000  1.0
  H  H9  1  0.02279000  0.91867000  0.83255000  1.0
  H  H10  1  0.78066000  0.36816000  0.69306000  1.0
  H  H11  1  0.21933000  0.63184000  0.30694000  1.0
  H  H12  1  0.18894000  0.01724000  0.53400000  1.0
  H  H13  1  0.81106000  0.98277000  0.46600000  1.0
  H  H14  1  0.70775000  0.09147000  0.28792000  1.0
  H  H15  1  0.29224000  0.90853000  0.71209000  1.0
  H  H16  1  0.56738000  0.22119000  0.34307000  1.0
  H  H17  1  0.43262000  0.77881000  0.65692000  1.0
  H  H18  1  0.47476000  0.83440000  0.38607000  1.0
  H  H19  1  0.52525000  0.16560000  0.61393000  1.0
  H  H20  1  0.64801000  0.56914000  0.65715000  1.0
  H  H21  1  0.35198000  0.43086000  0.34285000  1.0
  H  H22  1  0.83392000  0.48977000  0.23105000  1.0
  H  H23  1  0.16607000  0.51023000  0.76895000  1.0
  H  H24  1  0.65216000  0.70463000  0.18760000  1.0
  H  H25  1  0.34784000  0.29537000  0.81240000  1.0
  C  C26  1  0.05560000  0.21615000  0.44304000  1.0
  C  C27  1  0.94440000  0.78385000  0.55696000  1.0
  C  C28  1  0.75939000  0.51294000  0.44660000  1.0
  C  C29  1  0.24061000  0.48707000  0.55340000  1.0
  C  C30  1  0.45650000  0.49540000  0.07748000  1.0
  C  C31  1  0.54349000  0.50460000  0.92251000  1.0
  C  C32  1  0.56302000  0.94824000  0.02764000  1.0
  C  C33  1  0.43697000  0.05175000  0.97236000  1.0
  C  C34  1  0.99265000  0.13756000  0.70297000  1.0
  C  C35  1  0.00736000  0.86244000  0.29703000  1.0
  C  C36  1  0.55724000  0.74283000  0.39960000  1.0
  C  C37  1  0.44276000  0.25717000  0.60039000  1.0
  C  C38  1  0.19672000  0.11878000  0.36308000  1.0
  C  C39  1  0.80327000  0.88121000  0.63693000  1.0
  C  C40  1  0.65464000  0.59258000  0.55083000  1.0
  C  C41  1  0.34536000  0.40742000  0.44917000  1.0
  C  C42  1  0.86648000  0.39219000  0.47352000  1.0
  C  C43  1  0.13352000  0.60781000  0.52648000  1.0
  C  C44  1  0.97717000  0.22312000  0.58406000  1.0
  C  C45  1  0.02282000  0.77689000  0.41594000  1.0
  C  C46  1  0.75838000  0.55291000  0.31308000  1.0
  C  C47  1  0.24161000  0.44709000  0.68692000  1.0
  C  C48  1  0.65783000  0.66962000  0.28928000  1.0
  C  C49  1  0.34216000  0.33038000  0.71071000  1.0
  N  N50  1  0.85937000  0.33593000  0.59974000  1.0
  N  N51  1  0.14062000  0.66408000  0.40026000  1.0
  N  N52  1  0.98516000  0.32140000  0.37722000  1.0
  N  N53  1  0.01484000  0.67861000  0.62279000  1.0
  N  N54  1  0.55509000  0.70380000  0.52782000  1.0
  N  N55  1  0.44491000  0.29621000  0.47218000  1.0
  O  O56  1  0.92422000  0.38059000  0.03407000  1.0
  O  O57  1  0.07578000  0.61941000  0.96593000  1.0
  O  O58  1  0.34291000  0.59109000  0.12738000  1.0
  O  O59  1  0.65710000  0.40890000  0.87261000  1.0
  O  O60  1  0.52514000  0.83169000  0.04547000  1.0
  O  O61  1  0.47487000  0.16831000  0.95452000  1.0
  O  O62  1  0.98821000  0.13096000  0.07936000  1.0
  O  O63  1  0.01179000  0.86904000  0.92064000  1.0
  O  O64  1  0.69578000  0.99001000  0.05146000  1.0
  O  O65  1  0.30422000  0.00998000  0.94855000  1.0
  O  O66  1  0.50598000  0.39407000  0.14104000  1.0
  O  O67  1  0.49402000  0.60592000  0.85896000  1.0
  O  O68  1  0.09330000  0.02806000  0.68327000  1.0
  O  O69  1  0.90670000  0.97195000  0.31671000  1.0
  O  O70  1  0.25657000  0.13234000  0.23962000  1.0
  O  O71  1  0.74344000  0.86767000  0.76037000  1.0
  O  O72  1  0.90253000  0.17531000  0.81957000  1.0
  O  O73  1  0.09748000  0.82470000  0.18044000  1.0
  O  O74  1  0.25552000  0.01474000  0.43221000  1.0
  O  O75  1  0.74449000  0.98526000  0.56779000  1.0
  O  O76  1  0.65080000  0.17441000  0.25810000  1.0
  O  O77  1  0.34920000  0.82559000  0.74189000  1.0
