# generated using pymatgen
data_Zr3H14(C13O8)2
_symmetry_space_group_name_H-M   'P 1'
_cell_length_a   16.68690000
_cell_length_b   17.44370000
_cell_length_c   17.45710000
_cell_angle_alpha   110.09280000
_cell_angle_beta   89.86610000
_cell_angle_gamma   89.92640000
_symmetry_Int_Tables_number   1
_chemical_formula_structural   Zr3H14(C13O8)2
_chemical_formula_sum   'Zr6 H28 C52 O32'
_cell_volume   4772.14095968
_cell_formula_units_Z   2
loop_
 _symmetry_equiv_pos_site_id
 _symmetry_equiv_pos_as_xyz
  1  'x, y, z'
loop_
 _atom_site_type_symbol
 _atom_site_label
 _atom_site_symmetry_multiplicity
 _atom_site_fract_x
 _atom_site_fract_y
 _atom_site_fract_z
 _atom_site_occupancy
  Zr  Zr0  1  0.89698000  0.10567000  0.11102000  1.0
  Zr  Zr1  1  0.11240000  0.09152000  0.09939000  1.0
  Zr  Zr2  1  0.88473000  0.92527000  0.93537000  1.0
  Zr  Zr3  1  0.09590000  0.91542000  0.92316000  1.0
  Zr  Zr4  1  0.99802000  0.09688000  0.92949000  1.0
  Zr  Zr5  1  0.99821000  0.92246000  0.10568000  1.0
  H  H6  1  0.00034000  0.09273000  0.22757000  1.0
  H  H7  1  0.17343000  0.06761000  0.94323000  1.0
  H  H8  1  0.99409000  0.79793000  0.94250000  1.0
  H  H9  1  0.82735000  0.08184000  0.95331000  1.0
  H  H10  1  0.26564000  0.12695000  0.07233000  1.0
  H  H11  1  0.24695000  0.85609000  0.92133000  1.0
  H  H12  1  0.09082000  0.80994000  0.77159000  1.0
  H  H13  1  0.97606000  0.80819000  0.81542000  1.0
  H  H14  1  0.73134000  0.90755000  0.96206000  1.0
  H  H15  1  0.75596000  0.02724000  0.03729000  1.0
  H  H16  1  0.88586000  0.25160000  0.22076000  1.0
  H  H17  1  0.15478000  0.19449000  0.25128000  1.0
  H  H18  1  0.89443000  0.82933000  0.77562000  1.0
  H  H19  1  0.74658000  0.06495000  0.13585000  1.0
  H  H20  1  0.13811000  0.24825000  0.19592000  1.0
  H  H21  1  0.24949000  0.89492000  0.85063000  1.0
  H  H22  1  0.62772000  0.99827000  0.39225000  1.0
  H  H23  1  0.63149000  0.00748000  0.64255000  1.0
  H  H24  1  0.85363000  0.00021000  0.51283000  1.0
  H  H25  1  0.14276000  0.00292000  0.51093000  1.0
  H  H26  1  0.36358000  0.00304000  0.63950000  1.0
  H  H27  1  0.36998000  0.00435000  0.39274000  1.0
  H  H28  1  0.85480000  0.51677000  0.02084000  1.0
  H  H29  1  0.63591000  0.38439000  0.01876000  1.0
  H  H30  1  0.62599000  0.63304000  0.02256000  1.0
  H  H31  1  0.14416000  0.51458000  0.01841000  1.0
  H  H32  1  0.36444000  0.38334000  0.01538000  1.0
  H  H33  1  0.37189000  0.63383000  0.02511000  1.0
  C  C34  1  0.87486000  0.24135000  0.01940000  1.0
  C  C35  1  0.13643000  0.00248000  0.23779000  1.0
  C  C36  1  0.12722000  0.23710000  0.01262000  1.0
  C  C37  1  0.86165000  0.99831000  0.23822000  1.0
  C  C38  1  0.85695000  0.79171000  0.02544000  1.0
  C  C39  1  0.12308000  0.00178000  0.78344000  1.0
  C  C40  1  0.13496000  0.78715000  0.02268000  1.0
  C  C41  1  0.86716000  0.00848000  0.79070000  1.0
  C  C42  1  0.74529000  0.99852000  0.44417000  1.0
  C  C43  1  0.66109000  0.99980000  0.44627000  1.0
  C  C44  1  0.61964000  0.00291000  0.51756000  1.0
  C  C45  1  0.66316000  0.00502000  0.58716000  1.0
  C  C46  1  0.74744000  0.00420000  0.58565000  1.0
  C  C47  1  0.78841000  0.00084000  0.51408000  1.0
  C  C48  1  0.25192000  0.00312000  0.44364000  1.0
  C  C49  1  0.20797000  0.00315000  0.51243000  1.0
  C  C50  1  0.24825000  0.00332000  0.58310000  1.0
  C  C51  1  0.33245000  0.00326000  0.58486000  1.0
  C  C52  1  0.37682000  0.00380000  0.51644000  1.0
  C  C53  1  0.33611000  0.00393000  0.44598000  1.0
  C  C54  1  0.74473000  0.58318000  0.02220000  1.0
  C  C55  1  0.78963000  0.51445000  0.02075000  1.0
  C  C56  1  0.75041000  0.44269000  0.01930000  1.0
  C  C57  1  0.66619000  0.43987000  0.01945000  1.0
  C  C58  1  0.62096000  0.50833000  0.02052000  1.0
  C  C59  1  0.66064000  0.57984000  0.02172000  1.0
  C  C60  1  0.25357000  0.58248000  0.02235000  1.0
  C  C61  1  0.20934000  0.51282000  0.01904000  1.0
  C  C62  1  0.24924000  0.44093000  0.01636000  1.0
  C  C63  1  0.33347000  0.43894000  0.01727000  1.0
  C  C64  1  0.37811000  0.50828000  0.02028000  1.0
  C  C65  1  0.33772000  0.57997000  0.02278000  1.0
  C  C66  1  0.53607000  0.50621000  0.02049000  1.0
  C  C67  1  0.46301000  0.50643000  0.02053000  1.0
  C  C68  1  0.46168000  0.00394000  0.51806000  1.0
  C  C69  1  0.53474000  0.00371000  0.51861000  1.0
  C  C70  1  0.16558000  0.00225000  0.71159000  1.0
  C  C71  1  0.20382000  0.00285000  0.65232000  1.0
  C  C72  1  0.21153000  0.00239000  0.37202000  1.0
  C  C73  1  0.17727000  0.00156000  0.31028000  1.0
  C  C74  1  0.82668000  0.00735000  0.71727000  1.0
  C  C75  1  0.79062000  0.00619000  0.65630000  1.0
  C  C76  1  0.78608000  0.99601000  0.37191000  1.0
  C  C77  1  0.81991000  0.99499000  0.30968000  1.0
  C  C78  1  0.17897000  0.71673000  0.02499000  1.0
  C  C79  1  0.21338000  0.65488000  0.02429000  1.0
  C  C80  1  0.16727000  0.31041000  0.01228000  1.0
  C  C81  1  0.20476000  0.37073000  0.01366000  1.0
  C  C82  1  0.78370000  0.65594000  0.02394000  1.0
  C  C83  1  0.81611000  0.71888000  0.02534000  1.0
  C  C84  1  0.83318000  0.31360000  0.01841000  1.0
  C  C85  1  0.79543000  0.37336000  0.01843000  1.0
  O  O86  1  0.85899000  0.21710000  0.07857000  1.0
  O  O87  1  0.92296000  0.20803000  0.96016000  1.0
  O  O88  1  0.15451000  0.06028000  0.21208000  1.0
  O  O89  1  0.08568000  0.94585000  0.20680000  1.0
  O  O90  1  0.14113000  0.21473000  0.07355000  1.0
  O  O91  1  0.08354000  0.20008000  0.95128000  1.0
  O  O92  1  0.83655000  0.04901000  0.20642000  1.0
  O  O93  1  0.92182000  0.95012000  0.21443000  1.0
  O  O94  1  0.89978000  0.19673000  0.21815000  1.0
  O  O95  1  0.76272000  0.07936000  0.08864000  1.0
  O  O96  1  0.11446000  0.20855000  0.21774000  1.0
  O  O97  1  0.23215000  0.09479000  0.09508000  1.0
  O  O98  1  0.00348000  0.12154000  0.05256000  1.0
  O  O99  1  0.00181000  0.06622000  0.16867000  1.0
  O  O100  1  0.83512000  0.82189000  0.97163000  1.0
  O  O101  1  0.91174000  0.81850000  0.07861000  1.0
  O  O102  1  0.13950000  0.94256000  0.80857000  1.0
  O  O103  1  0.07458000  0.06001000  0.81597000  1.0
  O  O104  1  0.15611000  0.81711000  0.96830000  1.0
  O  O105  1  0.07777000  0.81194000  0.07347000  1.0
  O  O106  1  0.85096000  0.95032000  0.81681000  1.0
  O  O107  1  0.91463000  0.06796000  0.82320000  1.0
  O  O108  1  0.91381000  0.81439000  0.82133000  1.0
  O  O109  1  0.76237000  0.95307000  0.95777000  1.0
  O  O110  1  0.06752000  0.81003000  0.82275000  1.0
  O  O111  1  0.23617000  0.90532000  0.90776000  1.0
  O  O112  1  0.99352000  0.85721000  0.96365000  1.0
  O  O113  1  0.99422000  0.97281000  0.90695000  1.0
  O  O114  1  0.91225000  0.97508000  0.05683000  1.0
  O  O115  1  0.12455000  0.05033000  0.96265000  1.0
  O  O116  1  0.87553000  0.06264000  0.97218000  1.0
  O  O117  1  0.08877000  0.96802000  0.05131000  1.0
