# generated using pymatgen
data_CuH14C18(NO)4
_symmetry_space_group_name_H-M   'P 1'
_cell_length_a   9.60892000
_cell_length_b   9.93962000
_cell_length_c   10.22250000
_cell_angle_alpha   96.91450000
_cell_angle_beta   90.88840000
_cell_angle_gamma   116.93600000
_symmetry_Int_Tables_number   1
_chemical_formula_structural   CuH14C18(NO)4
_chemical_formula_sum   'Cu2 H28 C36 N8 O8'
_cell_volume   861.37990191
_cell_formula_units_Z   2
loop_
 _symmetry_equiv_pos_site_id
 _symmetry_equiv_pos_as_xyz
  1  'x, y, z'
loop_
 _atom_site_type_symbol
 _atom_site_label
 _atom_site_symmetry_multiplicity
 _atom_site_fract_x
 _atom_site_fract_y
 _atom_site_fract_z
 _atom_site_occupancy
  Cu  Cu0  1  0.32328000  0.00675000  0.37339000  1.0
  Cu  Cu1  1  0.67672000  0.99325000  0.62661000  1.0
  H  H2  1  0.24908000  0.32893000  0.13353000  1.0
  H  H3  1  0.75092000  0.67107000  0.86648000  1.0
  H  H4  1  0.22422000  0.17686000  0.00891000  1.0
  H  H5  1  0.77578000  0.82314000  0.99109000  1.0
  H  H6  1  0.18587000  0.59990000  0.64058000  1.0
  H  H7  1  0.81412000  0.40009000  0.35941000  1.0
  H  H8  1  0.17273000  0.73578000  0.76389000  1.0
  H  H9  1  0.82727000  0.26421000  0.23612000  1.0
  H  H10  1  0.10342000  0.68676000  0.28832000  1.0
  H  H11  1  0.89658000  0.31324000  0.71169000  1.0
  H  H12  1  0.07139000  0.48140000  0.10531000  1.0
  H  H13  1  0.92861000  0.51860000  0.89469000  1.0
  H  H14  1  0.50227000  0.80582000  0.96593000  1.0
  H  H15  1  0.49773000  0.19418000  0.03407000  1.0
  H  H16  1  0.51532000  0.99431000  0.15548000  1.0
  H  H17  1  0.48468000  0.00569000  0.84451000  1.0
  H  H18  1  0.16040000  0.39566000  0.91342000  1.0
  H  H19  1  0.83960000  0.60434000  0.08658000  1.0
  H  H20  1  0.47549000  0.62236000  0.82215000  1.0
  H  H21  1  0.52451000  0.37764000  0.17785000  1.0
  H  H22  1  0.11771000  0.21859000  0.75036000  1.0
  H  H23  1  0.88229000  0.78141000  0.24964000  1.0
  H  H24  1  0.11507000  0.02893000  0.57431000  1.0
  H  H25  1  0.88493000  0.97108000  0.42569000  1.0
  H  H26  1  0.56105000  0.31733000  0.47828000  1.0
  H  H27  1  0.43895000  0.68268000  0.52171000  1.0
  H  H28  1  0.58709000  0.52228000  0.65419000  1.0
  H  H29  1  0.41291000  0.47772000  0.34581000  1.0
  C  C30  1  0.19884000  0.11665000  0.20704000  1.0
  C  C31  1  0.80116000  0.88335000  0.79295000  1.0
  C  C32  1  0.17877000  0.20593000  0.10047000  1.0
  C  C33  1  0.82123000  0.79407000  0.89952000  1.0
  C  C34  1  0.01697000  0.17189000  0.07359000  1.0
  C  C35  1  0.98303000  0.82811000  0.92641000  1.0
  C  C36  1  0.26348000  0.82241000  0.58363000  1.0
  C  C37  1  0.73652000  0.17759000  0.41637000  1.0
  C  C38  1  0.15235000  0.69252000  0.65749000  1.0
  C  C39  1  0.84764000  0.30748000  0.34251000  1.0
  C  C40  1  0.98790000  0.63246000  0.61614000  1.0
  C  C41  1  0.01210000  0.36755000  0.38387000  1.0
  C  C42  1  0.18762000  0.70685000  0.21369000  1.0
  C  C43  1  0.81238000  0.29315000  0.78631000  1.0
  C  C44  1  0.17193000  0.59377000  0.11224000  1.0
  C  C45  1  0.82807000  0.40623000  0.88777000  1.0
  C  C46  1  0.28508000  0.62403000  0.01935000  1.0
  C  C47  1  0.71492000  0.37597000  0.98066000  1.0
  C  C48  1  0.41130000  0.77221000  0.03521000  1.0
  C  C49  1  0.58869000  0.22779000  0.96479000  1.0
  C  C50  1  0.41905000  0.87918000  0.13915000  1.0
  C  C51  1  0.58095000  0.12081000  0.86085000  1.0
  C  C52  1  0.26696000  0.50315000  0.91441000  1.0
  C  C53  1  0.73303000  0.49685000  0.08559000  1.0
  C  C54  1  0.37041000  0.51391000  0.82298000  1.0
  C  C55  1  0.62959000  0.48609000  0.17702000  1.0
  C  C56  1  0.35481000  0.39143000  0.72068000  1.0
  C  C57  1  0.64519000  0.60857000  0.27932000  1.0
  C  C58  1  0.22105000  0.24891000  0.69506000  1.0
  C  C59  1  0.77895000  0.75109000  0.30494000  1.0
  C  C60  1  0.21718000  0.14002000  0.59479000  1.0
  C  C61  1  0.78282000  0.85998000  0.40521000  1.0
  C  C62  1  0.46686000  0.30080000  0.54210000  1.0
  C  C63  1  0.53314000  0.69921000  0.45790000  1.0
  C  C64  1  0.47963000  0.41502000  0.64112000  1.0
  C  C65  1  0.52037000  0.58498000  0.35888000  1.0
  N  N66  1  0.30965000  0.84733000  0.22777000  1.0
  N  N67  1  0.69035000  0.15267000  0.77223000  1.0
  N  N68  1  0.33807000  0.16498000  0.51910000  1.0
  N  N69  1  0.66192000  0.83502000  0.48090000  1.0
  N  N70  1  0.85515000  0.58362000  0.58366000  1.0
  N  N71  1  0.14484000  0.41638000  0.41634000  1.0
  N  N72  1  0.88644000  0.14453000  0.05349000  1.0
  N  N73  1  0.11358000  0.85548000  0.94652000  1.0
  O  O74  1  0.34281000  0.15047000  0.23642000  1.0
  O  O75  1  0.65719000  0.84953000  0.76358000  1.0
  O  O76  1  0.08233000  0.02272000  0.25493000  1.0
  O  O77  1  0.91767000  0.97728000  0.74506000  1.0
  O  O78  1  0.20134000  0.84190000  0.48055000  1.0
  O  O79  1  0.79866000  0.15810000  0.51945000  1.0
  O  O80  1  0.40226000  0.89394000  0.63011000  1.0
  O  O81  1  0.59774000  0.10606000  0.36990000  1.0
