# generated using pymatgen
data_CdH12C12Br(N3O)2
_symmetry_space_group_name_H-M   'P 1'
_cell_length_a   8.35945000
_cell_length_b   8.70035000
_cell_length_c   11.38630000
_cell_angle_alpha   99.17530000
_cell_angle_beta   104.54800000
_cell_angle_gamma   98.19940000
_symmetry_Int_Tables_number   1
_chemical_formula_structural   CdH12C12Br(N3O)2
_chemical_formula_sum   'Cd2 H24 C24 Br2 N12 O4'
_cell_volume   776.72508841
_cell_formula_units_Z   2
loop_
 _symmetry_equiv_pos_site_id
 _symmetry_equiv_pos_as_xyz
  1  'x, y, z'
loop_
 _atom_site_type_symbol
 _atom_site_label
 _atom_site_symmetry_multiplicity
 _atom_site_fract_x
 _atom_site_fract_y
 _atom_site_fract_z
 _atom_site_occupancy
  Cd  Cd0  1  0.45021000  0.82911000  0.84790000  1.0
  Cd  Cd1  1  0.54979000  0.17089000  0.15210000  1.0
  H  H2  1  0.17284000  0.15580000  0.51185000  1.0
  H  H3  1  0.82716000  0.84420000  0.48815000  1.0
  H  H4  1  0.86337000  0.52563000  0.79795000  1.0
  H  H5  1  0.13664000  0.47437000  0.20205000  1.0
  H  H6  1  0.98519000  0.70852000  0.88399000  1.0
  H  H7  1  0.01481000  0.29148000  0.11601000  1.0
  H  H8  1  0.81623000  0.45948000  0.00126000  1.0
  H  H9  1  0.18378000  0.54052000  0.99874000  1.0
  H  H10  1  0.95822000  0.63753000  0.08129000  1.0
  H  H11  1  0.04178000  0.36247000  0.91871000  1.0
  H  H12  1  0.43275000  0.43426000  0.89161000  1.0
  H  H13  1  0.56725000  0.56574000  0.10839000  1.0
  H  H14  1  0.06805000  0.09874000  0.75490000  1.0
  H  H15  1  0.93194000  0.90126000  0.24510000  1.0
  H  H16  1  0.27758000  0.13814000  0.85163000  1.0
  H  H17  1  0.72242000  0.86185000  0.14837000  1.0
  H  H18  1  0.24405000  0.99506000  0.28735000  1.0
  H  H19  1  0.75595000  0.00494000  0.71265000  1.0
  H  H20  1  0.34352000  0.75049000  0.21602000  1.0
  H  H21  1  0.65648000  0.24951000  0.78398000  1.0
  H  H22  1  0.43621000  0.57250000  0.35928000  1.0
  H  H23  1  0.56379000  0.42750000  0.64073000  1.0
  H  H24  1  0.43952000  0.63860000  0.58159000  1.0
  H  H25  1  0.56048000  0.36141000  0.41840000  1.0
  C  C26  1  0.72492000  0.68609000  0.86881000  1.0
  C  C27  1  0.27508000  0.31390000  0.13119000  1.0
  C  C28  1  0.88130000  0.61443000  0.88308000  1.0
  C  C29  1  0.11870000  0.38556000  0.11692000  1.0
  C  C30  1  0.92642000  0.54276000  0.99786000  1.0
  C  C31  1  0.07358000  0.45724000  0.00215000  1.0
  C  C32  1  0.33009000  0.43382000  0.81176000  1.0
  C  C33  1  0.66991000  0.56618000  0.18824000  1.0
  C  C34  1  0.20030000  0.14085000  0.75873000  1.0
  C  C35  1  0.79969000  0.85915000  0.24127000  1.0
  C  C36  1  0.24924000  0.03889000  0.65974000  1.0
  C  C37  1  0.75076000  0.96111000  0.34027000  1.0
  C  C38  1  0.27405000  0.94441000  0.47260000  1.0
  C  C39  1  0.72595000  0.05559000  0.52740000  1.0
  C  C40  1  0.27929000  0.91445000  0.34956000  1.0
  C  C41  1  0.72072000  0.08555000  0.65044000  1.0
  C  C42  1  0.33890000  0.77859000  0.31178000  1.0
  C  C43  1  0.66110000  0.22141000  0.68822000  1.0
  C  C44  1  0.39335000  0.67894000  0.39368000  1.0
  C  C45  1  0.60665000  0.32107000  0.60632000  1.0
  C  C46  1  0.39278000  0.71222000  0.51706000  1.0
  C  C47  1  0.60722000  0.28778000  0.48294000  1.0
  C  C48  1  0.33178000  0.84710000  0.55636000  1.0
  C  C49  1  0.66823000  0.15290000  0.44364000  1.0
  Br  Br50  1  0.29411000  0.89747000  0.02015000  1.0
  Br  Br51  1  0.70589000  0.10252000  0.97985000  1.0
  N  N52  1  0.29081000  0.55760000  0.76408000  1.0
  N  N53  1  0.70919000  0.44240000  0.23592000  1.0
  N  N54  1  0.15087000  0.50254000  0.66596000  1.0
  N  N55  1  0.84913000  0.49746000  0.33404000  1.0
  N  N56  1  0.10468000  0.35053000  0.65282000  1.0
  N  N57  1  0.89532000  0.64946000  0.34718000  1.0
  N  N58  1  0.21630000  0.30533000  0.74460000  1.0
  N  N59  1  0.78370000  0.69467000  0.25540000  1.0
  N  N60  1  0.22078000  0.06308000  0.54134000  1.0
  N  N61  1  0.77922000  0.93692000  0.45866000  1.0
  N  N62  1  0.31641000  0.91091000  0.67261000  1.0
  N  N63  1  0.68359000  0.08909000  0.32740000  1.0
  O  O64  1  0.64532000  0.68409000  0.95160000  1.0
  O  O65  1  0.35468000  0.31591000  0.04840000  1.0
  O  O66  1  0.67498000  0.74680000  0.77430000  1.0
  O  O67  1  0.32502000  0.25321000  0.22570000  1.0
