# generated using pymatgen
data_KCdH24C15S3(NO2)3
_symmetry_space_group_name_H-M   'P 1'
_cell_length_a   10.43270000
_cell_length_b   10.43270000
_cell_length_c   10.59700000
_cell_angle_alpha   89.99990000
_cell_angle_beta   89.99960000
_cell_angle_gamma   89.14010000
_symmetry_Int_Tables_number   1
_chemical_formula_structural   KCdH24C15S3(NO2)3
_chemical_formula_sum   'K2 Cd2 H48 C30 S6 N6 O12'
_cell_volume   1153.26061283
_cell_formula_units_Z   2
loop_
 _symmetry_equiv_pos_site_id
 _symmetry_equiv_pos_as_xyz
  1  'x, y, z'
loop_
 _atom_site_type_symbol
 _atom_site_label
 _atom_site_symmetry_multiplicity
 _atom_site_fract_x
 _atom_site_fract_y
 _atom_site_fract_z
 _atom_site_occupancy
  K  K0  1  0.68438000  0.68439000  0.80210000  1.0
  K  K1  1  0.31561000  0.31561000  0.30209000  1.0
  Cd  Cd2  1  0.97119000  0.97119000  0.99497000  1.0
  Cd  Cd3  1  0.02881000  0.02881000  0.49497000  1.0
  H  H4  1  0.70860000  0.54923000  0.43769000  1.0
  H  H5  1  0.29140000  0.45077000  0.93769000  1.0
  H  H6  1  0.54922000  0.70860000  0.43769000  1.0
  H  H7  1  0.45077000  0.29140000  0.93769000  1.0
  H  H8  1  0.82643000  0.65863000  0.38187000  1.0
  H  H9  1  0.17357000  0.34137000  0.88187000  1.0
  H  H10  1  0.65863000  0.82643000  0.38187000  1.0
  H  H11  1  0.34137000  0.17357000  0.88187000  1.0
  H  H12  1  0.95170000  0.62740000  0.58090000  1.0
  H  H13  1  0.04830000  0.37260000  0.08090000  1.0
  H  H14  1  0.62740000  0.95169000  0.58090000  1.0
  H  H15  1  0.37260000  0.04830000  0.08090000  1.0
  H  H16  1  0.93399000  0.48331000  0.49131000  1.0
  H  H17  1  0.06601000  0.51669000  0.99131000  1.0
  H  H18  1  0.48331000  0.93399000  0.49131000  1.0
  H  H19  1  0.51669000  0.06601000  0.99131000  1.0
  H  H20  1  0.95735000  0.34852000  0.66815000  1.0
  H  H21  1  0.04264000  0.65148000  0.16815000  1.0
  H  H22  1  0.34852000  0.95735000  0.66815000  1.0
  H  H23  1  0.65148000  0.04264000  0.16814000  1.0
  H  H24  1  0.98607000  0.48655000  0.76456000  1.0
  H  H25  1  0.01393000  0.51345000  0.26456000  1.0
  H  H26  1  0.48655000  0.98607000  0.76456000  1.0
  H  H27  1  0.51345000  0.01394000  0.26456000  1.0
  H  H28  1  0.90742000  0.29300000  0.88352000  1.0
  H  H29  1  0.09258000  0.70700000  0.38352000  1.0
  H  H30  1  0.29300000  0.90742000  0.88352000  1.0
  H  H31  1  0.70699000  0.09258000  0.38352000  1.0
  H  H32  1  0.76236000  0.30059000  0.79535000  1.0
  H  H33  1  0.23764000  0.69941000  0.29535000  1.0
  H  H34  1  0.30059000  0.76236000  0.79535000  1.0
  H  H35  1  0.69941000  0.23764000  0.29535000  1.0
  H  H36  1  0.64489000  0.33186000  0.97660000  1.0
  H  H37  1  0.35510000  0.66813000  0.47659000  1.0
  H  H38  1  0.33187000  0.64489000  0.97659000  1.0
  H  H39  1  0.66813000  0.35510000  0.47660000  1.0
  H  H40  1  0.78300000  0.33185000  0.07471000  1.0
  H  H41  1  0.21700000  0.66815000  0.57471000  1.0
  H  H42  1  0.33185000  0.78300000  0.07471000  1.0
  H  H43  1  0.66814000  0.21700000  0.57471000  1.0
  H  H44  1  0.73067000  0.55970000  0.13881000  1.0
  H  H45  1  0.26933000  0.44030000  0.63881000  1.0
  H  H46  1  0.55969000  0.73067000  0.13881000  1.0
  H  H47  1  0.44030000  0.26933000  0.63882000  1.0
  H  H48  1  0.60881000  0.44715000  0.17870000  1.0
  H  H49  1  0.39119000  0.55285000  0.67869000  1.0
  H  H50  1  0.44715000  0.60880000  0.17870000  1.0
  H  H51  1  0.55285000  0.39119000  0.67870000  1.0
  C  C52  1  0.87146000  0.87146000  0.26518000  1.0
  C  C53  1  0.12854000  0.12854000  0.76518000  1.0
  C  C54  1  0.04782000  0.81230000  0.72465000  1.0
  C  C55  1  0.95218000  0.18770000  0.22466000  1.0
  C  C56  1  0.81230000  0.04782000  0.72465000  1.0
  C  C57  1  0.18770000  0.95217000  0.22465000  1.0
  C  C58  1  0.78094000  0.61958000  0.46746000  1.0
  C  C59  1  0.21906000  0.38042000  0.96746000  1.0
  C  C60  1  0.61958000  0.78094000  0.46746000  1.0
  C  C61  1  0.38042000  0.21906000  0.96746000  1.0
  C  C62  1  0.88200000  0.55602000  0.54820000  1.0
  C  C63  1  0.11800000  0.44398000  0.04820000  1.0
  C  C64  1  0.55602000  0.88200000  0.54820000  1.0
  C  C65  1  0.44399000  0.11800000  0.04819000  1.0
  C  C66  1  0.91106000  0.42305000  0.72725000  1.0
  C  C67  1  0.08895000  0.57695000  0.22725000  1.0
  C  C68  1  0.42305000  0.91105000  0.72725000  1.0
  C  C69  1  0.57695000  0.08895000  0.22725000  1.0
  C  C70  1  0.84105000  0.35883000  0.83335000  1.0
  C  C71  1  0.15895000  0.64117000  0.33333333  1.0
  C  C72  1  0.35882000  0.84105000  0.83335000  1.0
  C  C73  1  0.64117000  0.15895000  0.33333333  1.0
  C  C74  1  0.71917000  0.39383000  0.01734000  1.0
  C  C75  1  0.28083000  0.60618000  0.51734000  1.0
  C  C76  1  0.39382000  0.71917000  0.01734000  1.0
  C  C77  1  0.60617000  0.28083000  0.51734000  1.0
  C  C78  1  0.65781000  0.49513000  0.09946000  1.0
  C  C79  1  0.34219000  0.50487000  0.59946000  1.0
  C  C80  1  0.49513000  0.65781000  0.09946000  1.0
  C  C81  1  0.50487000  0.34219000  0.59945000  1.0
  S  S82  1  0.81550000  0.81550000  0.13299000  1.0
  S  S83  1  0.18451000  0.18450000  0.63298000  1.0
  S  S84  1  0.00919000  0.74582000  0.85858000  1.0
  S  S85  1  0.99081000  0.25418000  0.35859000  1.0
  S  S86  1  0.74582000  0.00919000  0.85859000  1.0
  S  S87  1  0.25418000  0.99081000  0.35858000  1.0
  N  N88  1  0.91082000  0.91082000  0.36194000  1.0
  N  N89  1  0.08918000  0.08918000  0.86193000  1.0
  N  N90  1  0.07863000  0.85810000  0.62724000  1.0
  N  N91  1  0.92138000  0.14190000  0.12725000  1.0
  N  N92  1  0.85810000  0.07863000  0.62725000  1.0
  N  N93  1  0.14190000  0.92137000  0.12723000  1.0
  O  O94  1  0.71988000  0.71988000  0.53791000  1.0
  O  O95  1  0.28012000  0.28012000  0.03791000  1.0
  O  O96  1  0.82130000  0.49675000  0.65388000  1.0
  O  O97  1  0.17871000  0.50325000  0.15388000  1.0
  O  O98  1  0.49675000  0.82129000  0.65388000  1.0
  O  O99  1  0.50325000  0.17870000  0.15388000  1.0
  O  O100  1  0.78983000  0.45350000  0.91817000  1.0
  O  O101  1  0.21017000  0.54650000  0.41816000  1.0
  O  O102  1  0.45350000  0.78983000  0.91817000  1.0
  O  O103  1  0.54650000  0.21017000  0.41817000  1.0
  O  O104  1  0.56694000  0.56694000  0.02567000  1.0
  O  O105  1  0.43306000  0.43306000  0.52567000  1.0
