# generated using pymatgen
data_CoH24C30S2(N3O4)2
_symmetry_space_group_name_H-M   'P 1'
_cell_length_a   8.81907000
_cell_length_b   11.30910000
_cell_length_c   11.57920000
_cell_angle_alpha   115.94900000
_cell_angle_beta   95.20660000
_cell_angle_gamma   102.13800000
_symmetry_Int_Tables_number   1
_chemical_formula_structural   CoH24C30S2(N3O4)2
_chemical_formula_sum   'Co1 H24 C30 S2 N6 O8'
_cell_volume   993.03579051
_cell_formula_units_Z   1
loop_
 _symmetry_equiv_pos_site_id
 _symmetry_equiv_pos_as_xyz
  1  'x, y, z'
loop_
 _atom_site_type_symbol
 _atom_site_label
 _atom_site_symmetry_multiplicity
 _atom_site_fract_x
 _atom_site_fract_y
 _atom_site_fract_z
 _atom_site_occupancy
  Co  Co0  1  0.00000000  0.00000000  0.00000000  1.0
  H  H1  1  0.83100000  0.09520000  0.23654000  1.0
  H  H2  1  0.16900000  0.90480000  0.76346000  1.0
  H  H3  1  0.75573000  0.04863000  0.41860000  1.0
  H  H4  1  0.24427000  0.95137000  0.58140000  1.0
  H  H5  1  0.96367000  0.71056000  0.27340000  1.0
  H  H6  1  0.03633000  0.28944000  0.72660000  1.0
  H  H7  1  0.03189000  0.77183000  0.09882000  1.0
  H  H8  1  0.96810000  0.22818000  0.90118000  1.0
  H  H9  1  0.69942000  0.71448000  0.58674000  1.0
  H  H10  1  0.30058000  0.28553000  0.41327000  1.0
  H  H11  1  0.90699000  0.76739000  0.65374000  1.0
  H  H12  1  0.09301000  0.23261000  0.34627000  1.0
  H  H13  1  0.91947000  0.53697000  0.47027000  1.0
  H  H14  1  0.08053000  0.46303000  0.52972000  1.0
  H  H15  1  0.82755000  0.52971000  0.59965000  1.0
  H  H16  1  0.17245000  0.47029000  0.40035000  1.0
  H  H17  1  0.51552000  0.06151000  0.27285000  1.0
  H  H18  1  0.48448000  0.93848000  0.72716000  1.0
  H  H19  1  0.25216000  0.93199000  0.12045000  1.0
  H  H20  1  0.74784000  0.06802000  0.87955000  1.0
  H  H21  1  0.21177000  0.26945000  0.07677000  1.0
  H  H22  1  0.78823000  0.73054000  0.92322000  1.0
  H  H23  1  0.47448000  0.41206000  0.22569000  1.0
  H  H24  1  0.52552000  0.58794000  0.77431000  1.0
  C  C25  1  0.85843000  0.01083000  0.24774000  1.0
  C  C26  1  0.14157000  0.98917000  0.75225000  1.0
  C  C27  1  0.81554000  0.98427000  0.34864000  1.0
  C  C28  1  0.18446000  0.01574000  0.65136000  1.0
  C  C29  1  0.85252000  0.87479000  0.35956000  1.0
  C  C30  1  0.14748000  0.12521000  0.64044000  1.0
  C  C31  1  0.93179000  0.79650000  0.26869000  1.0
  C  C32  1  0.06821000  0.20350000  0.73131000  1.0
  C  C33  1  0.97100000  0.83146000  0.17169000  1.0
  C  C34  1  0.02900000  0.16854000  0.82831000  1.0
  C  C35  1  0.80814000  0.84737000  0.46882000  1.0
  C  C36  1  0.19187000  0.15263000  0.53118000  1.0
  C  C37  1  0.81442000  0.69983000  0.56493000  1.0
  C  C38  1  0.18559000  0.30017000  0.43507000  1.0
  C  C39  1  0.81858000  0.55442000  0.51784000  1.0
  C  C40  1  0.18142000  0.44558000  0.48216000  1.0
  C  C41  1  0.66274000  0.33076000  0.36625000  1.0
  C  C42  1  0.33725000  0.66923000  0.63375000  1.0
  C  C43  1  0.51439000  0.24860000  0.26414000  1.0
  C  C44  1  0.48561000  0.75140000  0.73586000  1.0
  C  C45  1  0.45275000  0.11064000  0.22984000  1.0
  C  C46  1  0.54724000  0.88936000  0.77016000  1.0
  C  C47  1  0.30539000  0.03825000  0.14614000  1.0
  C  C48  1  0.69461000  0.96175000  0.85386000  1.0
  C  C49  1  0.28301000  0.22733000  0.12188000  1.0
  C  C50  1  0.71700000  0.77267000  0.87811000  1.0
  C  C51  1  0.42886000  0.30619000  0.20520000  1.0
  C  C52  1  0.57115000  0.69381000  0.79480000  1.0
  C  C53  1  0.91529000  0.27020000  0.12449000  1.0
  C  C54  1  0.08472000  0.72981000  0.87551000  1.0
  S  S55  1  0.87748000  0.41607000  0.17364000  1.0
  S  S56  1  0.12253000  0.58394000  0.82635000  1.0
  N  N57  1  0.93611000  0.93689000  0.16085000  1.0
  N  N58  1  0.06389000  0.06311000  0.83915000  1.0
  N  N59  1  0.21847000  0.09613000  0.09565000  1.0
  N  N60  1  0.78152000  0.90386000  0.90435000  1.0
  N  N61  1  0.94281000  0.16230000  0.08745000  1.0
  N  N62  1  0.05719000  0.83770000  0.91255000  1.0
  O  O63  1  0.84758000  0.73589000  0.46243000  1.0
  O  O64  1  0.15243000  0.26410000  0.53757000  1.0
  O  O65  1  0.74445000  0.91704000  0.55292000  1.0
  O  O66  1  0.25557000  0.08297000  0.44709000  1.0
  O  O67  1  0.67402000  0.46579000  0.42132000  1.0
  O  O68  1  0.32598000  0.53421000  0.57868000  1.0
  O  O69  1  0.75811000  0.28154000  0.40031000  1.0
  O  O70  1  0.24190000  0.71845000  0.59969000  1.0
