# generated using pymatgen
data_AlH9C16O5
_symmetry_space_group_name_H-M   'P 1'
_cell_length_a   6.68212000
_cell_length_b   17.82910000
_cell_length_c   17.82891624
_cell_angle_alpha   84.20288791
_cell_angle_beta   79.19902652
_cell_angle_gamma   79.19650000
_symmetry_Int_Tables_number   1
_chemical_formula_structural   AlH9C16O5
_chemical_formula_sum   'Al2 H18 C32 O10'
_cell_volume   2044.67594438
_cell_formula_units_Z   2
loop_
 _symmetry_equiv_pos_site_id
 _symmetry_equiv_pos_as_xyz
  1  'x, y, z'
loop_
 _atom_site_type_symbol
 _atom_site_label
 _atom_site_symmetry_multiplicity
 _atom_site_fract_x
 _atom_site_fract_y
 _atom_site_fract_z
 _atom_site_occupancy
  Al  Al0  1  0.49995000  0.50000000  0.50001000  1.0
  Al  Al1  1  0.99995000  0.50000000  0.50000000  1.0
  H  H2  1  0.24989000  0.57410000  0.42592000  1.0
  H  H3  1  0.75007000  0.42591000  0.57409000  1.0
  H  H4  1  0.68776000  0.26827000  0.49786000  1.0
  H  H5  1  0.76032000  0.12526000  0.49952000  1.0
  H  H6  1  0.11493000  0.12526000  0.49926000  1.0
  H  H7  1  0.04609000  0.26827000  0.49757000  1.0
  H  H8  1  0.88504000  0.87472000  0.50079000  1.0
  H  H9  1  0.95383000  0.73171000  0.50244000  1.0
  H  H10  1  0.31214000  0.73178000  0.50208000  1.0
  H  H11  1  0.23968000  0.87477000  0.50044000  1.0
  H  H12  1  0.54602000  0.49787000  0.26824000  1.0
  H  H13  1  0.61491000  0.49948000  0.12525000  1.0
  H  H14  1  0.26056000  0.49922000  0.12528000  1.0
  H  H15  1  0.18795000  0.49760000  0.26828000  1.0
  H  H16  1  0.73943000  0.50075000  0.87475000  1.0
  H  H17  1  0.81189000  0.50245000  0.73174000  1.0
  H  H18  1  0.45390000  0.50207000  0.73174000  1.0
  H  H19  1  0.38514000  0.50038000  0.87474000  1.0
  C  C20  1  0.82009000  0.49814000  0.36154000  1.0
  C  C21  1  0.67977000  0.63846000  0.50189000  1.0
  C  C22  1  0.17979000  0.50187000  0.63846000  1.0
  C  C23  1  0.32010000  0.36154000  0.49811000  1.0
  C  C24  1  0.36287000  0.27646000  0.49772000  1.0
  C  C25  1  0.56416000  0.23606000  0.49822000  1.0
  C  C26  1  0.60412000  0.15675000  0.49906000  1.0
  C  C27  1  0.44249000  0.11566000  0.49936000  1.0
  C  C28  1  0.23997000  0.15676000  0.49891000  1.0
  C  C29  1  0.20145000  0.23605000  0.49806000  1.0
  C  C30  1  0.48265000  0.03489000  0.49990000  1.0
  C  C31  1  0.51738000  0.96512000  0.50011000  1.0
  C  C32  1  0.55755000  0.88434000  0.50063000  1.0
  C  C33  1  0.75999000  0.84324000  0.50110000  1.0
  C  C34  1  0.79845000  0.76393000  0.50194000  1.0
  C  C35  1  0.63709000  0.72355000  0.50226000  1.0
  C  C36  1  0.43576000  0.76397000  0.50175000  1.0
  C  C37  1  0.39583000  0.84326000  0.50091000  1.0
  C  C38  1  0.86286000  0.49774000  0.27645000  1.0
  C  C39  1  0.70149000  0.49821000  0.23605000  1.0
  C  C40  1  0.74006000  0.49903000  0.15674000  1.0
  C  C41  1  0.94252000  0.49931000  0.11565000  1.0
  C  C42  1  0.10433000  0.49889000  0.15677000  1.0
  C  C43  1  0.06434000  0.49807000  0.23606000  1.0
  C  C44  1  0.98261000  0.49981000  0.03489000  1.0
  C  C45  1  0.01741000  0.50003000  0.96512000  1.0
  C  C46  1  0.05749000  0.50058000  0.88435000  1.0
  C  C47  1  0.89564000  0.50108000  0.84324000  1.0
  C  C48  1  0.93555000  0.50194000  0.76395000  1.0
  C  C49  1  0.13705000  0.50226000  0.72355000  1.0
  C  C50  1  0.29845000  0.50173000  0.76394000  1.0
  C  C51  1  0.25995000  0.50087000  0.84326000  1.0
  O  O52  1  0.63335000  0.49881000  0.39466000  1.0
  O  O53  1  0.86654000  0.60536000  0.50115000  1.0
  O  O54  1  0.02695000  0.50104000  0.60536000  1.0
  O  O55  1  0.47299000  0.39465000  0.49888000  1.0
  O  O56  1  0.36654000  0.50119000  0.60535000  1.0
  O  O57  1  0.13337000  0.39465000  0.49883000  1.0
  O  O58  1  0.97294000  0.49897000  0.39464000  1.0
  O  O59  1  0.52692000  0.60535000  0.50113000  1.0
  O  O60  1  0.24994000  0.53364000  0.46638000  1.0
  O  O61  1  0.74997000  0.46636000  0.53363000  1.0
