# generated using pymatgen
data_ZnH16C21(NO2)2
_symmetry_space_group_name_H-M   'P 1'
_cell_length_a   7.63198000
_cell_length_b   10.23310000
_cell_length_c   12.85460000
_cell_angle_alpha   110.06000000
_cell_angle_beta   93.44950000
_cell_angle_gamma   104.65900000
_symmetry_Int_Tables_number   1
_chemical_formula_structural   ZnH16C21(NO2)2
_chemical_formula_sum   'Zn2 H32 C42 N4 O8'
_cell_volume   900.31787789
_cell_formula_units_Z   2
loop_
 _symmetry_equiv_pos_site_id
 _symmetry_equiv_pos_as_xyz
  1  'x, y, z'
loop_
 _atom_site_type_symbol
 _atom_site_label
 _atom_site_symmetry_multiplicity
 _atom_site_fract_x
 _atom_site_fract_y
 _atom_site_fract_z
 _atom_site_occupancy
  Zn  Zn0  1  0.83809000  0.48860000  0.11069000  1.0
  Zn  Zn1  1  0.16191000  0.51140000  0.88931000  1.0
  H  H2  1  0.05959000  0.49363000  0.31810000  1.0
  H  H3  1  0.94041000  0.50637000  0.68190000  1.0
  H  H4  1  0.14305000  0.01286000  0.39934000  1.0
  H  H5  1  0.85695000  0.98713000  0.60066000  1.0
  H  H6  1  0.95142000  0.81706000  0.22428000  1.0
  H  H7  1  0.04859000  0.18294000  0.77572000  1.0
  H  H8  1  0.34148000  0.08602000  0.56880000  1.0
  H  H9  1  0.65852000  0.91397000  0.43120000  1.0
  H  H10  1  0.36742000  0.85133000  0.66528000  1.0
  H  H11  1  0.63258000  0.14867000  0.33472000  1.0
  H  H12  1  0.76634000  0.15505000  0.00806000  1.0
  H  H13  1  0.23366000  0.84495000  0.99194000  1.0
  H  H14  1  0.58616000  0.94463000  0.83596000  1.0
  H  H15  1  0.41384000  0.05538000  0.16404000  1.0
  H  H16  1  0.58768000  0.44573000  0.90182000  1.0
  H  H17  1  0.41232000  0.55427000  0.09818000  1.0
  H  H18  1  0.41046000  0.25559000  0.72881000  1.0
  H  H19  1  0.58954000  0.74441000  0.27119000  1.0
  H  H20  1  0.25097000  0.67327000  0.49862000  1.0
  H  H21  1  0.74903000  0.32673000  0.50138000  1.0
  H  H22  1  0.96132000  0.19927000  0.37963000  1.0
  H  H23  1  0.03868000  0.80073000  0.62037000  1.0
  H  H24  1  0.25901000  0.32900000  0.51143000  1.0
  H  H25  1  0.74099000  0.67100000  0.48857000  1.0
  H  H26  1  0.54447000  0.40057000  0.43420000  1.0
  H  H27  1  0.45553000  0.59943000  0.56580000  1.0
  H  H28  1  0.94972000  0.15063000  0.17821000  1.0
  H  H29  1  0.05028000  0.84937000  0.82179000  1.0
  H  H30  1  0.12747000  0.11701000  0.01704000  1.0
  H  H31  1  0.87253000  0.88299000  0.98296000  1.0
  H  H32  1  0.35425000  0.22821000  0.03597000  1.0
  H  H33  1  0.64575000  0.77179000  0.96403000  1.0
  C  C34  1  0.08160000  0.61006000  0.34043000  1.0
  C  C35  1  0.91840000  0.38994000  0.65957000  1.0
  C  C36  1  0.12750000  0.89902000  0.38550000  1.0
  C  C37  1  0.87250000  0.10098000  0.61450000  1.0
  C  C38  1  0.21411000  0.86087000  0.46570000  1.0
  C  C39  1  0.78589000  0.13912000  0.53430000  1.0
  C  C40  1  0.02115000  0.79125000  0.28788000  1.0
  C  C41  1  0.97885000  0.20875000  0.71212000  1.0
  C  C42  1  0.31980000  0.97624000  0.56889000  1.0
  C  C43  1  0.68020000  0.02376000  0.43111000  1.0
  C  C44  1  0.38689000  0.95945000  0.66179000  1.0
  C  C45  1  0.61311000  0.04055000  0.33821000  1.0
  C  C46  1  0.68691000  0.17109000  0.94243000  1.0
  C  C47  1  0.31308000  0.82891000  0.05757000  1.0
  C  C48  1  0.48716000  0.08069000  0.76383000  1.0
  C  C49  1  0.51284000  0.91931000  0.23617000  1.0
  C  C50  1  0.58626000  0.05501000  0.84723000  1.0
  C  C51  1  0.41373000  0.94499000  0.15277000  1.0
  C  C52  1  0.59059000  0.33461000  0.88370000  1.0
  C  C53  1  0.40941000  0.66539000  0.11630000  1.0
  C  C54  1  0.48946000  0.22530000  0.78541000  1.0
  C  C55  1  0.51054000  0.77470000  0.21459000  1.0
  C  C56  1  0.18862000  0.71135000  0.44056000  1.0
  C  C57  1  0.81138000  0.28865000  0.55944000  1.0
  C  C58  1  0.23918000  0.24989000  0.18997000  1.0
  C  C59  1  0.76082000  0.75011000  0.81003000  1.0
  C  C60  1  0.40722000  0.32090000  0.26395000  1.0
  C  C61  1  0.59278000  0.67910000  0.73605000  1.0
  C  C62  1  0.08727000  0.23279000  0.34819000  1.0
  C  C63  1  0.91273000  0.76720000  0.65181000  1.0
  C  C64  1  0.25379000  0.30496000  0.42153000  1.0
  C  C65  1  0.74621000  0.69504000  0.57847000  1.0
  C  C66  1  0.41297000  0.34596000  0.37853000  1.0
  C  C67  1  0.58702000  0.65404000  0.62147000  1.0
  C  C68  1  0.08141000  0.20455000  0.23389000  1.0
  C  C69  1  0.91859000  0.79545000  0.76611000  1.0
  C  C70  1  0.58584000  0.36690000  0.22405000  1.0
  C  C71  1  0.41416000  0.63310000  0.77595000  1.0
  C  C72  1  0.14546000  0.33466000  0.03718000  1.0
  C  C73  1  0.85454000  0.66534000  0.96282000  1.0
  C  C74  1  0.22338000  0.22510000  0.06702000  1.0
  C  C75  1  0.77662000  0.77490000  0.93298000  1.0
  N  N76  1  0.99816000  0.64883000  0.26493000  1.0
  N  N77  1  0.00184000  0.35117000  0.73507000  1.0
  N  N78  1  0.69143000  0.30978000  0.96052000  1.0
  N  N79  1  0.30857000  0.69022000  0.03947000  1.0
  O  O80  1  0.59779000  0.46113000  0.17716000  1.0
  O  O81  1  0.40221000  0.53887000  0.82284000  1.0
  O  O82  1  0.71067000  0.31205000  0.23841000  1.0
  O  O83  1  0.28933000  0.68795000  0.76159000  1.0
  O  O84  1  0.18227000  0.35151000  0.94647000  1.0
  O  O85  1  0.81773000  0.64849000  0.05354000  1.0
  O  O86  1  0.05091000  0.39750000  0.10339000  1.0
  O  O87  1  0.94909000  0.60250000  0.89661000  1.0
