# generated using pymatgen
data_KH24C20I2Cl(OF3)6
_symmetry_space_group_name_H-M   'P 1'
_cell_length_a   9.78345000
_cell_length_b   12.21020000
_cell_length_c   15.25296019
_cell_angle_alpha   104.91016528
_cell_angle_beta   108.71530887
_cell_angle_gamma   89.99740000
_symmetry_Int_Tables_number   1
_chemical_formula_structural   KH24C20I2Cl(OF3)6
_chemical_formula_sum   'K2 H48 C40 I4 Cl2 O12 F36'
_cell_volume   1660.84639814
_cell_formula_units_Z   2
loop_
 _symmetry_equiv_pos_site_id
 _symmetry_equiv_pos_as_xyz
  1  'x, y, z'
loop_
 _atom_site_type_symbol
 _atom_site_label
 _atom_site_symmetry_multiplicity
 _atom_site_fract_x
 _atom_site_fract_y
 _atom_site_fract_z
 _atom_site_occupancy
  K  K0  1  0.50000000  0.50000000  0.00000000  1.0
  K  K1  1  0.50000000  0.00000000  0.00000000  1.0
  H  H2  1  0.77218000  0.30523000  0.09876000  1.0
  H  H3  1  0.67342000  0.19477000  0.90124000  1.0
  H  H4  1  0.22782000  0.69477000  0.90124000  1.0
  H  H5  1  0.32659000  0.80523000  0.09877000  1.0
  H  H6  1  0.93158000  0.39166000  0.18297000  1.0
  H  H7  1  0.74861000  0.10834000  0.81703000  1.0
  H  H8  1  0.06842000  0.60834000  0.81703000  1.0
  H  H9  1  0.25139000  0.89166000  0.18297000  1.0
  H  H10  1  0.79906000  0.45679000  0.29376000  1.0
  H  H11  1  0.50530000  0.04321000  0.70624000  1.0
  H  H12  1  0.20094000  0.54321000  0.70624000  1.0
  H  H13  1  0.49470000  0.95679000  0.29376000  1.0
  H  H14  1  0.64028000  0.37039000  0.20789000  1.0
  H  H15  1  0.43240000  0.12963000  0.79212000  1.0
  H  H16  1  0.35972000  0.62961000  0.79211000  1.0
  H  H17  1  0.56760000  0.87037000  0.20788000  1.0
  H  H18  1  0.80126000  0.51328000  0.89855000  1.0
  H  H19  1  0.90272000  0.98674000  0.10145000  1.0
  H  H20  1  0.19873000  0.48672000  0.10145000  1.0
  H  H21  1  0.09728000  0.01326000  0.89855000  1.0
  H  H22  1  0.85153000  0.37190000  0.86079000  1.0
  H  H23  1  0.99073000  0.12812000  0.13921000  1.0
  H  H24  1  0.14847000  0.62810000  0.13921000  1.0
  H  H25  1  0.00927000  0.87188000  0.86079000  1.0
  H  H26  1  0.95262000  0.36292000  0.02621000  1.0
  H  H27  1  0.92640000  0.13709000  0.97379000  1.0
  H  H28  1  0.04738000  0.63708000  0.97379000  1.0
  H  H29  1  0.07360000  0.86291000  0.02621000  1.0
  H  H30  1  0.91086000  0.50713000  0.06275000  1.0
  H  H31  1  0.84811000  0.99287000  0.93726000  1.0
  H  H32  1  0.08914000  0.49287000  0.93725000  1.0
  H  H33  1  0.15190000  0.00713000  0.06275000  1.0
  H  H34  1  0.66574000  0.63150000  0.27996000  1.0
  H  H35  1  0.38579000  0.86851000  0.72005000  1.0
  H  H36  1  0.33426000  0.36850000  0.72004000  1.0
  H  H37  1  0.61421000  0.13149000  0.27995000  1.0
  H  H38  1  0.58392000  0.53485000  0.32348000  1.0
  H  H39  1  0.26044000  0.96516000  0.67652000  1.0
  H  H40  1  0.41608000  0.46515000  0.67652000  1.0
  H  H41  1  0.73956000  0.03484000  0.32348000  1.0
  H  H42  1  0.64936000  0.40945000  0.73219000  1.0
  H  H43  1  0.91716000  0.09056000  0.26780000  1.0
  H  H44  1  0.35063000  0.59055000  0.26780000  1.0
  H  H45  1  0.08284000  0.90944000  0.73220000  1.0
  H  H46  1  0.58812000  0.30300000  0.77605000  1.0
  H  H47  1  0.81206000  0.19701000  0.22395000  1.0
  H  H48  1  0.41188000  0.69700000  0.22395000  1.0
  H  H49  1  0.18794000  0.80299000  0.77605000  1.0
  C  C50  1  0.94490000  0.20124000  0.68271000  1.0
  C  C51  1  0.26225000  0.29874000  0.31729000  1.0
  C  C52  1  0.05510000  0.79876000  0.31729000  1.0
  C  C53  1  0.73775000  0.70126000  0.68271000  1.0
  C  C54  1  0.93839000  0.30196000  0.63668000  1.0
  C  C55  1  0.30170000  0.19803000  0.36332000  1.0
  C  C56  1  0.06161000  0.69804000  0.36332000  1.0
  C  C57  1  0.69830000  0.80197000  0.63668000  1.0
  C  C58  1  0.80039000  0.29739000  0.54697000  1.0
  C  C59  1  0.25344000  0.20262000  0.45303000  1.0
  C  C60  1  0.19961000  0.70261000  0.45303000  1.0
  C  C61  1  0.74656000  0.79738000  0.54697000  1.0
  C  C62  1  0.81731000  0.37334000  0.48174000  1.0
  C  C63  1  0.33560000  0.12668000  0.51827000  1.0
  C  C64  1  0.18269000  0.62666000  0.51826000  1.0
  C  C65  1  0.66440000  0.87332000  0.48173000  1.0
  C  C66  1  0.83067000  0.39077000  0.12335000  1.0
  C  C67  1  0.70731000  0.10924000  0.87664000  1.0
  C  C68  1  0.16933000  0.60923000  0.87665000  1.0
  C  C69  1  0.29269000  0.89076000  0.12336000  1.0
  C  C70  1  0.70159000  0.45487000  0.23135000  1.0
  C  C71  1  0.47024000  0.04516000  0.76865000  1.0
  C  C72  1  0.29841000  0.54513000  0.76865000  1.0
  C  C73  1  0.52976000  0.95484000  0.23135000  1.0
  C  C74  1  0.76583000  0.42182000  0.87972000  1.0
  C  C75  1  0.88609000  0.07820000  0.12029000  1.0
  C  C76  1  0.23417000  0.57818000  0.12028000  1.0
  C  C77  1  0.11391000  0.92180000  0.87971000  1.0
  C  C78  1  0.86806000  0.41703000  0.04210000  1.0
  C  C79  1  0.82596000  0.08298000  0.95790000  1.0
  C  C80  1  0.13194000  0.58297000  0.95790000  1.0
  C  C81  1  0.17404000  0.91702000  0.04210000  1.0
  C  C82  1  0.60834000  0.54617000  0.26033000  1.0
  C  C83  1  0.34802000  0.95384000  0.73968000  1.0
  C  C84  1  0.39166000  0.45383000  0.73967000  1.0
  C  C85  1  0.65198000  0.04616000  0.26032000  1.0
  C  C86  1  0.62759000  0.39370000  0.79477000  1.0
  C  C87  1  0.83283000  0.10633000  0.20522000  1.0
  C  C88  1  0.37241000  0.60630000  0.20523000  1.0
  C  C89  1  0.16717000  0.89367000  0.79478000  1.0
  I  I90  1  0.12320000  0.22734000  0.82016000  1.0
  I  I91  1  0.30310000  0.27262000  0.17984000  1.0
  I  I92  1  0.87680000  0.77266000  0.17984000  1.0
  I  I93  1  0.69689000  0.72739000  0.82015000  1.0
  Cl  Cl94  1  0.63156000  0.75001000  0.00000000  1.0
  Cl  Cl95  1  0.36844000  0.24999000  0.00000000  1.0
  O  O96  1  0.74241000  0.47498000  0.15472000  1.0
  O  O97  1  0.58770000  0.02502000  0.84528000  1.0
  O  O98  1  0.25759000  0.52502000  0.84528000  1.0
  O  O99  1  0.41230000  0.97498000  0.15472000  1.0
  O  O100  1  0.74020000  0.39537000  0.95939000  1.0
  O  O101  1  0.78079000  0.10462000  0.04059000  1.0
  O  O102  1  0.25980000  0.60463000  0.04061000  1.0
  O  O103  1  0.21921000  0.89537000  0.95941000  1.0
  O  O104  1  0.47771000  0.53518000  0.18130000  1.0
  O  O105  1  0.29641000  0.96482000  0.81869000  1.0
  O  O106  1  0.52229000  0.46482000  0.81870000  1.0
  O  O107  1  0.70358000  0.03518000  0.18130000  1.0
  F  F108  1  0.81308000  0.18691000  0.69524000  1.0
  F  F109  1  0.11787000  0.31308000  0.30475000  1.0
  F  F110  1  0.18692000  0.81309000  0.30476000  1.0
  F  F111  1  0.88213000  0.68693000  0.69525000  1.0
  F  F112  1  0.96012000  0.10381000  0.61894000  1.0
  F  F113  1  0.34120000  0.39618000  0.38106000  1.0
  F  F114  1  0.03988000  0.89619000  0.38106000  1.0
  F  F115  1  0.65880000  0.60382000  0.61894000  1.0
  F  F116  1  0.94209000  0.40141000  0.70453000  1.0
  F  F117  1  0.23749000  0.09859000  0.29548000  1.0
  F  F118  1  0.05791000  0.59859000  0.29547000  1.0
  F  F119  1  0.76251000  0.90141000  0.70452000  1.0
  F  F120  1  0.05850000  0.30598000  0.60958000  1.0
  F  F121  1  0.44893000  0.19396000  0.39039000  1.0
  F  F122  1  0.94150000  0.69402000  0.39042000  1.0
  F  F123  1  0.55107000  0.80604000  0.60961000  1.0
  F  F124  1  0.76357000  0.18832000  0.48973000  1.0
  F  F125  1  0.27384000  0.31170000  0.51026000  1.0
  F  F126  1  0.23643000  0.81168000  0.51027000  1.0
  F  F127  1  0.72616000  0.68830000  0.48974000  1.0
  F  F128  1  0.68813000  0.33342000  0.57848000  1.0
  F  F129  1  0.10967000  0.16658000  0.42151000  1.0
  F  F130  1  0.31187000  0.66658000  0.42152000  1.0
  F  F131  1  0.89033000  0.83342000  0.57849000  1.0
  F  F132  1  0.87694000  0.47898000  0.53540000  1.0
  F  F133  1  0.34167000  0.02106000  0.46462000  1.0
  F  F134  1  0.12306000  0.52102000  0.46460000  1.0
  F  F135  1  0.65833000  0.97894000  0.53538000  1.0
  F  F136  1  0.90039000  0.32683000  0.42859000  1.0
  F  F137  1  0.47179000  0.17326000  0.57145000  1.0
  F  F138  1  0.09961000  0.67317000  0.57141000  1.0
  F  F139  1  0.52821000  0.82674000  0.42855000  1.0
  F  F140  1  0.68448000  0.38166000  0.42073000  1.0
  F  F141  1  0.26373000  0.11830000  0.57922000  1.0
  F  F142  1  0.31553000  0.61834000  0.57927000  1.0
  F  F143  1  0.73626000  0.88170000  0.42078000  1.0
