# generated using pymatgen
data_EuH36C36N7O16
_symmetry_space_group_name_H-M   'P 1'
_cell_length_a   10.11850000
_cell_length_b   12.11960000
_cell_length_c   19.14980000
_cell_angle_alpha   82.69950000
_cell_angle_beta   79.81860000
_cell_angle_gamma   67.03220000
_symmetry_Int_Tables_number   1
_chemical_formula_structural   EuH36C36N7O16
_chemical_formula_sum   'Eu2 H72 C72 N14 O32'
_cell_volume   2123.78590744
_cell_formula_units_Z   2
loop_
 _symmetry_equiv_pos_site_id
 _symmetry_equiv_pos_as_xyz
  1  'x, y, z'
loop_
 _atom_site_type_symbol
 _atom_site_label
 _atom_site_symmetry_multiplicity
 _atom_site_fract_x
 _atom_site_fract_y
 _atom_site_fract_z
 _atom_site_occupancy
  Eu  Eu0  1  0.67275000  0.70838000  0.28366000  1.0
  Eu  Eu1  1  0.32725000  0.29162000  0.71634000  1.0
  H  H2  1  0.26579000  0.94559000  0.11450000  1.0
  H  H3  1  0.73421000  0.05441000  0.88550000  1.0
  H  H4  1  0.89340000  0.31778000  0.44792000  1.0
  H  H5  1  0.10660000  0.68222000  0.55208000  1.0
  H  H6  1  0.47070000  0.60456000  0.24433000  1.0
  H  H7  1  0.52930000  0.39543000  0.75567000  1.0
  H  H8  1  0.58181000  0.49700000  0.29101000  1.0
  H  H9  1  0.41820000  0.50300000  0.70899000  1.0
  H  H10  1  0.97933000  0.28496000  0.20688000  1.0
  H  H11  1  0.02067000  0.71504000  0.79312000  1.0
  H  H12  1  0.08417000  0.35560000  0.28927000  1.0
  H  H13  1  0.91582000  0.64440000  0.71073000  1.0
  H  H14  1  0.32397000  0.22583000  0.32783000  1.0
  H  H15  1  0.67603000  0.77417000  0.67217000  1.0
  H  H16  1  0.45299000  0.02006000  0.28407000  1.0
  H  H17  1  0.54700000  0.97994000  0.71593000  1.0
  H  H18  1  0.99656000  0.22528000  0.09720000  1.0
  H  H19  1  0.00344000  0.77472000  0.90280000  1.0
  H  H20  1  0.88176000  0.15799000  0.15298000  1.0
  H  H21  1  0.11824000  0.84201000  0.84702000  1.0
  H  H22  1  0.79633000  0.03754000  0.09927000  1.0
  H  H23  1  0.20367000  0.96247000  0.90073000  1.0
  H  H24  1  0.39278000  0.97414000  0.94735000  1.0
  H  H25  1  0.60721000  0.02587000  0.05265000  1.0
  H  H26  1  0.39585000  0.11401000  0.96670000  1.0
  H  H27  1  0.60415000  0.88599000  0.03330000  1.0
  H  H28  1  0.29511000  0.11096000  0.89927000  1.0
  H  H29  1  0.70489000  0.88905000  0.10072000  1.0
  H  H30  1  0.52754000  0.71841000  0.12608000  1.0
  H  H31  1  0.47246000  0.28158000  0.87392000  1.0
  H  H32  1  0.43923000  0.77763000  0.04941000  1.0
  H  H33  1  0.56077000  0.22237000  0.95059000  1.0
  H  H34  1  0.19695000  0.76652000  0.04459000  1.0
  H  H35  1  0.80305000  0.23348000  0.95541000  1.0
  H  H36  1  0.04717000  0.64086000  0.08383000  1.0
  H  H37  1  0.95284000  0.35914000  0.91617000  1.0
  H  H38  1  0.10118000  0.49821000  0.19231000  1.0
  H  H39  1  0.89882000  0.50179000  0.80769000  1.0
  H  H40  1  0.29674000  0.49223000  0.25771000  1.0
  H  H41  1  0.70327000  0.50776000  0.74229000  1.0
  H  H42  1  0.33431000  0.26559000  0.46854000  1.0
  H  H43  1  0.66569000  0.73440000  0.53146000  1.0
  H  H44  1  0.40265000  0.44131000  0.43416000  1.0
  H  H45  1  0.59734000  0.55869000  0.56584000  1.0
  H  H46  1  0.22899000  0.63223000  0.38542000  1.0
  H  H47  1  0.77101000  0.36777000  0.61458000  1.0
  H  H48  1  0.98240000  0.64631000  0.37205000  1.0
  H  H49  1  0.01760000  0.35369000  0.62795000  1.0
  H  H50  1  0.19614000  0.16092000  0.53829000  1.0
  H  H51  1  0.80386000  0.83908000  0.46171000  1.0
  H  H52  1  0.27092000  0.11326000  0.44996000  1.0
  H  H53  1  0.72908000  0.88674000  0.55004000  1.0
  H  H54  1  0.18036000  0.99773000  0.39336000  1.0
  H  H55  1  0.81964000  0.00227000  0.60664000  1.0
  H  H56  1  0.75934000  0.17549000  0.65653000  1.0
  H  H57  1  0.24066000  0.82451000  0.34347000  1.0
  H  H58  1  0.87832000  0.20623000  0.70455000  1.0
  H  H59  1  0.12168000  0.79377000  0.29545000  1.0
  H  H60  1  0.90033000  0.05476000  0.69687000  1.0
  H  H61  1  0.09967000  0.94524000  0.30313000  1.0
  H  H62  1  0.60651000  0.49190000  0.41015000  1.0
  H  H63  1  0.39349000  0.50810000  0.58985000  1.0
  H  H64  1  0.63036000  0.37917000  0.48219000  1.0
  H  H65  1  0.36964000  0.62083000  0.51781000  1.0
  H  H66  1  0.60898000  0.31367000  0.21643000  1.0
  H  H67  1  0.39101000  0.68634000  0.78357000  1.0
  H  H68  1  0.66434000  0.09416000  0.25139000  1.0
  H  H69  1  0.33566000  0.90584000  0.74861000  1.0
  H  H70  1  0.72342000  0.01692000  0.37418000  1.0
  H  H71  1  0.27657000  0.98308000  0.62582000  1.0
  H  H72  1  0.72858000  0.15963000  0.45666000  1.0
  H  H73  1  0.27142000  0.84037000  0.54334000  1.0
  C  C74  1  0.37720000  0.91220000  0.19667000  1.0
  C  C75  1  0.62280000  0.08780000  0.80333000  1.0
  C  C76  1  0.29177000  0.03569000  0.22023000  1.0
  C  C77  1  0.70823000  0.96431000  0.77978000  1.0
  C  C78  1  0.15682000  0.11157000  0.19802000  1.0
  C  C79  1  0.84319000  0.88843000  0.80198000  1.0
  C  C80  1  0.08291000  0.22605000  0.22345000  1.0
  C  C81  1  0.91709000  0.77395000  0.77655000  1.0
  C  C82  1  0.14348000  0.26613000  0.27001000  1.0
  C  C83  1  0.85652000  0.73387000  0.72999000  1.0
  C  C84  1  0.27683000  0.19328000  0.29196000  1.0
  C  C85  1  0.72317000  0.80672000  0.70804000  1.0
  C  C86  1  0.34903000  0.07863000  0.26759000  1.0
  C  C87  1  0.65097000  0.92137000  0.73241000  1.0
  C  C88  1  0.98346000  0.14002000  0.11627000  1.0
  C  C89  1  0.01654000  0.85998000  0.88373000  1.0
  C  C90  1  0.10722000  0.04595000  0.00064000  1.0
  C  C91  1  0.89278000  0.95405000  0.99936000  1.0
  C  C92  1  0.98930000  0.06968000  0.05586000  1.0
  C  C93  1  0.01070000  0.93032000  0.94414000  1.0
  C  C94  1  0.88347000  0.02288000  0.05482000  1.0
  C  C95  1  0.11653000  0.97712000  0.94517000  1.0
  C  C96  1  0.32929000  0.07120000  0.95110000  1.0
  C  C97  1  0.67071000  0.92880000  0.04890000  1.0
  C  C98  1  0.42165000  0.76500000  0.10772000  1.0
  C  C99  1  0.57835000  0.23500000  0.89228000  1.0
  C  C100  1  0.32780000  0.69160000  0.12956000  1.0
  C  C101  1  0.67220000  0.30839000  0.87044000  1.0
  C  C102  1  0.21752000  0.70306000  0.09098000  1.0
  C  C103  1  0.78249000  0.29694000  0.90902000  1.0
  C  C104  1  0.13413000  0.63333000  0.11292000  1.0
  C  C105  1  0.86588000  0.36667000  0.88707000  1.0
  C  C106  1  0.16339000  0.55429000  0.17296000  1.0
  C  C107  1  0.83661000  0.44571000  0.82704000  1.0
  C  C108  1  0.27293000  0.55021000  0.20929000  1.0
  C  C109  1  0.72707000  0.44979000  0.79071000  1.0
  C  C110  1  0.86590000  0.48360000  0.40382000  1.0
  C  C111  1  0.13410000  0.51640000  0.59618000  1.0
  C  C112  1  0.01676000  0.46522000  0.41236000  1.0
  C  C113  1  0.98324000  0.53478000  0.58764000  1.0
  C  C114  1  0.11821000  0.35686000  0.44021000  1.0
  C  C115  1  0.88179000  0.64314000  0.55979000  1.0
  C  C116  1  0.25693000  0.34875000  0.44739000  1.0
  C  C117  1  0.74307000  0.65125000  0.55261000  1.0
  C  C118  1  0.29524000  0.44802000  0.42754000  1.0
  C  C119  1  0.70476000  0.55198000  0.57246000  1.0
  C  C120  1  0.19769000  0.55526000  0.40034000  1.0
  C  C121  1  0.80232000  0.44473000  0.59966000  1.0
  C  C122  1  0.05993000  0.56308000  0.39298000  1.0
  C  C123  1  0.94008000  0.43692000  0.60702000  1.0
  C  C124  1  0.17046000  0.14796000  0.48727000  1.0
  C  C125  1  0.82954000  0.85204000  0.51273000  1.0
  C  C126  1  0.98288000  0.07193000  0.55572000  1.0
  C  C127  1  0.01712000  0.92807000  0.44428000  1.0
  C  C128  1  0.08571000  0.06878000  0.49513000  1.0
  C  C129  1  0.91429000  0.93122000  0.50487000  1.0
  C  C130  1  0.10122000  0.99769000  0.43993000  1.0
  C  C131  1  0.89878000  0.00231000  0.56007000  1.0
  C  C132  1  0.87019000  0.14494000  0.66981000  1.0
  C  C133  1  0.12981000  0.85506000  0.33019000  1.0
  C  C134  1  0.67328000  0.40003000  0.42724000  1.0
  C  C135  1  0.32672000  0.59997000  0.57276000  1.0
  C  C136  1  0.67179000  0.31055000  0.37913000  1.0
  C  C137  1  0.32821000  0.68945000  0.62087000  1.0
  C  C138  1  0.63717000  0.27514000  0.26912000  1.0
  C  C139  1  0.36283000  0.72486000  0.73088000  1.0
  C  C140  1  0.66783000  0.15382000  0.28846000  1.0
  C  C141  1  0.33216000  0.84618000  0.71155000  1.0
  C  C142  1  0.70202000  0.11072000  0.35675000  1.0
  C  C143  1  0.29798000  0.88928000  0.64325000  1.0
  C  C144  1  0.70484000  0.19014000  0.40263000  1.0
  C  C145  1  0.29516000  0.80986000  0.59737000  1.0
  N  N146  1  0.35354000  0.88374000  0.13569000  1.0
  N  N147  1  0.64646000  0.11626000  0.86432000  1.0
  N  N148  1  0.35358000  0.61718000  0.18837000  1.0
  N  N149  1  0.64642000  0.38282000  0.81163000  1.0
  N  N150  1  0.81939000  0.39408000  0.42698000  1.0
  N  N151  1  0.18061000  0.60593000  0.57302000  1.0
  N  N152  1  0.63861000  0.35201000  0.31334000  1.0
  N  N153  1  0.36140000  0.64799000  0.68666000  1.0
  N  N154  1  0.82927000  0.54712000  0.16893000  1.0
  N  N155  1  0.17073000  0.45289000  0.83108000  1.0
  N  N156  1  0.52687000  0.83995000  0.41169000  1.0
  N  N157  1  0.47313000  0.16004000  0.58831000  1.0
  N  N158  1  0.85618000  0.84703000  0.23039000  1.0
  N  N159  1  0.14382000  0.15296000  0.76961000  1.0
  O  O160  1  0.47140000  0.83846000  0.23244000  1.0
  O  O161  1  0.52859000  0.16154000  0.76756000  1.0
  O  O162  1  0.10378000  0.06487000  0.15359000  1.0
  O  O163  1  0.89623000  0.93514000  0.84641000  1.0
  O  O164  1  0.20805000  0.09267000  0.00623000  1.0
  O  O165  1  0.79195000  0.90733000  0.99377000  1.0
  O  O166  1  0.78373000  0.58193000  0.37687000  1.0
  O  O167  1  0.21627000  0.41807000  0.62314000  1.0
  O  O168  1  0.07486000  0.26292000  0.45834000  1.0
  O  O169  1  0.92514000  0.73708000  0.54166000  1.0
  O  O170  1  0.97182000  0.14470000  0.60717000  1.0
  O  O171  1  0.02819000  0.85530000  0.39283000  1.0
  O  O172  1  0.75000000  0.65851000  0.15630000  1.0
  O  O173  1  0.25001000  0.34149000  0.84370000  1.0
  O  O174  1  0.85223000  0.51561000  0.23383000  1.0
  O  O175  1  0.14777000  0.48440000  0.76617000  1.0
  O  O176  1  0.87981000  0.47541000  0.12170000  1.0
  O  O177  1  0.12018000  0.52460000  0.87831000  1.0
  O  O178  1  0.48187000  0.76476000  0.39202000  1.0
  O  O179  1  0.51814000  0.23524000  0.60798000  1.0
  O  O180  1  0.63531000  0.85554000  0.37096000  1.0
  O  O181  1  0.36469000  0.14446000  0.62904000  1.0
  O  O182  1  0.47088000  0.89455000  0.46623000  1.0
  O  O183  1  0.52912000  0.10545000  0.53376000  1.0
  O  O184  1  0.90358000  0.74289000  0.26360000  1.0
  O  O185  1  0.09642000  0.25710000  0.73641000  1.0
  O  O186  1  0.72264000  0.88652000  0.21962000  1.0
  O  O187  1  0.27735000  0.11348000  0.78038000  1.0
  O  O188  1  0.93341000  0.90549000  0.20985000  1.0
  O  O189  1  0.06659000  0.09451000  0.79015000  1.0
  O  O190  1  0.54079000  0.58778000  0.27997000  1.0
  O  O191  1  0.45921000  0.41221000  0.72002000  1.0
