# generated using pymatgen
data_CdH10C14(SN2)2
_symmetry_space_group_name_H-M   'P 1'
_cell_length_a   8.92407000
_cell_length_b   9.12931000
_cell_length_c   9.91180000
_cell_angle_alpha   100.38000000
_cell_angle_beta   99.41670000
_cell_angle_gamma   102.98600000
_symmetry_Int_Tables_number   1
_chemical_formula_structural   CdH10C14(SN2)2
_chemical_formula_sum   'Cd2 H20 C28 S4 N8'
_cell_volume   756.23863701
_cell_formula_units_Z   2
loop_
 _symmetry_equiv_pos_site_id
 _symmetry_equiv_pos_as_xyz
  1  'x, y, z'
loop_
 _atom_site_type_symbol
 _atom_site_label
 _atom_site_symmetry_multiplicity
 _atom_site_fract_x
 _atom_site_fract_y
 _atom_site_fract_z
 _atom_site_occupancy
  Cd  Cd0  1  0.88784000  0.09854000  0.24806000  1.0
  Cd  Cd1  1  0.11216000  0.90146000  0.75195000  1.0
  H  H2  1  0.82881000  0.54624000  0.25427000  1.0
  H  H3  1  0.17120000  0.45376000  0.74573000  1.0
  H  H4  1  0.57246000  0.52803000  0.30811000  1.0
  H  H5  1  0.42754000  0.47197000  0.69189000  1.0
  H  H6  1  0.33775000  0.38009000  0.38203000  1.0
  H  H7  1  0.66224000  0.61991000  0.61796000  1.0
  H  H8  1  0.33333333  0.11478000  0.41924000  1.0
  H  H9  1  0.66666667  0.88522000  0.58076000  1.0
  H  H10  1  0.56130000  0.00565000  0.37595000  1.0
  H  H11  1  0.43869000  0.99435000  0.62405000  1.0
  H  H12  1  0.09374000  0.65506000  0.35215000  1.0
  H  H13  1  0.90626000  0.34493000  0.64785000  1.0
  H  H14  1  0.32688000  0.80361000  0.28378000  1.0
  H  H15  1  0.67312000  0.19639000  0.71622000  1.0
  H  H16  1  0.43396000  0.68189000  0.08888000  1.0
  H  H17  1  0.56604000  0.31812000  0.91111000  1.0
  H  H18  1  0.30752000  0.40676000  0.96401000  1.0
  H  H19  1  0.69248000  0.59324000  0.03598000  1.0
  H  H20  1  0.07113000  0.25986000  0.02795000  1.0
  H  H21  1  0.92887000  0.74014000  0.97205000  1.0
  C  C22  1  0.82355000  0.42619000  0.25946000  1.0
  C  C23  1  0.17645000  0.57380000  0.74054000  1.0
  C  C24  1  0.68669000  0.34288000  0.30379000  1.0
  C  C25  1  0.31331000  0.65712000  0.69621000  1.0
  C  C26  1  0.56495000  0.41215000  0.32534000  1.0
  C  C27  1  0.43506000  0.58784000  0.67466000  1.0
  C  C28  1  0.43559000  0.33026000  0.36714000  1.0
  C  C29  1  0.56441000  0.66974000  0.63286000  1.0
  C  C30  1  0.43283000  0.18292000  0.38800000  1.0
  C  C31  1  0.56716000  0.81708000  0.61200000  1.0
  C  C32  1  0.55849000  0.12160000  0.36357000  1.0
  C  C33  1  0.44151000  0.87841000  0.63643000  1.0
  C  C34  1  0.06520000  0.44901000  0.19160000  1.0
  C  C35  1  0.93480000  0.55099000  0.80839000  1.0
  C  C36  1  0.13880000  0.60223000  0.26506000  1.0
  C  C37  1  0.86120000  0.39777000  0.73494000  1.0
  C  C38  1  0.27110000  0.68457000  0.22770000  1.0
  C  C39  1  0.72890000  0.31543000  0.77230000  1.0
  C  C40  1  0.33163000  0.61585000  0.11858000  1.0
  C  C41  1  0.66837000  0.38415000  0.88142000  1.0
  C  C42  1  0.26048000  0.46254000  0.04817000  1.0
  C  C43  1  0.73952000  0.53746000  0.95183000  1.0
  C  C44  1  0.12811000  0.37854000  0.08427000  1.0
  C  C45  1  0.87189000  0.62146000  0.91573000  1.0
  C  C46  1  0.86958000  0.81471000  0.42718000  1.0
  C  C47  1  0.13042000  0.18529000  0.57283000  1.0
  C  C48  1  0.81905000  0.98773000  0.89708000  1.0
  C  C49  1  0.18095000  0.01227000  0.10292000  1.0
  S  S50  1  0.74333000  0.81833000  0.28937000  1.0
  S  S51  1  0.25667000  0.18167000  0.71063000  1.0
  S  S52  1  0.68388000  0.99742000  0.98776000  1.0
  S  S53  1  0.31612000  0.00258000  0.01224000  1.0
  N  N54  1  0.93071000  0.36185000  0.22543000  1.0
  N  N55  1  0.06929000  0.63815000  0.77457000  1.0
  N  N56  1  0.68186000  0.19894000  0.32225000  1.0
  N  N57  1  0.31814000  0.80106000  0.67775000  1.0
  N  N58  1  0.95973000  0.80617000  0.52527000  1.0
  N  N59  1  0.04027000  0.19383000  0.47474000  1.0
  N  N60  1  0.91475000  0.98155000  0.82800000  1.0
  N  N61  1  0.08524000  0.01845000  0.17200000  1.0
