# generated using pymatgen
data_ZnH12C7SO10
_symmetry_space_group_name_H-M   'P 1'
_cell_length_a   7.02015000
_cell_length_b   9.65166000
_cell_length_c   9.65165000
_cell_angle_alpha   114.48400000
_cell_angle_beta   92.50630000
_cell_angle_gamma   92.50610000
_symmetry_Int_Tables_number   1
_chemical_formula_structural   ZnH12C7SO10
_chemical_formula_sum   'Zn2 H24 C14 S2 O20'
_cell_volume   593.20571982
_cell_formula_units_Z   2
loop_
 _symmetry_equiv_pos_site_id
 _symmetry_equiv_pos_as_xyz
  1  'x, y, z'
loop_
 _atom_site_type_symbol
 _atom_site_label
 _atom_site_symmetry_multiplicity
 _atom_site_fract_x
 _atom_site_fract_y
 _atom_site_fract_z
 _atom_site_occupancy
  Zn  Zn0  1  0.49241000  0.38140000  0.59653000  1.0
  Zn  Zn1  1  0.99241000  0.59653000  0.38140000  1.0
  H  H2  1  0.46106000  0.02516000  0.80879000  1.0
  H  H3  1  0.96106000  0.80879000  0.02516000  1.0
  H  H4  1  0.40492000  0.79471000  0.85612000  1.0
  H  H5  1  0.90492000  0.85612000  0.79471000  1.0
  H  H6  1  0.62243000  0.04838000  0.32585000  1.0
  H  H7  1  0.12243000  0.32585000  0.04838000  1.0
  H  H8  1  0.68485000  0.36577000  0.09692000  1.0
  H  H9  1  0.18485000  0.09692000  0.36577000  1.0
  H  H10  1  0.37454000  0.13150000  0.63023000  1.0
  H  H11  1  0.87454000  0.63023000  0.13150000  1.0
  H  H12  1  0.60402000  0.12851000  0.63117000  1.0
  H  H13  1  0.10402000  0.63117000  0.12852000  1.0
  H  H14  1  0.28680000  0.53949000  0.84916000  1.0
  H  H15  1  0.78680000  0.84916000  0.53949000  1.0
  H  H16  1  0.16331000  0.38919000  0.74739000  1.0
  H  H17  1  0.66331000  0.74739000  0.38919000  1.0
  H  H18  1  0.67043000  0.53287000  0.87587000  1.0
  H  H19  1  0.17043000  0.87587000  0.53288000  1.0
  H  H20  1  0.79204000  0.39486000  0.77875000  1.0
  H  H21  1  0.29204000  0.77875000  0.39486000  1.0
  H  H22  1  0.59400000  0.63670000  0.54715000  1.0
  H  H23  1  0.09400000  0.54715000  0.63670000  1.0
  H  H24  1  0.38619000  0.55921000  0.48350000  1.0
  H  H25  1  0.88618000  0.48350000  0.55921000  1.0
  C  C26  1  0.58094000  0.16493000  0.03669000  1.0
  C  C27  1  0.08094000  0.03669000  0.16493000  1.0
  C  C28  1  0.49806000  0.02832000  0.92064000  1.0
  C  C29  1  0.99807000  0.92064000  0.02832000  1.0
  C  C30  1  0.46566000  0.90013000  0.94825000  1.0
  C  C31  1  0.96567000  0.94825000  0.90013000  1.0
  C  C32  1  0.51310000  0.90736000  0.09439000  1.0
  C  C33  1  0.01310000  0.09439000  0.90735000  1.0
  C  C34  1  0.58961000  0.04186000  0.21193000  1.0
  C  C35  1  0.08961000  0.21193000  0.04186000  1.0
  C  C36  1  0.62543000  0.17223000  0.18492000  1.0
  C  C37  1  0.12543000  0.18492000  0.17222000  1.0
  C  C38  1  0.71400000  0.31365000  0.30956000  1.0
  C  C39  1  0.21400000  0.30956000  0.31365000  1.0
  S  S40  1  0.48575000  0.73971000  0.12357000  1.0
  S  S41  1  0.98575000  0.12357000  0.73971000  1.0
  O  O42  1  0.49074000  0.16498000  0.59527000  1.0
  O  O43  1  0.99074000  0.59527000  0.16498000  1.0
  O  O44  1  0.25592000  0.46705000  0.74076000  1.0
  O  O45  1  0.75592000  0.74076000  0.46705000  1.0
  O  O46  1  0.70444000  0.46912000  0.77060000  1.0
  O  O47  1  0.20444000  0.77060000  0.46912000  1.0
  O  O48  1  0.48224000  0.58709000  0.57179000  1.0
  O  O49  1  0.98224000  0.57179000  0.58709000  1.0
  O  O50  1  0.73182000  0.32466000  0.44598000  1.0
  O  O51  1  0.23182000  0.44598000  0.32466000  1.0
  O  O52  1  0.77324000  0.42079000  0.27167000  1.0
  O  O53  1  0.27324000  0.27167000  0.42079000  1.0
  O  O54  1  0.61418000  0.28483000  0.00261000  1.0
  O  O55  1  0.11417000  0.00261000  0.28483000  1.0
  O  O56  1  0.48352000  0.78391000  0.28907000  1.0
  O  O57  1  0.98352000  0.28907000  0.78391000  1.0
  O  O58  1  0.65140000  0.64948000  0.06038000  1.0
  O  O59  1  0.15139000  0.06038000  0.64947000  1.0
  O  O60  1  0.30530000  0.65740000  0.03940000  1.0
  O  O61  1  0.80530000  0.03940000  0.65740000  1.0
