# generated using pymatgen
data_H7AuC6NCl
_symmetry_space_group_name_H-M   'P 1'
_cell_length_a   8.23158000
_cell_length_b   8.23157000
_cell_length_c   12.32950000
_cell_angle_alpha   92.74050000
_cell_angle_beta   92.74030000
_cell_angle_gamma   118.29700000
_symmetry_Int_Tables_number   1
_chemical_formula_structural   H7AuC6NCl
_chemical_formula_sum   'H28 Au4 C24 N4 Cl4'
_cell_volume   732.39612125
_cell_formula_units_Z   4
loop_
 _symmetry_equiv_pos_site_id
 _symmetry_equiv_pos_as_xyz
  1  'x, y, z'
loop_
 _atom_site_type_symbol
 _atom_site_label
 _atom_site_symmetry_multiplicity
 _atom_site_fract_x
 _atom_site_fract_y
 _atom_site_fract_z
 _atom_site_occupancy
  H  H0  1  0.71008000  0.06527000  0.59629000  1.0
  H  H1  1  0.93473000  0.28992000  0.90371000  1.0
  H  H2  1  0.28992000  0.93473000  0.40372000  1.0
  H  H3  1  0.06527000  0.71008000  0.09629000  1.0
  H  H4  1  0.67020000  0.48855000  0.42100000  1.0
  H  H5  1  0.51145000  0.32980000  0.07900000  1.0
  H  H6  1  0.32980000  0.51145000  0.57900000  1.0
  H  H7  1  0.48855000  0.67020000  0.92100000  1.0
  H  H8  1  0.90872000  0.49028000  0.30550000  1.0
  H  H9  1  0.50972000  0.09128000  0.19450000  1.0
  H  H10  1  0.09128000  0.50972000  0.69450000  1.0
  H  H11  1  0.49028000  0.90872000  0.80550000  1.0
  H  H12  1  0.04712000  0.28118000  0.34389000  1.0
  H  H13  1  0.71882000  0.95288000  0.15611000  1.0
  H  H14  1  0.95288000  0.71882000  0.65612000  1.0
  H  H15  1  0.28118000  0.04712000  0.84389000  1.0
  H  H16  1  0.57696000  0.40700000  0.63974000  1.0
  H  H17  1  0.59300000  0.42304000  0.86026000  1.0
  H  H18  1  0.42304000  0.59300000  0.36026000  1.0
  H  H19  1  0.40700000  0.57696000  0.13974000  1.0
  H  H20  1  0.49477000  0.16637000  0.65137000  1.0
  H  H21  1  0.83363000  0.50522000  0.84863000  1.0
  H  H22  1  0.50523000  0.83363000  0.34863000  1.0
  H  H23  1  0.16637000  0.49478000  0.15137000  1.0
  H  H24  1  0.39964000  0.24239000  0.54528000  1.0
  H  H25  1  0.75761000  0.60036000  0.95472000  1.0
  H  H26  1  0.60036000  0.75761000  0.45472000  1.0
  H  H27  1  0.24239000  0.39964000  0.04528000  1.0
  Au  Au28  1  0.00000000  0.00000000  0.50000000  1.0
  Au  Au29  1  0.00000000  0.00000000  0.00000000  1.0
  Au  Au30  1  0.95640000  0.04360000  0.75000000  1.0
  Au  Au31  1  0.04360000  0.95639000  0.25000000  1.0
  C  C32  1  0.75087000  0.16351000  0.53370000  1.0
  C  C33  1  0.83648000  0.24913000  0.96630000  1.0
  C  C34  1  0.24913000  0.83649000  0.46630000  1.0
  C  C35  1  0.16351000  0.75087000  0.03370000  1.0
  C  C36  1  0.67084000  0.27803000  0.52017000  1.0
  C  C37  1  0.72197000  0.32917000  0.97982000  1.0
  C  C38  1  0.32917000  0.72197000  0.47983000  1.0
  C  C39  1  0.27803000  0.67084000  0.02018000  1.0
  C  C40  1  0.72942000  0.39743000  0.43615000  1.0
  C  C41  1  0.60256000  0.27058000  0.06385000  1.0
  C  C42  1  0.27058000  0.60256000  0.56385000  1.0
  C  C43  1  0.39743000  0.72942000  0.93615000  1.0
  C  C44  1  0.86374000  0.39904000  0.37138000  1.0
  C  C45  1  0.60095000  0.13626000  0.12862000  1.0
  C  C46  1  0.13626000  0.60096000  0.62862000  1.0
  C  C47  1  0.39904000  0.86374000  0.87138000  1.0
  C  C48  1  0.93973000  0.28352000  0.39121000  1.0
  C  C49  1  0.71648000  0.06027000  0.10879000  1.0
  C  C50  1  0.06027000  0.71648000  0.60879000  1.0
  C  C51  1  0.28352000  0.93973000  0.89121000  1.0
  C  C52  1  0.52849000  0.27260000  0.59325000  1.0
  C  C53  1  0.72740000  0.47151000  0.90675000  1.0
  C  C54  1  0.47151000  0.72740000  0.40675000  1.0
  C  C55  1  0.27260000  0.52849000  0.09325000  1.0
  N  N56  1  0.88335000  0.16692000  0.47138000  1.0
  N  N57  1  0.83308000  0.11665000  0.02862000  1.0
  N  N58  1  0.11665000  0.83308000  0.52862000  1.0
  N  N59  1  0.16692000  0.88335000  0.97138000  1.0
  Cl  Cl60  1  0.22592000  0.31570000  0.79118000  1.0
  Cl  Cl61  1  0.68430000  0.77408000  0.70882000  1.0
  Cl  Cl62  1  0.77408000  0.68430000  0.20882000  1.0
  Cl  Cl63  1  0.31570000  0.22592000  0.29118000  1.0
