# generated using pymatgen
data_KFeH20C20S4(Cl2O)2
_symmetry_space_group_name_H-M   'P 1'
_cell_length_a   8.54619000
_cell_length_b   11.94700000
_cell_length_c   12.75700000
_cell_angle_alpha   74.29960000
_cell_angle_beta   82.72130000
_cell_angle_gamma   86.70260000
_symmetry_Int_Tables_number   1
_chemical_formula_structural   KFeH20C20S4(Cl2O)2
_chemical_formula_sum   'K2 Fe2 H40 C40 S8 Cl8 O4'
_cell_volume   1243.43728403
_cell_formula_units_Z   2
loop_
 _symmetry_equiv_pos_site_id
 _symmetry_equiv_pos_as_xyz
  1  'x, y, z'
loop_
 _atom_site_type_symbol
 _atom_site_label
 _atom_site_symmetry_multiplicity
 _atom_site_fract_x
 _atom_site_fract_y
 _atom_site_fract_z
 _atom_site_occupancy
  K  K0  1  0.98772000  0.94045000  0.29850000  1.0
  K  K1  1  0.01228000  0.05954000  0.70150000  1.0
  Fe  Fe2  1  0.42377000  0.02363000  0.39455000  1.0
  Fe  Fe3  1  0.57623000  0.97637000  0.60545000  1.0
  H  H4  1  0.12996000  0.52467000  0.14316000  1.0
  H  H5  1  0.87004000  0.47532000  0.85684000  1.0
  H  H6  1  0.95249000  0.48088000  0.31840000  1.0
  H  H7  1  0.04751000  0.51912000  0.68160000  1.0
  H  H8  1  0.77641000  0.50730000  0.45697000  1.0
  H  H9  1  0.22358000  0.49269000  0.54303000  1.0
  H  H10  1  0.59940000  0.47519000  0.63215000  1.0
  H  H11  1  0.40059000  0.52482000  0.36785000  1.0
  H  H12  1  0.20668000  0.66343000  0.27694000  1.0
  H  H13  1  0.79333000  0.33656000  0.72306000  1.0
  H  H14  1  0.35632000  0.74135000  0.31278000  1.0
  H  H15  1  0.64369000  0.25864000  0.68722000  1.0
  H  H16  1  0.51627000  0.64600000  0.18852000  1.0
  H  H17  1  0.48373000  0.35400000  0.81147000  1.0
  H  H18  1  0.36166000  0.65830000  0.10502000  1.0
  H  H19  1  0.63834000  0.34170000  0.89498000  1.0
  H  H20  1  0.51466000  0.82708000  0.00298000  1.0
  H  H21  1  0.48535000  0.17293000  0.99702000  1.0
  H  H22  1  0.56538000  0.85189000  0.12613000  1.0
  H  H23  1  0.43463000  0.14811000  0.87387000  1.0
  H  H24  1  0.34854000  0.98429000  0.11032000  1.0
  H  H25  1  0.65146000  0.01571000  0.88969000  1.0
  H  H26  1  0.25741000  0.91544000  0.02549000  1.0
  H  H27  1  0.74259000  0.08456000  0.97451000  1.0
  H  H28  1  0.10638000  0.11097000  0.98041000  1.0
  H  H29  1  0.89361000  0.88904000  0.01959000  1.0
  H  H30  1  0.16610000  0.18090000  0.07614000  1.0
  H  H31  1  0.83390000  0.81911000  0.92385000  1.0
  H  H32  1  0.07509000  0.34963000  0.94312000  1.0
  H  H33  1  0.92489000  0.65038000  0.05687000  1.0
  H  H34  1  0.92672000  0.26854000  0.91167000  1.0
  H  H35  1  0.07326000  0.73146000  0.08834000  1.0
  H  H36  1  0.91467000  0.37509000  0.10270000  1.0
  H  H37  1  0.08532000  0.62491000  0.89731000  1.0
  H  H38  1  0.75559000  0.34190000  0.04097000  1.0
  H  H39  1  0.24440000  0.65811000  0.95904000  1.0
  H  H40  1  0.89700000  0.19842000  0.23425000  1.0
  H  H41  1  0.10301000  0.80158000  0.76575000  1.0
  H  H42  1  0.72961000  0.16323000  0.17957000  1.0
  H  H43  1  0.27039000  0.83677000  0.82044000  1.0
  C  C44  1  0.26536000  0.24870000  0.25635000  1.0
  C  C45  1  0.73465000  0.75130000  0.74365000  1.0
  C  C46  1  0.24821000  0.35726000  0.17982000  1.0
  C  C47  1  0.75179000  0.64274000  0.82018000  1.0
  C  C48  1  0.13832000  0.44051000  0.20249000  1.0
  C  C49  1  0.86169000  0.55949000  0.79751000  1.0
  C  C50  1  0.03876000  0.41577000  0.30113000  1.0
  C  C51  1  0.96125000  0.58424000  0.69887000  1.0
  C  C52  1  0.05097000  0.30800000  0.37647000  1.0
  C  C53  1  0.94904000  0.69199000  0.62353000  1.0
  C  C54  1  0.16438000  0.22352000  0.35715000  1.0
  C  C55  1  0.83562000  0.77648000  0.64285000  1.0
  C  C56  1  0.59949000  0.77864000  0.41543000  1.0
  C  C57  1  0.40051000  0.22136000  0.58456000  1.0
  C  C58  1  0.69694000  0.68504000  0.39636000  1.0
  C  C59  1  0.30305000  0.31496000  0.60363000  1.0
  C  C60  1  0.69976000  0.57787000  0.47374000  1.0
  C  C61  1  0.30023000  0.42213000  0.52626000  1.0
  C  C62  1  0.60144000  0.55959000  0.57250000  1.0
  C  C63  1  0.39856000  0.44040000  0.42750000  1.0
  C  C64  1  0.50291000  0.64979000  0.59347000  1.0
  C  C65  1  0.49708000  0.35022000  0.40652000  1.0
  C  C66  1  0.50324000  0.75988000  0.51744000  1.0
  C  C67  1  0.49675000  0.24013000  0.48255000  1.0
  C  C68  1  0.29787000  0.72925000  0.24438000  1.0
  C  C69  1  0.70213000  0.27074000  0.75562000  1.0
  C  C70  1  0.41816000  0.70216000  0.15528000  1.0
  C  C71  1  0.58184000  0.29784000  0.84472000  1.0
  C  C72  1  0.47125000  0.82393000  0.08842000  1.0
  C  C73  1  0.52876000  0.17606000  0.91159000  1.0
  C  C74  1  0.32268000  0.90019000  0.09737000  1.0
  C  C75  1  0.67733000  0.09981000  0.90263000  1.0
  C  C76  1  0.06596000  0.16664000  0.03476000  1.0
  C  C77  1  0.93404000  0.83337000  0.96524000  1.0
  C  C78  1  0.98826000  0.28135000  0.97796000  1.0
  C  C79  1  0.01173000  0.71866000  0.02204000  1.0
  C  C80  1  0.86943000  0.30915000  0.06981000  1.0
  C  C81  1  0.13057000  0.69085000  0.93020000  1.0
  C  C82  1  0.85168000  0.19267000  0.15858000  1.0
  C  C83  1  0.14833000  0.80733000  0.84143000  1.0
  S  S84  1  0.40719000  0.14438000  0.23403000  1.0
  S  S85  1  0.59281000  0.85562000  0.76597000  1.0
  S  S86  1  0.19059000  0.08922000  0.45007000  1.0
  S  S87  1  0.80942000  0.91078000  0.54993000  1.0
  S  S88  1  0.59793000  0.91421000  0.32017000  1.0
  S  S89  1  0.40207000  0.08579000  0.67983000  1.0
  S  S90  1  0.39354000  0.87897000  0.54739000  1.0
  S  S91  1  0.60646000  0.12103000  0.45261000  1.0
  Cl  Cl92  1  0.36702000  0.39058000  0.05573000  1.0
  Cl  Cl93  1  0.63298000  0.60942000  0.94427000  1.0
  Cl  Cl94  1  0.92475000  0.28157000  0.49829000  1.0
  Cl  Cl95  1  0.07525000  0.71842000  0.50170000  1.0
  Cl  Cl96  1  0.37745000  0.62279000  0.71468000  1.0
  Cl  Cl97  1  0.62255000  0.37722000  0.28532000  1.0
  Cl  Cl98  1  0.81931000  0.70361000  0.27316000  1.0
  Cl  Cl99  1  0.18069000  0.29639000  0.72684000  1.0
  O  O100  1  0.21938000  0.83688000  0.19255000  1.0
  O  O101  1  0.78062000  0.16312000  0.80745000  1.0
  O  O102  1  0.94291000  0.10596000  0.11452000  1.0
  O  O103  1  0.05710000  0.89404000  0.88548000  1.0
