# generated using pymatgen
data_Zn2H6C5N8O3
_symmetry_space_group_name_H-M   'P 1'
_cell_length_a   9.77244000
_cell_length_b   9.83473000
_cell_length_c   16.26810000
_cell_angle_alpha   90.00000000
_cell_angle_beta   89.99980000
_cell_angle_gamma   89.99960000
_symmetry_Int_Tables_number   1
_chemical_formula_structural   Zn2H6C5N8O3
_chemical_formula_sum   'Zn8 H24 C20 N32 O12'
_cell_volume   1563.51584711
_cell_formula_units_Z   4
loop_
 _symmetry_equiv_pos_site_id
 _symmetry_equiv_pos_as_xyz
  1  'x, y, z'
loop_
 _atom_site_type_symbol
 _atom_site_label
 _atom_site_symmetry_multiplicity
 _atom_site_fract_x
 _atom_site_fract_y
 _atom_site_fract_z
 _atom_site_occupancy
  Zn  Zn0  1  0.12282000  0.92990000  0.57613000  1.0
  Zn  Zn1  1  0.37718000  0.42990000  0.42387000  1.0
  Zn  Zn2  1  0.87718000  0.07010000  0.07613000  1.0
  Zn  Zn3  1  0.62282000  0.57010000  0.92387000  1.0
  Zn  Zn4  1  0.87718000  0.07010000  0.42387000  1.0
  Zn  Zn5  1  0.62282000  0.57010000  0.57613000  1.0
  Zn  Zn6  1  0.12282000  0.92990000  0.92387000  1.0
  Zn  Zn7  1  0.37718000  0.42990000  0.07613000  1.0
  H  H8  1  0.00712000  0.70655000  0.67868000  1.0
  H  H9  1  0.49288000  0.20655000  0.32132000  1.0
  H  H10  1  0.99288000  0.29345000  0.17868000  1.0
  H  H11  1  0.50712000  0.79346000  0.82132000  1.0
  H  H12  1  0.99288000  0.29345000  0.32132000  1.0
  H  H13  1  0.50712000  0.79345000  0.67868000  1.0
  H  H14  1  0.00712000  0.70655000  0.82132000  1.0
  H  H15  1  0.49288000  0.20655000  0.17868000  1.0
  H  H16  1  0.87517000  0.58793000  0.66458000  1.0
  H  H17  1  0.62483000  0.08794000  0.33543000  1.0
  H  H18  1  0.12483000  0.41206000  0.16457000  1.0
  H  H19  1  0.37517000  0.91206000  0.83543000  1.0
  H  H20  1  0.12483000  0.41207000  0.33543000  1.0
  H  H21  1  0.37517000  0.91206000  0.66457000  1.0
  H  H22  1  0.87517000  0.58794000  0.83543000  1.0
  H  H23  1  0.62483000  0.08794000  0.16457000  1.0
  H  H24  1  0.65529000  0.83599000  0.45321000  1.0
  H  H25  1  0.84471000  0.33599000  0.54679000  1.0
  H  H26  1  0.34472000  0.16400000  0.95321000  1.0
  H  H27  1  0.15529000  0.66401000  0.04679000  1.0
  H  H28  1  0.34471000  0.16401000  0.54679000  1.0
  H  H29  1  0.15528000  0.66400000  0.45321000  1.0
  H  H30  1  0.65528000  0.83600000  0.04679000  1.0
  H  H31  1  0.84471000  0.33599000  0.95320000  1.0
  C  C32  1  0.88094000  0.74071000  0.58361000  1.0
  C  C33  1  0.61906000  0.24072000  0.41640000  1.0
  C  C34  1  0.11906000  0.25928000  0.08360000  1.0
  C  C35  1  0.38094000  0.75928000  0.91640000  1.0
  C  C36  1  0.11906000  0.25928000  0.41640000  1.0
  C  C37  1  0.38093000  0.75928000  0.58360000  1.0
  C  C38  1  0.88093000  0.74073000  0.91640000  1.0
  C  C39  1  0.61906000  0.24072000  0.08360000  1.0
  C  C40  1  0.74270000  0.82210000  0.49349000  1.0
  C  C41  1  0.75730000  0.32211000  0.50651000  1.0
  C  C42  1  0.25730000  0.17789000  0.99350000  1.0
  C  C43  1  0.24270000  0.67790000  0.00651000  1.0
  C  C44  1  0.25730000  0.17789000  0.50651000  1.0
  C  C45  1  0.24270000  0.67789000  0.49349000  1.0
  C  C46  1  0.74270000  0.82212000  0.00650000  1.0
  C  C47  1  0.75730000  0.32211000  0.99349000  1.0
  C  C48  1  0.15122000  0.93725000  0.75000000  1.0
  C  C49  1  0.34877000  0.43725000  0.25000000  1.0
  C  C50  1  0.84877000  0.06275000  0.25000000  1.0
  C  C51  1  0.65123000  0.56274000  0.75000000  1.0
  N  N52  1  0.93790000  0.85563000  0.55417000  1.0
  N  N53  1  0.56210000  0.35563000  0.44583000  1.0
  N  N54  1  0.06210000  0.14437000  0.05417000  1.0
  N  N55  1  0.43790000  0.64437000  0.94583000  1.0
  N  N56  1  0.06210000  0.14437000  0.44583000  1.0
  N  N57  1  0.43789000  0.64437000  0.55417000  1.0
  N  N58  1  0.93789000  0.85563000  0.94583000  1.0
  N  N59  1  0.56210000  0.35563000  0.05416000  1.0
  N  N60  1  0.84767000  0.90682000  0.49603000  1.0
  N  N61  1  0.65234000  0.40682000  0.50397000  1.0
  N  N62  1  0.15234000  0.09318000  0.99603000  1.0
  N  N63  1  0.34767000  0.59318000  0.00397000  1.0
  N  N64  1  0.15233000  0.09318000  0.50397000  1.0
  N  N65  1  0.34766000  0.59318000  0.49603000  1.0
  N  N66  1  0.84766000  0.90682000  0.00397000  1.0
  N  N67  1  0.65234000  0.40682000  0.99603000  1.0
  N  N68  1  0.75770000  0.71718000  0.54660000  1.0
  N  N69  1  0.74230000  0.21719000  0.45340000  1.0
  N  N70  1  0.24230000  0.28281000  0.04660000  1.0
  N  N71  1  0.25770000  0.78281000  0.95340000  1.0
  N  N72  1  0.24230000  0.28281000  0.45340000  1.0
  N  N73  1  0.25770000  0.78281000  0.54660000  1.0
  N  N74  1  0.75770000  0.71719000  0.95340000  1.0
  N  N75  1  0.74230000  0.21719000  0.04660000  1.0
  N  N76  1  0.94062000  0.65755000  0.63917000  1.0
  N  N77  1  0.55938000  0.15755000  0.36082000  1.0
  N  N78  1  0.05938000  0.34245000  0.13917000  1.0
  N  N79  1  0.44063000  0.84245000  0.86082000  1.0
  N  N80  1  0.05938000  0.34245000  0.36083000  1.0
  N  N81  1  0.44062000  0.84245000  0.63918000  1.0
  N  N82  1  0.94062000  0.65755000  0.86082000  1.0
  N  N83  1  0.55938000  0.15755000  0.13917000  1.0
  O  O84  1  0.19013000  0.99727000  0.68179000  1.0
  O  O85  1  0.30987000  0.49728000  0.31821000  1.0
  O  O86  1  0.80987000  0.00273000  0.18178000  1.0
  O  O87  1  0.69013000  0.50273000  0.81822000  1.0
  O  O88  1  0.80987000  0.00272000  0.31821000  1.0
  O  O89  1  0.69013000  0.50272000  0.68179000  1.0
  O  O90  1  0.19013000  0.99727000  0.81822000  1.0
  O  O91  1  0.30986000  0.49727000  0.18178000  1.0
  O  O92  1  0.08319000  0.82683000  0.75000000  1.0
  O  O93  1  0.41681000  0.32683000  0.25000000  1.0
  O  O94  1  0.91681000  0.17317000  0.25000000  1.0
  O  O95  1  0.58319000  0.67317000  0.75000000  1.0
