# generated using pymatgen
data_CdH11C14NO6
_symmetry_space_group_name_H-M   'P 1'
_cell_length_a   6.88778000
_cell_length_b   9.79687000
_cell_length_c   12.11900000
_cell_angle_alpha   77.28440000
_cell_angle_beta   84.25610000
_cell_angle_gamma   71.41880000
_symmetry_Int_Tables_number   1
_chemical_formula_structural   CdH11C14NO6
_chemical_formula_sum   'Cd2 H22 C28 N2 O12'
_cell_volume   755.73874270
_cell_formula_units_Z   2
loop_
 _symmetry_equiv_pos_site_id
 _symmetry_equiv_pos_as_xyz
  1  'x, y, z'
loop_
 _atom_site_type_symbol
 _atom_site_label
 _atom_site_symmetry_multiplicity
 _atom_site_fract_x
 _atom_site_fract_y
 _atom_site_fract_z
 _atom_site_occupancy
  Cd  Cd0  1  0.49059000  0.81939000  0.95295000  1.0
  Cd  Cd1  1  0.50941000  0.18061000  0.04705000  1.0
  H  H2  1  0.13994000  0.75383000  0.86476000  1.0
  H  H3  1  0.86006000  0.24618000  0.13524000  1.0
  H  H4  1  0.25909000  0.61265000  0.95243000  1.0
  H  H5  1  0.74090000  0.38735000  0.04757000  1.0
  H  H6  1  0.01536000  0.30839000  0.94474000  1.0
  H  H7  1  0.98464000  0.69161000  0.05527000  1.0
  H  H8  1  0.97056000  0.67858000  0.67141000  1.0
  H  H9  1  0.02944000  0.32143000  0.32860000  1.0
  H  H10  1  0.52186000  0.53614000  0.15219000  1.0
  H  H11  1  0.47814000  0.46386000  0.84781000  1.0
  H  H12  1  0.40514000  0.46955000  0.35217000  1.0
  H  H13  1  0.59486000  0.53044000  0.64783000  1.0
  H  H14  1  0.33333333  0.24085000  0.62862000  1.0
  H  H15  1  0.66666667  0.75916000  0.37138000  1.0
  H  H16  1  0.22189000  0.72101000  0.53494000  1.0
  H  H17  1  0.77811000  0.27899000  0.46506000  1.0
  H  H18  1  0.99258000  0.71038000  0.48569000  1.0
  H  H19  1  0.00742000  0.28963000  0.51432000  1.0
  H  H20  1  0.21308000  0.97833000  0.13814000  1.0
  H  H21  1  0.78692000  0.02166000  0.86187000  1.0
  H  H22  1  0.08720000  0.93036000  0.33837000  1.0
  H  H23  1  0.91280000  0.06963000  0.66164000  1.0
  C  C24  1  0.82412000  0.60380000  0.87996000  1.0
  C  C25  1  0.17589000  0.39619000  0.12004000  1.0
  C  C26  1  0.97629000  0.50351000  0.81350000  1.0
  C  C27  1  0.02370000  0.49650000  0.18649000  1.0
  C  C28  1  0.05390000  0.35385000  0.85841000  1.0
  C  C29  1  0.94610000  0.64616000  0.14159000  1.0
  C  C30  1  0.03250000  0.56087000  0.70281000  1.0
  C  C31  1  0.96751000  0.43913000  0.29719000  1.0
  C  C32  1  0.42432000  0.62046000  0.19602000  1.0
  C  C33  1  0.57568000  0.37954000  0.80398000  1.0
  C  C34  1  0.36020000  0.58373000  0.30813000  1.0
  C  C35  1  0.63980000  0.41627000  0.69187000  1.0
  C  C36  1  0.23849000  0.69467000  0.36252000  1.0
  C  C37  1  0.76151000  0.30533000  0.63748000  1.0
  C  C38  1  0.18303000  0.25974000  0.79184000  1.0
  C  C39  1  0.81697000  0.74028000  0.20813000  1.0
  C  C40  1  0.23241000  0.31473000  0.68006000  1.0
  C  C41  1  0.76759000  0.68528000  0.31992000  1.0
  C  C42  1  0.15974000  0.46589000  0.63629000  1.0
  C  C43  1  0.84026000  0.53411000  0.36371000  1.0
  C  C44  1  0.16135000  0.66503000  0.48287000  1.0
  C  C45  1  0.83865000  0.33496000  0.51714000  1.0
  C  C46  1  0.27712000  0.10117000  0.84326000  1.0
  C  C47  1  0.72288000  0.89882000  0.15673000  1.0
  C  C48  1  0.25337000  0.86732000  0.18903000  1.0
  C  C49  1  0.74663000  0.13268000  0.81097000  1.0
  C  C50  1  0.18520000  0.83943000  0.30089000  1.0
  C  C51  1  0.81480000  0.16057000  0.69910000  1.0
  N  N52  1  0.37162000  0.75941000  0.13711000  1.0
  N  N53  1  0.62837000  0.24059000  0.86291000  1.0
  O  O54  1  0.78864000  0.74282000  0.84625000  1.0
  O  O55  1  0.21139000  0.25717000  0.15376000  1.0
  O  O56  1  0.22270000  0.51095000  0.52710000  1.0
  O  O57  1  0.77730000  0.48904000  0.47292000  1.0
  O  O58  1  0.72785000  0.55036000  0.96510000  1.0
  O  O59  1  0.27214000  0.44964000  0.03490000  1.0
  O  O60  1  0.27518000  0.69949000  0.89486000  1.0
  O  O61  1  0.72482000  0.30051000  0.10515000  1.0
  O  O62  1  0.33978000  0.00575000  0.78215000  1.0
  O  O63  1  0.66023000  0.99426000  0.21782000  1.0
  O  O64  1  0.29623000  0.06854000  0.95189000  1.0
  O  O65  1  0.70377000  0.93145000  0.04810000  1.0
