# generated using pymatgen
data_CdH30C33N4O7
_symmetry_space_group_name_H-M   'P 1'
_cell_length_a   11.08860000
_cell_length_b   11.60300000
_cell_length_c   13.06930000
_cell_angle_alpha   70.94360000
_cell_angle_beta   87.21480000
_cell_angle_gamma   69.49000000
_symmetry_Int_Tables_number   1
_chemical_formula_structural   CdH30C33N4O7
_chemical_formula_sum   'Cd2 H60 C66 N8 O14'
_cell_volume   1484.49301834
_cell_formula_units_Z   2
loop_
 _symmetry_equiv_pos_site_id
 _symmetry_equiv_pos_as_xyz
  1  'x, y, z'
loop_
 _atom_site_type_symbol
 _atom_site_label
 _atom_site_symmetry_multiplicity
 _atom_site_fract_x
 _atom_site_fract_y
 _atom_site_fract_z
 _atom_site_occupancy
  Cd  Cd0  1  0.48599000  0.20827000  0.14095000  1.0
  Cd  Cd1  1  0.51401000  0.79173000  0.85905000  1.0
  H  H2  1  0.77078000  0.42186000  0.87043000  1.0
  H  H3  1  0.22922000  0.57814000  0.12957000  1.0
  H  H4  1  0.18869000  0.06601000  0.68526000  1.0
  H  H5  1  0.81132000  0.93399000  0.31474000  1.0
  H  H6  1  0.59514000  0.39242000  0.06025000  1.0
  H  H7  1  0.40486000  0.60758000  0.93975000  1.0
  H  H8  1  0.46194000  0.47168000  0.09985000  1.0
  H  H9  1  0.53806000  0.52832000  0.90015000  1.0
  H  H10  1  0.61836000  0.13795000  0.82015000  1.0
  H  H11  1  0.38164000  0.86205000  0.17985000  1.0
  H  H12  1  0.92537000  0.26459000  0.48213000  1.0
  H  H13  1  0.07462000  0.73541000  0.51787000  1.0
  H  H14  1  0.85371000  0.13250000  0.40536000  1.0
  H  H15  1  0.14629000  0.86750000  0.59464000  1.0
  H  H16  1  0.69737000  0.02825000  0.49677000  1.0
  H  H17  1  0.30263000  0.97175000  0.50323000  1.0
  H  H18  1  0.62049000  0.05214000  0.67489000  1.0
  H  H19  1  0.37951000  0.94786000  0.32511000  1.0
  H  H20  1  0.94768000  0.39244000  0.53210000  1.0
  H  H21  1  0.05232000  0.60756000  0.46790000  1.0
  H  H22  1  0.87618000  0.50365000  0.60088000  1.0
  H  H23  1  0.12382000  0.49635000  0.39912000  1.0
  H  H24  1  0.40467000  0.24623000  0.81927000  1.0
  H  H25  1  0.59533000  0.75377000  0.18073000  1.0
  H  H26  1  0.91330000  0.61141000  0.66713000  1.0
  H  H27  1  0.08670000  0.38859000  0.33287000  1.0
  H  H28  1  0.98280000  0.75637000  0.72917000  1.0
  H  H29  1  0.01720000  0.24364000  0.27083000  1.0
  H  H30  1  0.20821000  0.68523000  0.80982000  1.0
  H  H31  1  0.79179000  0.31477000  0.19018000  1.0
  H  H32  1  0.36017000  0.46180000  0.83139000  1.0
  H  H33  1  0.63983000  0.53820000  0.16861000  1.0
  H  H34  1  0.52927000  0.34703000  0.31757000  1.0
  H  H35  1  0.47073000  0.65298000  0.68243000  1.0
  H  H36  1  0.26484000  0.15566000  0.33852000  1.0
  H  H37  1  0.73516000  0.84435000  0.66148000  1.0
  H  H38  1  0.24318000  0.24417000  0.51450000  1.0
  H  H39  1  0.75682000  0.75583000  0.48550000  1.0
  H  H40  1  0.31615000  0.44132000  0.52547000  1.0
  H  H41  1  0.68385000  0.55868000  0.47453000  1.0
  H  H42  1  0.45744000  0.30662000  0.58806000  1.0
  H  H43  1  0.54256000  0.69338000  0.41194000  1.0
  H  H44  1  0.44964000  0.53447000  0.38246000  1.0
  H  H45  1  0.55036000  0.46553000  0.61754000  1.0
  H  H46  1  0.59074000  0.40178000  0.45035000  1.0
  H  H47  1  0.40926000  0.59822000  0.54965000  1.0
  H  H48  1  0.35614000  0.06554000  0.01845000  1.0
  H  H49  1  0.64386000  0.93446000  0.98155000  1.0
  H  H50  1  0.97983000  0.34028000  0.00067000  1.0
  H  H51  1  0.02017000  0.65972000  0.99933000  1.0
  H  H52  1  0.15473000  0.41017000  0.09029000  1.0
  H  H53  1  0.84527000  0.58983000  0.90971000  1.0
  H  H54  1  0.18750000  0.03307000  0.93327000  1.0
  H  H55  1  0.81250000  0.96693000  0.06673000  1.0
  H  H56  1  0.04926000  0.17306000  0.87287000  1.0
  H  H57  1  0.95074000  0.82694000  0.12713000  1.0
  H  H58  1  0.93254000  0.11676000  0.03945000  1.0
  H  H59  1  0.06746000  0.88324000  0.96055000  1.0
  H  H60  1  0.07270000  0.98242000  0.10483000  1.0
  H  H61  1  0.92730000  0.01758000  0.89517000  1.0
  C  C62  1  0.65892000  0.28524000  0.92536000  1.0
  C  C63  1  0.34108000  0.71476000  0.07464000  1.0
  C  C64  1  0.84718000  0.32246000  0.66925000  1.0
  C  C65  1  0.15282000  0.67754000  0.33075000  1.0
  C  C66  1  0.79580000  0.33776000  0.76571000  1.0
  C  C67  1  0.20420000  0.66224000  0.23429000  1.0
  C  C68  1  0.71361000  0.26923000  0.82220000  1.0
  C  C69  1  0.28639000  0.73077000  0.17780000  1.0
  C  C70  1  0.68150000  0.18933000  0.77803000  1.0
  C  C71  1  0.31850000  0.81066000  0.22197000  1.0
  C  C72  1  0.72706000  0.17495000  0.67876000  1.0
  C  C73  1  0.27294000  0.82505000  0.32124000  1.0
  C  C74  1  0.81279000  0.24054000  0.62400000  1.0
  C  C75  1  0.18721000  0.75946000  0.37600000  1.0
  C  C76  1  0.85757000  0.22062000  0.52497000  1.0
  C  C77  1  0.14243000  0.77938000  0.47503000  1.0
  C  C78  1  0.81734000  0.14559000  0.48140000  1.0
  C  C79  1  0.18266000  0.85441000  0.51860000  1.0
  C  C80  1  0.72990000  0.08494000  0.53385000  1.0
  C  C81  1  0.27010000  0.91507000  0.46615000  1.0
  C  C82  1  0.68711000  0.09839000  0.63152000  1.0
  C  C83  1  0.31289000  0.90161000  0.36847000  1.0
  C  C84  1  0.93098000  0.40038000  0.61341000  1.0
  C  C85  1  0.06901000  0.59962000  0.38659000  1.0
  C  C86  1  0.35902000  0.05445000  0.77604000  1.0
  C  C87  1  0.64099000  0.94555000  0.22396000  1.0
  C  C88  1  0.06095000  0.36265000  0.67199000  1.0
  C  C89  1  0.93905000  0.63735000  0.32801000  1.0
  C  C90  1  0.14941000  0.23678000  0.68955000  1.0
  C  C91  1  0.85059000  0.76322000  0.31045000  1.0
  C  C92  1  0.27404000  0.19351000  0.74463000  1.0
  C  C93  1  0.72596000  0.80648000  0.25537000  1.0
  C  C94  1  0.31026000  0.28001000  0.77651000  1.0
  C  C95  1  0.68974000  0.71999000  0.22349000  1.0
  C  C96  1  0.22530000  0.40870000  0.75882000  1.0
  C  C97  1  0.77470000  0.59130000  0.24118000  1.0
  C  C98  1  0.09739000  0.44999000  0.70859000  1.0
  C  C99  1  0.90261000  0.55001000  0.29141000  1.0
  C  C100  1  0.01236000  0.57779000  0.70018000  1.0
  C  C101  1  0.98764000  0.42221000  0.29982000  1.0
  C  C102  1  0.05133000  0.65943000  0.73620000  1.0
  C  C103  1  0.94867000  0.34057000  0.26380000  1.0
  C  C104  1  0.17807000  0.61948000  0.78259000  1.0
  C  C105  1  0.82193000  0.38052000  0.21741000  1.0
  C  C106  1  0.26276000  0.49576000  0.79390000  1.0
  C  C107  1  0.73724000  0.50424000  0.20610000  1.0
  C  C108  1  0.45478000  0.30669000  0.34680000  1.0
  C  C109  1  0.54522000  0.69331000  0.65320000  1.0
  C  C110  1  0.31757000  0.20774000  0.36083000  1.0
  C  C111  1  0.68242000  0.79226000  0.63917000  1.0
  C  C112  1  0.30531000  0.25151000  0.44803000  1.0
  C  C113  1  0.69469000  0.74849000  0.55197000  1.0
  C  C114  1  0.41184000  0.38077000  0.51006000  1.0
  C  C115  1  0.58816000  0.61923000  0.48994000  1.0
  C  C116  1  0.49389000  0.46381000  0.46241000  1.0
  C  C117  1  0.50611000  0.53619000  0.53759000  1.0
  C  C118  1  0.27936000  0.15047000  0.02638000  1.0
  C  C119  1  0.72064000  0.84953000  0.97362000  1.0
  C  C120  1  0.08346000  0.29516000  0.01790000  1.0
  C  C121  1  0.91654000  0.70484000  0.98210000  1.0
  C  C122  1  0.17141000  0.32910000  0.06086000  1.0
  C  C123  1  0.82859000  0.67090000  0.93914000  1.0
  C  C124  1  0.10352000  0.10738000  0.95050000  1.0
  C  C125  1  0.89648000  0.89261000  0.04950000  1.0
  C  C126  1  0.01953000  0.04227000  0.02526000  1.0
  C  C127  1  0.98047000  0.95773000  0.97474000  1.0
  N  N128  1  0.41094000  0.24261000  0.29859000  1.0
  N  N129  1  0.58906000  0.75739000  0.70141000  1.0
  N  N130  1  0.39252000  0.31481000  0.43742000  1.0
  N  N131  1  0.60748000  0.68519000  0.56258000  1.0
  N  N132  1  0.29325000  0.23830000  0.06536000  1.0
  N  N133  1  0.70675000  0.76170000  0.93464000  1.0
  N  N134  1  0.15358000  0.18174000  0.99682000  1.0
  N  N135  1  0.84642000  0.81826000  0.00318000  1.0
  O  O136  1  0.60179000  0.21113000  0.98016000  1.0
  O  O137  1  0.39821000  0.78887000  0.01984000  1.0
  O  O138  1  0.67262000  0.37899000  0.95312000  1.0
  O  O139  1  0.32738000  0.62101000  0.04688000  1.0
  O  O140  1  0.82483000  0.41996000  0.80589000  1.0
  O  O141  1  0.17517000  0.58004000  0.19411000  1.0
  O  O142  1  0.31882000  0.97357000  0.75210000  1.0
  O  O143  1  0.68118000  0.02643000  0.24790000  1.0
  O  O144  1  0.46658000  0.01611000  0.82967000  1.0
  O  O145  1  0.53342000  0.98389000  0.17034000  1.0
  O  O146  1  0.11550000  0.15395000  0.65431000  1.0
  O  O147  1  0.88450000  0.84605000  0.34569000  1.0
  O  O148  1  0.53910000  0.39106000  0.12330000  1.0
  O  O149  1  0.46090000  0.60894000  0.87670000  1.0
