# generated using pymatgen
data_CuH14C9N3O4
_symmetry_space_group_name_H-M   'P 1'
_cell_length_a   7.18447000
_cell_length_b   7.90186000
_cell_length_c   11.59610000
_cell_angle_alpha   72.48720000
_cell_angle_beta   88.54690000
_cell_angle_gamma   66.30260000
_symmetry_Int_Tables_number   1
_chemical_formula_structural   CuH14C9N3O4
_chemical_formula_sum   'Cu2 H28 C18 N6 O8'
_cell_volume   571.41508678
_cell_formula_units_Z   2
loop_
 _symmetry_equiv_pos_site_id
 _symmetry_equiv_pos_as_xyz
  1  'x, y, z'
loop_
 _atom_site_type_symbol
 _atom_site_label
 _atom_site_symmetry_multiplicity
 _atom_site_fract_x
 _atom_site_fract_y
 _atom_site_fract_z
 _atom_site_occupancy
  Cu  Cu0  1  0.57895000  0.06305000  0.40404000  1.0
  Cu  Cu1  1  0.42105000  0.93696000  0.59596000  1.0
  H  H2  1  0.03186000  0.01129000  0.31615000  1.0
  H  H3  1  0.96816000  0.98870000  0.68385000  1.0
  H  H4  1  0.47022000  0.39874000  0.10835000  1.0
  H  H5  1  0.52979000  0.60125000  0.89165000  1.0
  H  H6  1  0.26495000  0.12315000  0.17208000  1.0
  H  H7  1  0.73504000  0.87685000  0.82792000  1.0
  H  H8  1  0.14620000  0.35447000  0.05940000  1.0
  H  H9  1  0.85380000  0.64553000  0.94060000  1.0
  H  H10  1  0.08295000  0.20345000  0.91362000  1.0
  H  H11  1  0.91706000  0.79655000  0.08638000  1.0
  H  H12  1  0.18923000  0.97013000  0.02434000  1.0
  H  H13  1  0.81077000  0.02987000  0.97566000  1.0
  H  H14  1  0.42170000  0.05569000  0.86537000  1.0
  H  H15  1  0.57830000  0.94431000  0.13464000  1.0
  H  H16  1  0.43172000  0.21968000  0.93627000  1.0
  H  H17  1  0.56828000  0.78032000  0.06373000  1.0
  H  H18  1  0.53312000  0.47984000  0.63061000  1.0
  H  H19  1  0.46686000  0.52017000  0.36940000  1.0
  H  H20  1  0.79457000  0.32510000  0.64303000  1.0
  H  H21  1  0.20541000  0.67491000  0.35698000  1.0
  H  H22  1  0.64345000  0.27570000  0.76464000  1.0
  H  H23  1  0.35653000  0.72430000  0.23537000  1.0
  H  H24  1  0.17982000  0.59481000  0.60990000  1.0
  H  H25  1  0.82018000  0.40519000  0.39010000  1.0
  H  H26  1  0.06997000  0.49964000  0.74196000  1.0
  H  H27  1  0.93002000  0.50037000  0.25803000  1.0
  H  H28  1  0.07359000  0.42600000  0.61159000  1.0
  H  H29  1  0.92641000  0.57400000  0.38841000  1.0
  C  C30  1  0.91619000  0.12014000  0.24294000  1.0
  C  C31  1  0.08381000  0.87985000  0.75705000  1.0
  C  C32  1  0.63335000  0.31838000  0.13657000  1.0
  C  C33  1  0.36665000  0.68162000  0.86343000  1.0
  C  C34  1  0.15016000  0.20704000  0.09247000  1.0
  C  C35  1  0.84984000  0.79295000  0.90753000  1.0
  C  C36  1  0.19975000  0.11184000  0.99216000  1.0
  C  C37  1  0.80025000  0.88816000  0.00784000  1.0
  C  C38  1  0.41293000  0.08255000  0.95328000  1.0
  C  C39  1  0.58707000  0.91745000  0.04672000  1.0
  C  C40  1  0.58906000  0.20761000  0.60502000  1.0
  C  C41  1  0.41092000  0.79239000  0.39499000  1.0
  C  C42  1  0.64489000  0.32740000  0.66595000  1.0
  C  C43  1  0.35510000  0.67260000  0.33405000  1.0
  C  C44  1  0.85208000  0.71622000  0.59005000  1.0
  C  C45  1  0.14792000  0.28379000  0.40994000  1.0
  C  C46  1  0.05746000  0.54942000  0.64243000  1.0
  C  C47  1  0.94255000  0.45058000  0.35757000  1.0
  N  N48  1  0.71472000  0.17695000  0.24592000  1.0
  N  N49  1  0.28528000  0.82305000  0.75409000  1.0
  N  N50  1  0.95345000  0.22282000  0.13633000  1.0
  N  N51  1  0.04655000  0.77718000  0.86367000  1.0
  N  N52  1  0.77343000  0.35083000  0.06659000  1.0
  N  N53  1  0.22657000  0.64917000  0.93341000  1.0
  O  O54  1  0.63858000  0.21577000  0.49770000  1.0
  O  O55  1  0.36142000  0.78423000  0.50230000  1.0
  O  O56  1  0.49689000  0.10670000  0.66499000  1.0
  O  O57  1  0.50309000  0.89331000  0.33501000  1.0
  O  O58  1  0.84158000  0.83219000  0.48386000  1.0
  O  O59  1  0.15844000  0.16780000  0.51613000  1.0
  O  O60  1  0.70442000  0.72775000  0.65522000  1.0
  O  O61  1  0.29559000  0.27226000  0.34478000  1.0
