# generated using pymatgen
data_NdH11C17O11
_symmetry_space_group_name_H-M   'P 1'
_cell_length_a   8.82933000
_cell_length_b   8.86643000
_cell_length_c   12.68136588
_cell_angle_alpha   79.21497010
_cell_angle_beta   69.69350479
_cell_angle_gamma   61.31220000
_symmetry_Int_Tables_number   1
_chemical_formula_structural   NdH11C17O11
_chemical_formula_sum   'Nd2 H22 C34 O22'
_cell_volume   816.51294273
_cell_formula_units_Z   2
loop_
 _symmetry_equiv_pos_site_id
 _symmetry_equiv_pos_as_xyz
  1  'x, y, z'
loop_
 _atom_site_type_symbol
 _atom_site_label
 _atom_site_symmetry_multiplicity
 _atom_site_fract_x
 _atom_site_fract_y
 _atom_site_fract_z
 _atom_site_occupancy
  Nd  Nd0  1  0.33360000  0.23328000  0.58107000  1.0
  Nd  Nd1  1  0.66640000  0.76672000  0.41893000  1.0
  H  H2  1  0.99487000  0.18166000  0.46149000  1.0
  H  H3  1  0.00513000  0.81834000  0.53851000  1.0
  H  H4  1  0.37744000  0.99150000  0.14091000  1.0
  H  H5  1  0.62256000  0.00850000  0.85909000  1.0
  H  H6  1  0.84360000  0.02834000  0.22545000  1.0
  H  H7  1  0.15639000  0.97166000  0.77456000  1.0
  H  H8  1  0.29988000  0.08750000  0.98578000  1.0
  H  H9  1  0.70012000  0.91250000  0.01422000  1.0
  H  H10  1  0.25431000  0.98687000  0.89679000  1.0
  H  H11  1  0.74570000  0.01313000  0.10321000  1.0
  H  H12  1  0.23312000  0.72336000  0.93595000  1.0
  H  H13  1  0.76688000  0.27664000  0.06405000  1.0
  H  H14  1  0.10278000  0.45384000  0.84001000  1.0
  H  H15  1  0.89722000  0.54616000  0.15999000  1.0
  H  H16  1  0.67289000  0.33224000  0.70689000  1.0
  H  H17  1  0.32711000  0.66776000  0.29311000  1.0
  H  H18  1  0.78192000  0.62493000  0.88237000  1.0
  H  H19  1  0.21808000  0.37506000  0.11763000  1.0
  H  H20  1  0.28766000  0.59590000  0.50187000  1.0
  H  H21  1  0.71234000  0.40410000  0.49813000  1.0
  H  H22  1  0.15628000  0.56813000  0.45265000  1.0
  H  H23  1  0.84372000  0.43187000  0.54735000  1.0
  C  C24  1  0.71954000  0.14308000  0.43397000  1.0
  C  C25  1  0.28046000  0.85692000  0.56603000  1.0
  C  C26  1  0.90019000  0.10763000  0.35233000  1.0
  C  C27  1  0.09981000  0.89237000  0.64767000  1.0
  C  C28  1  0.02527000  0.13538000  0.37962000  1.0
  C  C29  1  0.97473000  0.86461000  0.62038000  1.0
  C  C30  1  0.19651000  0.09247000  0.30276000  1.0
  C  C31  1  0.80349000  0.90753000  0.69724000  1.0
  C  C32  1  0.33852000  0.10088000  0.33730000  1.0
  C  C33  1  0.66149000  0.89912000  0.66269000  1.0
  C  C34  1  0.24088000  0.02957000  0.19730000  1.0
  C  C35  1  0.75912000  0.97043000  0.80270000  1.0
  C  C36  1  0.11037000  0.01451000  0.16794000  1.0
  C  C37  1  0.88963000  0.98549000  0.83206000  1.0
  C  C38  1  0.94247000  0.04712000  0.24683000  1.0
  C  C39  1  0.05753000  0.95288000  0.75317000  1.0
  C  C40  1  0.28409000  0.97598000  0.97557000  1.0
  C  C41  1  0.71592000  0.02402000  0.02443000  1.0
  C  C42  1  0.50210000  0.69276000  0.91158000  1.0
  C  C43  1  0.49790000  0.30724000  0.08842000  1.0
  C  C44  1  0.37738000  0.65309000  0.89387000  1.0
  C  C45  1  0.62262000  0.34691000  0.10613000  1.0
  C  C46  1  0.44212000  0.52119000  0.81992000  1.0
  C  C47  1  0.55787000  0.47881000  0.18008000  1.0
  C  C48  1  0.32195000  0.47197000  0.79190000  1.0
  C  C49  1  0.67805000  0.52803000  0.20810000  1.0
  C  C50  1  0.62704000  0.43100000  0.76569000  1.0
  C  C51  1  0.37296000  0.56900000  0.23431000  1.0
  C  C52  1  0.75044000  0.46508000  0.78956000  1.0
  C  C53  1  0.24956000  0.53492000  0.21044000  1.0
  C  C54  1  0.94643000  0.37226000  0.72726000  1.0
  C  C55  1  0.05356000  0.62774000  0.27275000  1.0
  C  C56  1  0.68811000  0.59386000  0.86455000  1.0
  C  C57  1  0.31189000  0.40614000  0.13545000  1.0
  O  O58  1  0.63298000  0.26992000  0.49925000  1.0
  O  O59  1  0.36702000  0.73008000  0.50075000  1.0
  O  O60  1  0.64837000  0.04551000  0.43685000  1.0
  O  O61  1  0.35163000  0.95449000  0.56315000  1.0
  O  O62  1  0.28895000  0.21852000  0.40289000  1.0
  O  O63  1  0.71105000  0.78148000  0.59711000  1.0
  O  O64  1  0.49985000  0.98173000  0.30020000  1.0
  O  O65  1  0.50015000  0.01827000  0.69980000  1.0
  O  O66  1  0.13654000  0.96697000  0.06324000  1.0
  O  O67  1  0.86346000  0.03303000  0.93676000  1.0
  O  O68  1  0.45258000  0.82990000  0.97404000  1.0
  O  O69  1  0.54742000  0.17010000  0.02596000  1.0
  O  O70  1  0.16207000  0.50578000  0.86828000  1.0
  O  O71  1  0.83794000  0.49422000  0.13172000  1.0
  O  O72  1  0.37298000  0.40049000  0.70233000  1.0
  O  O73  1  0.62702000  0.59951000  0.29767000  1.0
  O  O74  1  0.06881000  0.34013000  0.77215000  1.0
  O  O75  1  0.93119000  0.65987000  0.22785000  1.0
  O  O76  1  0.99232000  0.32508000  0.62699000  1.0
  O  O77  1  0.00768000  0.67492000  0.37301000  1.0
  O  O78  1  0.23699000  0.51606000  0.50163000  1.0
  O  O79  1  0.76301000  0.48394000  0.49837000  1.0
