# generated using pymatgen
data_TbH7C14(NO4)2
_symmetry_space_group_name_H-M   'P 1'
_cell_length_a   8.36233000
_cell_length_b   12.22930000
_cell_length_c   13.48760000
_cell_angle_alpha   77.92000000
_cell_angle_beta   89.99980000
_cell_angle_gamma   89.99990000
_symmetry_Int_Tables_number   1
_chemical_formula_structural   TbH7C14(NO4)2
_chemical_formula_sum   'Tb4 H28 C56 N8 O32'
_cell_volume   1348.77229920
_cell_formula_units_Z   4
loop_
 _symmetry_equiv_pos_site_id
 _symmetry_equiv_pos_as_xyz
  1  'x, y, z'
loop_
 _atom_site_type_symbol
 _atom_site_label
 _atom_site_symmetry_multiplicity
 _atom_site_fract_x
 _atom_site_fract_y
 _atom_site_fract_z
 _atom_site_occupancy
  Tb  Tb0  1  0.77225000  0.69900000  0.68321000  1.0
  Tb  Tb1  1  0.27225000  0.30100000  0.81679000  1.0
  Tb  Tb2  1  0.22775000  0.30099000  0.31679000  1.0
  Tb  Tb3  1  0.72774000  0.69900000  0.18321000  1.0
  H  H4  1  0.78286000  0.16517000  0.59271000  1.0
  H  H5  1  0.28287000  0.83484000  0.90729000  1.0
  H  H6  1  0.21713000  0.83483000  0.40730000  1.0
  H  H7  1  0.71714000  0.16517000  0.09270000  1.0
  H  H8  1  0.48214000  0.19250000  0.58998000  1.0
  H  H9  1  0.98215000  0.80750000  0.91003000  1.0
  H  H10  1  0.51785000  0.80750000  0.41002000  1.0
  H  H11  1  0.01786000  0.19250000  0.08997000  1.0
  H  H12  1  0.30634000  0.02313000  0.62428000  1.0
  H  H13  1  0.80634000  0.97688000  0.87572000  1.0
  H  H14  1  0.69365000  0.97687000  0.37572000  1.0
  H  H15  1  0.19366000  0.02312000  0.12428000  1.0
  H  H16  1  0.09481000  0.65395000  0.33621000  1.0
  H  H17  1  0.59482000  0.34605000  0.16379000  1.0
  H  H18  1  0.90519000  0.34605000  0.66379000  1.0
  H  H19  1  0.40518000  0.65395000  0.83621000  1.0
  H  H20  1  0.34983000  0.57805000  0.42205000  1.0
  H  H21  1  0.84984000  0.42195000  0.07795000  1.0
  H  H22  1  0.65017000  0.42195000  0.57795000  1.0
  H  H23  1  0.15016000  0.57806000  0.92205000  1.0
  H  H24  1  0.35717000  0.52498000  0.61284000  1.0
  H  H25  1  0.85717000  0.47502000  0.88716000  1.0
  H  H26  1  0.64283000  0.47502000  0.38716000  1.0
  H  H27  1  0.14282000  0.52498000  0.11284000  1.0
  H  H28  1  0.09796000  0.84416000  0.65961000  1.0
  H  H29  1  0.59796000  0.15585000  0.84039000  1.0
  H  H30  1  0.90204000  0.15584000  0.34039000  1.0
  H  H31  1  0.40204000  0.84416000  0.15961000  1.0
  C  C32  1  0.76095000  0.98619000  0.62738000  1.0
  C  C33  1  0.26095000  0.01381000  0.87262000  1.0
  C  C34  1  0.23905000  0.01381000  0.37263000  1.0
  C  C35  1  0.73905000  0.98619000  0.12738000  1.0
  C  C36  1  0.70047000  0.09483000  0.60724000  1.0
  C  C37  1  0.20047000  0.90518000  0.89276000  1.0
  C  C38  1  0.29953000  0.90517000  0.39276000  1.0
  C  C39  1  0.79953000  0.09483000  0.10724000  1.0
  C  C40  1  0.53526000  0.10942000  0.60655000  1.0
  C  C41  1  0.03526000  0.89058000  0.89345000  1.0
  C  C42  1  0.46474000  0.89058000  0.39345000  1.0
  C  C43  1  0.96474000  0.10942000  0.10655000  1.0
  C  C44  1  0.43635000  0.01531000  0.62525000  1.0
  C  C45  1  0.93635000  0.98469000  0.87475000  1.0
  C  C46  1  0.56365000  0.98469000  0.37475000  1.0
  C  C47  1  0.06365000  0.01531000  0.12525000  1.0
  C  C48  1  0.50675000  0.90932000  0.64453000  1.0
  C  C49  1  0.00675000  0.09069000  0.85547000  1.0
  C  C50  1  0.49325000  0.09068000  0.35547000  1.0
  C  C51  1  0.99324000  0.90931000  0.14453000  1.0
  C  C52  1  0.93715000  0.96618000  0.62923000  1.0
  C  C53  1  0.43716000  0.03382000  0.87077000  1.0
  C  C54  1  0.06285000  0.03382000  0.37077000  1.0
  C  C55  1  0.56284000  0.96619000  0.12923000  1.0
  C  C56  1  0.41166000  0.80148000  0.66555000  1.0
  C  C57  1  0.91167000  0.19852000  0.83445000  1.0
  C  C58  1  0.58834000  0.19852000  0.33445000  1.0
  C  C59  1  0.08833000  0.80148000  0.16555000  1.0
  C  C60  1  0.97831000  0.65872000  0.47808000  1.0
  C  C61  1  0.47832000  0.34128000  0.02192000  1.0
  C  C62  1  0.02169000  0.34128000  0.52192000  1.0
  C  C63  1  0.52168000  0.65872000  0.97808000  1.0
  C  C64  1  0.10582000  0.63673000  0.41849000  1.0
  C  C65  1  0.60583000  0.36327000  0.08152000  1.0
  C  C66  1  0.89418000  0.36327000  0.58151000  1.0
  C  C67  1  0.39417000  0.63674000  0.91848000  1.0
  C  C68  1  0.24662000  0.59213000  0.46687000  1.0
  C  C69  1  0.74662000  0.40787000  0.03313000  1.0
  C  C70  1  0.75338000  0.40787000  0.53313000  1.0
  C  C71  1  0.25337000  0.59213000  0.96687000  1.0
  C  C72  1  0.25237000  0.56384000  0.57228000  1.0
  C  C73  1  0.75238000  0.43616000  0.92772000  1.0
  C  C74  1  0.74763000  0.43617000  0.42772000  1.0
  C  C75  1  0.24763000  0.56384000  0.07228000  1.0
  C  C76  1  0.11842000  0.58706000  0.62595000  1.0
  C  C77  1  0.61842000  0.41294000  0.87405000  1.0
  C  C78  1  0.88159000  0.41294000  0.37405000  1.0
  C  C79  1  0.38157000  0.58705000  0.12595000  1.0
  C  C80  1  0.81892000  0.70802000  0.43896000  1.0
  C  C81  1  0.31892000  0.29197000  0.06105000  1.0
  C  C82  1  0.18108000  0.29197000  0.56105000  1.0
  C  C83  1  0.68108000  0.70803000  0.93896000  1.0
  C  C84  1  0.10423000  0.55813000  0.73933000  1.0
  C  C85  1  0.60423000  0.44187000  0.76068000  1.0
  C  C86  1  0.89577000  0.44187000  0.26067000  1.0
  C  C87  1  0.39576000  0.55813000  0.23933000  1.0
  N  N88  1  0.66635000  0.89552000  0.64596000  1.0
  N  N89  1  0.16635000  0.10449000  0.85404000  1.0
  N  N90  1  0.33365000  0.10448000  0.35404000  1.0
  N  N91  1  0.83364000  0.89552000  0.14596000  1.0
  N  N92  1  0.98778000  0.63659000  0.57978000  1.0
  N  N93  1  0.48778000  0.36341000  0.92022000  1.0
  N  N94  1  0.01223000  0.36341000  0.42022000  1.0
  N  N95  1  0.51222000  0.63659000  0.07978000  1.0
  O  O96  1  0.49269000  0.71164000  0.67541000  1.0
  O  O97  1  0.99269000  0.28837000  0.82459000  1.0
  O  O98  1  0.50731000  0.28836000  0.32458000  1.0
  O  O99  1  0.00730000  0.71163000  0.17542000  1.0
  O  O100  1  0.26193000  0.80434000  0.67475000  1.0
  O  O101  1  0.76193000  0.19567000  0.82524000  1.0
  O  O102  1  0.73807000  0.19566000  0.32525000  1.0
  O  O103  1  0.23807000  0.80433000  0.17475000  1.0
  O  O104  1  0.97426000  0.85637000  0.65483000  1.0
  O  O105  1  0.47426000  0.14364000  0.84517000  1.0
  O  O106  1  0.02574000  0.14363000  0.34517000  1.0
  O  O107  1  0.52573000  0.85637000  0.15483000  1.0
  O  O108  1  0.03640000  0.04117000  0.61035000  1.0
  O  O109  1  0.53640000  0.95884000  0.88964000  1.0
  O  O110  1  0.96360000  0.95884000  0.38965000  1.0
  O  O111  1  0.46360000  0.04117000  0.11035000  1.0
  O  O112  1  0.72600000  0.73324000  0.50553000  1.0
  O  O113  1  0.22601000  0.26676000  0.99447000  1.0
  O  O114  1  0.27399000  0.26675000  0.49447000  1.0
  O  O115  1  0.77399000  0.73325000  0.00553000  1.0
  O  O116  1  0.78583000  0.71986000  0.34575000  1.0
  O  O117  1  0.28584000  0.28014000  0.15425000  1.0
  O  O118  1  0.21417000  0.28014000  0.65425000  1.0
  O  O119  1  0.71417000  0.71986000  0.84575000  1.0
  O  O120  1  0.99805000  0.60940000  0.77915000  1.0
  O  O121  1  0.49805000  0.39060000  0.72086000  1.0
  O  O122  1  0.00195000  0.39059000  0.22085000  1.0
  O  O123  1  0.50194000  0.60940000  0.27915000  1.0
  O  O124  1  0.19568000  0.48268000  0.78802000  1.0
  O  O125  1  0.69568000  0.51732000  0.71197000  1.0
  O  O126  1  0.80433000  0.51732000  0.21197000  1.0
  O  O127  1  0.30432000  0.48268000  0.28802000  1.0
