# generated using pymatgen
data_CdCuH12(CO2)6
_symmetry_space_group_name_H-M   'P 1'
_cell_length_a   6.68695000
_cell_length_b   13.37000000
_cell_length_c   13.95800000
_cell_angle_alpha   90.00000000
_cell_angle_beta   90.00000000
_cell_angle_gamma   90.00000000
_symmetry_Int_Tables_number   1
_chemical_formula_structural   CdCuH12(CO2)6
_chemical_formula_sum   'Cd4 Cu4 H48 C24 O48'
_cell_volume   1247.90831110
_cell_formula_units_Z   4
loop_
 _symmetry_equiv_pos_site_id
 _symmetry_equiv_pos_as_xyz
  1  'x, y, z'
loop_
 _atom_site_type_symbol
 _atom_site_label
 _atom_site_symmetry_multiplicity
 _atom_site_fract_x
 _atom_site_fract_y
 _atom_site_fract_z
 _atom_site_occupancy
  Cd  Cd0  1  0.00000000  0.25000000  0.77724000  1.0
  Cd  Cd1  1  0.50000000  0.75000000  0.72276000  1.0
  Cd  Cd2  1  0.00000000  0.75000000  0.22276000  1.0
  Cd  Cd3  1  0.50000000  0.25000000  0.27724000  1.0
  Cu  Cu4  1  0.50000000  0.49999000  0.49999000  1.0
  Cu  Cu5  1  0.00001000  0.00000000  0.00000000  1.0
  Cu  Cu6  1  0.99999000  0.50000000  0.00000000  1.0
  Cu  Cu7  1  0.50000000  0.00000000  0.50000000  1.0
  H  H8  1  0.19122000  0.35579000  0.47909000  1.0
  H  H9  1  0.30877000  0.85579000  0.02090000  1.0
  H  H10  1  0.69122000  0.64421000  0.02090000  1.0
  H  H11  1  0.80877000  0.14421000  0.47910000  1.0
  H  H12  1  0.80876000  0.64420000  0.52090000  1.0
  H  H13  1  0.69124000  0.14420000  0.97910000  1.0
  H  H14  1  0.30875000  0.35580000  0.97910000  1.0
  H  H15  1  0.19123000  0.85580000  0.52090000  1.0
  H  H16  1  0.10048000  0.42499000  0.55892000  1.0
  H  H17  1  0.39951000  0.92499000  0.94107000  1.0
  H  H18  1  0.60048000  0.57501000  0.94107000  1.0
  H  H19  1  0.89951000  0.07501000  0.55892000  1.0
  H  H20  1  0.89950000  0.57501000  0.44107000  1.0
  H  H21  1  0.60050000  0.07500000  0.05893000  1.0
  H  H22  1  0.39949000  0.42500000  0.05893000  1.0
  H  H23  1  0.10049000  0.92499000  0.44107000  1.0
  H  H24  1  0.63977000  0.30040000  0.89178000  1.0
  H  H25  1  0.86022000  0.80040000  0.60822000  1.0
  H  H26  1  0.13978000  0.69960000  0.60822000  1.0
  H  H27  1  0.36021000  0.19961000  0.89179000  1.0
  H  H28  1  0.36022000  0.69960000  0.10822000  1.0
  H  H29  1  0.13977000  0.19960000  0.39178000  1.0
  H  H30  1  0.86022000  0.30040000  0.39178000  1.0
  H  H31  1  0.63977000  0.80040000  0.10821000  1.0
  H  H32  1  0.81352000  0.29911000  0.96485000  1.0
  H  H33  1  0.68648000  0.79912000  0.53515000  1.0
  H  H34  1  0.31352000  0.70089000  0.53515000  1.0
  H  H35  1  0.18647000  0.20089000  0.96486000  1.0
  H  H36  1  0.18648000  0.70089000  0.03515000  1.0
  H  H37  1  0.31352000  0.20089000  0.46485000  1.0
  H  H38  1  0.68648000  0.29912000  0.46485000  1.0
  H  H39  1  0.81352000  0.79911000  0.03515000  1.0
  H  H40  1  0.41204000  0.38670000  0.73049000  1.0
  H  H41  1  0.08796000  0.88670000  0.76951000  1.0
  H  H42  1  0.91204000  0.61330000  0.76951000  1.0
  H  H43  1  0.58798000  0.11330000  0.73049000  1.0
  H  H44  1  0.58798000  0.61330000  0.26950000  1.0
  H  H45  1  0.91203000  0.11330000  0.23050000  1.0
  H  H46  1  0.08797000  0.38671000  0.23049000  1.0
  H  H47  1  0.41203000  0.88670000  0.26951000  1.0
  H  H48  1  0.64982000  0.40397000  0.78573000  1.0
  H  H49  1  0.85016000  0.90396000  0.71427000  1.0
  H  H50  1  0.14982000  0.59604000  0.71427000  1.0
  H  H51  1  0.35020000  0.09604000  0.78573000  1.0
  H  H52  1  0.35020000  0.59604000  0.21426000  1.0
  H  H53  1  0.14982000  0.09604000  0.28574000  1.0
  H  H54  1  0.85019000  0.40397000  0.28574000  1.0
  H  H55  1  0.64981000  0.90396000  0.21426000  1.0
  C  C56  1  0.64998000  0.35136000  0.63984000  1.0
  C  C57  1  0.85002000  0.85136000  0.86017000  1.0
  C  C58  1  0.14999000  0.64864000  0.86016000  1.0
  C  C59  1  0.35002000  0.14864000  0.63984000  1.0
  C  C60  1  0.35002000  0.64864000  0.36016000  1.0
  C  C61  1  0.14998000  0.14864000  0.13984000  1.0
  C  C62  1  0.85002000  0.35136000  0.13984000  1.0
  C  C63  1  0.64998000  0.85136000  0.36016000  1.0
  C  C64  1  0.56507000  0.41588000  0.71974000  1.0
  C  C65  1  0.93493000  0.91589000  0.78026000  1.0
  C  C66  1  0.06506000  0.58411000  0.78026000  1.0
  C  C67  1  0.43495000  0.08412000  0.71974000  1.0
  C  C68  1  0.43496000  0.58411000  0.28026000  1.0
  C  C69  1  0.06505000  0.08411000  0.21974000  1.0
  C  C70  1  0.93494000  0.41589000  0.21974000  1.0
  C  C71  1  0.56506000  0.91588000  0.28026000  1.0
  C  C72  1  0.54110000  0.52696000  0.70458000  1.0
  C  C73  1  0.95890000  0.02696000  0.79542000  1.0
  C  C74  1  0.04109000  0.47304000  0.79542000  1.0
  C  C75  1  0.45891000  0.97304000  0.70458000  1.0
  C  C76  1  0.45891000  0.47303000  0.29541000  1.0
  C  C77  1  0.04110000  0.97304000  0.20458000  1.0
  C  C78  1  0.95891000  0.52697000  0.20458000  1.0
  C  C79  1  0.54110000  0.02696000  0.29541000  1.0
  O  O80  1  0.74785000  0.27437000  0.66195000  1.0
  O  O81  1  0.75215000  0.77437000  0.83806000  1.0
  O  O82  1  0.24785000  0.72562000  0.83806000  1.0
  O  O83  1  0.25216000  0.22562000  0.66194000  1.0
  O  O84  1  0.25217000  0.72562000  0.33805000  1.0
  O  O85  1  0.24783000  0.22563000  0.16195000  1.0
  O  O86  1  0.75218000  0.27438000  0.16195000  1.0
  O  O87  1  0.74784000  0.77438000  0.33805000  1.0
  O  O88  1  0.60908000  0.37229000  0.55189000  1.0
  O  O89  1  0.89093000  0.87230000  0.94811000  1.0
  O  O90  1  0.10910000  0.62770000  0.94811000  1.0
  O  O91  1  0.39091000  0.12770000  0.55189000  1.0
  O  O92  1  0.39091000  0.62769000  0.44811000  1.0
  O  O93  1  0.10910000  0.12770000  0.05190000  1.0
  O  O94  1  0.89091000  0.37230000  0.05189000  1.0
  O  O95  1  0.60909000  0.87230000  0.44811000  1.0
  O  O96  1  0.47888000  0.56205000  0.62480000  1.0
  O  O97  1  0.02113000  0.06206000  0.87520000  1.0
  O  O98  1  0.97887000  0.43794000  0.87520000  1.0
  O  O99  1  0.52112000  0.93794000  0.62481000  1.0
  O  O100  1  0.52112000  0.43793000  0.37519000  1.0
  O  O101  1  0.97889000  0.93794000  0.12481000  1.0
  O  O102  1  0.02110000  0.56207000  0.12480000  1.0
  O  O103  1  0.47888000  0.06206000  0.37519000  1.0
  O  O104  1  0.57356000  0.58514000  0.77478000  1.0
  O  O105  1  0.92642000  0.08514000  0.72522000  1.0
  O  O106  1  0.07355000  0.41486000  0.72522000  1.0
  O  O107  1  0.42645000  0.91486000  0.77478000  1.0
  O  O108  1  0.42645000  0.41486000  0.22521000  1.0
  O  O109  1  0.07355000  0.91486000  0.27479000  1.0
  O  O110  1  0.92645000  0.58514000  0.27479000  1.0
  O  O111  1  0.57355000  0.08514000  0.22521000  1.0
  O  O112  1  0.15657000  0.42547000  0.49432000  1.0
  O  O113  1  0.34343000  0.92547000  0.00568000  1.0
  O  O114  1  0.65656000  0.57453000  0.00568000  1.0
  O  O115  1  0.84343000  0.07453000  0.49431000  1.0
  O  O116  1  0.84342000  0.57453000  0.50567000  1.0
  O  O117  1  0.65660000  0.07452000  0.99432000  1.0
  O  O118  1  0.34341000  0.42547000  0.99432000  1.0
  O  O119  1  0.15657000  0.92547000  0.50568000  1.0
  O  O120  1  0.75426000  0.25922000  0.90979000  1.0
  O  O121  1  0.74572000  0.75922000  0.59022000  1.0
  O  O122  1  0.25427000  0.74078000  0.59021000  1.0
  O  O123  1  0.24571000  0.24078000  0.90979000  1.0
  O  O124  1  0.24574000  0.74078000  0.09022000  1.0
  O  O125  1  0.25426000  0.24078000  0.40978000  1.0
  O  O126  1  0.74573000  0.25922000  0.40978000  1.0
  O  O127  1  0.75426000  0.75922000  0.09022000  1.0
