# generated using pymatgen
data_Zn2H15C46I9(NO4)2
_symmetry_space_group_name_H-M   'P 1'
_cell_length_a   12.58150000
_cell_length_b   13.54560000
_cell_length_c   15.28000000
_cell_angle_alpha   86.42550000
_cell_angle_beta   69.01380000
_cell_angle_gamma   80.04520000
_symmetry_Int_Tables_number   1
_chemical_formula_structural   Zn2H15C46I9(NO4)2
_chemical_formula_sum   'Zn2 H15 C46 I9 N2 O8'
_cell_volume   2394.73566356
_cell_formula_units_Z   1
loop_
 _symmetry_equiv_pos_site_id
 _symmetry_equiv_pos_as_xyz
  1  'x, y, z'
loop_
 _atom_site_type_symbol
 _atom_site_label
 _atom_site_symmetry_multiplicity
 _atom_site_fract_x
 _atom_site_fract_y
 _atom_site_fract_z
 _atom_site_occupancy
  Zn  Zn0  1  0.62501000  0.50793000  0.46433000  1.0
  Zn  Zn1  1  0.37521000  0.48577000  0.53328000  1.0
  H  H2  1  0.22408000  0.62991000  0.48544000  1.0
  H  H3  1  0.34911000  0.59887000  0.26277000  1.0
  H  H4  1  0.24917000  0.95694000  0.74336000  1.0
  H  H5  1  0.56033000  0.82150000  0.45404000  1.0
  H  H6  1  0.69387000  0.23046000  0.32036000  1.0
  H  H7  1  0.63770000  0.92506000  0.36439000  1.0
  H  H8  1  0.73568000  0.05476000  0.26159000  1.0
  H  H9  1  0.72297000  0.68524000  0.40574000  1.0
  H  H10  1  0.08257000  0.73375000  0.42668000  1.0
  H  H11  1  0.89652000  0.75855000  0.39962000  1.0
  H  H12  1  0.96121000  0.32530000  0.53871000  1.0
  H  H13  1  0.07869000  0.24617000  0.63067000  1.0
  H  H14  1  0.78735000  0.38105000  0.99667000  1.0
  H  H15  1  0.68079000  0.44529000  0.72279000  1.0
  H  H16  1  0.27293000  0.68816000  0.14281000  1.0
  C  C17  1  0.55601000  0.30441000  0.48236000  1.0
  C  C18  1  0.42324000  0.57179000  0.11333000  1.0
  C  C19  1  0.71220000  0.42051000  0.98241000  1.0
  C  C20  1  0.70991000  0.42436000  0.89370000  1.0
  C  C21  1  0.61189000  0.47343000  0.87181000  1.0
  C  C22  1  0.51593000  0.52358000  0.94675000  1.0
  C  C23  1  0.41547000  0.57320000  0.92790000  1.0
  C  C24  1  0.33374000  0.64040000  0.00027000  1.0
  C  C25  1  0.33504000  0.63646000  0.08958000  1.0
  C  C26  1  0.60541000  0.47519000  0.78230000  1.0
  C  C27  1  0.50243000  0.50907000  0.76641000  1.0
  C  C28  1  0.50830000  0.49902000  0.66632000  1.0
  C  C29  1  0.40457000  0.55075000  0.84199000  1.0
  C  C30  1  0.31702000  0.92791000  0.67873000  1.0
  C  C31  1  0.40502000  0.79688000  0.56149000  1.0
  C  C32  1  0.66211000  0.17011000  0.36803000  1.0
  C  C33  1  0.68300000  0.07191000  0.33466000  1.0
  C  C34  1  0.62970000  0.99886000  0.39287000  1.0
  C  C35  1  0.56112000  0.01994000  0.48761000  1.0
  C  C36  1  0.55228000  0.11654000  0.52451000  1.0
  C  C37  1  0.48980000  0.95042000  0.54580000  1.0
  C  C38  1  0.40939000  0.98133000  0.63628000  1.0
  C  C39  1  0.42908000  0.68931000  0.53055000  1.0
  C  C40  1  0.43002000  0.06472000  0.67917000  1.0
  C  C41  1  0.50272000  0.12803000  0.62565000  1.0
  C  C42  1  0.49056000  0.85452000  0.51576000  1.0
  C  C43  1  0.30975000  0.84136000  0.63834000  1.0
  C  C44  1  0.59488000  0.19384000  0.46093000  1.0
  C  C45  1  0.89264000  0.67913000  0.41358000  1.0
  C  C46  1  0.17805000  0.36688000  0.60586000  1.0
  C  C47  1  0.09487000  0.31678000  0.59428000  1.0
  C  C48  1  0.03086000  0.36095000  0.54169000  1.0
  C  C49  1  0.04931000  0.45506000  0.49910000  1.0
  C  C50  1  0.51184000  0.51196000  0.32594000  1.0
  C  C51  1  0.13892000  0.49872000  0.51069000  1.0
  C  C52  1  0.97328000  0.51296000  0.45573000  1.0
  C  C53  1  0.98049000  0.61686000  0.43739000  1.0
  C  C54  1  0.07561000  0.65538000  0.44507000  1.0
  C  C55  1  0.15436000  0.59808000  0.47738000  1.0
  C  C56  1  0.88617000  0.47764000  0.43246000  1.0
  C  C57  1  0.79927000  0.63951000  0.41334000  1.0
  C  C58  1  0.42353000  0.56330000  0.20515000  1.0
  C  C59  1  0.51842000  0.51173000  0.22536000  1.0
  C  C60  1  0.61550000  0.46583000  0.15204000  1.0
  C  C61  1  0.61670000  0.46812000  0.05880000  1.0
  C  C62  1  0.51890000  0.52154000  0.03941000  1.0
  I  I63  1  0.35482000  0.07767000  0.82601000  1.0
  I  I64  1  0.56610000  0.22914000  0.68621000  1.0
  I  I65  1  0.76194000  0.38886000  0.17929000  1.0
  I  I66  1  0.90644000  0.32808000  0.38893000  1.0
  I  I67  1  0.24057000  0.30915000  0.71117000  1.0
  I  I68  1  0.85847000  0.35611000  0.78632000  1.0
  I  I69  1  0.23671000  0.55679000  0.84166000  1.0
  I  I70  1  0.23298000  0.77051000  0.96884000  1.0
  I  I71  1  0.15034000  0.78947000  0.69286000  1.0
  N  N72  1  0.79717000  0.53904000  0.42091000  1.0
  N  N73  1  0.20546000  0.45179000  0.56096000  1.0
  O  O74  1  0.63387000  0.35952000  0.45373000  1.0
  O  O75  1  0.44805000  0.33431000  0.51864000  1.0
  O  O76  1  0.60841000  0.49629000  0.60385000  1.0
  O  O77  1  0.41609000  0.49486000  0.65181000  1.0
  O  O78  1  0.53581000  0.65267000  0.49809000  1.0
  O  O79  1  0.34590000  0.64266000  0.54086000  1.0
  O  O80  1  0.59950000  0.53238000  0.33930000  1.0
  O  O81  1  0.41847000  0.49331000  0.38815000  1.0
