# generated using pymatgen
data_GdCu2H14C17Br2N2O7
_symmetry_space_group_name_H-M   'P 1'
_cell_length_a   7.32492000
_cell_length_b   7.56195000
_cell_length_c   21.17400000
_cell_angle_alpha   90.08680000
_cell_angle_beta   91.40370000
_cell_angle_gamma   113.93570000
_symmetry_Int_Tables_number   1
_chemical_formula_structural   GdCu2H14C17Br2N2O7
_chemical_formula_sum   'Gd2 Cu4 H28 C34 Br4 N4 O14'
_cell_volume   1071.57348762
_cell_formula_units_Z   2
loop_
 _symmetry_equiv_pos_site_id
 _symmetry_equiv_pos_as_xyz
  1  'x, y, z'
loop_
 _atom_site_type_symbol
 _atom_site_label
 _atom_site_symmetry_multiplicity
 _atom_site_fract_x
 _atom_site_fract_y
 _atom_site_fract_z
 _atom_site_occupancy
  Gd  Gd0  1  0.24609000  0.74934000  0.51302000  1.0
  Gd  Gd1  1  0.75391000  0.25062000  0.48698000  1.0
  Cu  Cu2  1  0.98351000  0.35224000  0.96450000  1.0
  Cu  Cu3  1  0.01644000  0.64783000  0.03551000  1.0
  Cu  Cu4  1  0.00306000  0.89098000  0.94933000  1.0
  Cu  Cu5  1  0.99695000  0.10905000  0.05067000  1.0
  H  H6  1  0.55227000  0.41382000  0.26855000  1.0
  H  H7  1  0.44772000  0.58621000  0.73145000  1.0
  H  H8  1  0.63141000  0.56043000  0.16058000  1.0
  H  H9  1  0.36858000  0.43960000  0.83942000  1.0
  H  H10  1  0.38976000  0.41628000  0.07160000  1.0
  H  H11  1  0.61023000  0.58374000  0.92840000  1.0
  H  H12  1  0.99925000  0.99431000  0.18614000  1.0
  H  H13  1  0.00075000  0.00570000  0.81386000  1.0
  H  H14  1  0.51459000  0.16412000  0.72505000  1.0
  H  H15  1  0.48541000  0.83589000  0.27495000  1.0
  H  H16  1  0.36501000  0.98572000  0.82409000  1.0
  H  H17  1  0.63498000  0.01429000  0.17591000  1.0
  H  H18  1  0.56523000  0.06895000  0.92464000  1.0
  H  H19  1  0.43476000  0.93108000  0.07537000  1.0
  H  H20  1  0.04502000  0.49291000  0.83833000  1.0
  H  H21  1  0.95497000  0.50714000  0.16168000  1.0
  H  H22  1  0.69485000  0.35774000  0.64360000  1.0
  H  H23  1  0.30515000  0.64224000  0.35640000  1.0
  H  H24  1  0.05958000  0.55997000  0.73306000  1.0
  H  H25  1  0.94042000  0.44003000  0.26694000  1.0
  H  H26  1  0.49033000  0.23962000  0.34686000  1.0
  H  H27  1  0.50969000  0.76037000  0.65313000  1.0
  H  H28  1  0.29016000  0.12329000  0.55908000  1.0
  H  H29  1  0.70986000  0.87668000  0.44092000  1.0
  H  H30  1  0.05348000  0.03490000  0.56418000  1.0
  H  H31  1  0.94653000  0.96508000  0.43582000  1.0
  H  H32  1  0.06729000  0.96870000  0.29813000  1.0
  H  H33  1  0.93272000  0.03132000  0.70186000  1.0
  C  C34  1  0.26770000  0.19044000  0.23635000  1.0
  C  C35  1  0.73229000  0.80958000  0.76364000  1.0
  C  C36  1  0.44895000  0.35296000  0.22847000  1.0
  C  C37  1  0.55104000  0.64708000  0.77153000  1.0
  C  C38  1  0.49381000  0.43453000  0.16923000  1.0
  C  C39  1  0.50618000  0.56550000  0.83077000  1.0
  C  C40  1  0.35875000  0.35547000  0.11877000  1.0
  C  C41  1  0.64125000  0.64455000  0.88123000  1.0
  C  C42  1  0.14041000  0.12151000  0.18298000  1.0
  C  C43  1  0.85958000  0.87851000  0.81702000  1.0
  C  C44  1  0.79521000  0.34406000  0.77357000  1.0
  C  C45  1  0.20479000  0.65595000  0.22643000  1.0
  C  C46  1  0.59877000  0.19930000  0.76991000  1.0
  C  C47  1  0.40124000  0.80070000  0.23009000  1.0
  C  C48  1  0.51537000  0.10014000  0.82436000  1.0
  C  C49  1  0.48463000  0.89987000  0.17564000  1.0
  C  C50  1  0.62637000  0.14519000  0.88124000  1.0
  C  C51  1  0.37362000  0.85483000  0.11876000  1.0
  C  C52  1  0.89419000  0.37945000  0.83263000  1.0
  C  C53  1  0.10579000  0.62058000  0.16738000  1.0
  C  C54  1  0.98482000  0.56724000  0.61297000  1.0
  C  C55  1  0.01519000  0.43270000  0.38702000  1.0
  C  C56  1  0.84487000  0.45144000  0.66065000  1.0
  C  C57  1  0.15514000  0.54855000  0.33935000  1.0
  C  C58  1  0.90620000  0.45843000  0.72141000  1.0
  C  C59  1  0.09380000  0.54157000  0.27860000  1.0
  C  C60  1  0.33905000  0.12683000  0.34714000  1.0
  C  C61  1  0.66096000  0.87315000  0.65286000  1.0
  C  C62  1  0.29481000  0.00899000  0.40416000  1.0
  C  C63  1  0.70520000  0.99099000  0.59584000  1.0
  C  C64  1  0.45445000  0.44849000  0.53076000  1.0
  C  C65  1  0.54556000  0.55146000  0.46923000  1.0
  C  C66  1  0.21448000  0.08878000  0.29601000  1.0
  C  C67  1  0.78553000  0.91123000  0.70399000  1.0
  Br  Br68  1  0.24327000  0.22344000  0.95751000  1.0
  Br  Br69  1  0.75669000  0.77655000  0.04250000  1.0
  Br  Br70  1  0.22935000  0.71069000  0.94500000  1.0
  Br  Br71  1  0.77065000  0.28937000  0.05502000  1.0
  N  N72  1  0.18368000  0.20092000  0.12530000  1.0
  N  N73  1  0.81631000  0.79910000  0.87470000  1.0
  N  N74  1  0.81383000  0.28395000  0.88538000  1.0
  N  N75  1  0.18616000  0.71609000  0.11462000  1.0
  O  O76  1  0.50533000  0.31321000  0.54815000  1.0
  O  O77  1  0.49470000  0.68675000  0.45184000  1.0
  O  O78  1  0.44156000  0.03673000  0.44373000  1.0
  O  O79  1  0.55845000  0.96323000  0.55626000  1.0
  O  O80  1  0.92850000  0.53355000  0.55325000  1.0
  O  O81  1  0.07151000  0.46639000  0.44675000  1.0
  O  O82  1  0.15628000  0.69445000  0.62692000  1.0
  O  O83  1  0.84375000  0.30548000  0.37308000  1.0
  O  O84  1  0.12375000  0.87670000  0.41574000  1.0
  O  O85  1  0.87625000  0.12328000  0.58425000  1.0
  O  O86  1  0.33608000  0.50247000  0.55867000  1.0
  O  O87  1  0.66390000  0.49746000  0.44132000  1.0
  O  O88  1  0.16623000  0.00520000  0.55037000  1.0
  O  O89  1  0.83379000  0.99476000  0.44964000  1.0
