# generated using pymatgen
data_Zn2H7C9N11O4
_symmetry_space_group_name_H-M   'P 1'
_cell_length_a   9.76043000
_cell_length_b   9.76489000
_cell_length_c   20.20600000
_cell_angle_alpha   90.00000000
_cell_angle_beta   90.00000000
_cell_angle_gamma   95.14330000
_symmetry_Int_Tables_number   1
_chemical_formula_structural   Zn2H7C9N11O4
_chemical_formula_sum   'Zn8 H28 C36 N44 O16'
_cell_volume   1918.07013158
_cell_formula_units_Z   4
loop_
 _symmetry_equiv_pos_site_id
 _symmetry_equiv_pos_as_xyz
  1  'x, y, z'
loop_
 _atom_site_type_symbol
 _atom_site_label
 _atom_site_symmetry_multiplicity
 _atom_site_fract_x
 _atom_site_fract_y
 _atom_site_fract_z
 _atom_site_occupancy
  Zn  Zn0  1  0.75000000  0.75000000  0.93216000  1.0
  Zn  Zn1  1  0.25000000  0.25000000  0.56786000  1.0
  Zn  Zn2  1  0.25000000  0.25000000  0.06784000  1.0
  Zn  Zn3  1  0.75000000  0.75000000  0.43214000  1.0
  Zn  Zn4  1  0.25000000  0.75000000  0.89050000  1.0
  Zn  Zn5  1  0.25000000  0.75000000  0.60961000  1.0
  Zn  Zn6  1  0.75000000  0.25000000  0.10950000  1.0
  Zn  Zn7  1  0.75000000  0.25000000  0.39039000  1.0
  H  H8  1  0.97388000  0.77401000  0.70505000  1.0
  H  H9  1  0.52612000  0.72598000  0.70505000  1.0
  H  H10  1  0.27396000  0.47377000  0.79495000  1.0
  H  H11  1  0.22604000  0.02623000  0.79495000  1.0
  H  H12  1  0.02612000  0.22599000  0.29495000  1.0
  H  H13  1  0.47387000  0.27402000  0.29495000  1.0
  H  H14  1  0.72604000  0.52623000  0.20505000  1.0
  H  H15  1  0.77396000  0.97377000  0.20505000  1.0
  H  H16  1  0.75000000  0.75000000  0.64146000  1.0
  H  H17  1  0.25000000  0.25000000  0.85854000  1.0
  H  H18  1  0.25000000  0.25000000  0.35854000  1.0
  H  H19  1  0.75000000  0.75000000  0.14146000  1.0
  H  H20  1  0.57467000  0.31987000  0.98415000  1.0
  H  H21  1  0.92533000  0.18013000  0.98415000  1.0
  H  H22  1  0.81981000  0.07468000  0.51580000  1.0
  H  H23  1  0.68019000  0.42532000  0.51580000  1.0
  H  H24  1  0.42533000  0.68013000  0.01585000  1.0
  H  H25  1  0.07467000  0.81987000  0.01585000  1.0
  H  H26  1  0.18019000  0.92532000  0.48420000  1.0
  H  H27  1  0.31981000  0.57468000  0.48420000  1.0
  H  H28  1  0.57823000  0.46512000  0.93585000  1.0
  H  H29  1  0.92177000  0.03487000  0.93585000  1.0
  H  H30  1  0.96512000  0.07831000  0.56412000  1.0
  H  H31  1  0.53488000  0.42169000  0.56412000  1.0
  H  H32  1  0.42177000  0.53488000  0.06415000  1.0
  H  H33  1  0.07823000  0.96513000  0.06415000  1.0
  H  H34  1  0.03488000  0.92169000  0.43588000  1.0
  H  H35  1  0.46512000  0.57831000  0.43588000  1.0
  C  C36  1  0.99109000  0.78779000  0.84504000  1.0
  C  C37  1  0.50891000  0.71221000  0.84504000  1.0
  C  C38  1  0.28776000  0.49101000  0.65497000  1.0
  C  C39  1  0.21224000  0.00899000  0.65496000  1.0
  C  C40  1  0.00891000  0.21221000  0.15496000  1.0
  C  C41  1  0.49109000  0.28779000  0.15496000  1.0
  C  C42  1  0.71224000  0.50899000  0.34503000  1.0
  C  C43  1  0.78776000  0.99101000  0.34504000  1.0
  C  C44  1  0.86968000  0.76760000  0.79911000  1.0
  C  C45  1  0.63032000  0.73240000  0.79911000  1.0
  C  C46  1  0.26757000  0.36964000  0.70089000  1.0
  C  C47  1  0.23243000  0.13036000  0.70089000  1.0
  C  C48  1  0.13032000  0.23240000  0.20089000  1.0
  C  C49  1  0.36968000  0.26760000  0.20089000  1.0
  C  C50  1  0.73243000  0.63036000  0.29911000  1.0
  C  C51  1  0.76757000  0.86964000  0.29911000  1.0
  C  C52  1  0.87460000  0.76460000  0.73007000  1.0
  C  C53  1  0.62540000  0.73540000  0.73007000  1.0
  C  C54  1  0.26457000  0.37455000  0.76993000  1.0
  C  C55  1  0.23543000  0.12545000  0.76993000  1.0
  C  C56  1  0.12540000  0.23540000  0.26993000  1.0
  C  C57  1  0.37460000  0.26460000  0.26993000  1.0
  C  C58  1  0.73543000  0.62545000  0.23007000  1.0
  C  C59  1  0.76457000  0.87455000  0.23007000  1.0
  C  C60  1  0.75000000  0.75000000  0.69541000  1.0
  C  C61  1  0.25000000  0.25000000  0.80459000  1.0
  C  C62  1  0.25000000  0.25000000  0.30459000  1.0
  C  C63  1  0.75000000  0.75000000  0.19541000  1.0
  C  C64  1  0.73145000  0.46942000  0.00278000  1.0
  C  C65  1  0.76855000  0.03058000  0.00278000  1.0
  C  C66  1  0.96938000  0.23146000  0.49720000  1.0
  C  C67  1  0.53062000  0.26854000  0.49720000  1.0
  C  C68  1  0.26855000  0.53058000  0.99722000  1.0
  C  C69  1  0.23145000  0.96942000  0.99722000  1.0
  C  C70  1  0.03063000  0.76854000  0.50280000  1.0
  C  C71  1  0.46938000  0.73146000  0.50280000  1.0
  N  N72  1  0.75000000  0.75000000  0.83157000  1.0
  N  N73  1  0.25000000  0.25000000  0.66844000  1.0
  N  N74  1  0.25000000  0.25000000  0.16843000  1.0
  N  N75  1  0.75000000  0.75000000  0.33156000  1.0
  N  N76  1  0.79200000  0.59657000  0.99065000  1.0
  N  N77  1  0.70800000  0.90343000  0.99065000  1.0
  N  N78  1  0.09653000  0.29205000  0.50938000  1.0
  N  N79  1  0.40347000  0.20795000  0.50938000  1.0
  N  N80  1  0.20800000  0.40343000  0.00935000  1.0
  N  N81  1  0.29199000  0.09657000  0.00935000  1.0
  N  N82  1  0.90347000  0.70795000  0.49062000  1.0
  N  N83  1  0.59653000  0.79205000  0.49062000  1.0
  N  N84  1  0.89183000  0.62253000  0.03775000  1.0
  N  N85  1  0.60817000  0.87747000  0.03776000  1.0
  N  N86  1  0.12255000  0.39184000  0.46228000  1.0
  N  N87  1  0.37745000  0.10816000  0.46228000  1.0
  N  N88  1  0.10817000  0.37747000  0.96225000  1.0
  N  N89  1  0.39183000  0.12253000  0.96224000  1.0
  N  N90  1  0.87746000  0.60816000  0.53772000  1.0
  N  N91  1  0.62255000  0.89184000  0.53772000  1.0
  N  N92  1  0.89260000  0.51746000  0.07651000  1.0
  N  N93  1  0.60740000  0.98254000  0.07651000  1.0
  N  N94  1  0.01750000  0.39257000  0.42349000  1.0
  N  N95  1  0.48250000  0.10743000  0.42349000  1.0
  N  N96  1  0.10740000  0.48254000  0.92349000  1.0
  N  N97  1  0.39260000  0.01746000  0.92349000  1.0
  N  N98  1  0.98250000  0.60743000  0.57651000  1.0
  N  N99  1  0.51750000  0.89257000  0.57651000  1.0
  N  N100  1  0.79294000  0.41850000  0.05625000  1.0
  N  N101  1  0.70706000  0.08150000  0.05625000  1.0
  N  N102  1  0.91850000  0.29290000  0.44370000  1.0
  N  N103  1  0.58150000  0.20710000  0.44370000  1.0
  N  N104  1  0.20706000  0.58150000  0.94375000  1.0
  N  N105  1  0.29294000  0.91850000  0.94375000  1.0
  N  N106  1  0.08150000  0.70710000  0.55630000  1.0
  N  N107  1  0.41850000  0.79290000  0.55630000  1.0
  N  N108  1  0.63088000  0.40394000  0.96539000  1.0
  N  N109  1  0.86912000  0.09606000  0.96539000  1.0
  N  N110  1  0.90388000  0.13090000  0.53457000  1.0
  N  N111  1  0.59612000  0.36910000  0.53457000  1.0
  N  N112  1  0.36912000  0.59606000  0.03461000  1.0
  N  N113  1  0.13088000  0.90394000  0.03461000  1.0
  N  N114  1  0.09612000  0.86910000  0.46543000  1.0
  N  N115  1  0.40388000  0.63090000  0.46543000  1.0
  O  O116  1  0.96710000  0.81541000  0.90523000  1.0
  O  O117  1  0.53290000  0.68459000  0.90523000  1.0
  O  O118  1  0.31545000  0.46704000  0.59478000  1.0
  O  O119  1  0.18455000  0.03297000  0.59478000  1.0
  O  O120  1  0.03290000  0.18459000  0.09477000  1.0
  O  O121  1  0.46710000  0.31541000  0.09477000  1.0
  O  O122  1  0.68455000  0.53297000  0.40522000  1.0
  O  O123  1  0.81545000  0.96703000  0.40522000  1.0
  O  O124  1  0.10864000  0.77302000  0.82072000  1.0
  O  O125  1  0.39136000  0.72698000  0.82072000  1.0
  O  O126  1  0.27295000  0.60850000  0.67929000  1.0
  O  O127  1  0.22704000  0.89150000  0.67929000  1.0
  O  O128  1  0.89136000  0.22698000  0.17928000  1.0
  O  O129  1  0.60864000  0.27302000  0.17928000  1.0
  O  O130  1  0.72704000  0.39150000  0.32071000  1.0
  O  O131  1  0.77296000  0.10850000  0.32071000  1.0
