# generated using pymatgen
data_Ti3H15C21NO12
_symmetry_space_group_name_H-M   'P 1'
_cell_length_a   11.85280000
_cell_length_b   17.49450000
_cell_length_c   17.49450000
_cell_angle_alpha   120.00000000
_cell_angle_beta   90.00000000
_cell_angle_gamma   90.00000000
_symmetry_Int_Tables_number   1
_chemical_formula_structural   Ti3H15C21NO12
_chemical_formula_sum   'Ti12 H60 C84 N4 O48'
_cell_volume   3141.62726523
_cell_formula_units_Z   4
loop_
 _symmetry_equiv_pos_site_id
 _symmetry_equiv_pos_as_xyz
  1  'x, y, z'
loop_
 _atom_site_type_symbol
 _atom_site_label
 _atom_site_symmetry_multiplicity
 _atom_site_fract_x
 _atom_site_fract_y
 _atom_site_fract_z
 _atom_site_occupancy
  Ti  Ti0  1  0.60508000  0.11754000  0.11754000  1.0
  Ti  Ti1  1  0.60508000  0.00000000  0.88246000  1.0
  Ti  Ti2  1  0.60508000  0.88245000  0.00000000  1.0
  Ti  Ti3  1  0.10508000  0.88246000  0.88246000  1.0
  Ti  Ti4  1  0.10508000  0.00000000  0.11754000  1.0
  Ti  Ti5  1  0.10508000  0.11754000  1.00000000  1.0
  Ti  Ti6  1  0.89492000  0.11754000  0.11754000  1.0
  Ti  Ti7  1  0.89492000  0.88245000  0.00000000  1.0
  Ti  Ti8  1  0.89492000  0.00000000  0.88246000  1.0
  Ti  Ti9  1  0.39492000  0.88246000  0.88246000  1.0
  Ti  Ti10  1  0.39492000  0.11754000  1.00000000  1.0
  Ti  Ti11  1  0.39492000  0.00000000  0.11754000  1.0
  H  H12  1  0.61874000  0.37489000  0.56310000  1.0
  H  H13  1  0.61874000  0.18821000  0.62511000  1.0
  H  H14  1  0.61875000  0.43690000  0.81179000  1.0
  H  H15  1  0.11874000  0.62511000  0.43690000  1.0
  H  H16  1  0.11874000  0.81179000  0.37489000  1.0
  H  H17  1  0.11875000  0.56310000  0.18821000  1.0
  H  H18  1  0.88126000  0.56310000  0.37489000  1.0
  H  H19  1  0.88126000  0.62511000  0.18821000  1.0
  H  H20  1  0.88125000  0.81179000  0.43690000  1.0
  H  H21  1  0.38126000  0.43690000  0.62511000  1.0
  H  H22  1  0.38125000  0.37489000  0.81179000  1.0
  H  H23  1  0.38125000  0.18821000  0.56310000  1.0
  H  H24  1  0.38126000  0.62511000  0.43690000  1.0
  H  H25  1  0.38126000  0.81179000  0.37489000  1.0
  H  H26  1  0.38125000  0.56310000  0.18821000  1.0
  H  H27  1  0.88126000  0.37489000  0.56310000  1.0
  H  H28  1  0.88126000  0.18821000  0.62511000  1.0
  H  H29  1  0.88126000  0.43690000  0.81179000  1.0
  H  H30  1  0.11874000  0.43690000  0.62511000  1.0
  H  H31  1  0.11874000  0.37489000  0.81179000  1.0
  H  H32  1  0.11874000  0.18821000  0.56310000  1.0
  H  H33  1  0.61874000  0.56310000  0.37489000  1.0
  H  H34  1  0.61875000  0.62511000  0.18821000  1.0
  H  H35  1  0.61875000  0.81179000  0.43690000  1.0
  H  H36  1  0.61947000  0.29116000  0.39801000  1.0
  H  H37  1  0.61947000  0.10685000  0.70883000  1.0
  H  H38  1  0.61947000  0.60198000  0.89315000  1.0
  H  H39  1  0.11947000  0.70883000  0.60198000  1.0
  H  H40  1  0.11947000  0.89315000  0.29117000  1.0
  H  H41  1  0.11947000  0.39802000  0.10685000  1.0
  H  H42  1  0.88053000  0.39802000  0.29117000  1.0
  H  H43  1  0.88053000  0.70884000  0.10686000  1.0
  H  H44  1  0.88053000  0.89315000  0.60199000  1.0
  H  H45  1  0.38053000  0.60198000  0.70883000  1.0
  H  H46  1  0.38053000  0.29116000  0.89314000  1.0
  H  H47  1  0.38053000  0.10685000  0.39801000  1.0
  H  H48  1  0.38053000  0.70883000  0.60198000  1.0
  H  H49  1  0.38053000  0.89315000  0.29117000  1.0
  H  H50  1  0.38053000  0.39802000  0.10685000  1.0
  H  H51  1  0.88053000  0.29116000  0.39801000  1.0
  H  H52  1  0.88053000  0.10685000  0.70883000  1.0
  H  H53  1  0.88053000  0.60198000  0.89315000  1.0
  H  H54  1  0.11947000  0.60198000  0.70883000  1.0
  H  H55  1  0.11947000  0.29116000  0.89314000  1.0
  H  H56  1  0.11947000  0.10685000  0.39801000  1.0
  H  H57  1  0.61947000  0.39802000  0.29117000  1.0
  H  H58  1  0.61947000  0.70884000  0.10686000  1.0
  H  H59  1  0.61947000  0.89315000  0.60199000  1.0
  H  H60  1  0.75000000  0.06423000  0.19892000  1.0
  H  H61  1  0.75000000  0.13469000  0.93577000  1.0
  H  H62  1  0.75000000  0.80108000  0.86531000  1.0
  H  H63  1  0.25000000  0.93577000  0.80108000  1.0
  H  H64  1  0.25000000  0.86531000  0.06423000  1.0
  H  H65  1  0.25000000  0.19892000  0.13469000  1.0
  H  H66  1  0.75000000  0.19892000  0.06423000  1.0
  H  H67  1  0.75000000  0.93577000  0.13469000  1.0
  H  H68  1  0.75000000  0.86531000  0.80108000  1.0
  H  H69  1  0.25000000  0.80108000  0.93577000  1.0
  H  H70  1  0.25000000  0.06423000  0.86531000  1.0
  H  H71  1  0.25000000  0.13469000  0.19892000  1.0
  C  C72  1  0.56674000  0.31610000  0.52670000  1.0
  C  C73  1  0.56674000  0.21060000  0.68390000  1.0
  C  C74  1  0.56674000  0.47330000  0.78940000  1.0
  C  C75  1  0.06674000  0.68390000  0.47330000  1.0
  C  C76  1  0.06674000  0.78940000  0.31610000  1.0
  C  C77  1  0.06674000  0.52670000  0.21060000  1.0
  C  C78  1  0.93326000  0.52670000  0.31610000  1.0
  C  C79  1  0.93326000  0.68390000  0.21060000  1.0
  C  C80  1  0.93326000  0.78940000  0.47330000  1.0
  C  C81  1  0.43326000  0.47330000  0.68390000  1.0
  C  C82  1  0.43326000  0.31610000  0.78940000  1.0
  C  C83  1  0.43326000  0.21060000  0.52670000  1.0
  C  C84  1  0.43326000  0.68390000  0.47330000  1.0
  C  C85  1  0.43326000  0.78940000  0.31610000  1.0
  C  C86  1  0.43326000  0.52670000  0.21060000  1.0
  C  C87  1  0.93326000  0.31610000  0.52670000  1.0
  C  C88  1  0.93326000  0.21060000  0.68390000  1.0
  C  C89  1  0.93326000  0.47330000  0.78940000  1.0
  C  C90  1  0.06674000  0.47330000  0.68390000  1.0
  C  C91  1  0.06674000  0.31610000  0.78940000  1.0
  C  C92  1  0.06674000  0.21060000  0.52670000  1.0
  C  C93  1  0.56674000  0.52670000  0.31610000  1.0
  C  C94  1  0.56674000  0.68390000  0.21060000  1.0
  C  C95  1  0.56674000  0.78940000  0.47330000  1.0
  C  C96  1  0.56685000  0.26993000  0.43506000  1.0
  C  C97  1  0.56685000  0.16513000  0.73007000  1.0
  C  C98  1  0.56685000  0.56494000  0.83487000  1.0
  C  C99  1  0.06685000  0.73007000  0.56494000  1.0
  C  C100  1  0.06685000  0.83487000  0.26993000  1.0
  C  C101  1  0.06685000  0.43506000  0.16513000  1.0
  C  C102  1  0.93315000  0.43506000  0.26993000  1.0
  C  C103  1  0.93315000  0.73007000  0.16513000  1.0
  C  C104  1  0.93315000  0.83487000  0.56494000  1.0
  C  C105  1  0.43315000  0.56494000  0.73007000  1.0
  C  C106  1  0.43315000  0.26993000  0.83487000  1.0
  C  C107  1  0.43315000  0.16513000  0.43506000  1.0
  C  C108  1  0.43315000  0.73007000  0.56494000  1.0
  C  C109  1  0.43315000  0.83487000  0.26993000  1.0
  C  C110  1  0.43315000  0.43506000  0.16513000  1.0
  C  C111  1  0.93315000  0.26993000  0.43506000  1.0
  C  C112  1  0.93315000  0.16513000  0.73007000  1.0
  C  C113  1  0.93315000  0.56494000  0.83487000  1.0
  C  C114  1  0.06685000  0.56494000  0.73007000  1.0
  C  C115  1  0.06685000  0.26993000  0.83487000  1.0
  C  C116  1  0.06685000  0.16513000  0.43506000  1.0
  C  C117  1  0.56685000  0.43506000  0.26993000  1.0
  C  C118  1  0.56685000  0.73007000  0.16513000  1.0
  C  C119  1  0.56685000  0.83487000  0.56494000  1.0
  C  C120  1  0.50000000  0.28671000  0.57342000  1.0
  C  C121  1  0.50000000  0.28671000  0.71329000  1.0
  C  C122  1  0.50000000  0.42658000  0.71329000  1.0
  C  C123  1  0.00000000  0.71329000  0.42658000  1.0
  C  C124  1  0.00000000  0.71329000  0.28671000  1.0
  C  C125  1  0.00000000  0.57342000  0.28671000  1.0
  C  C126  1  0.50000000  0.71329000  0.42658000  1.0
  C  C127  1  0.50000000  0.71329000  0.28671000  1.0
  C  C128  1  0.50000000  0.57342000  0.28671000  1.0
  C  C129  1  0.00000000  0.28671000  0.57342000  1.0
  C  C130  1  0.00000000  0.28671000  0.71329000  1.0
  C  C131  1  0.00000000  0.42658000  0.71329000  1.0
  C  C132  1  0.50000000  0.19417000  0.38834000  1.0
  C  C133  1  0.50000000  0.19417000  0.80583000  1.0
  C  C134  1  0.50000000  0.61166000  0.80583000  1.0
  C  C135  1  0.00000000  0.80583000  0.61166000  1.0
  C  C136  1  0.00000000  0.80583000  0.19417000  1.0
  C  C137  1  0.00000000  0.38834000  0.19417000  1.0
  C  C138  1  0.50000000  0.80583000  0.61166000  1.0
  C  C139  1  0.50000000  0.80583000  0.19417000  1.0
  C  C140  1  0.50000000  0.38834000  0.19417000  1.0
  C  C141  1  0.00000000  0.19417000  0.38834000  1.0
  C  C142  1  0.00000000  0.19417000  0.80583000  1.0
  C  C143  1  0.00000000  0.61166000  0.80583000  1.0
  C  C144  1  0.50000000  0.14510000  0.29019000  1.0
  C  C145  1  0.50000000  0.14510000  0.85491000  1.0
  C  C146  1  0.50001000  0.70981000  0.85491000  1.0
  C  C147  1  0.00000000  0.85490000  0.70980000  1.0
  C  C148  1  0.99999000  0.85490000  0.14509000  1.0
  C  C149  1  0.00000000  0.29019000  0.14509000  1.0
  C  C150  1  0.50000000  0.85490000  0.70980000  1.0
  C  C151  1  0.50001000  0.85490000  0.14509000  1.0
  C  C152  1  0.50000000  0.29019000  0.14509000  1.0
  C  C153  1  0.00000000  0.14510000  0.29019000  1.0
  C  C154  1  0.00000000  0.14510000  0.85491000  1.0
  C  C155  1  0.99999000  0.70981000  0.85491000  1.0
  N  N156  1  0.50000000  0.33333333  0.66666667  1.0
  N  N157  1  0.00000000  0.66666667  0.33333333  1.0
  N  N158  1  0.50000000  0.66666667  0.33333333  1.0
  N  N159  1  0.00000000  0.33333333  0.66666667  1.0
  O  O160  1  0.56878000  0.17000000  0.25122000  1.0
  O  O161  1  0.56878000  0.08121000  0.83000000  1.0
  O  O162  1  0.56878000  0.74878000  0.91878000  1.0
  O  O163  1  0.06878000  0.83000000  0.74879000  1.0
  O  O164  1  0.06879000  0.91879000  0.17000000  1.0
  O  O165  1  0.06878000  0.25122000  0.08122000  1.0
  O  O166  1  0.93122000  0.25121000  0.16999000  1.0
  O  O167  1  0.93122000  0.83000000  0.08122000  1.0
  O  O168  1  0.93122000  0.91878000  0.74878000  1.0
  O  O169  1  0.43121000  0.74879000  0.83000000  1.0
  O  O170  1  0.43122000  0.17000000  0.91878000  1.0
  O  O171  1  0.43122000  0.08121000  0.25121000  1.0
  O  O172  1  0.43122000  0.83000000  0.74879000  1.0
  O  O173  1  0.43121000  0.91879000  0.17000000  1.0
  O  O174  1  0.43122000  0.25122000  0.08122000  1.0
  O  O175  1  0.93122000  0.17000000  0.25122000  1.0
  O  O176  1  0.93121000  0.08121000  0.83000000  1.0
  O  O177  1  0.93122000  0.74878000  0.91878000  1.0
  O  O178  1  0.06879000  0.74879000  0.83000000  1.0
  O  O179  1  0.06878000  0.17000000  0.91879000  1.0
  O  O180  1  0.06878000  0.08121000  0.25121000  1.0
  O  O181  1  0.56878000  0.25121000  0.16999000  1.0
  O  O182  1  0.56878000  0.83000000  0.08122000  1.0
  O  O183  1  0.56878000  0.91878000  0.74878000  1.0
  O  O184  1  0.75000000  0.09547000  0.16631000  1.0
  O  O185  1  0.75000000  0.07084000  0.90453000  1.0
  O  O186  1  0.75000000  0.83369000  0.92916000  1.0
  O  O187  1  0.25000000  0.90454000  0.83369000  1.0
  O  O188  1  0.25000000  0.92916000  0.09547000  1.0
  O  O189  1  0.25000000  0.16631000  0.07085000  1.0
  O  O190  1  0.75000000  0.16631000  0.09547000  1.0
  O  O191  1  0.75000000  0.90454000  0.07085000  1.0
  O  O192  1  0.75000000  0.92915000  0.83369000  1.0
  O  O193  1  0.25000000  0.83369000  0.90453000  1.0
  O  O194  1  0.25000000  0.09547000  0.92916000  1.0
  O  O195  1  0.25000000  0.07085000  0.16631000  1.0
  O  O196  1  0.42611000  0.09735000  0.09735000  1.0
  O  O197  1  0.42611000  0.00000000  0.90265000  1.0
  O  O198  1  0.42611000  0.90265000  0.00000000  1.0
  O  O199  1  0.92611000  0.90265000  0.90265000  1.0
  O  O200  1  0.92611000  0.00000000  0.09735000  1.0
  O  O201  1  0.92611000  0.09735000  1.00000000  1.0
  O  O202  1  0.07389000  0.09735000  0.09735000  1.0
  O  O203  1  0.07389000  0.90265000  0.00000000  1.0
  O  O204  1  0.07389000  0.00000000  0.90265000  1.0
  O  O205  1  0.57389000  0.90265000  0.90265000  1.0
  O  O206  1  0.57389000  0.09735000  1.00000000  1.0
  O  O207  1  0.57389000  0.00000000  0.09735000  1.0
