# generated using pymatgen
data_Al2H8C17S2(NO7)2
_symmetry_space_group_name_H-M   'P 1'
_cell_length_a   6.97873000
_cell_length_b   11.09767140
_cell_length_c   12.66250000
_cell_angle_alpha   92.89280918
_cell_angle_beta   104.98170000
_cell_angle_gamma   107.28536278
_symmetry_Int_Tables_number   1
_chemical_formula_structural   Al2H8C17S2(NO7)2
_chemical_formula_sum   'Al2 H8 C17 S2 N2 O14'
_cell_volume   895.90744550
_cell_formula_units_Z   1
loop_
 _symmetry_equiv_pos_site_id
 _symmetry_equiv_pos_as_xyz
  1  'x, y, z'
loop_
 _atom_site_type_symbol
 _atom_site_label
 _atom_site_symmetry_multiplicity
 _atom_site_fract_x
 _atom_site_fract_y
 _atom_site_fract_z
 _atom_site_occupancy
  Al  Al0  1  0.99852000  0.49943000  0.49722000  1.0
  Al  Al1  1  0.49873000  0.49928000  0.49942000  1.0
  H  H2  1  0.13495000  0.35663000  0.40312000  1.0
  H  H3  1  0.86302000  0.64545000  0.58802000  1.0
  H  H4  1  0.12245000  0.88270000  0.47083000  1.0
  H  H5  1  0.87587000  0.11635000  0.52663000  1.0
  H  H6  1  0.86597000  0.48075000  0.13960000  1.0
  H  H7  1  0.99281000  0.51172000  0.77253000  1.0
  H  H8  1  0.96821000  0.43057000  0.88836000  1.0
  H  H9  1  0.06144000  0.59917000  0.90629000  1.0
  C  C10  1  0.65040000  0.49347000  0.30374000  1.0
  C  C11  1  0.64884000  0.27545000  0.50314000  1.0
  C  C12  1  0.34380000  0.50437000  0.69324000  1.0
  C  C13  1  0.34871000  0.72350000  0.49399000  1.0
  C  C14  1  0.57187000  0.13401000  0.50335000  1.0
  C  C15  1  0.42637000  0.86500000  0.49421000  1.0
  C  C16  1  0.36099000  0.06604000  0.48921000  1.0
  C  C17  1  0.63733000  0.93302000  0.50863000  1.0
  C  C18  1  0.28745000  0.93467000  0.48380000  1.0
  C  C19  1  0.71090000  0.06438000  0.51387000  1.0
  C  C20  1  0.28035000  0.50742000  0.88586000  1.0
  C  C21  1  0.70968000  0.48892000  0.11223000  1.0
  C  C22  1  0.39519000  0.49996000  0.81248000  1.0
  C  C23  1  0.59320000  0.49646000  0.18435000  1.0
  C  C24  1  0.59694000  0.49287000  0.00300000  1.0
  C  C25  1  0.39756000  0.50356000  0.99436000  1.0
  C  C26  1  0.06447000  0.51330000  0.86039000  1.0
  S  S27  1  0.63870000  0.48692000  0.87508000  1.0
  S  S28  1  0.34793000  0.50836000  0.12052000  1.0
  N  N29  1  0.20677000  0.13311000  0.48572000  1.0
  N  N30  1  0.79109000  0.86561000  0.51204000  1.0
  O  O31  1  0.82894000  0.48157000  0.34888000  1.0
  O  O32  1  0.50990000  0.32981000  0.49384000  1.0
  O  O33  1  0.48498000  0.49663000  0.64783000  1.0
  O  O34  1  0.15607000  0.67262000  0.48551000  1.0
  O  O35  1  0.16810000  0.51820000  0.64510000  1.0
  O  O36  1  0.48777000  0.66897000  0.50509000  1.0
  O  O37  1  0.51191000  0.50098000  0.35097000  1.0
  O  O38  1  0.84056000  0.32655000  0.50969000  1.0
  O  O39  1  0.19659000  0.43952000  0.44860000  1.0
  O  O40  1  0.80146000  0.55932000  0.54830000  1.0
  O  O41  1  0.19174000  0.16894000  0.57645000  1.0
  O  O42  1  0.09757000  0.14254000  0.39448000  1.0
  O  O43  1  0.90016000  0.85577000  0.60324000  1.0
  O  O44  1  0.80547000  0.82933000  0.42133000  1.0
