# generated using pymatgen
data_DyPH6(CO4)2
_symmetry_space_group_name_H-M   'P 1'
_cell_length_a   7.67425000
_cell_length_b   8.40042000
_cell_length_c   11.92900000
_cell_angle_alpha   93.04890000
_cell_angle_beta   89.99990000
_cell_angle_gamma   89.99990000
_symmetry_Int_Tables_number   1
_chemical_formula_structural   DyPH6(CO4)2
_chemical_formula_sum   'Dy4 P4 H24 C8 O32'
_cell_volume   767.93737362
_cell_formula_units_Z   4
loop_
 _symmetry_equiv_pos_site_id
 _symmetry_equiv_pos_as_xyz
  1  'x, y, z'
loop_
 _atom_site_type_symbol
 _atom_site_label
 _atom_site_symmetry_multiplicity
 _atom_site_fract_x
 _atom_site_fract_y
 _atom_site_fract_z
 _atom_site_occupancy
  Dy  Dy0  1  0.77583000  0.25264000  0.08108000  1.0
  Dy  Dy1  1  0.27583000  0.24736000  0.41892000  1.0
  Dy  Dy2  1  0.22417000  0.74736000  0.91892000  1.0
  Dy  Dy3  1  0.72417000  0.75264000  0.58108000  1.0
  P  P4  1  0.98019000  0.88135000  0.15994000  1.0
  P  P5  1  0.48019000  0.61864000  0.34006000  1.0
  P  P6  1  0.01980000  0.11864000  0.84006000  1.0
  P  P7  1  0.51980000  0.38136000  0.65994000  1.0
  H  H8  1  0.64805000  0.33395000  0.31711000  1.0
  H  H9  1  0.14805000  0.16605000  0.18289000  1.0
  H  H10  1  0.35194000  0.66605000  0.68290000  1.0
  H  H11  1  0.85194000  0.83395000  0.81710000  1.0
  H  H12  1  0.82043000  0.22074000  0.32680000  1.0
  H  H13  1  0.32043000  0.27926000  0.17320000  1.0
  H  H14  1  0.17957000  0.77926000  0.67320000  1.0
  H  H15  1  0.67956000  0.72074000  0.82680000  1.0
  H  H16  1  0.99437000  0.47238000  0.22547000  1.0
  H  H17  1  0.49437000  0.02762000  0.27453000  1.0
  H  H18  1  0.00563000  0.52762000  0.77453000  1.0
  H  H19  1  0.50562000  0.97238000  0.72547000  1.0
  H  H20  1  0.97996000  0.56143000  0.11036000  1.0
  H  H21  1  0.47996000  0.93857000  0.38964000  1.0
  H  H22  1  0.02004000  0.43857000  0.88964000  1.0
  H  H23  1  0.52004000  0.06143000  0.61036000  1.0
  H  H24  1  0.82636000  0.83544000  0.21454000  1.0
  H  H25  1  0.32636000  0.66456000  0.28546000  1.0
  H  H26  1  0.17364000  0.16456000  0.78546000  1.0
  H  H27  1  0.67364000  0.33544000  0.71454000  1.0
  H  H28  1  0.11384000  0.86702000  0.24055000  1.0
  H  H29  1  0.61384000  0.63298000  0.25946000  1.0
  H  H30  1  0.88616000  0.13298000  0.75945000  1.0
  H  H31  1  0.38616000  0.36702000  0.74055000  1.0
  C  C32  1  0.56894000  0.53083000  0.95964000  1.0
  C  C33  1  0.06894000  0.96917000  0.54036000  1.0
  C  C34  1  0.43107000  0.46918000  0.04036000  1.0
  C  C35  1  0.93107000  0.03082000  0.45964000  1.0
  C  C36  1  0.48596000  0.97266000  0.06040000  1.0
  C  C37  1  0.98596000  0.52735000  0.43960000  1.0
  C  C38  1  0.51404000  0.02735000  0.93960000  1.0
  C  C39  1  0.01404000  0.47265000  0.56040000  1.0
  O  O40  1  0.71737000  0.46855000  0.96040000  1.0
  O  O41  1  0.21737000  0.03144000  0.53960000  1.0
  O  O42  1  0.28264000  0.53144000  0.03960000  1.0
  O  O43  1  0.78264000  0.96856000  0.46040000  1.0
  O  O44  1  0.51780000  0.64152000  0.89790000  1.0
  O  O45  1  0.01780000  0.85848000  0.60210000  1.0
  O  O46  1  0.48221000  0.35848000  0.10210000  1.0
  O  O47  1  0.98221000  0.14152000  0.39790000  1.0
  O  O48  1  0.58561000  0.03421000  0.13556000  1.0
  O  O49  1  0.08561000  0.46580000  0.36444000  1.0
  O  O50  1  0.41439000  0.96581000  0.86444000  1.0
  O  O51  1  0.91439000  0.53419000  0.63556000  1.0
  O  O52  1  0.36676000  0.87213000  0.07479000  1.0
  O  O53  1  0.86676000  0.62787000  0.42522000  1.0
  O  O54  1  0.63325000  0.12788000  0.92521000  1.0
  O  O55  1  0.13324000  0.37212000  0.57479000  1.0
  O  O56  1  0.96844000  0.05797000  0.13499000  1.0
  O  O57  1  0.46843000  0.44203000  0.36501000  1.0
  O  O58  1  0.03156000  0.94202000  0.86501000  1.0
  O  O59  1  0.53156000  0.55797000  0.63499000  1.0
  O  O60  1  0.01193000  0.76211000  0.06092000  1.0
  O  O61  1  0.51193000  0.73788000  0.43908000  1.0
  O  O62  1  0.98807000  0.23788000  0.93908000  1.0
  O  O63  1  0.48807000  0.26212000  0.56092000  1.0
  O  O64  1  0.73872000  0.27226000  0.27467000  1.0
  O  O65  1  0.23872000  0.22775000  0.22533000  1.0
  O  O66  1  0.26128000  0.72775000  0.72533000  1.0
  O  O67  1  0.76128000  0.77225000  0.77467000  1.0
  O  O68  1  0.93494000  0.47104000  0.15145000  1.0
  O  O69  1  0.43494000  0.02896000  0.34855000  1.0
  O  O70  1  0.06506000  0.52896000  0.84855000  1.0
  O  O71  1  0.56505000  0.97104000  0.65145000  1.0
