# generated using pymatgen
data_CdH11C9N(ClO)2
_symmetry_space_group_name_H-M   'P 1'
_cell_length_a   6.93429000
_cell_length_b   11.85570000
_cell_length_c   13.87980000
_cell_angle_alpha   110.65500000
_cell_angle_beta   89.99990000
_cell_angle_gamma   89.99990000
_symmetry_Int_Tables_number   1
_chemical_formula_structural   CdH11C9N(ClO)2
_chemical_formula_sum   'Cd4 H44 C36 N4 Cl8 O8'
_cell_volume   1067.72387419
_cell_formula_units_Z   4
loop_
 _symmetry_equiv_pos_site_id
 _symmetry_equiv_pos_as_xyz
  1  'x, y, z'
loop_
 _atom_site_type_symbol
 _atom_site_label
 _atom_site_symmetry_multiplicity
 _atom_site_fract_x
 _atom_site_fract_y
 _atom_site_fract_z
 _atom_site_occupancy
  Cd  Cd0  1  0.89528000  0.47633000  0.25552000  1.0
  Cd  Cd1  1  0.39528000  0.52367000  0.24448000  1.0
  Cd  Cd2  1  0.10472000  0.52367000  0.74448000  1.0
  Cd  Cd3  1  0.60472000  0.47633000  0.75552000  1.0
  H  H4  1  0.75228000  0.65719000  0.98032000  1.0
  H  H5  1  0.25228000  0.34281000  0.51968000  1.0
  H  H6  1  0.24773000  0.34280000  0.01968000  1.0
  H  H7  1  0.74772000  0.65720000  0.48032000  1.0
  H  H8  1  0.58715000  0.66404000  0.07193000  1.0
  H  H9  1  0.08715000  0.33596000  0.42807000  1.0
  H  H10  1  0.41285000  0.33596000  0.92807000  1.0
  H  H11  1  0.91285000  0.66404000  0.57193000  1.0
  H  H12  1  0.79627000  0.58861000  0.06795000  1.0
  H  H13  1  0.29627000  0.41139000  0.43205000  1.0
  H  H14  1  0.20373000  0.41139000  0.93205000  1.0
  H  H15  1  0.70373000  0.58861000  0.56795000  1.0
  H  H16  1  0.08917000  0.74145000  0.02967000  1.0
  H  H17  1  0.58918000  0.25855000  0.47033000  1.0
  H  H18  1  0.91083000  0.25855000  0.97033000  1.0
  H  H19  1  0.41082000  0.74145000  0.52967000  1.0
  H  H20  1  0.12545000  0.83952000  0.15808000  1.0
  H  H21  1  0.62545000  0.16049000  0.34193000  1.0
  H  H22  1  0.87455000  0.16048000  0.84192000  1.0
  H  H23  1  0.37454000  0.83952000  0.65807000  1.0
  H  H24  1  0.80339000  0.76917000  0.20567000  1.0
  H  H25  1  0.30340000  0.23084000  0.29433000  1.0
  H  H26  1  0.19660000  0.23083000  0.79433000  1.0
  H  H27  1  0.69660000  0.76917000  0.70567000  1.0
  H  H28  1  0.00946000  0.96015000  0.08329000  1.0
  H  H29  1  0.50946000  0.03985000  0.41671000  1.0
  H  H30  1  0.99054000  0.03984000  0.91670000  1.0
  H  H31  1  0.49054000  0.96016000  0.58329000  1.0
  H  H32  1  0.85687000  0.14944000  0.08694000  1.0
  H  H33  1  0.35687000  0.85056000  0.41305000  1.0
  H  H34  1  0.14313000  0.85056000  0.91305000  1.0
  H  H35  1  0.64314000  0.14944000  0.58695000  1.0
  H  H36  1  0.50573000  0.18188000  0.11905000  1.0
  H  H37  1  0.00574000  0.81811000  0.38095000  1.0
  H  H38  1  0.49426000  0.81811000  0.88095000  1.0
  H  H39  1  0.99427000  0.18189000  0.61905000  1.0
  H  H40  1  0.30948000  0.02654000  0.15745000  1.0
  H  H41  1  0.80949000  0.97345000  0.34255000  1.0
  H  H42  1  0.69052000  0.97345000  0.84255000  1.0
  H  H43  1  0.19052000  0.02655000  0.65745000  1.0
  H  H44  1  0.46471000  0.84117000  0.16404000  1.0
  H  H45  1  0.96472000  0.15883000  0.33595000  1.0
  H  H46  1  0.53529000  0.15883000  0.83595000  1.0
  H  H47  1  0.03528000  0.84117000  0.66405000  1.0
  C  C48  1  0.13445000  0.65223000  0.13765000  1.0
  C  C49  1  0.63445000  0.34777000  0.36235000  1.0
  C  C50  1  0.86555000  0.34777000  0.86235000  1.0
  C  C51  1  0.36554000  0.65223000  0.63765000  1.0
  C  C52  1  0.05231000  0.75670000  0.11053000  1.0
  C  C53  1  0.55232000  0.24331000  0.38947000  1.0
  C  C54  1  0.94769000  0.24331000  0.88947000  1.0
  C  C55  1  0.44768000  0.75670000  0.61053000  1.0
  C  C56  1  0.83512000  0.77239000  0.12899000  1.0
  C  C57  1  0.33512000  0.22761000  0.37101000  1.0
  C  C58  1  0.16488000  0.22761000  0.87101000  1.0
  C  C59  1  0.66487000  0.77239000  0.62899000  1.0
  C  C60  1  0.74733000  0.88614000  0.12197000  1.0
  C  C61  1  0.24734000  0.11386000  0.37803000  1.0
  C  C62  1  0.25267000  0.11386000  0.87803000  1.0
  C  C63  1  0.75267000  0.88614000  0.62197000  1.0
  C  C64  1  0.85596000  0.97357000  0.09999000  1.0
  C  C65  1  0.35596000  0.02643000  0.40001000  1.0
  C  C66  1  0.14404000  0.02643000  0.90001000  1.0
  C  C67  1  0.64404000  0.97357000  0.59999000  1.0
  C  C68  1  0.76945000  0.08019000  0.10066000  1.0
  C  C69  1  0.26946000  0.91981000  0.39934000  1.0
  C  C70  1  0.23055000  0.91981000  0.89934000  1.0
  C  C71  1  0.73055000  0.08020000  0.60066000  1.0
  C  C72  1  0.57270000  0.09929000  0.12022000  1.0
  C  C73  1  0.07271000  0.90071000  0.37978000  1.0
  C  C74  1  0.42729000  0.90071000  0.87977000  1.0
  C  C75  1  0.92730000  0.09929000  0.62023000  1.0
  C  C76  1  0.46317000  0.01196000  0.14135000  1.0
  C  C77  1  0.96318000  0.98804000  0.35864000  1.0
  C  C78  1  0.53683000  0.98804000  0.85864000  1.0
  C  C79  1  0.03682000  0.01196000  0.64136000  1.0
  C  C80  1  0.55016000  0.90699000  0.14380000  1.0
  C  C81  1  0.05017000  0.09300000  0.35620000  1.0
  C  C82  1  0.44984000  0.09300000  0.85620000  1.0
  C  C83  1  0.94983000  0.90700000  0.64380000  1.0
  N  N84  1  0.73289000  0.66275000  0.05642000  1.0
  N  N85  1  0.23289000  0.33725000  0.44358000  1.0
  N  N86  1  0.26711000  0.33725000  0.94358000  1.0
  N  N87  1  0.76710000  0.66275000  0.55642000  1.0
  Cl  Cl88  1  0.14468000  0.59944000  0.39304000  1.0
  Cl  Cl89  1  0.64468000  0.40056000  0.10696000  1.0
  Cl  Cl90  1  0.85532000  0.40056000  0.60696000  1.0
  Cl  Cl91  1  0.35532000  0.59944000  0.89304000  1.0
  Cl  Cl92  1  0.17358000  0.32304000  0.16694000  1.0
  Cl  Cl93  1  0.67357000  0.67696000  0.33306000  1.0
  Cl  Cl94  1  0.82642000  0.67697000  0.83306000  1.0
  Cl  Cl95  1  0.32643000  0.32304000  0.66694000  1.0
  O  O96  1  0.02033000  0.56726000  0.13500000  1.0
  O  O97  1  0.52032000  0.43275000  0.36500000  1.0
  O  O98  1  0.97968000  0.43275000  0.86500000  1.0
  O  O99  1  0.47966000  0.56726000  0.63500000  1.0
  O  O100  1  0.31297000  0.65522000  0.16096000  1.0
  O  O101  1  0.81297000  0.34479000  0.33904000  1.0
  O  O102  1  0.68703000  0.34479000  0.83904000  1.0
  O  O103  1  0.18702000  0.65522000  0.66096000  1.0
