# generated using pymatgen
data_ZnH16C26(NO2)2
_symmetry_space_group_name_H-M   'P 1'
_cell_length_a   5.31506000
_cell_length_b   15.24610000
_cell_length_c   18.58890000
_cell_angle_alpha   99.53640000
_cell_angle_beta   89.95960000
_cell_angle_gamma   100.05600000
_symmetry_Int_Tables_number   1
_chemical_formula_structural   ZnH16C26(NO2)2
_chemical_formula_sum   'Zn2 H32 C52 N4 O8'
_cell_volume   1462.07595561
_cell_formula_units_Z   2
loop_
 _symmetry_equiv_pos_site_id
 _symmetry_equiv_pos_as_xyz
  1  'x, y, z'
loop_
 _atom_site_type_symbol
 _atom_site_label
 _atom_site_symmetry_multiplicity
 _atom_site_fract_x
 _atom_site_fract_y
 _atom_site_fract_z
 _atom_site_occupancy
  Zn  Zn0  1  0.41083000  0.99992000  0.75008000  1.0
  Zn  Zn1  1  0.58917000  0.00007000  0.24992000  1.0
  H  H2  1  0.25939000  0.64055000  0.68211000  1.0
  H  H3  1  0.62047000  0.35948000  0.81818000  1.0
  H  H4  1  0.74064000  0.35945000  0.31788000  1.0
  H  H5  1  0.37953000  0.64052000  0.18183000  1.0
  H  H6  1  0.80084000  0.82642000  0.62801000  1.0
  H  H7  1  0.97493000  0.17356000  0.87198000  1.0
  H  H8  1  0.19912000  0.17358000  0.37199000  1.0
  H  H9  1  0.02505000  0.82643000  0.12801000  1.0
  H  H10  1  0.52424000  0.70166000  0.54403000  1.0
  H  H11  1  0.82264000  0.29824000  0.95592000  1.0
  H  H12  1  0.47577000  0.29833000  0.45597000  1.0
  H  H13  1  0.17735000  0.70175000  0.04408000  1.0
  H  H14  1  0.98536000  0.51424000  0.59875000  1.0
  H  H15  1  0.47229000  0.48572000  0.90148000  1.0
  H  H16  1  0.01467000  0.48576000  0.40125000  1.0
  H  H17  1  0.52772000  0.51427000  0.09853000  1.0
  H  H18  1  0.80117000  0.89272000  0.79032000  1.0
  H  H19  1  0.90954000  0.10679000  0.70990000  1.0
  H  H20  1  0.19881000  0.10727000  0.20969000  1.0
  H  H21  1  0.09043000  0.89321000  0.29010000  1.0
  H  H22  1  0.46634000  0.09975000  0.90041000  1.0
  H  H23  1  0.36605000  0.90042000  0.59970000  1.0
  H  H24  1  0.53367000  0.90025000  0.09959000  1.0
  H  H25  1  0.63397000  0.09958000  0.40030000  1.0
  H  H26  1  0.71815000  0.10686000  0.01356000  1.0
  H  H27  1  0.61083000  0.89335000  0.48644000  1.0
  H  H28  1  0.28190000  0.89315000  0.98644000  1.0
  H  H29  1  0.38918000  0.10665000  0.51355000  1.0
  H  H30  1  0.07352000  0.89132000  0.89711000  1.0
  H  H31  1  0.18319000  0.10827000  0.60298000  1.0
  H  H32  1  0.92646000  0.10867000  0.10289000  1.0
  H  H33  1  0.81678000  0.89176000  0.39702000  1.0
  C  C34  1  0.21280000  0.81717000  0.70850000  1.0
  C  C35  1  0.39652000  0.18276000  0.79160000  1.0
  C  C36  1  0.78720000  0.18283000  0.29151000  1.0
  C  C37  1  0.60348000  0.81724000  0.20841000  1.0
  C  C38  1  0.04559000  0.74106000  0.65996000  1.0
  C  C39  1  0.30563000  0.25893000  0.84020000  1.0
  C  C40  1  0.95439000  0.25895000  0.34004000  1.0
  C  C41  1  0.69436000  0.74108000  0.15980000  1.0
  C  C42  1  0.09720000  0.65278000  0.65178000  1.0
  C  C43  1  0.44573000  0.34718000  0.84845000  1.0
  C  C44  1  0.90281000  0.34722000  0.34821000  1.0
  C  C45  1  0.55428000  0.65281000  0.15156000  1.0
  C  C46  1  0.83938000  0.75791000  0.62054000  1.0
  C  C47  1  0.08215000  0.24206000  0.87955000  1.0
  C  C48  1  0.16060000  0.24208000  0.37946000  1.0
  C  C49  1  0.91784000  0.75794000  0.12045000  1.0
  C  C50  1  0.68649000  0.68875000  0.57397000  1.0
  C  C51  1  0.99819000  0.31120000  0.92609000  1.0
  C  C52  1  0.31349000  0.31124000  0.42603000  1.0
  C  C53  1  0.00180000  0.68879000  0.07391000  1.0
  C  C54  1  0.94474000  0.58272000  0.60545000  1.0
  C  C55  1  0.36306000  0.41725000  0.89476000  1.0
  C  C56  1  0.05528000  0.41728000  0.39455000  1.0
  C  C57  1  0.63694000  0.58275000  0.10524000  1.0
  C  C58  1  0.73568000  0.59958000  0.56602000  1.0
  C  C59  1  0.13673000  0.40038000  0.93412000  1.0
  C  C60  1  0.26433000  0.40042000  0.43398000  1.0
  C  C61  1  0.86327000  0.59961000  0.06589000  1.0
  C  C62  1  0.57379000  0.52927000  0.51984000  1.0
  C  C63  1  0.04471000  0.47073000  0.98022000  1.0
  C  C64  1  0.42622000  0.47073000  0.48017000  1.0
  C  C65  1  0.95530000  0.52926000  0.01979000  1.0
  C  C66  1  0.79119000  0.93923000  0.84090000  1.0
  C  C67  1  0.85267000  0.06046000  0.65926000  1.0
  C  C68  1  0.20880000  0.06076000  0.15910000  1.0
  C  C69  1  0.14731000  0.93955000  0.34073000  1.0
  C  C70  1  0.60359000  0.05482000  0.90284000  1.0
  C  C71  1  0.54862000  0.94519000  0.59729000  1.0
  C  C72  1  0.39643000  0.94517000  0.09716000  1.0
  C  C73  1  0.45139000  0.05481000  0.40270000  1.0
  C  C74  1  0.74641000  0.05802000  0.96587000  1.0
  C  C75  1  0.68812000  0.94206000  0.53419000  1.0
  C  C76  1  0.25361000  0.94198000  0.03413000  1.0
  C  C77  1  0.31188000  0.05795000  0.46581000  1.0
  C  C78  1  0.94190000  0.93912000  0.90192000  1.0
  C  C79  1  0.00346000  0.06060000  0.59817000  1.0
  C  C80  1  0.05810000  0.06088000  0.09808000  1.0
  C  C81  1  0.99653000  0.93942000  0.40183000  1.0
  C  C82  1  0.92242000  0.99928000  0.96680000  1.0
  C  C83  1  0.92315000  0.00069000  0.53323000  1.0
  C  C84  1  0.07759000  0.00072000  0.03320000  1.0
  C  C85  1  0.07684000  0.99933000  0.46677000  1.0
  N  N86  1  0.62512000  0.99659000  0.84114000  1.0
  N  N87  1  0.62879000  0.00328000  0.65902000  1.0
  N  N88  1  0.37488000  0.00340000  0.15886000  1.0
  N  N89  1  0.37121000  0.99672000  0.34098000  1.0
  O  O90  1  0.14622000  0.89673000  0.71043000  1.0
  O  O91  1  0.24997000  0.10326000  0.78968000  1.0
  O  O92  1  0.85377000  0.10328000  0.28957000  1.0
  O  O93  1  0.75004000  0.89674000  0.21032000  1.0
  O  O94  1  0.40263000  0.80465000  0.74210000  1.0
  O  O95  1  0.59903000  0.19520000  0.75798000  1.0
  O  O96  1  0.59738000  0.19535000  0.25789000  1.0
  O  O97  1  0.40096000  0.80479000  0.24202000  1.0
