# generated using pymatgen
data_CuH15C27IN3
_symmetry_space_group_name_H-M   'P 1'
_cell_length_a   9.71559000
_cell_length_b   9.94526000
_cell_length_c   15.15140000
_cell_angle_alpha   107.04100000
_cell_angle_beta   98.14230000
_cell_angle_gamma   98.13910000
_symmetry_Int_Tables_number   1
_chemical_formula_structural   CuH15C27IN3
_chemical_formula_sum   'Cu2 H30 C54 I2 N6'
_cell_volume   1359.43264989
_cell_formula_units_Z   2
loop_
 _symmetry_equiv_pos_site_id
 _symmetry_equiv_pos_as_xyz
  1  'x, y, z'
loop_
 _atom_site_type_symbol
 _atom_site_label
 _atom_site_symmetry_multiplicity
 _atom_site_fract_x
 _atom_site_fract_y
 _atom_site_fract_z
 _atom_site_occupancy
  Cu  Cu0  1  0.08551000  0.61674000  0.00753000  1.0
  Cu  Cu1  1  0.91449000  0.38326000  0.99247000  1.0
  H  H2  1  0.14230000  0.79176000  0.20564000  1.0
  H  H3  1  0.85770000  0.20825000  0.79436000  1.0
  H  H4  1  0.34974000  0.94438000  0.32886000  1.0
  H  H5  1  0.65027000  0.05563000  0.67114000  1.0
  H  H6  1  0.61763000  0.80353000  0.12804000  1.0
  H  H7  1  0.38237000  0.19647000  0.87196000  1.0
  H  H8  1  0.39862000  0.65735000  0.01411000  1.0
  H  H9  1  0.60138000  0.34265000  0.98589000  1.0
  H  H10  1  0.75731000  0.95053000  0.52488000  1.0
  H  H11  1  0.24269000  0.04946000  0.47511000  1.0
  H  H12  1  0.13018000  0.27182000  0.67708000  1.0
  H  H13  1  0.86983000  0.72817000  0.32291000  1.0
  H  H14  1  0.91896000  0.27176000  0.40590000  1.0
  H  H15  1  0.08104000  0.72824000  0.59410000  1.0
  H  H16  1  0.47224000  0.61275000  0.67715000  1.0
  H  H17  1  0.52777000  0.38727000  0.32286000  1.0
  H  H18  1  0.67413000  0.79126000  0.66765000  1.0
  H  H19  1  0.32587000  0.20875000  0.33235000  1.0
  H  H20  1  0.48135000  0.78325000  0.40432000  1.0
  H  H21  1  0.51863000  0.21674000  0.59568000  1.0
  H  H22  1  0.27045000  0.60549000  0.40186000  1.0
  H  H23  1  0.72953000  0.39450000  0.59816000  1.0
  H  H24  1  0.89133000  0.67576000  0.69193000  1.0
  H  H25  1  0.10866000  0.32423000  0.30808000  1.0
  H  H26  1  0.94531000  0.54337000  0.80641000  1.0
  H  H27  1  0.05468000  0.45662000  0.19359000  1.0
  H  H28  1  0.15523000  0.91730000  0.01531000  1.0
  H  H29  1  0.84477000  0.08270000  0.98469000  1.0
  H  H30  1  0.11333000  0.06622000  0.91012000  1.0
  H  H31  1  0.88667000  0.93378000  0.08988000  1.0
  C  C32  1  0.24981000  0.79817000  0.19186000  1.0
  C  C33  1  0.75020000  0.20183000  0.80814000  1.0
  C  C34  1  0.36496000  0.88272000  0.25981000  1.0
  C  C35  1  0.63505000  0.11729000  0.74019000  1.0
  C  C36  1  0.50215000  0.88807000  0.23878000  1.0
  C  C37  1  0.49785000  0.11193000  0.76122000  1.0
  C  C38  1  0.51422000  0.80611000  0.14793000  1.0
  C  C39  1  0.48578000  0.19389000  0.85207000  1.0
  C  C40  1  0.39274000  0.72416000  0.08440000  1.0
  C  C41  1  0.60726000  0.27584000  0.91560000  1.0
  C  C42  1  0.62064000  0.96949000  0.30937000  1.0
  C  C43  1  0.37936000  0.03051000  0.69063000  1.0
  C  C44  1  0.71551000  0.03773000  0.37604000  1.0
  C  C45  1  0.28449000  0.96227000  0.62396000  1.0
  C  C46  1  0.82460000  0.10541000  0.45652000  1.0
  C  C47  1  0.17541000  0.89459000  0.54348000  1.0
  C  C48  1  0.83443000  0.04511000  0.52964000  1.0
  C  C49  1  0.16557000  0.95489000  0.47036000  1.0
  C  C50  1  0.94503000  0.10444000  0.60864000  1.0
  C  C51  1  0.05497000  0.89555000  0.39136000  1.0
  C  C52  1  0.04449000  0.22647000  0.61585000  1.0
  C  C53  1  0.95551000  0.77353000  0.38415000  1.0
  C  C54  1  0.03537000  0.28603000  0.54206000  1.0
  C  C55  1  0.96463000  0.71397000  0.45793000  1.0
  C  C56  1  0.92504000  0.22561000  0.46280000  1.0
  C  C57  1  0.07496000  0.77439000  0.53720000  1.0
  C  C58  1  0.14194000  0.40047000  0.54402000  1.0
  C  C59  1  0.85806000  0.59953000  0.45599000  1.0
  C  C60  1  0.23826000  0.49196000  0.54197000  1.0
  C  C61  1  0.76174000  0.50804000  0.45804000  1.0
  C  C62  1  0.35407000  0.59362000  0.53975000  1.0
  C  C63  1  0.64593000  0.40638000  0.46027000  1.0
  C  C64  1  0.47065000  0.64801000  0.61546000  1.0
  C  C65  1  0.52935000  0.35201000  0.38455000  1.0
  C  C66  1  0.58263000  0.74695000  0.60978000  1.0
  C  C67  1  0.41738000  0.25306000  0.39022000  1.0
  C  C68  1  0.47575000  0.74260000  0.46361000  1.0
  C  C69  1  0.52424000  0.25740000  0.53640000  1.0
  C  C70  1  0.35848000  0.64314000  0.46185000  1.0
  C  C71  1  0.64151000  0.35686000  0.53816000  1.0
  C  C72  1  0.95997000  0.03254000  0.67639000  1.0
  C  C73  1  0.04003000  0.96745000  0.32361000  1.0
  C  C74  1  0.97427000  0.96275000  0.73000000  1.0
  C  C75  1  0.02573000  0.03724000  0.27000000  1.0
  C  C76  1  0.99826000  0.88301000  0.79191000  1.0
  C  C77  1  0.00173000  0.11698000  0.20809000  1.0
  C  C78  1  0.94975000  0.73320000  0.76324000  1.0
  C  C79  1  0.05024000  0.26679000  0.23677000  1.0
  C  C80  1  0.97897000  0.65950000  0.82633000  1.0
  C  C81  1  0.02103000  0.34050000  0.17367000  1.0
  C  C82  1  0.09769000  0.86795000  0.94290000  1.0
  C  C83  1  0.90231000  0.13205000  0.05710000  1.0
  C  C84  1  0.07461000  0.95045000  0.88476000  1.0
  C  C85  1  0.92538000  0.04955000  0.11524000  1.0
  I  I86  1  0.86242000  0.62951000  0.09265000  1.0
  I  I87  1  0.13758000  0.37049000  0.90735000  1.0
  N  N88  1  0.26136000  0.71910000  0.10492000  1.0
  N  N89  1  0.73865000  0.28090000  0.89508000  1.0
  N  N90  1  0.05136000  0.72460000  0.91537000  1.0
  N  N91  1  0.94864000  0.27539000  0.08464000  1.0
  N  N92  1  0.58654000  0.79485000  0.53591000  1.0
  N  N93  1  0.41345000  0.20515000  0.46409000  1.0
