# generated using pymatgen
data_CaH8C14SO6
_symmetry_space_group_name_H-M   'P 1'
_cell_length_a   5.30149000
_cell_length_b   12.20950000
_cell_length_c   22.37290297
_cell_angle_alpha   102.90431309
_cell_angle_beta   89.99945800
_cell_angle_gamma   89.99930000
_symmetry_Int_Tables_number   1
_chemical_formula_structural   CaH8C14SO6
_chemical_formula_sum   'Ca4 H32 C56 S4 O24'
_cell_volume   1411.59108639
_cell_formula_units_Z   4
loop_
 _symmetry_equiv_pos_site_id
 _symmetry_equiv_pos_as_xyz
  1  'x, y, z'
loop_
 _atom_site_type_symbol
 _atom_site_label
 _atom_site_symmetry_multiplicity
 _atom_site_fract_x
 _atom_site_fract_y
 _atom_site_fract_z
 _atom_site_occupancy
  Ca  Ca0  1  0.19500000  0.10383000  0.72155000  1.0
  Ca  Ca1  1  0.69502000  0.89616000  0.77845000  1.0
  Ca  Ca2  1  0.80500000  0.89616000  0.27844000  1.0
  Ca  Ca3  1  0.30497000  0.10384000  0.22155000  1.0
  H  H4  1  0.69532000  0.46147000  0.59219000  1.0
  H  H5  1  0.86760000  0.16968000  0.37780000  1.0
  H  H6  1  0.33406000  0.11924000  0.56283000  1.0
  H  H7  1  0.33875000  0.33980000  0.67698000  1.0
  H  H8  1  0.46535000  0.53683000  0.72236000  1.0
  H  H9  1  0.80810000  0.65786000  0.64388000  1.0
  H  H10  1  0.71556000  0.26432000  0.48224000  1.0
  H  H11  1  0.49707000  0.03346000  0.45734000  1.0
  H  H12  1  0.19525000  0.53853000  0.90781000  1.0
  H  H13  1  0.36756000  0.83033000  0.12221000  1.0
  H  H14  1  0.83398000  0.88077000  0.93717000  1.0
  H  H15  1  0.83872000  0.66019000  0.82303000  1.0
  H  H16  1  0.96531000  0.46316000  0.77765000  1.0
  H  H17  1  0.30804000  0.34215000  0.85612000  1.0
  H  H18  1  0.21554000  0.73567000  0.01777000  1.0
  H  H19  1  0.99699000  0.96656000  0.04266000  1.0
  H  H20  1  0.30468000  0.53853000  0.40781000  1.0
  H  H21  1  0.13239000  0.83032000  0.62220000  1.0
  H  H22  1  0.66597000  0.88077000  0.43717000  1.0
  H  H23  1  0.66127000  0.66020000  0.32302000  1.0
  H  H24  1  0.53465000  0.46318000  0.27765000  1.0
  H  H25  1  0.19189000  0.34215000  0.35613000  1.0
  H  H26  1  0.28444000  0.73568000  0.51776000  1.0
  H  H27  1  0.50292000  0.96654000  0.54266000  1.0
  H  H28  1  0.80475000  0.46146000  0.09219000  1.0
  H  H29  1  0.63243000  0.16969000  0.87780000  1.0
  H  H30  1  0.16602000  0.11923000  0.06283000  1.0
  H  H31  1  0.16128000  0.33980000  0.17697000  1.0
  H  H32  1  0.03469000  0.53683000  0.22235000  1.0
  H  H33  1  0.69197000  0.65785000  0.14387000  1.0
  H  H34  1  0.78447000  0.26433000  0.98223000  1.0
  H  H35  1  0.00301000  0.03344000  0.95733000  1.0
  C  C36  1  0.20870000  0.72728000  0.72011000  1.0
  C  C37  1  0.29585000  0.04050000  0.34968000  1.0
  C  C38  1  0.01940000  0.19679000  0.52804000  1.0
  C  C39  1  0.01313000  0.38992000  0.63096000  1.0
  C  C40  1  0.86556000  0.47868000  0.62000000  1.0
  C  C41  1  0.97277000  0.16141000  0.41834000  1.0
  C  C42  1  0.19285000  0.09593000  0.41170000  1.0
  C  C43  1  0.23631000  0.13062000  0.52201000  1.0
  C  C44  1  0.22850000  0.40938000  0.66787000  1.0
  C  C45  1  0.29757000  0.51991000  0.69370000  1.0
  C  C46  1  0.93045000  0.58845000  0.64841000  1.0
  C  C47  1  0.88697000  0.21384000  0.47669000  1.0
  C  C48  1  0.14707000  0.60954000  0.68529000  1.0
  C  C49  1  0.32428000  0.08232000  0.46367000  1.0
  C  C50  1  0.70864000  0.27272000  0.77990000  1.0
  C  C51  1  0.79578000  0.95951000  0.15033000  1.0
  C  C52  1  0.51937000  0.80321000  0.97197000  1.0
  C  C53  1  0.51308000  0.61008000  0.86905000  1.0
  C  C54  1  0.36551000  0.52132000  0.88000000  1.0
  C  C55  1  0.47272000  0.83860000  0.08167000  1.0
  C  C56  1  0.69280000  0.90409000  0.08831000  1.0
  C  C57  1  0.73624000  0.86939000  0.97799000  1.0
  C  C58  1  0.72846000  0.59062000  0.83214000  1.0
  C  C59  1  0.79754000  0.48009000  0.80631000  1.0
  C  C60  1  0.43040000  0.41154000  0.85159000  1.0
  C  C61  1  0.38694000  0.78616000  0.02332000  1.0
  C  C62  1  0.64702000  0.39046000  0.81472000  1.0
  C  C63  1  0.82421000  0.91770000  0.03633000  1.0
  C  C64  1  0.79129000  0.27273000  0.27991000  1.0
  C  C65  1  0.70414000  0.95951000  0.65033000  1.0
  C  C66  1  0.98061000  0.80322000  0.47196000  1.0
  C  C67  1  0.98688000  0.61008000  0.36904000  1.0
  C  C68  1  0.13444000  0.52132000  0.38000000  1.0
  C  C69  1  0.02723000  0.83860000  0.58166000  1.0
  C  C70  1  0.80715000  0.90408000  0.58830000  1.0
  C  C71  1  0.76371000  0.86939000  0.47798000  1.0
  C  C72  1  0.77151000  0.59063000  0.33214000  1.0
  C  C73  1  0.70243000  0.48010000  0.30631000  1.0
  C  C74  1  0.06955000  0.41155000  0.35160000  1.0
  C  C75  1  0.11303000  0.78617000  0.52331000  1.0
  C  C76  1  0.85293000  0.39046000  0.31472000  1.0
  C  C77  1  0.67573000  0.91768000  0.53632000  1.0
  C  C78  1  0.29136000  0.72727000  0.22009000  1.0
  C  C79  1  0.20419000  0.04049000  0.84967000  1.0
  C  C80  1  0.48065000  0.19678000  0.02803000  1.0
  C  C81  1  0.48692000  0.38992000  0.13096000  1.0
  C  C82  1  0.63449000  0.47866000  0.11999000  1.0
  C  C83  1  0.52727000  0.16141000  0.91834000  1.0
  C  C84  1  0.30720000  0.09592000  0.91169000  1.0
  C  C85  1  0.26376000  0.13061000  0.02201000  1.0
  C  C86  1  0.27155000  0.40937000  0.16785000  1.0
  C  C87  1  0.20247000  0.51991000  0.19369000  1.0
  C  C88  1  0.56961000  0.58845000  0.14840000  1.0
  C  C89  1  0.61307000  0.21384000  0.97668000  1.0
  C  C90  1  0.35298000  0.60954000  0.18528000  1.0
  C  C91  1  0.17579000  0.08231000  0.96367000  1.0
  S  S92  1  0.90469000  0.25048000  0.60353000  1.0
  S  S93  1  0.40467000  0.74952000  0.89647000  1.0
  S  S94  1  0.09533000  0.74953000  0.39647000  1.0
  S  S95  1  0.59534000  0.25047000  0.10353000  1.0
  O  O96  1  0.02287000  0.18201000  0.64157000  1.0
  O  O97  1  0.14550000  0.02916000  0.30342000  1.0
  O  O98  1  0.63232000  0.25447000  0.60004000  1.0
  O  O99  1  0.43107000  0.76325000  0.71594000  1.0
  O  O100  1  0.03108000  0.77957000  0.75218000  1.0
  O  O101  1  0.52383000  0.01066000  0.34612000  1.0
  O  O102  1  0.52289000  0.81798000  0.85843000  1.0
  O  O103  1  0.64544000  0.97083000  0.19658000  1.0
  O  O104  1  0.13229000  0.74555000  0.89996000  1.0
  O  O105  1  0.93101000  0.23675000  0.78407000  1.0
  O  O106  1  0.53101000  0.22042000  0.74783000  1.0
  O  O107  1  0.02374000  0.98935000  0.15388000  1.0
  O  O108  1  0.97712000  0.81799000  0.35842000  1.0
  O  O109  1  0.85447000  0.97083000  0.69658000  1.0
  O  O110  1  0.36769000  0.74553000  0.39995000  1.0
  O  O111  1  0.56893000  0.23675000  0.28408000  1.0
  O  O112  1  0.96892000  0.22043000  0.24783000  1.0
  O  O113  1  0.47618000  0.98934000  0.65387000  1.0
  O  O114  1  0.47709000  0.18201000  0.14157000  1.0
  O  O115  1  0.35453000  0.02917000  0.80342000  1.0
  O  O116  1  0.86771000  0.25444000  0.10005000  1.0
  O  O117  1  0.06900000  0.76325000  0.21592000  1.0
  O  O118  1  0.46898000  0.77957000  0.25217000  1.0
  O  O119  1  0.97623000  0.01066000  0.84612000  1.0
