# generated using pymatgen
data_FeH8PtC14(N3Cl)2
_symmetry_space_group_name_H-M   'P 1'
_cell_length_a   6.88752000
_cell_length_b   7.33636000
_cell_length_c   8.53249000
_cell_angle_alpha   98.60260000
_cell_angle_beta   113.76500000
_cell_angle_gamma   90.00000000
_symmetry_Int_Tables_number   1
_chemical_formula_structural   FeH8PtC14(N3Cl)2
_chemical_formula_sum   'Fe1 H8 Pt1 C14 N6 Cl2'
_cell_volume   389.27703661
_cell_formula_units_Z   1
loop_
 _symmetry_equiv_pos_site_id
 _symmetry_equiv_pos_as_xyz
  1  'x, y, z'
loop_
 _atom_site_type_symbol
 _atom_site_label
 _atom_site_symmetry_multiplicity
 _atom_site_fract_x
 _atom_site_fract_y
 _atom_site_fract_z
 _atom_site_occupancy
  Fe  Fe0  1  0.50000000  0.50000000  0.00000000  1.0
  H  H1  1  0.38742000  0.78268000  0.77428000  1.0
  H  H2  1  0.61258000  0.21732000  0.22572000  1.0
  H  H3  1  0.12323000  0.49499000  0.24594000  1.0
  H  H4  1  0.87678000  0.50501000  0.75406000  1.0
  H  H5  1  0.18292000  0.19910000  0.36526000  1.0
  H  H6  1  0.81709000  0.80090000  0.63474000  1.0
  H  H7  1  0.34450000  0.20880000  0.68880000  1.0
  H  H8  1  0.65551000  0.79120000  0.31120000  1.0
  Pt  Pt9  1  0.99999000  0.00000000  0.00000000  1.0
  C  C10  1  0.34103000  0.65517000  0.68157000  1.0
  C  C11  1  0.65897000  0.34483000  0.31843000  1.0
  C  C12  1  0.25214000  0.65830000  0.50397000  1.0
  C  C13  1  0.74786000  0.34170000  0.49603000  1.0
  C  C14  1  0.19289000  0.49448000  0.38527000  1.0
  C  C15  1  0.80711000  0.50552000  0.61473000  1.0
  C  C16  1  0.22701000  0.33062000  0.45342000  1.0
  C  C17  1  0.77299000  0.66938000  0.54658000  1.0
  C  C18  1  0.31630000  0.33462000  0.63216000  1.0
  C  C19  1  0.68370000  0.66538000  0.36784000  1.0
  C  C20  1  0.80971000  0.80738000  0.01467000  1.0
  C  C21  1  0.79517000  0.19273000  0.98513000  1.0
  C  C22  1  0.19028000  0.19261000  0.98533000  1.0
  C  C23  1  0.20482000  0.80726000  0.01487000  1.0
  N  N24  1  0.37280000  0.49513000  0.74524000  1.0
  N  N25  1  0.62720000  0.50487000  0.25476000  1.0
  N  N26  1  0.70145000  0.68665000  0.01902000  1.0
  N  N27  1  0.68255000  0.31346000  0.98089000  1.0
  N  N28  1  0.29855000  0.31335000  0.98098000  1.0
  N  N29  1  0.31744000  0.68655000  0.01912000  1.0
  Cl  Cl30  1  0.21754000  0.86914000  0.43502000  1.0
  Cl  Cl31  1  0.78247000  0.13086000  0.56498000  1.0
