# generated using pymatgen
data_ZnH18C18(NO2)2
_symmetry_space_group_name_H-M   'P 1'
_cell_length_a   8.04850000
_cell_length_b   8.91100000
_cell_length_c   11.49640000
_cell_angle_alpha   96.18420000
_cell_angle_beta   95.56930000
_cell_angle_gamma   100.54000000
_symmetry_Int_Tables_number   1
_chemical_formula_structural   ZnH18C18(NO2)2
_chemical_formula_sum   'Zn2 H36 C36 N4 O8'
_cell_volume   800.12449971
_cell_formula_units_Z   2
loop_
 _symmetry_equiv_pos_site_id
 _symmetry_equiv_pos_as_xyz
  1  'x, y, z'
loop_
 _atom_site_type_symbol
 _atom_site_label
 _atom_site_symmetry_multiplicity
 _atom_site_fract_x
 _atom_site_fract_y
 _atom_site_fract_z
 _atom_site_occupancy
  Zn  Zn0  1  0.35008000  0.04127000  0.37759000  1.0
  Zn  Zn1  1  0.64992000  0.95873000  0.62241000  1.0
  H  H2  1  0.86838000  0.08639000  0.16625000  1.0
  H  H3  1  0.13161000  0.91361000  0.83376000  1.0
  H  H4  1  0.95534000  0.27164000  0.13067000  1.0
  H  H5  1  0.04465000  0.72836000  0.86933000  1.0
  H  H6  1  0.87265000  0.09098000  0.94765000  1.0
  H  H7  1  0.12733000  0.90902000  0.05236000  1.0
  H  H8  1  0.09589000  0.15418000  0.97082000  1.0
  H  H9  1  0.90410000  0.84582000  0.02918000  1.0
  H  H10  1  0.82690000  0.35401000  0.33142000  1.0
  H  H11  1  0.17311000  0.64599000  0.66858000  1.0
  H  H12  1  0.97022000  0.24962000  0.39775000  1.0
  H  H13  1  0.02978000  0.75038000  0.60225000  1.0
  H  H14  1  0.82059000  0.50043000  0.53350000  1.0
  H  H15  1  0.17941000  0.49956000  0.46650000  1.0
  H  H16  1  0.96364000  0.39329000  0.59447000  1.0
  H  H17  1  0.03636000  0.60671000  0.40554000  1.0
  H  H18  1  0.57704000  0.02577000  0.17802000  1.0
  H  H19  1  0.42296000  0.97423000  0.82197000  1.0
  H  H20  1  0.58957000  0.85875000  0.98851000  1.0
  H  H21  1  0.41044000  0.14124000  0.01149000  1.0
  H  H22  1  0.17581000  0.53040000  0.08355000  1.0
  H  H23  1  0.82419000  0.46960000  0.91645000  1.0
  H  H24  1  0.18470000  0.70861000  0.26728000  1.0
  H  H25  1  0.81530000  0.29139000  0.73272000  1.0
  H  H26  1  0.48828000  0.64330000  0.85605000  1.0
  H  H27  1  0.51172000  0.35669000  0.14395000  1.0
  H  H28  1  0.17697000  0.40878000  0.90522000  1.0
  H  H29  1  0.82303000  0.59121000  0.09478000  1.0
  H  H30  1  0.50939000  0.53216000  0.69541000  1.0
  H  H31  1  0.49061000  0.46784000  0.30459000  1.0
  H  H32  1  0.52190000  0.36594000  0.51068000  1.0
  H  H33  1  0.47811000  0.63406000  0.48932000  1.0
  H  H34  1  0.11473000  0.03786000  0.57170000  1.0
  H  H35  1  0.88528000  0.96214000  0.42830000  1.0
  H  H36  1  0.08229000  0.18580000  0.75719000  1.0
  H  H37  1  0.91771000  0.81420000  0.24281000  1.0
  C  C38  1  0.14036000  0.15687000  0.21061000  1.0
  C  C39  1  0.85964000  0.84314000  0.78939000  1.0
  C  C40  1  0.97633000  0.15302000  0.13070000  1.0
  C  C41  1  0.02366000  0.84698000  0.86931000  1.0
  C  C42  1  0.98815000  0.08356000  0.00447000  1.0
  C  C43  1  0.01184000  0.91644000  0.99554000  1.0
  C  C44  1  0.71867000  0.19360000  0.44221000  1.0
  C  C45  1  0.28133000  0.80640000  0.55779000  1.0
  C  C46  1  0.86530000  0.31049000  0.41355000  1.0
  C  C47  1  0.13470000  0.68951000  0.58645000  1.0
  C  C48  1  0.92584000  0.44160000  0.51422000  1.0
  C  C49  1  0.07415000  0.55840000  0.48578000  1.0
  C  C50  1  0.49066000  0.91525000  0.15228000  1.0
  C  C51  1  0.50935000  0.08475000  0.84772000  1.0
  C  C52  1  0.49578000  0.82341000  0.04756000  1.0
  C  C53  1  0.50422000  0.17659000  0.95245000  1.0
  C  C54  1  0.37904000  0.68326000  0.01676000  1.0
  C  C55  1  0.62096000  0.31674000  0.98324000  1.0
  C  C56  1  0.26526000  0.64029000  0.09852000  1.0
  C  C57  1  0.73474000  0.35971000  0.90148000  1.0
  C  C58  1  0.26999000  0.73821000  0.20163000  1.0
  C  C59  1  0.73001000  0.26180000  0.79837000  1.0
  C  C60  1  0.38543000  0.59380000  0.90431000  1.0
  C  C61  1  0.61456000  0.40620000  0.09569000  1.0
  C  C62  1  0.27968000  0.46045000  0.85765000  1.0
  C  C63  1  0.72032000  0.53956000  0.14235000  1.0
  C  C64  1  0.29470000  0.37373000  0.74560000  1.0
  C  C65  1  0.70531000  0.62627000  0.25439000  1.0
  C  C66  1  0.41874000  0.42338000  0.67202000  1.0
  C  C67  1  0.58127000  0.57662000  0.32798000  1.0
  C  C68  1  0.42678000  0.33076000  0.56864000  1.0
  C  C69  1  0.57322000  0.66924000  0.43135000  1.0
  C  C70  1  0.20041000  0.14763000  0.60154000  1.0
  C  C71  1  0.79960000  0.85237000  0.39846000  1.0
  C  C72  1  0.18290000  0.23258000  0.70656000  1.0
  C  C73  1  0.81710000  0.76742000  0.29344000  1.0
  N  N74  1  0.37886000  0.87491000  0.22837000  1.0
  N  N75  1  0.62114000  0.12509000  0.77162000  1.0
  N  N76  1  0.32206000  0.19365000  0.53346000  1.0
  N  N77  1  0.67794000  0.80636000  0.46653000  1.0
  O  O78  1  0.12786000  0.06736000  0.29249000  1.0
  O  O79  1  0.87214000  0.93264000  0.70752000  1.0
  O  O80  1  0.27586000  0.24028000  0.19193000  1.0
  O  O81  1  0.72413000  0.75972000  0.80806000  1.0
  O  O82  1  0.58776000  0.15428000  0.36567000  1.0
  O  O83  1  0.41224000  0.84572000  0.63433000  1.0
  O  O84  1  0.73692000  0.14512000  0.54169000  1.0
  O  O85  1  0.26309000  0.85487000  0.45831000  1.0
