# generated using pymatgen
data_Zn3H34C50(N3O2)4
_symmetry_space_group_name_H-M   'P 1'
_cell_length_a   11.50420000
_cell_length_b   11.57350000
_cell_length_c   11.71630000
_cell_angle_alpha   81.80320000
_cell_angle_beta   65.01000000
_cell_angle_gamma   72.93390000
_symmetry_Int_Tables_number   1
_chemical_formula_structural   Zn3H34C50(N3O2)4
_chemical_formula_sum   'Zn3 H34 C50 N12 O8'
_cell_volume   1351.34266411
_cell_formula_units_Z   1
loop_
 _symmetry_equiv_pos_site_id
 _symmetry_equiv_pos_as_xyz
  1  'x, y, z'
loop_
 _atom_site_type_symbol
 _atom_site_label
 _atom_site_symmetry_multiplicity
 _atom_site_fract_x
 _atom_site_fract_y
 _atom_site_fract_z
 _atom_site_occupancy
  Zn  Zn0  1  0.00000000  0.00000000  0.50000000  1.0
  Zn  Zn1  1  0.00000000  0.00000000  0.00000000  1.0
  Zn  Zn2  1  0.50000000  0.00000000  0.50000000  1.0
  H  H3  1  0.98018000  0.79472000  0.69671000  1.0
  H  H4  1  0.01982000  0.20528000  0.30329000  1.0
  H  H5  1  0.41703000  0.63786000  0.35964000  1.0
  H  H6  1  0.58297000  0.36214000  0.64036000  1.0
  H  H7  1  0.28241000  0.85026000  0.36001000  1.0
  H  H8  1  0.71759000  0.14974000  0.63999000  1.0
  H  H9  1  0.09776000  0.57833000  0.70972000  1.0
  H  H10  1  0.90223000  0.42167000  0.29028000  1.0
  H  H11  1  0.20382000  0.35945000  0.98618000  1.0
  H  H12  1  0.79617000  0.64055000  0.01382000  1.0
  H  H13  1  0.44727000  0.45063000  0.32959000  1.0
  H  H14  1  0.55273000  0.54937000  0.67041000  1.0
  H  H15  1  0.20696000  0.53158000  0.97105000  1.0
  H  H16  1  0.79303000  0.46842000  0.02895000  1.0
  H  H17  1  0.24766000  0.42481000  0.73520000  1.0
  H  H18  1  0.75234000  0.57519000  0.26480000  1.0
  H  H19  1  0.80760000  0.85334000  0.00150000  1.0
  H  H20  1  0.19240000  0.14666000  0.99850000  1.0
  H  H21  1  0.19883000  0.74813000  0.95840000  1.0
  H  H22  1  0.80117000  0.25187000  0.04160000  1.0
  H  H23  1  0.34719000  0.95191000  0.82552000  1.0
  H  H24  1  0.65281000  0.04809000  0.17448000  1.0
  H  H25  1  0.35433000  0.20374000  0.71873000  1.0
  H  H26  1  0.64567000  0.79626000  0.28127000  1.0
  H  H27  1  0.55095000  0.22996000  0.33229000  1.0
  H  H28  1  0.44905000  0.77003000  0.66771000  1.0
  H  H29  1  0.30410000  0.32996000  0.19700000  1.0
  H  H30  1  0.69590000  0.67004000  0.80300000  1.0
  H  H31  1  0.16322000  0.70346000  0.19768000  1.0
  H  H32  1  0.83678000  0.29654000  0.80232000  1.0
  H  H33  1  0.99422000  0.70073000  0.41317000  1.0
  H  H34  1  0.00578000  0.29927000  0.58683000  1.0
  H  H35  1  0.14242000  0.30886000  0.41137000  1.0
  H  H36  1  0.85758000  0.69114000  0.58863000  1.0
  C  C37  1  0.03778000  0.95289000  0.23176000  1.0
  C  C38  1  0.96222000  0.04711000  0.76824000  1.0
  C  C39  1  0.10812000  0.02516000  0.73107000  1.0
  C  C40  1  0.89188000  0.97484000  0.26893000  1.0
  C  C41  1  0.07853000  0.75596000  0.62545000  1.0
  C  C42  1  0.92147000  0.24404000  0.37455000  1.0
  C  C43  1  0.33805000  0.45850000  0.53300000  1.0
  C  C44  1  0.66195000  0.54150000  0.46700000  1.0
  C  C45  1  0.26896000  0.58816000  0.53499000  1.0
  C  C46  1  0.73104000  0.41184000  0.46501000  1.0
  C  C47  1  0.32054000  0.66780000  0.43678000  1.0
  C  C48  1  0.67946000  0.33220000  0.56322000  1.0
  C  C49  1  0.24732000  0.78692000  0.43677000  1.0
  C  C50  1  0.75268000  0.21308000  0.56323000  1.0
  C  C51  1  0.14538000  0.63550000  0.63212000  1.0
  C  C52  1  0.85462000  0.36449000  0.36788000  1.0
  C  C53  1  0.11173000  0.34140000  0.99774000  1.0
  C  C54  1  0.88827000  0.65860000  0.00226000  1.0
  C  C55  1  0.42673000  0.40085000  0.41917000  1.0
  C  C56  1  0.57327000  0.59915000  0.58083000  1.0
  C  C57  1  0.99894000  0.43577000  0.00561000  1.0
  C  C58  1  0.00106000  0.56423000  0.99440000  1.0
  C  C59  1  0.11571000  0.59783000  0.97585000  1.0
  C  C60  1  0.88429000  0.40217000  0.02416000  1.0
  C  C61  1  0.31400000  0.38605000  0.64320000  1.0
  C  C62  1  0.68600000  0.61394000  0.35680000  1.0
  C  C63  1  0.10651000  0.22196000  0.00479000  1.0
  C  C64  1  0.89349000  0.77804000  0.99521000  1.0
  C  C65  1  0.11208000  0.71963000  0.96974000  1.0
  C  C66  1  0.88792000  0.28037000  0.03026000  1.0
  C  C67  1  0.28387000  0.97772000  0.77378000  1.0
  C  C68  1  0.71613000  0.02228000  0.22622000  1.0
  C  C69  1  0.21966000  0.02889000  0.61861000  1.0
  C  C70  1  0.78034000  0.97111000  0.38139000  1.0
  C  C71  1  0.24335000  0.06296000  0.48435000  1.0
  C  C72  1  0.75665000  0.93704000  0.51564000  1.0
  C  C73  1  0.37434000  0.26246000  0.63474000  1.0
  C  C74  1  0.62566000  0.73754000  0.36526000  1.0
  C  C75  1  0.48348000  0.27705000  0.41983000  1.0
  C  C76  1  0.51652000  0.72295000  0.58017000  1.0
  C  C77  1  0.23324000  0.41114000  0.24736000  1.0
  C  C78  1  0.76676000  0.58886000  0.75264000  1.0
  C  C79  1  0.15538000  0.61692000  0.24777000  1.0
  C  C80  1  0.84462000  0.38308000  0.75223000  1.0
  C  C81  1  0.05924000  0.61490000  0.37008000  1.0
  C  C82  1  0.94076000  0.38510000  0.62992000  1.0
  C  C83  1  0.05015000  0.50364000  0.43489000  1.0
  C  C84  1  0.94985000  0.49636000  0.56511000  1.0
  C  C85  1  0.14139000  0.39952000  0.36989000  1.0
  C  C86  1  0.85861000  0.60048000  0.63011000  1.0
  N  N87  1  0.15195000  0.99325000  0.82676000  1.0
  N  N88  1  0.84805000  0.00676000  0.17323000  1.0
  N  N89  1  0.12760000  0.83021000  0.52899000  1.0
  N  N90  1  0.87240000  0.16979000  0.47101000  1.0
  N  N91  1  0.99700000  0.19153000  0.01958000  1.0
  N  N92  1  0.00300000  0.80848000  0.98042000  1.0
  N  N93  1  0.32847000  0.99840000  0.64879000  1.0
  N  N94  1  0.67153000  0.00160000  0.35121000  1.0
  N  N95  1  0.45724000  0.20781000  0.52515000  1.0
  N  N96  1  0.54276000  0.79219000  0.47485000  1.0
  N  N97  1  0.24200000  0.51728000  0.18496000  1.0
  N  N98  1  0.75800000  0.48272000  0.81504000  1.0
  O  O99  1  0.08474000  0.94812000  0.31311000  1.0
  O  O100  1  0.91526000  0.05188000  0.68689000  1.0
  O  O101  1  0.11127000  0.94009000  0.11390000  1.0
  O  O102  1  0.88873000  0.05991000  0.88610000  1.0
  O  O103  1  0.14559000  0.09801000  0.45186000  1.0
  O  O104  1  0.85441000  0.90199000  0.54814000  1.0
  O  O105  1  0.36340000  0.05749000  0.40840000  1.0
  O  O106  1  0.63660000  0.94251000  0.59160000  1.0
