# generated using pymatgen
data_BaH9C11N3O5
_symmetry_space_group_name_H-M   'P 1'
_cell_length_a   7.14032000
_cell_length_b   13.43540000
_cell_length_c   13.99600000
_cell_angle_alpha   112.38500000
_cell_angle_beta   90.00000000
_cell_angle_gamma   90.00000000
_symmetry_Int_Tables_number   1
_chemical_formula_structural   BaH9C11N3O5
_chemical_formula_sum   'Ba4 H36 C44 N12 O20'
_cell_volume   1241.50249152
_cell_formula_units_Z   4
loop_
 _symmetry_equiv_pos_site_id
 _symmetry_equiv_pos_as_xyz
  1  'x, y, z'
loop_
 _atom_site_type_symbol
 _atom_site_label
 _atom_site_symmetry_multiplicity
 _atom_site_fract_x
 _atom_site_fract_y
 _atom_site_fract_z
 _atom_site_occupancy
  Ba  Ba0  1  0.46427000  0.31757000  0.45852000  1.0
  Ba  Ba1  1  0.96427000  0.18243000  0.54148000  1.0
  Ba  Ba2  1  0.53573000  0.68243000  0.54148000  1.0
  Ba  Ba3  1  0.03573000  0.81757000  0.45852000  1.0
  H  H4  1  0.02113000  0.00328000  0.23836000  1.0
  H  H5  1  0.52113000  0.49672000  0.76164000  1.0
  H  H6  1  0.97887000  0.99672000  0.76164000  1.0
  H  H7  1  0.47887000  0.50328000  0.23836000  1.0
  H  H8  1  0.86096000  0.08687000  0.20878000  1.0
  H  H9  1  0.36096000  0.41314000  0.79122000  1.0
  H  H10  1  0.13904000  0.91314000  0.79122000  1.0
  H  H11  1  0.63904000  0.58686000  0.20878000  1.0
  H  H12  1  0.18397000  0.88010000  0.09472000  1.0
  H  H13  1  0.68397000  0.61991000  0.90529000  1.0
  H  H14  1  0.81602000  0.11991000  0.90529000  1.0
  H  H15  1  0.31603000  0.38009000  0.09471000  1.0
  H  H16  1  0.19232000  0.76140000  0.90526000  1.0
  H  H17  1  0.69232000  0.73861000  0.09474000  1.0
  H  H18  1  0.80768000  0.23861000  0.09474000  1.0
  H  H19  1  0.30768000  0.26140000  0.90526000  1.0
  H  H20  1  0.90543000  0.74834000  0.79924000  1.0
  H  H21  1  0.40543000  0.75166000  0.20076000  1.0
  H  H22  1  0.09457000  0.25166000  0.20076000  1.0
  H  H23  1  0.59457000  0.24834000  0.79924000  1.0
  H  H24  1  0.61613000  0.96145000  0.05010000  1.0
  H  H25  1  0.11613000  0.53855000  0.94990000  1.0
  H  H26  1  0.38387000  0.03855000  0.94990000  1.0
  H  H27  1  0.88386000  0.46145000  0.05010000  1.0
  H  H28  1  0.53871000  0.09366000  0.26724000  1.0
  H  H29  1  0.03871000  0.40634000  0.73276000  1.0
  H  H30  1  0.46129000  0.90634000  0.73276000  1.0
  H  H31  1  0.96129000  0.59366000  0.26724000  1.0
  H  H32  1  0.60322000  0.26756000  0.24187000  1.0
  H  H33  1  0.10322000  0.23244000  0.75813000  1.0
  H  H34  1  0.39678000  0.73244000  0.75813000  1.0
  H  H35  1  0.89678000  0.76756000  0.24187000  1.0
  H  H36  1  0.43062000  0.19013000  0.17445000  1.0
  H  H37  1  0.93061000  0.30987000  0.82555000  1.0
  H  H38  1  0.56939000  0.80987000  0.82555000  1.0
  H  H39  1  0.06939000  0.69013000  0.17445000  1.0
  C  C40  1  0.28063000  0.03140000  0.37779000  1.0
  C  C41  1  0.78063000  0.46860000  0.62221000  1.0
  C  C42  1  0.71937000  0.96860000  0.62221000  1.0
  C  C43  1  0.21937000  0.53140000  0.37779000  1.0
  C  C44  1  0.46346000  0.97930000  0.33592000  1.0
  C  C45  1  0.96345000  0.52069000  0.66409000  1.0
  C  C46  1  0.53654000  0.02070000  0.66408000  1.0
  C  C47  1  0.03655000  0.47930000  0.33592000  1.0
  C  C48  1  0.57264000  0.89461000  0.34052000  1.0
  C  C49  1  0.07263000  0.60538000  0.65948000  1.0
  C  C50  1  0.42737000  0.10539000  0.65948000  1.0
  C  C51  1  0.92737000  0.39461000  0.34052000  1.0
  C  C52  1  0.54675000  0.82364000  0.39941000  1.0
  C  C53  1  0.04675000  0.67636000  0.60059000  1.0
  C  C54  1  0.45325000  0.17636000  0.60059000  1.0
  C  C55  1  0.95325000  0.32364000  0.39941000  1.0
  C  C56  1  0.73586000  0.97130000  0.25622000  1.0
  C  C57  1  0.23586000  0.52870000  0.74378000  1.0
  C  C58  1  0.26414000  0.02870000  0.74378000  1.0
  C  C59  1  0.76414000  0.47130000  0.25622000  1.0
  C  C60  1  0.88715000  0.00324000  0.20003000  1.0
  C  C61  1  0.38715000  0.49676000  0.79997000  1.0
  C  C62  1  0.11285000  0.99676000  0.79997000  1.0
  C  C63  1  0.61285000  0.50324000  0.20003000  1.0
  C  C64  1  0.89946000  0.93084000  0.08725000  1.0
  C  C65  1  0.39946000  0.56916000  0.91275000  1.0
  C  C66  1  0.10054000  0.06916000  0.91275000  1.0
  C  C67  1  0.60054000  0.43084000  0.08725000  1.0
  C  C68  1  0.06238000  0.87319000  0.04530000  1.0
  C  C69  1  0.56239000  0.62681000  0.95470000  1.0
  C  C70  1  0.93762000  0.12681000  0.95470000  1.0
  C  C71  1  0.43761000  0.37319000  0.04530000  1.0
  C  C72  1  0.06750000  0.80703000  0.94069000  1.0
  C  C73  1  0.56750000  0.69297000  0.05931000  1.0
  C  C74  1  0.93250000  0.19297000  0.05931000  1.0
  C  C75  1  0.43250000  0.30703000  0.94069000  1.0
  C  C76  1  0.90787000  0.79959000  0.88120000  1.0
  C  C77  1  0.40787000  0.70042000  0.11880000  1.0
  C  C78  1  0.09213000  0.20042000  0.11880000  1.0
  C  C79  1  0.59213000  0.29958000  0.88120000  1.0
  C  C80  1  0.74671000  0.91802000  0.02068000  1.0
  C  C81  1  0.24671000  0.58198000  0.97932000  1.0
  C  C82  1  0.25329000  0.08198000  0.97932000  1.0
  C  C83  1  0.75329000  0.41802000  0.02068000  1.0
  N  N84  1  0.74042000  0.89019000  0.28911000  1.0
  N  N85  1  0.24042000  0.60981000  0.71089000  1.0
  N  N86  1  0.25958000  0.10981000  0.71089000  1.0
  N  N87  1  0.75958000  0.39019000  0.28911000  1.0
  N  N88  1  0.57141000  0.02520000  0.28196000  1.0
  N  N89  1  0.07141000  0.47480000  0.71804000  1.0
  N  N90  1  0.42859000  0.97480000  0.71804000  1.0
  N  N91  1  0.92860000  0.52520000  0.28196000  1.0
  N  N92  1  0.74902000  0.85358000  0.92031000  1.0
  N  N93  1  0.24902000  0.64642000  0.07969000  1.0
  N  N94  1  0.25098000  0.14642000  0.07969000  1.0
  N  N95  1  0.75098000  0.35358000  0.92031000  1.0
  O  O96  1  0.25630000  0.12503000  0.37694000  1.0
  O  O97  1  0.75630000  0.37497000  0.62306000  1.0
  O  O98  1  0.74369000  0.87497000  0.62306000  1.0
  O  O99  1  0.24370000  0.62502000  0.37694000  1.0
  O  O100  1  0.15825000  0.98382000  0.41116000  1.0
  O  O101  1  0.65825000  0.51618000  0.58884000  1.0
  O  O102  1  0.84175000  0.01618000  0.58884000  1.0
  O  O103  1  0.34175000  0.48382000  0.41116000  1.0
  O  O104  1  0.40933000  0.83947000  0.46077000  1.0
  O  O105  1  0.90932000  0.66052000  0.53923000  1.0
  O  O106  1  0.59067000  0.16053000  0.53923000  1.0
  O  O107  1  0.09067000  0.33947000  0.46077000  1.0
  O  O108  1  0.67268000  0.75216000  0.38821000  1.0
  O  O109  1  0.17267000  0.74784000  0.61179000  1.0
  O  O110  1  0.32733000  0.24784000  0.61179000  1.0
  O  O111  1  0.82732000  0.25216000  0.38821000  1.0
  O  O112  1  0.51460000  0.20820000  0.23618000  1.0
  O  O113  1  0.01460000  0.29180000  0.76382000  1.0
  O  O114  1  0.48540000  0.79180000  0.76382000  1.0
  O  O115  1  0.98540000  0.70820000  0.23618000  1.0
