# generated using pymatgen
data_Zn2H24C26S3N2O17
_symmetry_space_group_name_H-M   'P 1'
_cell_length_a   9.91127000
_cell_length_b   10.61240000
_cell_length_c   11.21880000
_cell_angle_alpha   85.02170000
_cell_angle_beta   88.80370000
_cell_angle_gamma   88.93460000
_symmetry_Int_Tables_number   1
_chemical_formula_structural   Zn2H24C26S3N2O17
_chemical_formula_sum   'Zn2 H24 C26 S3 N2 O17'
_cell_volume   1175.14533736
_cell_formula_units_Z   1
loop_
 _symmetry_equiv_pos_site_id
 _symmetry_equiv_pos_as_xyz
  1  'x, y, z'
loop_
 _atom_site_type_symbol
 _atom_site_label
 _atom_site_symmetry_multiplicity
 _atom_site_fract_x
 _atom_site_fract_y
 _atom_site_fract_z
 _atom_site_occupancy
  Zn  Zn0  1  0.34316000  0.50173000  0.51184000  1.0
  Zn  Zn1  1  0.64521000  0.49719000  0.49048000  1.0
  H  H2  1  0.28125000  0.12487000  0.41053000  1.0
  H  H3  1  0.65075000  0.88059000  0.61442000  1.0
  H  H4  1  0.65351000  0.12442000  0.33198000  1.0
  H  H5  1  0.68468000  0.90739000  0.38783000  1.0
  H  H6  1  0.71147000  0.52108000  0.83487000  1.0
  H  H7  1  0.75228000  0.55410000  0.04682000  1.0
  H  H8  1  0.27073000  0.36279000  0.17501000  1.0
  H  H9  1  0.22089000  0.52427000  0.13974000  1.0
  H  H10  1  0.85344000  0.66426000  0.37538000  1.0
  H  H11  1  0.30530000  0.09892000  0.56660000  1.0
  H  H12  1  0.13152000  0.21449000  0.55036000  1.0
  H  H13  1  0.15195000  0.29218000  0.68423000  1.0
  H  H14  1  0.88020000  0.21136000  0.58836000  1.0
  H  H15  1  0.90090000  0.30060000  0.71592000  1.0
  H  H16  1  0.28203000  0.88500000  0.53873000  1.0
  H  H17  1  0.30751000  0.90957000  0.38338000  1.0
  H  H18  1  0.49086000  0.10171000  0.27523000  1.0
  H  H19  1  0.54846000  0.88624000  0.29284000  1.0
  H  H20  1  0.67857000  0.09696000  0.55855000  1.0
  H  H21  1  0.53800000  0.11997000  0.65442000  1.0
  H  H22  1  0.48526000  0.90483000  0.67222000  1.0
  H  H23  1  0.41135000  0.16309000  0.00543000  1.0
  H  H24  1  0.02946000  0.58130000  0.07364000  1.0
  H  H25  1  0.38193000  0.59886000  0.26732000  1.0
  C  C26  1  0.48429000  0.46419000  0.72942000  1.0
  C  C27  1  0.49244000  0.88025000  0.48211000  1.0
  C  C28  1  0.57800000  0.93215000  0.37231000  1.0
  C  C29  1  0.55348000  0.92870000  0.59527000  1.0
  C  C30  1  0.40102000  0.45818000  0.94844000  1.0
  C  C31  1  0.50230000  0.47409000  0.86041000  1.0
  C  C32  1  0.62936000  0.50881000  0.90069000  1.0
  C  C33  1  0.65219000  0.52842000  0.01979000  1.0
  C  C34  1  0.54749000  0.51567000  0.10659000  1.0
  C  C35  1  0.42301000  0.47883000  0.06741000  1.0
  C  C36  1  0.28139000  0.44531000  0.10983000  1.0
  C  C37  1  0.49286000  0.27034000  0.45982000  1.0
  C  C38  1  0.25570000  0.41901000  0.97564000  1.0
  C  C39  1  0.93215000  0.41167000  0.54359000  1.0
  C  C40  1  0.91587000  0.59134000  0.42228000  1.0
  C  C41  1  0.05630000  0.59181000  0.40523000  1.0
  C  C42  1  0.07207000  0.41363000  0.52920000  1.0
  C  C43  1  0.09247000  0.28970000  0.60340000  1.0
  C  C44  1  0.93330000  0.28987000  0.62318000  1.0
  C  C45  1  0.57220000  0.53237000  0.23327000  1.0
  C  C46  1  0.49670000  0.73661000  0.49268000  1.0
  C  C47  1  0.34604000  0.07633000  0.47896000  1.0
  C  C48  1  0.34741000  0.93236000  0.46932000  1.0
  C  C49  1  0.55692000  0.07727000  0.35181000  1.0
  C  C50  1  0.57189000  0.07346000  0.57486000  1.0
  C  C51  1  0.49009000  0.12688000  0.46477000  1.0
  S  S52  1  0.22260000  0.25262000  0.95949000  1.0
  S  S53  1  0.12279000  0.52529000  0.90702000  1.0
  S  S54  1  0.11161000  0.70623000  0.28434000  1.0
  N  N55  1  0.85105000  0.50103000  0.49320000  1.0
  N  N56  1  0.13934000  0.50425000  0.46374000  1.0
  O  O57  1  0.36396000  0.46556000  0.69150000  1.0
  O  O58  1  0.59242000  0.45913000  0.66677000  1.0
  O  O59  1  0.38003000  0.33015000  0.46548000  1.0
  O  O60  1  0.60809000  0.32186000  0.45312000  1.0
  O  O61  1  0.46494000  0.55387000  0.30341000  1.0
  O  O62  1  0.68460000  0.52053000  0.27849000  1.0
  O  O63  1  0.38499000  0.67987000  0.51079000  1.0
  O  O64  1  0.61182000  0.68221000  0.48301000  1.0
  O  O65  1  0.09214000  0.22376000  0.01036000  1.0
  O  O66  1  0.26415000  0.22098000  0.84176000  1.0
  O  O67  1  0.33122000  0.18539000  0.05222000  1.0
  O  O68  1  0.18316000  0.64783000  0.89087000  1.0
  O  O69  1  0.06419000  0.46864000  0.80888000  1.0
  O  O70  1  0.01081000  0.52200000  0.00895000  1.0
  O  O71  1  0.03413000  0.66455000  0.18424000  1.0
  O  O72  1  0.07014000  0.82826000  0.32096000  1.0
  O  O73  1  0.25769000  0.68782000  0.26737000  1.0
