# generated using pymatgen
data_ZnH17C28N5O8
_symmetry_space_group_name_H-M   'P 1'
_cell_length_a   9.03518000
_cell_length_b   10.56660000
_cell_length_c   14.62180000
_cell_angle_alpha   76.92220000
_cell_angle_beta   87.38160000
_cell_angle_gamma   68.90180000
_symmetry_Int_Tables_number   1
_chemical_formula_structural   ZnH17C28N5O8
_chemical_formula_sum   'Zn2 H34 C56 N10 O16'
_cell_volume   1267.61953283
_cell_formula_units_Z   2
loop_
 _symmetry_equiv_pos_site_id
 _symmetry_equiv_pos_as_xyz
  1  'x, y, z'
loop_
 _atom_site_type_symbol
 _atom_site_label
 _atom_site_symmetry_multiplicity
 _atom_site_fract_x
 _atom_site_fract_y
 _atom_site_fract_z
 _atom_site_occupancy
  Zn  Zn0  1  0.36268000  0.96652000  0.04136000  1.0
  Zn  Zn1  1  0.63732000  0.03348000  0.95864000  1.0
  H  H2  1  0.02814000  0.65843000  0.12543000  1.0
  H  H3  1  0.97185000  0.34158000  0.87457000  1.0
  H  H4  1  0.07374000  0.38375000  0.39784000  1.0
  H  H5  1  0.92626000  0.61625000  0.60215000  1.0
  H  H6  1  0.61389000  0.68396000  0.28449000  1.0
  H  H7  1  0.38610000  0.31603000  0.71551000  1.0
  H  H8  1  0.68332000  0.26096000  0.18829000  1.0
  H  H9  1  0.31668000  0.73904000  0.81172000  1.0
  H  H10  1  0.61224000  0.39182000  0.31461000  1.0
  H  H11  1  0.38775000  0.60818000  0.68540000  1.0
  H  H12  1  0.32977000  0.49893000  0.35242000  1.0
  H  H13  1  0.67022000  0.50107000  0.64759000  1.0
  H  H14  1  0.01159000  0.09324000  0.05062000  1.0
  H  H15  1  0.98841000  0.90676000  0.94938000  1.0
  H  H16  1  0.80360000  0.06709000  0.16295000  1.0
  H  H17  1  0.19640000  0.93292000  0.83705000  1.0
  H  H18  1  0.17387000  0.73302000  0.34359000  1.0
  H  H19  1  0.82613000  0.26698000  0.65641000  1.0
  H  H20  1  0.36349000  0.76430000  0.21854000  1.0
  H  H21  1  0.63651000  0.23570000  0.78146000  1.0
  H  H22  1  0.39742000  0.07536000  0.26861000  1.0
  H  H23  1  0.60259000  0.92464000  0.73139000  1.0
  H  H24  1  0.10709000  0.14381000  0.29148000  1.0
  H  H25  1  0.89291000  0.85620000  0.70851000  1.0
  H  H26  1  0.17550000  0.87581000  0.55294000  1.0
  H  H27  1  0.82449000  0.12419000  0.44705000  1.0
  H  H28  1  0.47263000  0.80028000  0.54405000  1.0
  H  H29  1  0.52737000  0.19971000  0.45595000  1.0
  H  H30  1  0.98430000  0.74057000  0.45433000  1.0
  H  H31  1  0.01570000  0.25943000  0.54567000  1.0
  H  H32  1  0.07874000  0.37985000  0.99280000  1.0
  H  H33  1  0.92126000  0.62015000  0.00720000  1.0
  H  H34  1  0.58726000  0.65905000  0.42114000  1.0
  H  H35  1  0.41274000  0.34094000  0.57886000  1.0
  C  C36  1  0.70638000  0.79936000  0.12251000  1.0
  C  C37  1  0.29361000  0.20065000  0.87749000  1.0
  C  C38  1  0.81027000  0.68205000  0.19802000  1.0
  C  C39  1  0.18973000  0.31795000  0.80198000  1.0
  C  C40  1  0.97352000  0.61965000  0.18841000  1.0
  C  C41  1  0.02648000  0.38035000  0.81159000  1.0
  C  C42  1  0.06860000  0.50949000  0.25888000  1.0
  C  C43  1  0.93140000  0.49051000  0.74112000  1.0
  C  C44  1  0.99994000  0.46794000  0.34236000  1.0
  C  C45  1  0.00006000  0.53206000  0.65764000  1.0
  C  C46  1  0.83643000  0.53191000  0.35366000  1.0
  C  C47  1  0.16357000  0.46808000  0.64634000  1.0
  C  C48  1  0.76594000  0.48516000  0.44286000  1.0
  C  C49  1  0.23408000  0.51484000  0.55715000  1.0
  C  C50  1  0.74208000  0.63573000  0.28029000  1.0
  C  C51  1  0.25792000  0.36427000  0.71971000  1.0
  C  C52  1  0.23895000  0.43635000  0.24292000  1.0
  C  C53  1  0.76105000  0.56365000  0.75708000  1.0
  C  C54  1  0.28047000  0.35906000  0.17296000  1.0
  C  C55  1  0.71953000  0.64094000  0.82704000  1.0
  C  C56  1  0.15220000  0.34670000  0.11813000  1.0
  C  C57  1  0.84780000  0.65330000  0.88187000  1.0
  C  C58  1  0.44110000  0.29215000  0.15499000  1.0
  C  C59  1  0.55890000  0.70785000  0.84501000  1.0
  C  C60  1  0.48279000  0.18790000  0.09399000  1.0
  C  C61  1  0.51720000  0.81210000  0.90601000  1.0
  C  C62  1  0.55937000  0.30915000  0.20383000  1.0
  C  C63  1  0.44063000  0.69085000  0.79618000  1.0
  C  C64  1  0.51877000  0.38322000  0.27466000  1.0
  C  C65  1  0.48123000  0.61678000  0.72535000  1.0
  C  C66  1  0.36020000  0.44399000  0.29552000  1.0
  C  C67  1  0.63979000  0.55601000  0.70448000  1.0
  C  C68  1  0.04173000  0.01393000  0.11595000  1.0
  C  C69  1  0.95827000  0.98607000  0.88405000  1.0
  C  C70  1  0.92703000  0.00117000  0.17984000  1.0
  C  C71  1  0.07297000  0.99883000  0.82017000  1.0
  C  C72  1  0.97161000  0.90082000  0.26438000  1.0
  C  C73  1  0.02839000  0.09917000  0.73562000  1.0
  C  C74  1  0.13174000  0.81322000  0.27936000  1.0
  C  C75  1  0.86826000  0.18678000  0.72064000  1.0
  C  C76  1  0.23840000  0.83035000  0.21086000  1.0
  C  C77  1  0.76160000  0.16965000  0.78914000  1.0
  C  C78  1  0.85032000  0.88678000  0.33086000  1.0
  C  C79  1  0.14968000  0.11322000  0.66915000  1.0
  C  C80  1  0.63033000  0.89556000  0.39265000  1.0
  C  C81  1  0.36967000  0.10443000  0.60735000  1.0
  C  C82  1  0.45931000  0.93271000  0.40466000  1.0
  C  C83  1  0.54069000  0.06729000  0.59534000  1.0
  C  C84  1  0.35325000  0.03051000  0.33340000  1.0
  C  C85  1  0.64675000  0.96949000  0.66666667  1.0
  C  C86  1  0.19092000  0.06697000  0.34628000  1.0
  C  C87  1  0.80908000  0.93303000  0.65371000  1.0
  C  C88  1  0.23065000  0.91706000  0.49104000  1.0
  C  C89  1  0.76935000  0.08294000  0.50896000  1.0
  C  C90  1  0.39546000  0.87486000  0.48574000  1.0
  C  C91  1  0.60454000  0.12514000  0.51426000  1.0
  N  N92  1  0.19533000  0.92997000  0.13067000  1.0
  N  N93  1  0.80467000  0.07003000  0.86933000  1.0
  N  N94  1  0.69352000  0.94876000  0.31338000  1.0
  N  N95  1  0.30648000  0.05124000  0.68662000  1.0
  N  N96  1  0.87782000  0.80120000  0.41786000  1.0
  N  N97  1  0.12218000  0.19880000  0.58214000  1.0
  N  N98  1  0.74058000  0.80406000  0.45839000  1.0
  N  N99  1  0.25942000  0.19594000  0.54161000  1.0
  N  N100  1  0.12856000  0.01166000  0.42318000  1.0
  N  N101  1  0.87143000  0.98834000  0.57682000  1.0
  O  O102  1  0.55857000  0.82240000  0.12545000  1.0
  O  O103  1  0.44144000  0.17761000  0.87455000  1.0
  O  O104  1  0.77496000  0.86547000  0.06268000  1.0
  O  O105  1  0.22505000  0.13454000  0.93732000  1.0
  O  O106  1  0.04671000  0.30542000  0.15108000  1.0
  O  O107  1  0.95329000  0.69459000  0.84892000  1.0
  O  O108  1  0.16073000  0.39689000  0.02466000  1.0
  O  O109  1  0.83927000  0.60310000  0.97534000  1.0
  O  O110  1  0.38985000  0.12050000  0.09956000  1.0
  O  O111  1  0.61015000  0.87950000  0.90044000  1.0
  O  O112  1  0.60616000  0.17024000  0.04549000  1.0
  O  O113  1  0.39385000  0.82976000  0.95451000  1.0
  O  O114  1  0.83255000  0.37571000  0.50067000  1.0
  O  O115  1  0.16747000  0.62428000  0.49933000  1.0
  O  O116  1  0.61895000  0.56495000  0.46116000  1.0
  O  O117  1  0.38106000  0.43505000  0.53884000  1.0
