# generated using pymatgen
data_CdH10C11(IN2)2
_symmetry_space_group_name_H-M   'P 1'
_cell_length_a   9.08177000
_cell_length_b   13.32560000
_cell_length_c   14.73000000
_cell_angle_alpha   89.99850000
_cell_angle_beta   91.07420000
_cell_angle_gamma   89.99940000
_symmetry_Int_Tables_number   1
_chemical_formula_structural   CdH10C11(IN2)2
_chemical_formula_sum   'Cd4 H40 C44 I8 N16'
_cell_volume   1782.31181773
_cell_formula_units_Z   4
loop_
 _symmetry_equiv_pos_site_id
 _symmetry_equiv_pos_as_xyz
  1  'x, y, z'
loop_
 _atom_site_type_symbol
 _atom_site_label
 _atom_site_symmetry_multiplicity
 _atom_site_fract_x
 _atom_site_fract_y
 _atom_site_fract_z
 _atom_site_occupancy
  Cd  Cd0  1  0.34815000  0.74741000  0.55759000  1.0
  Cd  Cd1  1  0.15185000  0.24741000  0.94241000  1.0
  Cd  Cd2  1  0.65187000  0.25259000  0.44241000  1.0
  Cd  Cd3  1  0.84813000  0.75259000  0.05758000  1.0
  H  H4  1  0.33470000  0.92688000  0.14642000  1.0
  H  H5  1  0.16532000  0.42687000  0.35359000  1.0
  H  H6  1  0.66530000  0.07313000  0.85359000  1.0
  H  H7  1  0.83471000  0.57313000  0.64641000  1.0
  H  H8  1  0.48743000  0.89912000  0.39859000  1.0
  H  H9  1  0.01258000  0.39912000  0.10140000  1.0
  H  H10  1  0.51257000  0.10087000  0.60141000  1.0
  H  H11  1  0.98743000  0.60087000  0.89859000  1.0
  H  H12  1  0.40040000  0.58871000  0.36850000  1.0
  H  H13  1  0.09962000  0.08872000  0.13151000  1.0
  H  H14  1  0.59965000  0.41128000  0.63150000  1.0
  H  H15  1  0.90036000  0.91128000  0.86848000  1.0
  H  H16  1  0.52679000  0.65942000  0.21077000  1.0
  H  H17  1  0.97322000  0.15942000  0.28923000  1.0
  H  H18  1  0.47323000  0.34058000  0.78923000  1.0
  H  H19  1  0.02678000  0.84058000  0.71076000  1.0
  H  H20  1  0.72207000  0.84365000  0.22619000  1.0
  H  H21  1  0.77795000  0.34365000  0.27381000  1.0
  H  H22  1  0.27793000  0.15636000  0.77381000  1.0
  H  H23  1  0.22207000  0.65636000  0.72619000  1.0
  H  H24  1  0.59966000  0.94134000  0.25414000  1.0
  H  H25  1  0.90035000  0.44134000  0.24586000  1.0
  H  H26  1  0.40033000  0.05867000  0.74586000  1.0
  H  H27  1  0.09968000  0.55867000  0.75414000  1.0
  H  H28  1  0.18776000  0.95896000  0.97204000  1.0
  H  H29  1  0.31224000  0.45894000  0.52797000  1.0
  H  H30  1  0.81222000  0.04106000  0.02798000  1.0
  H  H31  1  0.68779000  0.54106000  0.47202000  1.0
  H  H32  1  0.22973000  0.92374000  0.80822000  1.0
  H  H33  1  0.27024000  0.42373000  0.69179000  1.0
  H  H34  1  0.77023000  0.07629000  0.19180000  1.0
  H  H35  1  0.72977000  0.57628000  0.30821000  1.0
  H  H36  1  0.45136000  0.83420000  0.75839000  1.0
  H  H37  1  0.04859000  0.33420000  0.74162000  1.0
  H  H38  1  0.54858000  0.16580000  0.24162000  1.0
  H  H39  1  0.95143000  0.66580000  0.25838000  1.0
  H  H40  1  0.64592000  0.78005000  0.86899000  1.0
  H  H41  1  0.85405000  0.28005000  0.63101000  1.0
  H  H42  1  0.35402000  0.21994000  0.13101000  1.0
  H  H43  1  0.14597000  0.71994000  0.36898000  1.0
  C  C44  1  0.47763000  0.82406000  0.37020000  1.0
  C  C45  1  0.02239000  0.32406000  0.12980000  1.0
  C  C46  1  0.52238000  0.17594000  0.62980000  1.0
  C  C47  1  0.97762000  0.67594000  0.87019000  1.0
  C  C48  1  0.43396000  0.66434000  0.35124000  1.0
  C  C49  1  0.06607000  0.16433000  0.14876000  1.0
  C  C50  1  0.56607000  0.33566000  0.64876000  1.0
  C  C51  1  0.93392000  0.83567000  0.85124000  1.0
  C  C52  1  0.49642000  0.69775000  0.27273000  1.0
  C  C53  1  0.00359000  0.19774000  0.22728000  1.0
  C  C54  1  0.50361000  0.30225000  0.72726000  1.0
  C  C55  1  0.99640000  0.80226000  0.77272000  1.0
  C  C56  1  0.60510000  0.86514000  0.22562000  1.0
  C  C57  1  0.89491000  0.36514000  0.27438000  1.0
  C  C58  1  0.39489000  0.13487000  0.77438000  1.0
  C  C59  1  0.10511000  0.63487000  0.72562000  1.0
  C  C60  1  0.54791000  0.86386000  0.13022000  1.0
  C  C61  1  0.95209000  0.36385000  0.36978000  1.0
  C  C62  1  0.45208000  0.13615000  0.86978000  1.0
  C  C63  1  0.04792000  0.63615000  0.63022000  1.0
  C  C64  1  0.39852000  0.89208000  0.01126000  1.0
  C  C65  1  0.10148000  0.39207000  0.48875000  1.0
  C  C66  1  0.60145000  0.10793000  0.98875000  1.0
  C  C67  1  0.89855000  0.60793000  0.51126000  1.0
  C  C68  1  0.28748000  0.92135000  0.95010000  1.0
  C  C69  1  0.21250000  0.42133000  0.54991000  1.0
  C  C70  1  0.71249000  0.07866000  0.04991000  1.0
  C  C71  1  0.78752000  0.57866000  0.45009000  1.0
  C  C72  1  0.31156000  0.90055000  0.85899000  1.0
  C  C73  1  0.18841000  0.40054000  0.64102000  1.0
  C  C74  1  0.68840000  0.09946000  0.14102000  1.0
  C  C75  1  0.81161000  0.59946000  0.35898000  1.0
  C  C76  1  0.43910000  0.85036000  0.83035000  1.0
  C  C77  1  0.06086000  0.35036000  0.66965000  1.0
  C  C78  1  0.56085000  0.14964000  0.16966000  1.0
  C  C79  1  0.93915000  0.64963000  0.33034000  1.0
  C  C80  1  0.54912000  0.82053000  0.89154000  1.0
  C  C81  1  0.95086000  0.32053000  0.60847000  1.0
  C  C82  1  0.45083000  0.17946000  0.10847000  1.0
  C  C83  1  0.04917000  0.67946000  0.39153000  1.0
  C  C84  1  0.52911000  0.84387000  0.98311000  1.0
  C  C85  1  0.97088000  0.34387000  0.51689000  1.0
  C  C86  1  0.47086000  0.15613000  0.01689000  1.0
  C  C87  1  0.02915000  0.65612000  0.48311000  1.0
  I  I88  1  0.27282000  0.94424000  0.58815000  1.0
  I  I89  1  0.22719000  0.44424000  0.91186000  1.0
  I  I90  1  0.72719000  0.05575000  0.41185000  1.0
  I  I91  1  0.77281000  0.55575000  0.08814000  1.0
  I  I92  1  0.52890000  0.62783000  0.66654000  1.0
  I  I93  1  0.97108000  0.12783000  0.83348000  1.0
  I  I94  1  0.47112000  0.37218000  0.33347000  1.0
  I  I95  1  0.02889000  0.87216000  0.16652000  1.0
  N  N96  1  0.42276000  0.74361000  0.41129000  1.0
  N  N97  1  0.07726000  0.24362000  0.08871000  1.0
  N  N98  1  0.57727000  0.25638000  0.58871000  1.0
  N  N99  1  0.92273000  0.75638000  0.91128000  1.0
  N  N100  1  0.52370000  0.79890000  0.28604000  1.0
  N  N101  1  0.97632000  0.29890000  0.21396000  1.0
  N  N102  1  0.47631000  0.20110000  0.71396000  1.0
  N  N103  1  0.02369000  0.70110000  0.78603000  1.0
  N  N104  1  0.61981000  0.82809000  0.05909000  1.0
  N  N105  1  0.88019000  0.32809000  0.44090000  1.0
  N  N106  1  0.38016000  0.17191000  0.94090000  1.0
  N  N107  1  0.11984000  0.67191000  0.55909000  1.0
  N  N108  1  0.41498000  0.90276000  0.10432000  1.0
  N  N109  1  0.08502000  0.40275000  0.39569000  1.0
  N  N110  1  0.58500000  0.09725000  0.89570000  1.0
  N  N111  1  0.91500000  0.59725000  0.60431000  1.0
