# generated using pymatgen
data_AgH16C21SN6(OF)3
_symmetry_space_group_name_H-M   'P 1'
_cell_length_a   9.07158000
_cell_length_b   12.72150000
_cell_length_c   22.53100000
_cell_angle_alpha   101.51900000
_cell_angle_beta   89.99980000
_cell_angle_gamma   89.99980000
_symmetry_Int_Tables_number   1
_chemical_formula_structural   AgH16C21SN6(OF)3
_chemical_formula_sum   'Ag4 H64 C84 S4 N24 O12 F12'
_cell_volume   2547.79866559
_cell_formula_units_Z   4
loop_
 _symmetry_equiv_pos_site_id
 _symmetry_equiv_pos_as_xyz
  1  'x, y, z'
loop_
 _atom_site_type_symbol
 _atom_site_label
 _atom_site_symmetry_multiplicity
 _atom_site_fract_x
 _atom_site_fract_y
 _atom_site_fract_z
 _atom_site_occupancy
  Ag  Ag0  1  0.50945000  0.86937000  0.42053000  1.0
  Ag  Ag1  1  0.00945000  0.13063000  0.57947000  1.0
  Ag  Ag2  1  0.06440000  0.87666000  0.05411000  1.0
  Ag  Ag3  1  0.56441000  0.12334000  0.94589000  1.0
  H  H4  1  0.98961000  0.17644000  0.31931000  1.0
  H  H5  1  0.48962000  0.82357000  0.68069000  1.0
  H  H6  1  0.17793000  0.19763000  0.40088000  1.0
  H  H7  1  0.67793000  0.80237000  0.59913000  1.0
  H  H8  1  0.27520000  0.06377000  0.24440000  1.0
  H  H9  1  0.77520000  0.93623000  0.75560000  1.0
  H  H10  1  0.19843000  0.96378000  0.18680000  1.0
  H  H11  1  0.69844000  0.03622000  0.81320000  1.0
  H  H12  1  0.89365000  0.85755000  0.34702000  1.0
  H  H13  1  0.39366000  0.14246000  0.65299000  1.0
  H  H14  1  0.49150000  0.15469000  0.22247000  1.0
  H  H15  1  0.99150000  0.84531000  0.77753000  1.0
  H  H16  1  0.00914000  0.89096000  0.64123000  1.0
  H  H17  1  0.50913000  0.10904000  0.35878000  1.0
  H  H18  1  0.69384000  0.17680000  0.15137000  1.0
  H  H19  1  0.19385000  0.82320000  0.84863000  1.0
  H  H20  1  0.41083000  0.67594000  0.51407000  1.0
  H  H21  1  0.91082000  0.32406000  0.48593000  1.0
  H  H22  1  0.96031000  0.66990000  0.91604000  1.0
  H  H23  1  0.46030000  0.33010000  0.08395000  1.0
  H  H24  1  0.39231000  0.84377000  0.11334000  1.0
  H  H25  1  0.89231000  0.15622000  0.88666000  1.0
  H  H26  1  0.54953000  0.87637000  0.83697000  1.0
  H  H27  1  0.04953000  0.12363000  0.16303000  1.0
  H  H28  1  0.08516000  0.87622000  0.42502000  1.0
  H  H29  1  0.58517000  0.12378000  0.57498000  1.0
  H  H30  1  0.37209000  0.05136000  0.44954000  1.0
  H  H31  1  0.87209000  0.94863000  0.55046000  1.0
  H  H32  1  0.24518000  0.13341000  0.49819000  1.0
  H  H33  1  0.74518000  0.86659000  0.50181000  1.0
  H  H34  1  0.35588000  0.63459000  0.34075000  1.0
  H  H35  1  0.85588000  0.36540000  0.65925000  1.0
  H  H36  1  0.59424000  0.86337000  0.04516000  1.0
  H  H37  1  0.09424000  0.13663000  0.95484000  1.0
  H  H38  1  0.77916000  0.11749000  0.04066000  1.0
  H  H39  1  0.27917000  0.88251000  0.95934000  1.0
  H  H40  1  0.89036000  0.02899000  0.07245000  1.0
  H  H41  1  0.39037000  0.97101000  0.92754000  1.0
  H  H42  1  0.70431000  0.97975000  0.29881000  1.0
  H  H43  1  0.20431000  0.02025000  0.70119000  1.0
  H  H44  1  0.78653000  0.08269000  0.26761000  1.0
  H  H45  1  0.28653000  0.91732000  0.73240000  1.0
  H  H46  1  0.07874000  0.70562000  0.65440000  1.0
  H  H47  1  0.57873000  0.29438000  0.34560000  1.0
  H  H48  1  0.63881000  0.78801000  0.27703000  1.0
  H  H49  1  0.13879000  0.21199000  0.72297000  1.0
  H  H50  1  0.86074000  0.66313000  0.06865000  1.0
  H  H51  1  0.36074000  0.33688000  0.93135000  1.0
  H  H52  1  0.22297000  0.50990000  0.25822000  1.0
  H  H53  1  0.72298000  0.49010000  0.74179000  1.0
  H  H54  1  0.17954000  0.75611000  0.15189000  1.0
  H  H55  1  0.67955000  0.24389000  0.84811000  1.0
  H  H56  1  0.27043000  0.60158000  0.59281000  1.0
  H  H57  1  0.77042000  0.39842000  0.40719000  1.0
  H  H58  1  0.57107000  0.61225000  0.21300000  1.0
  H  H59  1  0.07106000  0.38775000  0.78700000  1.0
  H  H60  1  0.67730000  0.55102000  0.11056000  1.0
  H  H61  1  0.17729000  0.44899000  0.88945000  1.0
  H  H62  1  0.63751000  0.69980000  0.77855000  1.0
  H  H63  1  0.13750000  0.30020000  0.22145000  1.0
  H  H64  1  0.14203000  0.56879000  0.16509000  1.0
  H  H65  1  0.64204000  0.43121000  0.83491000  1.0
  H  H66  1  0.83965000  0.60063000  0.81666000  1.0
  H  H67  1  0.33964000  0.39936000  0.18333000  1.0
  C  C68  1  0.01248000  0.10997000  0.34200000  1.0
  C  C69  1  0.51248000  0.89003000  0.65800000  1.0
  C  C70  1  0.82190000  0.81348000  0.93198000  1.0
  C  C71  1  0.32190000  0.18652000  0.06802000  1.0
  C  C72  1  0.28220000  0.82380000  0.53266000  1.0
  C  C73  1  0.78219000  0.17620000  0.46735000  1.0
  C  C74  1  0.11878000  0.12187000  0.38762000  1.0
  C  C75  1  0.61879000  0.87813000  0.61239000  1.0
  C  C76  1  0.17003000  0.88446000  0.56853000  1.0
  C  C77  1  0.67003000  0.11554000  0.43147000  1.0
  C  C78  1  0.29859000  0.98751000  0.21342000  1.0
  C  C79  1  0.79860000  0.01248000  0.78658000  1.0
  C  C80  1  0.95811000  0.93140000  0.35713000  1.0
  C  C81  1  0.45812000  0.06860000  0.64287000  1.0
  C  C82  1  0.42836000  0.99779000  0.17320000  1.0
  C  C83  1  0.92836000  0.00221000  0.82680000  1.0
  C  C84  1  0.51581000  0.09026000  0.18388000  1.0
  C  C85  1  0.01582000  0.90973000  0.81612000  1.0
  C  C86  1  0.09433000  0.84391000  0.61375000  1.0
  C  C87  1  0.59432000  0.15609000  0.38625000  1.0
  C  C88  1  0.62982000  0.10274000  0.14434000  1.0
  C  C89  1  0.12983000  0.89726000  0.85566000  1.0
  C  C90  1  0.32300000  0.72083000  0.54088000  1.0
  C  C91  1  0.82299000  0.27917000  0.45912000  1.0
  C  C92  1  0.78215000  0.82635000  0.20635000  1.0
  C  C93  1  0.28214000  0.17365000  0.79366000  1.0
  C  C94  1  0.14539000  0.03818000  0.41818000  1.0
  C  C95  1  0.64539000  0.96182000  0.58182000  1.0
  C  C96  1  0.87249000  0.71432000  0.89895000  1.0
  C  C97  1  0.37248000  0.28568000  0.10105000  1.0
  C  C98  1  0.45915000  0.91633000  0.12321000  1.0
  C  C99  1  0.95915000  0.08367000  0.87679000  1.0
  C  C100  1  0.33504000  0.76700000  0.29323000  1.0
  C  C101  1  0.83504000  0.23300000  0.70677000  1.0
  C  C102  1  0.63761000  0.83196000  0.85389000  1.0
  C  C103  1  0.13760000  0.16804000  0.14611000  1.0
  C  C104  1  0.92978000  0.01552000  0.32707000  1.0
  C  C105  1  0.42978000  0.98448000  0.67293000  1.0
  C  C106  1  0.06584000  0.94256000  0.40203000  1.0
  C  C107  1  0.56584000  0.05744000  0.59797000  1.0
  C  C108  1  0.65881000  0.02146000  0.09381000  1.0
  C  C109  1  0.15881000  0.97853000  0.90619000  1.0
  C  C110  1  0.25980000  0.05475000  0.46810000  1.0
  C  C111  1  0.75980000  0.94525000  0.53190000  1.0
  C  C112  1  0.31550000  0.66094000  0.30056000  1.0
  C  C113  1  0.81550000  0.33906000  0.69944000  1.0
  C  C114  1  0.28404000  0.80142000  0.24093000  1.0
  C  C115  1  0.78404000  0.19858000  0.75907000  1.0
  C  C116  1  0.57389000  0.92788000  0.08398000  1.0
  C  C117  1  0.07389000  0.07212000  0.91602000  1.0
  C  C118  1  0.84710000  0.79039000  0.14889000  1.0
  C  C119  1  0.34710000  0.20961000  0.85111000  1.0
  C  C120  1  0.91880000  0.64272000  0.43089000  1.0
  C  C121  1  0.41880000  0.35729000  0.56911000  1.0
  C  C122  1  0.78261000  0.03742000  0.05163000  1.0
  C  C123  1  0.28261000  0.96258000  0.94836000  1.0
  C  C124  1  0.80772000  0.00560000  0.28079000  1.0
  C  C125  1  0.30772000  0.99440000  0.71921000  1.0
  C  C126  1  0.13467000  0.74224000  0.62076000  1.0
  C  C127  1  0.63466000  0.25776000  0.37925000  1.0
  C  C128  1  0.68315000  0.76304000  0.23156000  1.0
  C  C129  1  0.18314000  0.23696000  0.76845000  1.0
  C  C130  1  0.81126000  0.69030000  0.11313000  1.0
  C  C131  1  0.31126000  0.30971000  0.88688000  1.0
  C  C132  1  0.24349000  0.59245000  0.25398000  1.0
  C  C133  1  0.74350000  0.40755000  0.74602000  1.0
  C  C134  1  0.21497000  0.73113000  0.19312000  1.0
  C  C135  1  0.71497000  0.26887000  0.80688000  1.0
  C  C136  1  0.24679000  0.68164000  0.58500000  1.0
  C  C137  1  0.74678000  0.31835000  0.41500000  1.0
  C  C138  1  0.70700000  0.87175000  0.90975000  1.0
  C  C139  1  0.20700000  0.12825000  0.09025000  1.0
  C  C140  1  0.64818000  0.66441000  0.19554000  1.0
  C  C141  1  0.14817000  0.33559000  0.80446000  1.0
  C  C142  1  0.70989000  0.62874000  0.13714000  1.0
  C  C143  1  0.20989000  0.37126000  0.86285000  1.0
  C  C144  1  0.68835000  0.73439000  0.82195000  1.0
  C  C145  1  0.18834000  0.26560000  0.17805000  1.0
  C  C146  1  0.19532000  0.62654000  0.20096000  1.0
  C  C147  1  0.69533000  0.37345000  0.79904000  1.0
  C  C148  1  0.80401000  0.67694000  0.84398000  1.0
  C  C149  1  0.30400000  0.32306000  0.15602000  1.0
  C  C150  1  0.44086000  0.60489000  0.98701000  1.0
  C  C151  1  0.94086000  0.39511000  0.01299000  1.0
  S  S152  1  0.71721000  0.65835000  0.41702000  1.0
  S  S153  1  0.21721000  0.34165000  0.58298000  1.0
  S  S154  1  0.26921000  0.67400000  0.96991000  1.0
  S  S155  1  0.76921000  0.32600000  0.03009000  1.0
  N  N156  1  0.33212000  0.88338000  0.49292000  1.0
  N  N157  1  0.83212000  0.11662000  0.50708000  1.0
  N  N158  1  0.25298000  0.97342000  0.50521000  1.0
  N  N159  1  0.75298000  0.02658000  0.49479000  1.0
  N  N160  1  0.78097000  0.95862000  0.99515000  1.0
  N  N161  1  0.28097000  0.04137000  0.00485000  1.0
  N  N162  1  0.15487000  0.97897000  0.54957000  1.0
  N  N163  1  0.65486000  0.02103000  0.45043000  1.0
  N  N164  1  0.83905000  0.92719000  0.22550000  1.0
  N  N165  1  0.33905000  0.07281000  0.77450000  1.0
  N  N166  1  0.40047000  0.85367000  0.33003000  1.0
  N  N167  1  0.90047000  0.14633000  0.66997000  1.0
  N  N168  1  0.93979000  0.87024000  0.13843000  1.0
  N  N169  1  0.43979000  0.12976000  0.86157000  1.0
  N  N170  1  0.68457000  0.96397000  0.95134000  1.0
  N  N171  1  0.18457000  0.03602000  0.04866000  1.0
  N  N172  1  0.32130000  0.90793000  0.25110000  1.0
  N  N173  1  0.82130000  0.09206000  0.74890000  1.0
  N  N174  1  0.86550000  0.87146000  0.98656000  1.0
  N  N175  1  0.36550000  0.12854000  0.01343000  1.0
  N  N176  1  0.39166000  0.93740000  0.30444000  1.0
  N  N177  1  0.89166000  0.06260000  0.69555000  1.0
  N  N178  1  0.93332000  0.95214000  0.18433000  1.0
  N  N179  1  0.43332000  0.04786000  0.81567000  1.0
  O  O180  1  0.71664000  0.75089000  0.38635000  1.0
  O  O181  1  0.21664000  0.24911000  0.61365000  1.0
  O  O182  1  0.67336000  0.55712000  0.37930000  1.0
  O  O183  1  0.17335000  0.44287000  0.62070000  1.0
  O  O184  1  0.65544000  0.68405000  0.47809000  1.0
  O  O185  1  0.15544000  0.31595000  0.52191000  1.0
  O  O186  1  0.26321000  0.76325000  0.02348000  1.0
  O  O187  1  0.76322000  0.23676000  0.97652000  1.0
  O  O188  1  0.15264000  0.59518000  0.96811000  1.0
  O  O189  1  0.65264000  0.40482000  0.03189000  1.0
  O  O190  1  0.30057000  0.70825000  0.91334000  1.0
  O  O191  1  0.80058000  0.29175000  0.08666000  1.0
  F  F192  1  0.99773000  0.63118000  0.37871000  1.0
  F  F193  1  0.49772000  0.36883000  0.62129000  1.0
  F  F194  1  0.94553000  0.55639000  0.45607000  1.0
  F  F195  1  0.44552000  0.44362000  0.54393000  1.0
  F  F196  1  0.97166000  0.73136000  0.46961000  1.0
  F  F197  1  0.47167000  0.26865000  0.53039000  1.0
  F  F198  1  0.47402000  0.52209000  0.94099000  1.0
  F  F199  1  0.97402000  0.47791000  0.05900000  1.0
  F  F200  1  0.55756000  0.67369000  0.99451000  1.0
  F  F201  1  0.05756000  0.32632000  0.00549000  1.0
  F  F202  1  0.42330000  0.56675000  0.03844000  1.0
  F  F203  1  0.92329000  0.43325000  0.96156000  1.0
