# generated using pymatgen
data_CdH22C37Br4(NO2)2
_symmetry_space_group_name_H-M   'P 1'
_cell_length_a   8.97449000
_cell_length_b   16.04810000
_cell_length_c   17.29970000
_cell_angle_alpha   115.87200000
_cell_angle_beta   90.64420000
_cell_angle_gamma   92.10700000
_symmetry_Int_Tables_number   1
_chemical_formula_structural   CdH22C37Br4(NO2)2
_chemical_formula_sum   'Cd2 H44 C74 Br8 N4 O8'
_cell_volume   2239.28948977
_cell_formula_units_Z   2
loop_
 _symmetry_equiv_pos_site_id
 _symmetry_equiv_pos_as_xyz
  1  'x, y, z'
loop_
 _atom_site_type_symbol
 _atom_site_label
 _atom_site_symmetry_multiplicity
 _atom_site_fract_x
 _atom_site_fract_y
 _atom_site_fract_z
 _atom_site_occupancy
  Cd  Cd0  1  0.53960000  0.73558000  0.98051000  1.0
  Cd  Cd1  1  0.46040000  0.26443000  0.01949000  1.0
  H  H2  1  0.63412000  0.53449000  0.95303000  1.0
  H  H3  1  0.36588000  0.46552000  0.04697000  1.0
  H  H4  1  0.78385000  0.40320000  0.85708000  1.0
  H  H5  1  0.21616000  0.59681000  0.14293000  1.0
  H  H6  1  0.93287000  0.42096000  0.74108000  1.0
  H  H7  1  0.06713000  0.57903000  0.25893000  1.0
  H  H8  1  0.76771000  0.69565000  0.83052000  1.0
  H  H9  1  0.23230000  0.30436000  0.16948000  1.0
  H  H10  1  0.90131000  0.60484000  0.55772000  1.0
  H  H11  1  0.09869000  0.39516000  0.44228000  1.0
  H  H12  1  0.04544000  0.65453000  0.46272000  1.0
  H  H13  1  0.95456000  0.34546000  0.53728000  1.0
  H  H14  1  0.34880000  0.81972000  0.67396000  1.0
  H  H15  1  0.65121000  0.18028000  0.32604000  1.0
  H  H16  1  0.20854000  0.76515000  0.76793000  1.0
  H  H17  1  0.79147000  0.23485000  0.23206000  1.0
  H  H18  1  0.27883000  0.56532000  0.41095000  1.0
  H  H19  1  0.72117000  0.43468000  0.58906000  1.0
  H  H20  1  0.75648000  0.53813000  0.39199000  1.0
  H  H21  1  0.24352000  0.46187000  0.60801000  1.0
  H  H22  1  0.79734000  0.70973000  0.46716000  1.0
  H  H23  1  0.20266000  0.29027000  0.53284000  1.0
  H  H24  1  0.77963000  0.89227000  0.55330000  1.0
  H  H25  1  0.22037000  0.10772000  0.44669000  1.0
  H  H26  1  0.70480000  0.05417000  0.63085000  1.0
  H  H27  1  0.29521000  0.94583000  0.36914000  1.0
  H  H28  1  0.23955000  0.96194000  0.59863000  1.0
  H  H29  1  0.76045000  0.03806000  0.40136000  1.0
  H  H30  1  0.35500000  0.71230000  0.32938000  1.0
  H  H31  1  0.64499000  0.28769000  0.67062000  1.0
  H  H32  1  0.21667000  0.75173000  0.22521000  1.0
  H  H33  1  0.78331000  0.24827000  0.77479000  1.0
  H  H34  1  0.89139000  0.88714000  0.41575000  1.0
  H  H35  1  0.10860000  0.11286000  0.58426000  1.0
  H  H36  1  0.03362000  0.85204000  0.52115000  1.0
  H  H37  1  0.96638000  0.14796000  0.47885000  1.0
  H  H38  1  0.77406000  0.78859000  0.13885000  1.0
  H  H39  1  0.22594000  0.21141000  0.86115000  1.0
  H  H40  1  0.63540000  0.93927000  0.01059000  1.0
  H  H41  1  0.36461000  0.06074000  0.98941000  1.0
  H  H42  1  0.77790000  0.08263000  0.11382000  1.0
  H  H43  1  0.22210000  0.91737000  0.88618000  1.0
  H  H44  1  0.92741000  0.07510000  0.23580000  1.0
  H  H45  1  0.07258000  0.92490000  0.76420000  1.0
  C  C46  1  0.70125000  0.53976000  0.90292000  1.0
  C  C47  1  0.29876000  0.46025000  0.09708000  1.0
  C  C48  1  0.78538000  0.46678000  0.84902000  1.0
  C  C49  1  0.21463000  0.53322000  0.15098000  1.0
  C  C50  1  0.86717000  0.47673000  0.78556000  1.0
  C  C51  1  0.13284000  0.52328000  0.21444000  1.0
  C  C52  1  0.86399000  0.56044000  0.77890000  1.0
  C  C53  1  0.13602000  0.43956000  0.22110000  1.0
  C  C54  1  0.77634000  0.63040000  0.83512000  1.0
  C  C55  1  0.22366000  0.36960000  0.16488000  1.0
  C  C56  1  0.95162000  0.57150000  0.71147000  1.0
  C  C57  1  0.04838000  0.42850000  0.28853000  1.0
  C  C58  1  0.04582000  0.68495000  0.66844000  1.0
  C  C59  1  0.95419000  0.31505000  0.33156000  1.0
  C  C60  1  0.99867000  0.65229000  0.58292000  1.0
  C  C61  1  0.00134000  0.34771000  0.41708000  1.0
  C  C62  1  0.07973000  0.68142000  0.53022000  1.0
  C  C63  1  0.92027000  0.31858000  0.46979000  1.0
  C  C64  1  0.20488000  0.74291000  0.56217000  1.0
  C  C65  1  0.79513000  0.25709000  0.43783000  1.0
  C  C66  1  0.24991000  0.77358000  0.64827000  1.0
  C  C67  1  0.75010000  0.22642000  0.35173000  1.0
  C  C68  1  0.17099000  0.74429000  0.70167000  1.0
  C  C69  1  0.82902000  0.25571000  0.29833000  1.0
  C  C70  1  0.29858000  0.76677000  0.50075000  1.0
  C  C71  1  0.70142000  0.23322000  0.49924000  1.0
  C  C72  1  0.41532000  0.69310000  0.46382000  1.0
  C  C73  1  0.58468000  0.30690000  0.53617000  1.0
  C  C74  1  0.39102000  0.59742000  0.42231000  1.0
  C  C75  1  0.60897000  0.40258000  0.57769000  1.0
  C  C76  1  0.51602000  0.54322000  0.39762000  1.0
  C  C77  1  0.48398000  0.45678000  0.60237000  1.0
  C  C78  1  0.66158000  0.58243000  0.41253000  1.0
  C  C79  1  0.33842000  0.41756000  0.58747000  1.0
  C  C80  1  0.68410000  0.67881000  0.45468000  1.0
  C  C81  1  0.31590000  0.32119000  0.54532000  1.0
  C  C82  1  0.56089000  0.73429000  0.48154000  1.0
  C  C83  1  0.43911000  0.26571000  0.51846000  1.0
  C  C84  1  0.55113000  0.83467000  0.53025000  1.0
  C  C85  1  0.44887000  0.16533000  0.46974000  1.0
  C  C86  1  0.66154000  0.90622000  0.56195000  1.0
  C  C87  1  0.33846000  0.09377000  0.43805000  1.0
  C  C88  1  0.62005000  0.99781000  0.60640000  1.0
  C  C89  1  0.37996000  0.00219000  0.39359000  1.0
  C  C90  1  0.46888000  0.01616000  0.61895000  1.0
  C  C91  1  0.53112000  0.98384000  0.38105000  1.0
  C  C92  1  0.35659000  0.94581000  0.58838000  1.0
  C  C93  1  0.64342000  0.05419000  0.41162000  1.0
  C  C94  1  0.39959000  0.85512000  0.54418000  1.0
  C  C95  1  0.60040000  0.14488000  0.45581000  1.0
  C  C96  1  0.20368000  0.77860000  0.43237000  1.0
  C  C97  1  0.79631000  0.22140000  0.56763000  1.0
  C  C98  1  0.25282000  0.74972000  0.34858000  1.0
  C  C99  1  0.74717000  0.25028000  0.65142000  1.0
  C  C100  1  0.17522000  0.77085000  0.28952000  1.0
  C  C101  1  0.82477000  0.22914000  0.71048000  1.0
  C  C102  1  0.04625000  0.81994000  0.31468000  1.0
  C  C103  1  0.95375000  0.18006000  0.68532000  1.0
  C  C104  1  0.99291000  0.84886000  0.39739000  1.0
  C  C105  1  0.00708000  0.15114000  0.60262000  1.0
  C  C106  1  0.07287000  0.82825000  0.45584000  1.0
  C  C107  1  0.92712000  0.17175000  0.54416000  1.0
  C  C108  1  0.95125000  0.92621000  0.26644000  1.0
  C  C109  1  0.04874000  0.07378000  0.73356000  1.0
  C  C110  1  0.86505000  0.93065000  0.19465000  1.0
  C  C111  1  0.13495000  0.06934000  0.80535000  1.0
  C  C112  1  0.78058000  0.85438000  0.13457000  1.0
  C  C113  1  0.21942000  0.14562000  0.86543000  1.0
  C  C114  1  0.70264000  0.93971000  0.06382000  1.0
  C  C115  1  0.29737000  0.06030000  0.93618000  1.0
  C  C116  1  0.78321000  0.01881000  0.12128000  1.0
  C  C117  1  0.21679000  0.98119000  0.87873000  1.0
  C  C118  1  0.86494000  0.01457000  0.18817000  1.0
  C  C119  1  0.13506000  0.98543000  0.81183000  1.0
  Br  Br120  1  0.44224000  0.67163000  0.08216000  1.0
  Br  Br121  1  0.55772000  0.32840000  0.91785000  1.0
  Br  Br122  1  0.45276000  0.80328000  0.88002000  1.0
  Br  Br123  1  0.54724000  0.19672000  0.11998000  1.0
  Br  Br124  1  0.48805000  0.41145000  0.34256000  1.0
  Br  Br125  1  0.51196000  0.58855000  0.65746000  1.0
  Br  Br126  1  0.41296000  0.14135000  0.68043000  1.0
  Br  Br127  1  0.58705000  0.85865000  0.31957000  1.0
  N  N128  1  0.69669000  0.61996000  0.89574000  1.0
  N  N129  1  0.30332000  0.38005000  0.10426000  1.0
  N  N130  1  0.70102000  0.85918000  0.07066000  1.0
  N  N131  1  0.29898000  0.14082000  0.92934000  1.0
  O  O132  1  0.00656000  0.50760000  0.65148000  1.0
  O  O133  1  0.99344000  0.49240000  0.34852000  1.0
  O  O134  1  0.96429000  0.66209000  0.72619000  1.0
  O  O135  1  0.03572000  0.33791000  0.27381000  1.0
  O  O136  1  0.96873000  0.83645000  0.25196000  1.0
  O  O137  1  0.03126000  0.16355000  0.74804000  1.0
  O  O138  1  0.00121000  0.99386000  0.32957000  1.0
  O  O139  1  0.99878000  0.00614000  0.67043000  1.0
