# generated using pymatgen
data_CoH24C24(N2O)4
_symmetry_space_group_name_H-M   'P 1'
_cell_length_a   8.50265000
_cell_length_b   8.53280000
_cell_length_c   9.78806000
_cell_angle_alpha   89.76670000
_cell_angle_beta   85.20450000
_cell_angle_gamma   113.33510000
_symmetry_Int_Tables_number   1
_chemical_formula_structural   CoH24C24(N2O)4
_chemical_formula_sum   'Co1 H24 C24 N8 O4'
_cell_volume   649.23169652
_cell_formula_units_Z   1
loop_
 _symmetry_equiv_pos_site_id
 _symmetry_equiv_pos_as_xyz
  1  'x, y, z'
loop_
 _atom_site_type_symbol
 _atom_site_label
 _atom_site_symmetry_multiplicity
 _atom_site_fract_x
 _atom_site_fract_y
 _atom_site_fract_z
 _atom_site_occupancy
  Co  Co0  1  0.00000000  0.00000000  0.00000000  1.0
  H  H1  1  0.17018000  0.78945000  0.79710000  1.0
  H  H2  1  0.82982000  0.21055000  0.20291000  1.0
  H  H3  1  0.23350000  0.97836000  0.17858000  1.0
  H  H4  1  0.76651000  0.02164000  0.82142000  1.0
  H  H5  1  0.44817000  0.82432000  0.15554000  1.0
  H  H6  1  0.55184000  0.17569000  0.84446000  1.0
  H  H7  1  0.17041000  0.39353000  0.05878000  1.0
  H  H8  1  0.82959000  0.60647000  0.94122000  1.0
  H  H9  1  0.20680000  0.10788000  0.72773000  1.0
  H  H10  1  0.79319000  0.89212000  0.27227000  1.0
  H  H11  1  0.43344000  0.41386000  0.65555000  1.0
  H  H12  1  0.56656000  0.58614000  0.34445000  1.0
  H  H13  1  0.56052000  0.69529000  0.92308000  1.0
  H  H14  1  0.43948000  0.30471000  0.07692000  1.0
  H  H15  1  0.48751000  0.73126000  0.76879000  1.0
  H  H16  1  0.51249000  0.26874000  0.23121000  1.0
  H  H17  1  0.71954000  0.67103000  0.64703000  1.0
  H  H18  1  0.28046000  0.32897000  0.35296000  1.0
  H  H19  1  0.82714000  0.80716000  0.49983000  1.0
  H  H20  1  0.17286000  0.19284000  0.50017000  1.0
  H  H21  1  0.83259000  0.45510000  0.72741000  1.0
  H  H22  1  0.16740000  0.54489000  0.27259000  1.0
  H  H23  1  0.03020000  0.74258000  0.34392000  1.0
  H  H24  1  0.96980000  0.25741000  0.65607000  1.0
  C  C25  1  0.21966000  0.81086000  0.89691000  1.0
  C  C26  1  0.78034000  0.18914000  0.10309000  1.0
  C  C27  1  0.34462000  0.76241000  0.94833000  1.0
  C  C28  1  0.65539000  0.23759000  0.05167000  1.0
  C  C29  1  0.36259000  0.82562000  0.07966000  1.0
  C  C30  1  0.63742000  0.17439000  0.92034000  1.0
  C  C31  1  0.22068000  0.36948000  0.95931000  1.0
  C  C32  1  0.77932000  0.63052000  0.04070000  1.0
  C  C33  1  0.34389000  0.48394000  0.86151000  1.0
  C  C34  1  0.65610000  0.51606000  0.13849000  1.0
  C  C35  1  0.35747000  0.38167000  0.75423000  1.0
  C  C36  1  0.64253000  0.61833000  0.24578000  1.0
  C  C37  1  0.44296000  0.67248000  0.87277000  1.0
  C  C38  1  0.55704000  0.32752000  0.12723000  1.0
  C  C39  1  0.96170000  0.87347000  0.67753000  1.0
  C  C40  1  0.03829000  0.12652000  0.32248000  1.0
  C  C41  1  0.84467000  0.73716000  0.58784000  1.0
  C  C42  1  0.15533000  0.26284000  0.41216000  1.0
  C  C43  1  0.92166000  0.61315000  0.54059000  1.0
  C  C44  1  0.07835000  0.38685000  0.45941000  1.0
  C  C45  1  0.90612000  0.47535000  0.62714000  1.0
  C  C46  1  0.09388000  0.52465000  0.37286000  1.0
  C  C47  1  0.01674000  0.63621000  0.41269000  1.0
  C  C48  1  0.98325000  0.36377000  0.58730000  1.0
  N  N49  1  0.16717000  0.89932000  0.99008000  1.0
  N  N50  1  0.83284000  0.10068000  0.00993000  1.0
  N  N51  1  0.25388000  0.90548000  0.10085000  1.0
  N  N52  1  0.74613000  0.09453000  0.89915000  1.0
  N  N53  1  0.16511000  0.20946000  0.91417000  1.0
  N  N54  1  0.83489000  0.79054000  0.08583000  1.0
  N  N55  1  0.25030000  0.21803000  0.78973000  1.0
  N  N56  1  0.74970000  0.78197000  0.21028000  1.0
  O  O57  1  0.89212000  0.89789000  0.79206000  1.0
  O  O58  1  0.10787000  0.10209000  0.20794000  1.0
  O  O59  1  0.11891000  0.95179000  0.63435000  1.0
  O  O60  1  0.88108000  0.04821000  0.36565000  1.0
