# generated using pymatgen
data_GdH13(CO)7
_symmetry_space_group_name_H-M   'P 1'
_cell_length_a   7.58990000
_cell_length_b   11.80290000
_cell_length_c   12.00440000
_cell_angle_alpha   90.00000000
_cell_angle_beta   90.00030000
_cell_angle_gamma   89.90360000
_symmetry_Int_Tables_number   1
_chemical_formula_structural   GdH13(CO)7
_chemical_formula_sum   'Gd4 H52 C28 O28'
_cell_volume   1075.38661086
_cell_formula_units_Z   4
loop_
 _symmetry_equiv_pos_site_id
 _symmetry_equiv_pos_as_xyz
  1  'x, y, z'
loop_
 _atom_site_type_symbol
 _atom_site_label
 _atom_site_symmetry_multiplicity
 _atom_site_fract_x
 _atom_site_fract_y
 _atom_site_fract_z
 _atom_site_occupancy
  Gd  Gd0  1  0.81281000  0.24318000  0.30500000  1.0
  Gd  Gd1  1  0.68719000  0.75682000  0.80500000  1.0
  Gd  Gd2  1  0.18719000  0.75682000  0.69501000  1.0
  Gd  Gd3  1  0.31281000  0.24318000  0.19500000  1.0
  H  H4  1  0.12822000  0.25660000  0.44822000  1.0
  H  H5  1  0.37177000  0.74340000  0.94822000  1.0
  H  H6  1  0.87177000  0.74340000  0.55178000  1.0
  H  H7  1  0.62823000  0.25660000  0.05178000  1.0
  H  H8  1  0.39791000  0.55989000  0.27011000  1.0
  H  H9  1  0.10209000  0.44011000  0.77011000  1.0
  H  H10  1  0.60209000  0.44011000  0.72990000  1.0
  H  H11  1  0.89791000  0.55989000  0.22989000  1.0
  H  H12  1  0.50515000  0.59362000  0.40021000  1.0
  H  H13  1  0.99485000  0.40638000  0.90021000  1.0
  H  H14  1  0.49486000  0.40638000  0.59979000  1.0
  H  H15  1  0.00515000  0.59362000  0.09979000  1.0
  H  H16  1  0.34426000  0.48447000  0.39284000  1.0
  H  H17  1  0.15574000  0.51553000  0.89284000  1.0
  H  H18  1  0.65575000  0.51553000  0.60716000  1.0
  H  H19  1  0.84426000  0.48447000  0.10716000  1.0
  H  H20  1  0.50137000  0.16560000  0.64150000  1.0
  H  H21  1  0.99862000  0.83440000  0.14150000  1.0
  H  H22  1  0.49862000  0.83440000  0.35850000  1.0
  H  H23  1  0.00137000  0.16560000  0.85850000  1.0
  H  H24  1  0.31396000  0.09801000  0.57938000  1.0
  H  H25  1  0.18604000  0.90199000  0.07938000  1.0
  H  H26  1  0.68603000  0.90199000  0.42062000  1.0
  H  H27  1  0.81396000  0.09801000  0.92062000  1.0
  H  H28  1  0.29840000  0.24065000  0.62193000  1.0
  H  H29  1  0.20160000  0.75935000  0.12193000  1.0
  H  H30  1  0.70160000  0.75935000  0.37807000  1.0
  H  H31  1  0.79840000  0.24065000  0.87807000  1.0
  H  H32  1  0.19934000  0.91083000  0.28301000  1.0
  H  H33  1  0.30066000  0.08918000  0.78300000  1.0
  H  H34  1  0.80066000  0.08917000  0.71699000  1.0
  H  H35  1  0.69935000  0.91082000  0.21699000  1.0
  H  H36  1  0.11919000  0.90171000  0.42411000  1.0
  H  H37  1  0.38081000  0.09829000  0.92411000  1.0
  H  H38  1  0.88081000  0.09829000  0.57589000  1.0
  H  H39  1  0.61920000  0.90171000  0.07589000  1.0
  H  H40  1  0.28891000  0.99925000  0.38646000  1.0
  H  H41  1  0.21108000  0.00076000  0.88646000  1.0
  H  H42  1  0.71108000  0.00075000  0.61354000  1.0
  H  H43  1  0.78892000  0.99925000  0.11354000  1.0
  H  H44  1  0.01688000  0.28778000  0.63869000  1.0
  H  H45  1  0.48312000  0.71222000  0.13869000  1.0
  H  H46  1  0.98312000  0.71222000  0.36131000  1.0
  H  H47  1  0.51688000  0.28778000  0.86131000  1.0
  H  H48  1  0.82760000  0.34454000  0.57021000  1.0
  H  H49  1  0.67240000  0.65546000  0.07021000  1.0
  H  H50  1  0.17240000  0.65546000  0.42979000  1.0
  H  H51  1  0.32761000  0.34454000  0.92979000  1.0
  H  H52  1  0.03646000  0.41341000  0.55487000  1.0
  H  H53  1  0.46353000  0.58659000  0.05487000  1.0
  H  H54  1  0.96353000  0.58659000  0.44513000  1.0
  H  H55  1  0.53647000  0.41341000  0.94513000  1.0
  C  C56  1  0.59118000  0.43887000  0.32285000  1.0
  C  C57  1  0.90882000  0.56113000  0.82285000  1.0
  C  C58  1  0.40883000  0.56113000  0.67715000  1.0
  C  C59  1  0.09118000  0.43887000  0.17715000  1.0
  C  C60  1  0.45256000  0.52602000  0.34781000  1.0
  C  C61  1  0.04744000  0.47398000  0.84781000  1.0
  C  C62  1  0.54744000  0.47398000  0.65219000  1.0
  C  C63  1  0.95256000  0.52602000  0.15219000  1.0
  C  C64  1  0.44963000  0.21491000  0.47208000  1.0
  C  C65  1  0.05035000  0.78509000  0.97208000  1.0
  C  C66  1  0.55036000  0.78509000  0.52792000  1.0
  C  C67  1  0.94965000  0.21491000  0.02792000  1.0
  C  C68  1  0.38862000  0.17767000  0.58602000  1.0
  C  C69  1  0.11137000  0.82234000  0.08602000  1.0
  C  C70  1  0.61137000  0.82234000  0.41398000  1.0
  C  C71  1  0.88863000  0.17766000  0.91397000  1.0
  C  C72  1  0.03300000  0.04726000  0.33087000  1.0
  C  C73  1  0.46702000  0.95274000  0.83088000  1.0
  C  C74  1  0.96699000  0.95274000  0.66913000  1.0
  C  C75  1  0.53298000  0.04726000  0.16912000  1.0
  C  C76  1  0.16680000  0.95834000  0.35888000  1.0
  C  C77  1  0.33319000  0.04167000  0.85888000  1.0
  C  C78  1  0.83320000  0.04166000  0.64112000  1.0
  C  C79  1  0.66681000  0.95833000  0.14112000  1.0
  C  C80  1  0.96983000  0.33115000  0.56292000  1.0
  C  C81  1  0.53017000  0.66885000  0.06292000  1.0
  C  C82  1  0.03017000  0.66885000  0.43708000  1.0
  C  C83  1  0.46984000  0.33115000  0.93708000  1.0
  O  O84  1  0.55975000  0.36268000  0.24762000  1.0
  O  O85  1  0.94025000  0.63732000  0.74762000  1.0
  O  O86  1  0.44025000  0.63732000  0.75238000  1.0
  O  O87  1  0.05975000  0.36268000  0.25238000  1.0
  O  O88  1  0.73569000  0.43646000  0.37509000  1.0
  O  O89  1  0.76431000  0.56354000  0.87509000  1.0
  O  O90  1  0.26431000  0.56354000  0.62491000  1.0
  O  O91  1  0.23570000  0.43646000  0.12491000  1.0
  O  O92  1  0.61295000  0.21614000  0.45240000  1.0
  O  O93  1  0.88707000  0.78385000  0.95240000  1.0
  O  O94  1  0.38704000  0.78385000  0.54760000  1.0
  O  O95  1  0.11293000  0.21615000  0.04760000  1.0
  O  O96  1  0.33002000  0.24278000  0.40077000  1.0
  O  O97  1  0.16999000  0.75722000  0.90077000  1.0
  O  O98  1  0.66997000  0.75723000  0.59923000  1.0
  O  O99  1  0.83002000  0.24277000  0.09923000  1.0
  O  O100  1  0.87654000  0.04370000  0.36626000  1.0
  O  O101  1  0.62342000  0.95630000  0.86625000  1.0
  O  O102  1  0.12345000  0.95630000  0.63374000  1.0
  O  O103  1  0.37658000  0.04370000  0.13374000  1.0
  O  O104  1  0.07924000  0.13231000  0.26858000  1.0
  O  O105  1  0.42074000  0.86769000  0.76858000  1.0
  O  O106  1  0.92075000  0.86769000  0.73142000  1.0
  O  O107  1  0.57925000  0.13231000  0.23142000  1.0
  O  O108  1  0.99882000  0.26122000  0.46711000  1.0
  O  O109  1  0.50118000  0.73877000  0.96710000  1.0
  O  O110  1  0.00118000  0.73877000  0.53290000  1.0
  O  O111  1  0.49882000  0.26122000  0.03290000  1.0
