# generated using pymatgen
data_HgH5C4N3Cl2
_symmetry_space_group_name_H-M   'P 1'
_cell_length_a   3.84829000
_cell_length_b   7.00626000
_cell_length_c   13.89550000
_cell_angle_alpha   90.00210000
_cell_angle_beta   90.00100000
_cell_angle_gamma   80.92550000
_symmetry_Int_Tables_number   1
_chemical_formula_structural   HgH5C4N3Cl2
_chemical_formula_sum   'Hg2 H10 C8 N6 Cl4'
_cell_volume   369.96303302
_cell_formula_units_Z   2
loop_
 _symmetry_equiv_pos_site_id
 _symmetry_equiv_pos_as_xyz
  1  'x, y, z'
loop_
 _atom_site_type_symbol
 _atom_site_label
 _atom_site_symmetry_multiplicity
 _atom_site_fract_x
 _atom_site_fract_y
 _atom_site_fract_z
 _atom_site_occupancy
  Hg  Hg0  1  0.00000000  0.00000000  0.50000000  1.0
  Hg  Hg1  1  0.99999000  0.00000000  0.00000000  1.0
  H  H2  1  0.28839000  0.13018000  0.68701000  1.0
  H  H3  1  0.71159000  0.86981000  0.18701000  1.0
  H  H4  1  0.71157000  0.86982000  0.31300000  1.0
  H  H5  1  0.28839000  0.13018000  0.81299000  1.0
  H  H6  1  0.79682000  0.41273000  0.74999000  1.0
  H  H7  1  0.20320000  0.58728000  0.25000000  1.0
  H  H8  1  0.87805000  0.59050000  0.59482000  1.0
  H  H9  1  0.12194000  0.40946000  0.09483000  1.0
  H  H10  1  0.12191000  0.40952000  0.40518000  1.0
  H  H11  1  0.87810000  0.59050000  0.90517000  1.0
  C  C12  1  0.08556000  0.90765000  0.74999000  1.0
  C  C13  1  0.91446000  0.09234000  0.25000000  1.0
  C  C14  1  0.87655000  0.55477000  0.74999000  1.0
  C  C15  1  0.12343000  0.44525000  0.25000000  1.0
  C  C16  1  0.92513000  0.65188000  0.66487000  1.0
  C  C17  1  0.07484000  0.34811000  0.16489000  1.0
  C  C18  1  0.07488000  0.34813000  0.33513000  1.0
  C  C19  1  0.92516000  0.65189000  0.83511000  1.0
  N  N20  1  0.20588000  0.07678000  0.75000000  1.0
  N  N21  1  0.79411000  0.92321000  0.25001000  1.0
  N  N22  1  0.02543000  0.82628000  0.66393000  1.0
  N  N23  1  0.97461000  0.17372000  0.16395000  1.0
  N  N24  1  0.97458000  0.17374000  0.33607000  1.0
  N  N25  1  0.02544000  0.82626000  0.83606000  1.0
  Cl  Cl26  1  0.49416000  0.74848000  0.44292000  1.0
  Cl  Cl27  1  0.50585000  0.25152000  0.94293000  1.0
  Cl  Cl28  1  0.50583000  0.25152000  0.55708000  1.0
  Cl  Cl29  1  0.49416000  0.74848000  0.05708000  1.0
