# generated using pymatgen
data_ZnH20C24N5O17
_symmetry_space_group_name_H-M   'P 1'
_cell_length_a   11.08410000
_cell_length_b   12.61680000
_cell_length_c   13.63570000
_cell_angle_alpha   79.88340000
_cell_angle_beta   83.70980000
_cell_angle_gamma   77.26840000
_symmetry_Int_Tables_number   1
_chemical_formula_structural   ZnH20C24N5O17
_chemical_formula_sum   'Zn2 H40 C48 N10 O34'
_cell_volume   1826.10147917
_cell_formula_units_Z   2
loop_
 _symmetry_equiv_pos_site_id
 _symmetry_equiv_pos_as_xyz
  1  'x, y, z'
loop_
 _atom_site_type_symbol
 _atom_site_label
 _atom_site_symmetry_multiplicity
 _atom_site_fract_x
 _atom_site_fract_y
 _atom_site_fract_z
 _atom_site_occupancy
  Zn  Zn0  1  0.47140000  0.61647000  0.50922000  1.0
  Zn  Zn1  1  0.53045000  0.38633000  0.48529000  1.0
  H  H2  1  0.91544000  0.55991000  0.34587000  1.0
  H  H3  1  0.11982000  0.54279000  0.35108000  1.0
  H  H4  1  0.09844000  0.64842000  0.42244000  1.0
  H  H5  1  0.39896000  0.56364000  0.83584000  1.0
  H  H6  1  0.32528000  0.72716000  0.66090000  1.0
  H  H7  1  0.34121000  0.08821000  0.72334000  1.0
  H  H8  1  0.29524000  0.89947000  0.73419000  1.0
  H  H9  1  0.71507000  0.27745000  0.35409000  1.0
  H  H10  1  0.71387000  0.93060000  0.40426000  1.0
  H  H11  1  0.43703000  0.23812000  0.62841000  1.0
  H  H12  1  0.70777000  0.49752000  0.69594000  1.0
  H  H13  1  0.77705000  0.42605000  0.80750000  1.0
  H  H14  1  0.75075000  0.35019000  0.71424000  1.0
  H  H15  1  0.58679000  0.08718000  0.86374000  1.0
  H  H16  1  0.74521000  0.09229000  0.82273000  1.0
  H  H17  1  0.64094000  0.08174000  0.73521000  1.0
  H  H18  1  0.55602000  0.16889000  0.23477000  1.0
  H  H19  1  0.68719000  0.08750000  0.17365000  1.0
  H  H20  1  0.55812000  0.15961000  0.10475000  1.0
  H  H21  1  0.84535000  0.22555000  0.86413000  1.0
  H  H22  1  0.87890000  0.13166000  0.97773000  1.0
  H  H23  1  0.83210000  0.27625000  0.98114000  1.0
  H  H24  1  0.21563000  0.88488000  0.22465000  1.0
  H  H25  1  0.36815000  0.81522000  0.26083000  1.0
  H  H26  1  0.24096000  0.82978000  0.35387000  1.0
  H  H27  1  0.64558000  0.61533000  0.18885000  1.0
  H  H28  1  0.79087000  0.54070000  0.14049000  1.0
  H  H29  1  0.75705000  0.53727000  0.27292000  1.0
  H  H30  1  0.92928000  0.93362000  0.36737000  1.0
  H  H31  1  0.98227000  0.99614000  0.24593000  1.0
  H  H32  1  0.84325000  0.94263000  0.26160000  1.0
  H  H33  1  0.85394000  0.73275000  0.70673000  1.0
  H  H34  1  0.89843000  0.59394000  0.77036000  1.0
  H  H35  1  0.73800000  0.65457000  0.75646000  1.0
  H  H36  1  0.90586000  0.30529000  0.26435000  1.0
  H  H37  1  0.04212000  0.24612000  0.32887000  1.0
  H  H38  1  0.03879000  0.36869000  0.23776000  1.0
  H  H39  1  0.24782000  0.21914000  0.32884000  1.0
  H  H40  1  0.33411000  0.25402000  0.41815000  1.0
  H  H41  1  0.32370000  0.33488000  0.29746000  1.0
  C  C42  1  0.46060000  0.55974000  0.31093000  1.0
  C  C43  1  0.73876000  0.50327000  0.49545000  1.0
  C  C44  1  0.49195000  0.45259000  0.69041000  1.0
  C  C45  1  0.26749000  0.48006000  0.50740000  1.0
  C  C46  1  0.93145000  0.58240000  0.41601000  1.0
  C  C47  1  0.07316000  0.57057000  0.41962000  1.0
  C  C48  1  0.91257000  0.51586000  0.60907000  1.0
  C  C49  1  0.95723000  0.38588000  0.46485000  1.0
  C  C50  1  0.88163000  0.49858000  0.50050000  1.0
  C  C51  1  0.12637000  0.48302000  0.50843000  1.0
  C  C52  1  0.05857000  0.51806000  0.60682000  1.0
  C  C53  1  0.10459000  0.37186000  0.47839000  1.0
  C  C54  1  0.60445000  0.28363000  0.93591000  1.0
  C  C55  1  0.50065000  0.41120000  0.79998000  1.0
  C  C56  1  0.30418000  0.66184000  0.19159000  1.0
  C  C57  1  0.24339000  0.66652000  0.10481000  1.0
  C  C58  1  0.29443000  0.59833000  0.03454000  1.0
  C  C59  1  0.41207000  0.52884000  0.04196000  1.0
  C  C60  1  0.47467000  0.52380000  0.13010000  1.0
  C  C61  1  0.46837000  0.45717000  0.96948000  1.0
  C  C62  1  0.55417000  0.35843000  0.00376000  1.0
  C  C63  1  0.60328000  0.34828000  0.09953000  1.0
  C  C64  1  0.58710000  0.44119000  0.14526000  1.0
  C  C65  1  0.45013000  0.48309000  0.86731000  1.0
  C  C66  1  0.57021000  0.30466000  0.83682000  1.0
  C  C67  1  0.41768000  0.58761000  0.20604000  1.0
  C  C68  1  0.35592000  0.88917000  0.66656000  1.0
  C  C69  1  0.68022000  0.20710000  0.39581000  1.0
  C  C70  1  0.73331000  0.09980000  0.37532000  1.0
  C  C71  1  0.67569000  0.01398000  0.41906000  1.0
  C  C72  1  0.57140000  0.03559000  0.48728000  1.0
  C  C73  1  0.53812000  0.14073000  0.51797000  1.0
  C  C74  1  0.49805000  0.95537000  0.53218000  1.0
  C  C75  1  0.41932000  0.97266000  0.62071000  1.0
  C  C76  1  0.40212000  0.07506000  0.65632000  1.0
  C  C77  1  0.45460000  0.15828000  0.60373000  1.0
  C  C78  1  0.49085000  0.86216000  0.49125000  1.0
  C  C79  1  0.36937000  0.79462000  0.62560000  1.0
  C  C80  1  0.77531000  0.42563000  0.72714000  1.0
  C  C81  1  0.64917000  0.11653000  0.80179000  1.0
  C  C82  1  0.61488000  0.16224000  0.16483000  1.0
  C  C83  1  0.81985000  0.20846000  0.94481000  1.0
  C  C84  1  0.26853000  0.81838000  0.27612000  1.0
  C  C85  1  0.71787000  0.54048000  0.20206000  1.0
  C  C86  1  0.90084000  0.98414000  0.29619000  1.0
  C  C87  1  0.83250000  0.65024000  0.72093000  1.0
  C  C88  1  0.98476000  0.32312000  0.29577000  1.0
  C  C89  1  0.27444000  0.28653000  0.35686000  1.0
  N  N90  1  0.43491000  0.78166000  0.53607000  1.0
  N  N91  1  0.58970000  0.22545000  0.46648000  1.0
  N  N92  1  0.87050000  0.70528000  0.39594000  1.0
  N  N93  1  0.14422000  0.26508000  0.55384000  1.0
  N  N94  1  0.12419000  0.45628000  0.70497000  1.0
  N  N95  1  0.21615000  0.59714000  0.95348000  1.0
  N  N96  1  0.11834000  0.73540000  0.09586000  1.0
  N  N97  1  0.52837000  0.86167000  0.38224000  1.0
  N  N98  1  0.07623000  0.63980000  0.61469000  1.0
  N  N99  1  0.91025000  0.27124000  0.52253000  1.0
  O  O100  1  0.46934000  0.63717000  0.35596000  1.0
  O  O101  1  0.48060000  0.45810000  0.34651000  1.0
  O  O102  1  0.66433000  0.59265000  0.50538000  1.0
  O  O103  1  0.70974000  0.41628000  0.47959000  1.0
  O  O104  1  0.46479000  0.55655000  0.66183000  1.0
  O  O105  1  0.51856000  0.38136000  0.63233000  1.0
  O  O106  1  0.29598000  0.57226000  0.50649000  1.0
  O  O107  1  0.33898000  0.38799000  0.50456000  1.0
  O  O108  1  0.81689000  0.75936000  0.45996000  1.0
  O  O109  1  0.88616000  0.74328000  0.30585000  1.0
  O  O110  1  0.14215000  0.27166000  0.64268000  1.0
  O  O111  1  0.16828000  0.17873000  0.51788000  1.0
  O  O112  1  0.89784000  0.42754000  0.68192000  1.0
  O  O113  1  0.23710000  0.42396000  0.69406000  1.0
  O  O114  1  0.06183000  0.45223000  0.78475000  1.0
  O  O115  1  0.61315000  0.23353000  0.77144000  1.0
  O  O116  1  0.67743000  0.25391000  0.14192000  1.0
  O  O117  1  0.69442000  0.19155000  0.96362000  1.0
  O  O118  1  0.23923000  0.71468000  0.26612000  1.0
  O  O119  1  0.19459000  0.68234000  0.89156000  1.0
  O  O120  1  0.17793000  0.51243000  0.95484000  1.0
  O  O121  1  0.10641000  0.83459000  0.09962000  1.0
  O  O122  1  0.03386000  0.68928000  0.08535000  1.0
  O  O123  1  0.66920000  0.44136000  0.21242000  1.0
  O  O124  1  0.60705000  0.78615000  0.35450000  1.0
  O  O125  1  0.47045000  0.94163000  0.32727000  1.0
  O  O126  1  0.83607000  0.09242000  0.31245000  1.0
  O  O127  1  0.83556000  0.61455000  0.62559000  1.0
  O  O128  1  0.02940000  0.71609000  0.55257000  1.0
  O  O129  1  0.13282000  0.64879000  0.68433000  1.0
  O  O130  1  0.89839000  0.24949000  0.61357000  1.0
  O  O131  1  0.89832000  0.21065000  0.46440000  1.0
  O  O132  1  0.93092000  0.39561000  0.36806000  1.0
  O  O133  1  0.16364000  0.36306000  0.38466000  1.0
