# generated using pymatgen
data_CdH14C11N2O5
_symmetry_space_group_name_H-M   'P 1'
_cell_length_a   5.87633000
_cell_length_b   15.47430000
_cell_length_c   15.99850000
_cell_angle_alpha   90.00140000
_cell_angle_beta   90.00070000
_cell_angle_gamma   89.99960000
_symmetry_Int_Tables_number   1
_chemical_formula_structural   CdH14C11N2O5
_chemical_formula_sum   'Cd4 H56 C44 N8 O20'
_cell_volume   1454.77709439
_cell_formula_units_Z   4
loop_
 _symmetry_equiv_pos_site_id
 _symmetry_equiv_pos_as_xyz
  1  'x, y, z'
loop_
 _atom_site_type_symbol
 _atom_site_label
 _atom_site_symmetry_multiplicity
 _atom_site_fract_x
 _atom_site_fract_y
 _atom_site_fract_z
 _atom_site_occupancy
  Cd  Cd0  1  0.92595000  0.29548000  0.84420000  1.0
  Cd  Cd1  1  0.57404000  0.70452000  0.34419000  1.0
  Cd  Cd2  1  0.42595000  0.20452000  0.15581000  1.0
  Cd  Cd3  1  0.07404000  0.79548000  0.65580000  1.0
  H  H4  1  0.44632000  0.37934000  0.90448000  1.0
  H  H5  1  0.05368000  0.62068000  0.40448000  1.0
  H  H6  1  0.94632000  0.12068000  0.09552000  1.0
  H  H7  1  0.55367000  0.87933000  0.59551000  1.0
  H  H8  1  0.19279000  0.50309000  0.87411000  1.0
  H  H9  1  0.30722000  0.49693000  0.37412000  1.0
  H  H10  1  0.69277000  0.99693000  0.12588000  1.0
  H  H11  1  0.80722000  0.00307000  0.62588000  1.0
  H  H12  1  0.93904000  0.46778000  0.74182000  1.0
  H  H13  1  0.56095000  0.53220000  0.24183000  1.0
  H  H14  1  0.43903000  0.03222000  0.25819000  1.0
  H  H15  1  0.06097000  0.96778000  0.75818000  1.0
  H  H16  1  0.71211000  0.59911000  0.70581000  1.0
  H  H17  1  0.78789000  0.40088000  0.20582000  1.0
  H  H18  1  0.21209000  0.90089000  0.29419000  1.0
  H  H19  1  0.28789000  0.09910000  0.79419000  1.0
  H  H20  1  0.89261000  0.68010000  0.54137000  1.0
  H  H21  1  0.60740000  0.31992000  0.04138000  1.0
  H  H22  1  0.39259000  0.81991000  0.45862000  1.0
  H  H23  1  0.10740000  0.18009000  0.95863000  1.0
  H  H24  1  0.08529000  0.55265000  0.53365000  1.0
  H  H25  1  0.41469000  0.44736000  0.03365000  1.0
  H  H26  1  0.58527000  0.94736000  0.46635000  1.0
  H  H27  1  0.91470000  0.05264000  0.96635000  1.0
  H  H28  1  0.04976000  0.53849000  0.64246000  1.0
  H  H29  1  0.45022000  0.46153000  0.14247000  1.0
  H  H30  1  0.54975000  0.96152000  0.35754000  1.0
  H  H31  1  0.95024000  0.03848000  0.85754000  1.0
  H  H32  1  0.47848000  0.71325000  0.68936000  1.0
  H  H33  1  0.02154000  0.28676000  0.18936000  1.0
  H  H34  1  0.97845000  0.78676000  0.31064000  1.0
  H  H35  1  0.52154000  0.21324000  0.81064000  1.0
  H  H36  1  0.09786000  0.61413000  0.76257000  1.0
  H  H37  1  0.40216000  0.38587000  0.26258000  1.0
  H  H38  1  0.59784000  0.88588000  0.23741000  1.0
  H  H39  1  0.90215000  0.11412000  0.73742000  1.0
  H  H40  1  0.28189000  0.68627000  0.81210000  1.0
  H  H41  1  0.21813000  0.31373000  0.31209000  1.0
  H  H42  1  0.78189000  0.81374000  0.18790000  1.0
  H  H43  1  0.71811000  0.18626000  0.68791000  1.0
  H  H44  1  0.44504000  0.57275000  0.61005000  1.0
  H  H45  1  0.05496000  0.42725000  0.11006000  1.0
  H  H46  1  0.94502000  0.92726000  0.38994000  1.0
  H  H47  1  0.55497000  0.07275000  0.88995000  1.0
  H  H48  1  0.52769000  0.31525000  0.64328000  1.0
  H  H49  1  0.97230000  0.68471000  0.14327000  1.0
  H  H50  1  0.02770000  0.18475000  0.35673000  1.0
  H  H51  1  0.47232000  0.81526000  0.85673000  1.0
  H  H52  1  0.29450000  0.32873000  0.57128000  1.0
  H  H53  1  0.20552000  0.67121000  0.07127000  1.0
  H  H54  1  0.79449000  0.17126000  0.42872000  1.0
  H  H55  1  0.70552000  0.82874000  0.92873000  1.0
  H  H56  1  0.37353000  0.22416000  0.60642000  1.0
  H  H57  1  0.12648000  0.77581000  0.10640000  1.0
  H  H58  1  0.87353000  0.27584000  0.39359000  1.0
  H  H59  1  0.62648000  0.72416000  0.89358000  1.0
  C  C60  1  0.50026000  0.42996000  0.86179000  1.0
  C  C61  1  0.99974000  0.57005000  0.36179000  1.0
  C  C62  1  0.00026000  0.07005000  0.13821000  1.0
  C  C63  1  0.49973000  0.92995000  0.63821000  1.0
  C  C64  1  0.35874000  0.49959000  0.84367000  1.0
  C  C65  1  0.14128000  0.50042000  0.34368000  1.0
  C  C66  1  0.85872000  0.00042000  0.15632000  1.0
  C  C67  1  0.64127000  0.99957000  0.65632000  1.0
  C  C68  1  0.77511000  0.48017000  0.77126000  1.0
  C  C69  1  0.72488000  0.51982000  0.27127000  1.0
  C  C70  1  0.27510000  0.01983000  0.22874000  1.0
  C  C71  1  0.22490000  0.98017000  0.72874000  1.0
  C  C72  1  0.42936000  0.56210000  0.78602000  1.0
  C  C73  1  0.07065000  0.43790000  0.28602000  1.0
  C  C74  1  0.92935000  0.93790000  0.21398000  1.0
  C  C75  1  0.57064000  0.06210000  0.71397000  1.0
  C  C76  1  0.64583000  0.55230000  0.75060000  1.0
  C  C77  1  0.85417000  0.44770000  0.25061000  1.0
  C  C78  1  0.14581000  0.94771000  0.24939000  1.0
  C  C79  1  0.35418000  0.05229000  0.74939000  1.0
  C  C80  1  0.38287000  0.68150000  0.53117000  1.0
  C  C81  1  0.11712000  0.31849000  0.03117000  1.0
  C  C82  1  0.88288000  0.81851000  0.46883000  1.0
  C  C83  1  0.61712000  0.18151000  0.96882000  1.0
  C  C84  1  0.19188000  0.29799000  0.69756000  1.0
  C  C85  1  0.30812000  0.70198000  0.19755000  1.0
  C  C86  1  0.69188000  0.20201000  0.30245000  1.0
  C  C87  1  0.80816000  0.79800000  0.80245000  1.0
  C  C88  1  0.08453000  0.58691000  0.59390000  1.0
  C  C89  1  0.41545000  0.41310000  0.09391000  1.0
  C  C90  1  0.58453000  0.91310000  0.40609000  1.0
  C  C91  1  0.91546000  0.08690000  0.90609000  1.0
  C  C92  1  0.27533000  0.63658000  0.76294000  1.0
  C  C93  1  0.22469000  0.36342000  0.26295000  1.0
  C  C94  1  0.77531000  0.86343000  0.23705000  1.0
  C  C95  1  0.72468000  0.13657000  0.73706000  1.0
  C  C96  1  0.32200000  0.62645000  0.60778000  1.0
  C  C97  1  0.17800000  0.37355000  0.10778000  1.0
  C  C98  1  0.82199000  0.87356000  0.39222000  1.0
  C  C99  1  0.67800000  0.12645000  0.89222000  1.0
  C  C100  1  0.35779000  0.29235000  0.62522000  1.0
  C  C101  1  0.14222000  0.70761000  0.12521000  1.0
  C  C102  1  0.85779000  0.20765000  0.37479000  1.0
  C  C103  1  0.64223000  0.79236000  0.87479000  1.0
  N  N104  1  0.70502000  0.41962000  0.82565000  1.0
  N  N105  1  0.79498000  0.58038000  0.32566000  1.0
  N  N106  1  0.20502000  0.08038000  0.17435000  1.0
  N  N107  1  0.29497000  0.91962000  0.67434000  1.0
  N  N108  1  0.32593000  0.68034000  0.68372000  1.0
  N  N109  1  0.17409000  0.31966000  0.18373000  1.0
  N  N110  1  0.82592000  0.81967000  0.31627000  1.0
  N  N111  1  0.67408000  0.18033000  0.81628000  1.0
  O  O112  1  0.37521000  0.76324000  0.53989000  1.0
  O  O113  1  0.12478000  0.23677000  0.03989000  1.0
  O  O114  1  0.87524000  0.73678000  0.46011000  1.0
  O  O115  1  0.62478000  0.26323000  0.96011000  1.0
  O  O116  1  0.42681000  0.64070000  0.46446000  1.0
  O  O117  1  0.07320000  0.35930000  0.96446000  1.0
  O  O118  1  0.92681000  0.85931000  0.53553000  1.0
  O  O119  1  0.57319000  0.14070000  0.03554000  1.0
  O  O120  1  0.90888000  0.65007000  0.59761000  1.0
  O  O121  1  0.59111000  0.34995000  0.09761000  1.0
  O  O122  1  0.40889000  0.84994000  0.40239000  1.0
  O  O123  1  0.09111000  0.15006000  0.90240000  1.0
  O  O124  1  0.26603000  0.27860000  0.77126000  1.0
  O  O125  1  0.23396000  0.72140000  0.27125000  1.0
  O  O126  1  0.76602000  0.22141000  0.22875000  1.0
  O  O127  1  0.73399000  0.77860000  0.72875000  1.0
  O  O128  1  0.98760000  0.31992000  0.68482000  1.0
  O  O129  1  0.51239000  0.68006000  0.18483000  1.0
  O  O130  1  0.48761000  0.18008000  0.31518000  1.0
  O  O131  1  0.01243000  0.81992000  0.81519000  1.0
