# generated using pymatgen
data_YbH11C16N2O5
_symmetry_space_group_name_H-M   'P 1'
_cell_length_a   8.23334000
_cell_length_b   13.92090000
_cell_length_c   13.92330000
_cell_angle_alpha   84.99790000
_cell_angle_beta   72.79730000
_cell_angle_gamma   72.81620000
_symmetry_Int_Tables_number   1
_chemical_formula_structural   YbH11C16N2O5
_chemical_formula_sum   'Yb4 H44 C64 N8 O20'
_cell_volume   1456.38793886
_cell_formula_units_Z   4
loop_
 _symmetry_equiv_pos_site_id
 _symmetry_equiv_pos_as_xyz
  1  'x, y, z'
loop_
 _atom_site_type_symbol
 _atom_site_label
 _atom_site_symmetry_multiplicity
 _atom_site_fract_x
 _atom_site_fract_y
 _atom_site_fract_z
 _atom_site_occupancy
  Yb  Yb0  1  0.33264000  0.52185000  0.63568000  1.0
  Yb  Yb1  1  0.14545000  0.36435000  0.52189000  1.0
  Yb  Yb2  1  0.49018000  0.47805000  0.36445000  1.0
  Yb  Yb3  1  0.03197000  0.63552000  0.47813000  1.0
  H  H4  1  0.49979000  0.34726000  0.52943000  1.0
  H  H5  1  0.15299000  0.47052000  0.34727000  1.0
  H  H6  1  0.37681000  0.65261000  0.47060000  1.0
  H  H7  1  0.97078000  0.52940000  0.65267000  1.0
  H  H8  1  0.42471000  0.23450000  0.85234000  1.0
  H  H9  1  0.33995000  0.14759000  0.23410000  1.0
  H  H10  1  0.51265000  0.76573000  0.14749000  1.0
  H  H11  1  0.72191000  0.85235000  0.76589000  1.0
  H  H12  1  0.36452000  0.13380000  0.00922000  1.0
  H  H13  1  0.50115000  0.99062000  0.13345000  1.0
  H  H14  1  0.50848000  0.86618000  0.99049000  1.0
  H  H15  1  0.62542000  0.00955000  0.86614000  1.0
  H  H16  1  0.05754000  0.12770000  0.09660000  1.0
  H  H17  1  0.81412000  0.90336000  0.12745000  1.0
  H  H18  1  0.28265000  0.87212000  0.90329000  1.0
  H  H19  1  0.84513000  0.09692000  0.87208000  1.0
  H  H20  1  0.73845000  0.18160000  0.10731000  1.0
  H  H21  1  0.07926000  0.89275000  0.18160000  1.0
  H  H22  1  0.02811000  0.81806000  0.89280000  1.0
  H  H23  1  0.15386000  0.10731000  0.81827000  1.0
  H  H24  1  0.49429000  0.26739000  0.03282000  1.0
  H  H25  1  0.23736000  0.96757000  0.26730000  1.0
  H  H26  1  0.79509000  0.73238000  0.96763000  1.0
  H  H27  1  0.47247000  0.03258000  0.73252000  1.0
  H  H28  1  0.56025000  0.35245000  0.86619000  1.0
  H  H29  1  0.08605000  0.13431000  0.35222000  1.0
  H  H30  1  0.77946000  0.64765000  0.13444000  1.0
  H  H31  1  0.57278000  0.86595000  0.64739000  1.0
  H  H32  1  0.86353000  0.36148000  0.78055000  1.0
  H  H33  1  0.77387000  0.21970000  0.36113000  1.0
  H  H34  1  0.00620000  0.63884000  0.21988000  1.0
  H  H35  1  0.35493000  0.78040000  0.63864000  1.0
  H  H36  1  0.77072000  0.63858000  0.80098000  1.0
  H  H37  1  0.59115000  0.19877000  0.63863000  1.0
  H  H38  1  0.21012000  0.36162000  0.19933000  1.0
  H  H39  1  0.42933000  0.80112000  0.36118000  1.0
  H  H40  1  0.40597000  0.53489000  0.02891000  1.0
  H  H41  1  0.05984000  0.97114000  0.53469000  1.0
  H  H42  1  0.96993000  0.46481000  0.97129000  1.0
  H  H43  1  0.56685000  0.02880000  0.46488000  1.0
  H  H44  1  0.25349000  0.51235000  0.90373000  1.0
  H  H45  1  0.23451000  0.09653000  0.51223000  1.0
  H  H46  1  0.66961000  0.48739000  0.09643000  1.0
  H  H47  1  0.84401000  0.90333000  0.48772000  1.0
  C  C48  1  0.15500000  0.27990000  0.84739000  1.0
  C  C49  1  0.56419000  0.15269000  0.27956000  1.0
  C  C50  1  0.28326000  0.72026000  0.15274000  1.0
  C  C51  1  0.99665000  0.84730000  0.72037000  1.0
  C  C52  1  0.29013000  0.23038000  0.88912000  1.0
  C  C53  1  0.47863000  0.11089000  0.23002000  1.0
  C  C54  1  0.41062000  0.76979000  0.11083000  1.0
  C  C55  1  0.81978000  0.88916000  0.76985000  1.0
  C  C56  1  0.25549000  0.17362000  0.97831000  1.0
  C  C57  1  0.57021000  0.02167000  0.17329000  1.0
  C  C58  1  0.40830000  0.82639000  0.02157000  1.0
  C  C59  1  0.76537000  0.97855000  0.82632000  1.0
  C  C60  1  0.08516000  0.17003000  0.02695000  1.0
  C  C61  1  0.74409000  0.97305000  0.16974000  1.0
  C  C62  1  0.28297000  0.82991000  0.97301000  1.0
  C  C63  1  0.88709000  0.02720000  0.82985000  1.0
  C  C64  1  0.94279000  0.22136000  0.98695000  1.0
  C  C65  1  0.83507000  0.01311000  0.22110000  1.0
  C  C66  1  0.15185000  0.77861000  0.01318000  1.0
  C  C67  1  0.06952000  0.98703000  0.77861000  1.0
  C  C68  1  0.76565000  0.22049000  0.03581000  1.0
  C  C69  1  0.01307000  0.96436000  0.22033000  1.0
  C  C70  1  0.02265000  0.77934000  0.96441000  1.0
  C  C71  1  0.19801000  0.03577000  0.77944000  1.0
  C  C72  1  0.63013000  0.26793000  0.99406000  1.0
  C  C73  1  0.10101000  0.00628000  0.26775000  1.0
  C  C74  1  0.89275000  0.73194000  0.00633000  1.0
  C  C75  1  0.37526000  0.99391000  0.73197000  1.0
  C  C76  1  0.66666667  0.31761000  0.90044000  1.0
  C  C77  1  0.01463000  0.09993000  0.31735000  1.0
  C  C78  1  0.88530000  0.68249000  0.10006000  1.0
  C  C79  1  0.43214000  0.90029000  0.68229000  1.0
  C  C80  1  0.83646000  0.32237000  0.85217000  1.0
  C  C81  1  0.84010000  0.14808000  0.32201000  1.0
  C  C82  1  0.01166000  0.67788000  0.14823000  1.0
  C  C83  1  0.31043000  0.85207000  0.67771000  1.0
  C  C84  1  0.97815000  0.27534000  0.89410000  1.0
  C  C85  1  0.74556000  0.10599000  0.27500000  1.0
  C  C86  1  0.14844000  0.72479000  0.10611000  1.0
  C  C87  1  0.12682000  0.89410000  0.72476000  1.0
  C  C88  1  0.19098000  0.34016000  0.75272000  1.0
  C  C89  1  0.46835000  0.24735000  0.33991000  1.0
  C  C90  1  0.28455000  0.66001000  0.24743000  1.0
  C  C91  1  0.05573000  0.75255000  0.66015000  1.0
  C  C92  1  0.56975000  0.59857000  0.75532000  1.0
  C  C93  1  0.83188000  0.24471000  0.59855000  1.0
  C  C94  1  0.92351000  0.40145000  0.24491000  1.0
  C  C95  1  0.67574000  0.75520000  0.40137000  1.0
  C  C96  1  0.65403000  0.61065000  0.82519000  1.0
  C  C97  1  0.73575000  0.17469000  0.61063000  1.0
  C  C98  1  0.08975000  0.38947000  0.17510000  1.0
  C  C99  1  0.52189000  0.82521000  0.38915000  1.0
  C  C100  1  0.45408000  0.55429000  0.95003000  1.0
  C  C101  1  0.99222000  0.05002000  0.55415000  1.0
  C  C102  1  0.95843000  0.44555000  0.05020000  1.0
  C  C103  1  0.59742000  0.94991000  0.44552000  1.0
  C  C104  1  0.36762000  0.54217000  0.88098000  1.0
  C  C105  1  0.09058000  0.11919000  0.54206000  1.0
  C  C106  1  0.79077000  0.45766000  0.11921000  1.0
  C  C107  1  0.75264000  0.88071000  0.45780000  1.0
  C  C108  1  0.63354000  0.62078000  0.64475000  1.0
  C  C109  1  0.74563000  0.35526000  0.62079000  1.0
  C  C110  1  0.89893000  0.37914000  0.35544000  1.0
  C  C111  1  0.72206000  0.64464000  0.37924000  1.0
  N  N112  1  0.42709000  0.56286000  0.78356000  1.0
  N  N113  1  0.01022000  0.21659000  0.56281000  1.0
  N  N114  1  0.77343000  0.43706000  0.21665000  1.0
  N  N115  1  0.79021000  0.78329000  0.43715000  1.0
  N  N116  1  0.59818000  0.58745000  0.92272000  1.0
  N  N117  1  0.81498000  0.07718000  0.58737000  1.0
  N  N118  1  0.10833000  0.41256000  0.07755000  1.0
  N  N119  1  0.48055000  0.92274000  0.41230000  1.0
  O  O120  1  0.21573000  0.42485000  0.76076000  1.0
  O  O121  1  0.35925000  0.23928000  0.42471000  1.0
  O  O122  1  0.40170000  0.57522000  0.23940000  1.0
  O  O123  1  0.02334000  0.76052000  0.57537000  1.0
  O  O124  1  0.19097000  0.30347000  0.67221000  1.0
  O  O125  1  0.50505000  0.32787000  0.30324000  1.0
  O  O126  1  0.16731000  0.69671000  0.32792000  1.0
  O  O127  1  0.13630000  0.67209000  0.69686000  1.0
  O  O128  1  0.54226000  0.60784000  0.59008000  1.0
  O  O129  1  0.84971000  0.41003000  0.60773000  1.0
  O  O130  1  0.74005000  0.39202000  0.41009000  1.0
  O  O131  1  0.86791000  0.58987000  0.39220000  1.0
  O  O132  1  0.76994000  0.65159000  0.61465000  1.0
  O  O133  1  0.57841000  0.38525000  0.65170000  1.0
  O  O134  1  0.03605000  0.34828000  0.38549000  1.0
  O  O135  1  0.61554000  0.61466000  0.34850000  1.0
  O  O136  1  0.40397000  0.40194000  0.51604000  1.0
  O  O137  1  0.19412000  0.48391000  0.40197000  1.0
  O  O138  1  0.32215000  0.59796000  0.48405000  1.0
  O  O139  1  0.08003000  0.51597000  0.59799000  1.0
