# generated using pymatgen
data_AgH8C6N2ClO4
_symmetry_space_group_name_H-M   'P 1'
_cell_length_a   7.36481000
_cell_length_b   11.14530000
_cell_length_c   11.44280000
_cell_angle_alpha   88.33480000
_cell_angle_beta   74.34900000
_cell_angle_gamma   89.95630000
_symmetry_Int_Tables_number   1
_chemical_formula_structural   AgH8C6N2ClO4
_chemical_formula_sum   'Ag4 H32 C24 N8 Cl4 O16'
_cell_volume   904.02806215
_cell_formula_units_Z   4
loop_
 _symmetry_equiv_pos_site_id
 _symmetry_equiv_pos_as_xyz
  1  'x, y, z'
loop_
 _atom_site_type_symbol
 _atom_site_label
 _atom_site_symmetry_multiplicity
 _atom_site_fract_x
 _atom_site_fract_y
 _atom_site_fract_z
 _atom_site_occupancy
  Ag  Ag0  1  0.38489000  0.91630000  0.36630000  1.0
  Ag  Ag1  1  0.61510000  0.08370000  0.63370000  1.0
  Ag  Ag2  1  0.50331000  0.42027000  0.22189000  1.0
  Ag  Ag3  1  0.49669000  0.57973000  0.77811000  1.0
  H  H4  1  0.47188000  0.16513000  0.36128000  1.0
  H  H5  1  0.52812000  0.83488000  0.63872000  1.0
  H  H6  1  0.26545000  0.16257000  0.31296000  1.0
  H  H7  1  0.73455000  0.83743000  0.68704000  1.0
  H  H8  1  0.19053000  0.35822000  0.38891000  1.0
  H  H9  1  0.80947000  0.64178000  0.61109000  1.0
  H  H10  1  0.37227000  0.36051000  0.44783000  1.0
  H  H11  1  0.62773000  0.63949000  0.55217000  1.0
  H  H12  1  0.10410000  0.30294000  0.59188000  1.0
  H  H13  1  0.89591000  0.69707000  0.40812000  1.0
  H  H14  1  0.94023000  0.19673000  0.78757000  1.0
  H  H15  1  0.05977000  0.80328000  0.21242000  1.0
  H  H16  1  0.97007000  0.97416000  0.80542000  1.0
  H  H17  1  0.02992000  0.02585000  0.19457000  1.0
  H  H18  1  0.15966000  0.86463000  0.62452000  1.0
  H  H19  1  0.84033000  0.13537000  0.37548000  1.0
  H  H20  1  0.43376000  0.65669000  0.23501000  1.0
  H  H21  1  0.56624000  0.34330000  0.76500000  1.0
  H  H22  1  0.64099000  0.67531000  0.27995000  1.0
  H  H23  1  0.35902000  0.32468000  0.72004000  1.0
  H  H24  1  0.67300000  0.87644000  0.18056000  1.0
  H  H25  1  0.32700000  0.12356000  0.81945000  1.0
  H  H26  1  0.47904000  0.85302000  0.14060000  1.0
  H  H27  1  0.52097000  0.14697000  0.85940000  1.0
  H  H28  1  0.81160000  0.81797000  0.00530000  1.0
  H  H29  1  0.18841000  0.18203000  0.99470000  1.0
  H  H30  1  0.99147000  0.72189000  0.81577000  1.0
  H  H31  1  0.00854000  0.27810000  0.18424000  1.0
  H  H32  1  0.95552000  0.50117000  0.79412000  1.0
  H  H33  1  0.04447000  0.49883000  0.20588000  1.0
  H  H34  1  0.74983000  0.38217000  0.97043000  1.0
  H  H35  1  0.25016000  0.61782000  0.02957000  1.0
  C  C36  1  0.22000000  0.13996000  0.50498000  1.0
  C  C37  1  0.78001000  0.86005000  0.49502000  1.0
  C  C38  1  0.32526000  0.19632000  0.38411000  1.0
  C  C39  1  0.67474000  0.80368000  0.61589000  1.0
  C  C40  1  0.11530000  0.20607000  0.60177000  1.0
  C  C41  1  0.88470000  0.79394000  0.39823000  1.0
  C  C42  1  0.02280000  0.14704000  0.71068000  1.0
  C  C43  1  0.97720000  0.85298000  0.28932000  1.0
  C  C44  1  0.03782000  0.02262000  0.72101000  1.0
  C  C45  1  0.96218000  0.97739000  0.27899000  1.0
  C  C46  1  0.14404000  0.96175000  0.62135000  1.0
  C  C47  1  0.85596000  0.03826000  0.37865000  1.0
  C  C48  1  0.68595000  0.65047000  0.08926000  1.0
  C  C49  1  0.31405000  0.34953000  0.91074000  1.0
  C  C50  1  0.57330000  0.70046000  0.20822000  1.0
  C  C51  1  0.42671000  0.29954000  0.79179000  1.0
  C  C52  1  0.80099000  0.72145000  0.99593000  1.0
  C  C53  1  0.19901000  0.27854000  0.00407000  1.0
  C  C54  1  0.89977000  0.66829000  0.88895000  1.0
  C  C55  1  0.10023000  0.33170000  0.11105000  1.0
  C  C56  1  0.88144000  0.54508000  0.87710000  1.0
  C  C57  1  0.11855000  0.45491000  0.12290000  1.0
  C  C58  1  0.76738000  0.47893000  0.97416000  1.0
  C  C59  1  0.23262000  0.52107000  0.02584000  1.0
  N  N60  1  0.23258000  0.01887000  0.51551000  1.0
  N  N61  1  0.76742000  0.98114000  0.48449000  1.0
  N  N62  1  0.32552000  0.32787000  0.37814000  1.0
  N  N63  1  0.67448000  0.67213000  0.62185000  1.0
  N  N64  1  0.67139000  0.53038000  0.07785000  1.0
  N  N65  1  0.32860000  0.46962000  0.92215000  1.0
  N  N66  1  0.54665000  0.83124000  0.20618000  1.0
  N  N67  1  0.45335000  0.16875000  0.79382000  1.0
  Cl  Cl68  1  0.23054000  0.61306000  0.52498000  1.0
  Cl  Cl69  1  0.76945000  0.38694000  0.47502000  1.0
  Cl  Cl70  1  0.66217000  0.12524000  0.07340000  1.0
  Cl  Cl71  1  0.33783000  0.87476000  0.92660000  1.0
  O  O72  1  0.38952000  0.69805000  0.49207000  1.0
  O  O73  1  0.61047000  0.30196000  0.50794000  1.0
  O  O74  1  0.07091000  0.67210000  0.60791000  1.0
  O  O75  1  0.92909000  0.32790000  0.39210000  1.0
  O  O76  1  0.28237000  0.50690000  0.58630000  1.0
  O  O77  1  0.71764000  0.49310000  0.41370000  1.0
  O  O78  1  0.17972000  0.57926000  0.41580000  1.0
  O  O79  1  0.82026000  0.42074000  0.58421000  1.0
  O  O80  1  0.70471000  0.20398000  0.16295000  1.0
  O  O81  1  0.29529000  0.79602000  0.83705000  1.0
  O  O82  1  0.68607000  0.19425000  0.95838000  1.0
  O  O83  1  0.31394000  0.80574000  0.04162000  1.0
  O  O84  1  0.46828000  0.08186000  0.11594000  1.0
  O  O85  1  0.53172000  0.91813000  0.88406000  1.0
  O  O86  1  0.79350000  0.02503000  0.05303000  1.0
  O  O87  1  0.20650000  0.97496000  0.94697000  1.0
