# generated using pymatgen
data_ZnH4C6N5Cl
_symmetry_space_group_name_H-M   'P 1'
_cell_length_a   6.12663000
_cell_length_b   9.48336000
_cell_length_c   14.36670000
_cell_angle_alpha   89.99960000
_cell_angle_beta   89.99970000
_cell_angle_gamma   97.61800000
_symmetry_Int_Tables_number   1
_chemical_formula_structural   ZnH4C6N5Cl
_chemical_formula_sum   'Zn4 H16 C24 N20 Cl4'
_cell_volume   827.35289190
_cell_formula_units_Z   4
loop_
 _symmetry_equiv_pos_site_id
 _symmetry_equiv_pos_as_xyz
  1  'x, y, z'
loop_
 _atom_site_type_symbol
 _atom_site_label
 _atom_site_symmetry_multiplicity
 _atom_site_fract_x
 _atom_site_fract_y
 _atom_site_fract_z
 _atom_site_occupancy
  Zn  Zn0  1  0.05154000  0.70784000  0.68607000  1.0
  Zn  Zn1  1  0.05154000  0.20783000  0.31394000  1.0
  Zn  Zn2  1  0.54965000  0.12460000  0.80126000  1.0
  Zn  Zn3  1  0.54965000  0.62460000  0.19874000  1.0
  H  H4  1  0.59816000  0.46473000  0.54781000  1.0
  H  H5  1  0.59815000  0.96471000  0.45219000  1.0
  H  H6  1  0.10032000  0.23236000  0.66226000  1.0
  H  H7  1  0.10029000  0.73235000  0.33774000  1.0
  H  H8  1  0.33887000  0.69015000  0.85340000  1.0
  H  H9  1  0.33888000  0.19015000  0.14660000  1.0
  H  H10  1  0.18982000  0.16769000  0.50201000  1.0
  H  H11  1  0.18984000  0.66769000  0.49799000  1.0
  H  H12  1  0.70263000  0.38445000  0.39046000  1.0
  H  H13  1  0.70264000  0.88445000  0.60954000  1.0
  H  H14  1  0.53976000  0.58714000  0.98074000  1.0
  H  H15  1  0.53977000  0.08714000  0.01926000  1.0
  H  H16  1  0.15703000  0.74757000  0.18374000  1.0
  H  H17  1  0.15702000  0.24755000  0.81626000  1.0
  H  H18  1  0.93659000  0.85692000  0.06359000  1.0
  H  H19  1  0.93659000  0.35691000  0.93641000  1.0
  C  C20  1  0.78981000  0.40638000  0.71152000  1.0
  C  C21  1  0.78980000  0.90637000  0.28848000  1.0
  C  C22  1  0.12011000  0.78467000  0.94893000  1.0
  C  C23  1  0.12012000  0.28467000  0.05107000  1.0
  C  C24  1  0.99287000  0.85714000  0.88237000  1.0
  C  C25  1  0.99288000  0.35714000  0.11763000  1.0
  C  C26  1  0.84070000  0.35540000  0.61831000  1.0
  C  C27  1  0.84070000  0.85539000  0.38169000  1.0
  C  C28  1  0.72882000  0.39785000  0.54038000  1.0
  C  C29  1  0.72882000  0.89785000  0.45962000  1.0
  C  C30  1  0.00636000  0.26936000  0.60508000  1.0
  C  C31  1  0.00637000  0.76936000  0.39492000  1.0
  C  C32  1  0.29053000  0.70587000  0.92543000  1.0
  C  C33  1  0.29055000  0.20587000  0.07458000  1.0
  C  C34  1  0.05742000  0.23148000  0.51520000  1.0
  C  C35  1  0.05742000  0.73148000  0.48479000  1.0
  C  C36  1  0.78627000  0.35347000  0.45252000  1.0
  C  C37  1  0.78627000  0.85347000  0.54748000  1.0
  C  C38  1  0.40477000  0.64752000  0.99664000  1.0
  C  C39  1  0.40478000  0.14751000  0.00337000  1.0
  C  C40  1  0.19118000  0.73749000  0.10975000  1.0
  C  C41  1  0.19118000  0.23748000  0.89026000  1.0
  C  C42  1  0.07014000  0.79841000  0.04348000  1.0
  C  C43  1  0.07014000  0.29841000  0.95653000  1.0
  N  N44  1  0.84036000  0.54176000  0.73938000  1.0
  N  N45  1  0.84036000  0.04175000  0.26062000  1.0
  N  N46  1  0.85788000  0.95043000  0.90932000  1.0
  N  N47  1  0.85789000  0.45043000  0.09068000  1.0
  N  N48  1  0.76192000  0.54944000  0.82701000  1.0
  N  N49  1  0.76192000  0.04944000  0.17299000  1.0
  N  N50  1  0.85254000  0.93188000  0.75660000  1.0
  N  N51  1  0.85254000  0.43187000  0.24340000  1.0
  N  N52  1  0.99044000  0.84594000  0.78809000  1.0
  N  N53  1  0.99044000  0.34594000  0.21191000  1.0
  N  N54  1  0.66747000  0.42444000  0.85184000  1.0
  N  N55  1  0.66747000  0.92444000  0.14816000  1.0
  N  N56  1  0.68396000  0.33108000  0.78105000  1.0
  N  N57  1  0.68395000  0.83107000  0.21895000  1.0
  N  N58  1  0.95005000  0.27290000  0.44005000  1.0
  N  N59  1  0.95005000  0.77289000  0.55995000  1.0
  N  N60  1  0.77495000  0.99342000  0.82979000  1.0
  N  N61  1  0.77495000  0.49342000  0.17021000  1.0
  N  N62  1  0.35741000  0.66335000  0.08755000  1.0
  N  N63  1  0.35742000  0.16334000  0.91245000  1.0
  Cl  Cl64  1  0.37072000  0.62548000  0.66970000  1.0
  Cl  Cl65  1  0.37072000  0.12549000  0.33030000  1.0
  Cl  Cl66  1  0.38286000  0.05096000  0.66980000  1.0
  Cl  Cl67  1  0.38286000  0.55096000  0.33020000  1.0
