# generated using pymatgen
data_KH3C3N4O5
_symmetry_space_group_name_H-M   'P 1'
_cell_length_a   3.82310000
_cell_length_b   13.23960000
_cell_length_c   15.26690000
_cell_angle_alpha   90.00000000
_cell_angle_beta   89.99990000
_cell_angle_gamma   89.99980000
_symmetry_Int_Tables_number   1
_chemical_formula_structural   KH3C3N4O5
_chemical_formula_sum   'K4 H12 C12 N16 O20'
_cell_volume   772.75421580
_cell_formula_units_Z   4
loop_
 _symmetry_equiv_pos_site_id
 _symmetry_equiv_pos_as_xyz
  1  'x, y, z'
loop_
 _atom_site_type_symbol
 _atom_site_label
 _atom_site_symmetry_multiplicity
 _atom_site_fract_x
 _atom_site_fract_y
 _atom_site_fract_z
 _atom_site_occupancy
  K  K0  1  0.82980000  0.93026000  0.59189000  1.0
  K  K1  1  0.17020000  0.06974000  0.09189000  1.0
  K  K2  1  0.82981000  0.56974000  0.09189000  1.0
  K  K3  1  0.17019000  0.43026000  0.59189000  1.0
  H  H4  1  0.26236000  0.12216000  0.60236000  1.0
  H  H5  1  0.73763000  0.87784000  0.10236000  1.0
  H  H6  1  0.26237000  0.37784000  0.10236000  1.0
  H  H7  1  0.73763000  0.62216000  0.60236000  1.0
  H  H8  1  0.41296000  0.09095000  0.69423000  1.0
  H  H9  1  0.58704000  0.90905000  0.19423000  1.0
  H  H10  1  0.41297000  0.40905000  0.19423000  1.0
  H  H11  1  0.58703000  0.59095000  0.69423000  1.0
  H  H12  1  0.49376000  0.50049000  0.87535000  1.0
  H  H13  1  0.50623000  0.49951000  0.37535000  1.0
  H  H14  1  0.49376000  0.99951000  0.37535000  1.0
  H  H15  1  0.50624000  0.00049000  0.87535000  1.0
  C  C16  1  0.40691000  0.57843000  0.87193000  1.0
  C  C17  1  0.59310000  0.42157000  0.37193000  1.0
  C  C18  1  0.40690000  0.92157000  0.37193000  1.0
  C  C19  1  0.59310000  0.07843000  0.87193000  1.0
  C  C20  1  0.29901000  0.72464000  0.82093000  1.0
  C  C21  1  0.70099000  0.27535000  0.32093000  1.0
  C  C22  1  0.29902000  0.77535000  0.32093000  1.0
  C  C23  1  0.70099000  0.22464000  0.82093000  1.0
  C  C24  1  0.20724000  0.72112000  0.91065000  1.0
  C  C25  1  0.79276000  0.27888000  0.41065000  1.0
  C  C26  1  0.20725000  0.77888000  0.41065000  1.0
  C  C27  1  0.79275000  0.22112000  0.91065000  1.0
  N  N28  1  0.27492000  0.62782000  0.94231000  1.0
  N  N29  1  0.72508000  0.37218000  0.44231000  1.0
  N  N30  1  0.27492000  0.87218000  0.44231000  1.0
  N  N31  1  0.72507000  0.12782000  0.94231000  1.0
  N  N32  1  0.42531000  0.63312000  0.79757000  1.0
  N  N33  1  0.57470000  0.36688000  0.29757000  1.0
  N  N34  1  0.42530000  0.86688000  0.29757000  1.0
  N  N35  1  0.57470000  0.13312000  0.79757000  1.0
  N  N36  1  0.23481000  0.80031000  0.75667000  1.0
  N  N37  1  0.76519000  0.19969000  0.25667000  1.0
  N  N38  1  0.23481000  0.69969000  0.25667000  1.0
  N  N39  1  0.76520000  0.30031000  0.75667000  1.0
  N  N40  1  0.08214000  0.79834000  0.96787000  1.0
  N  N41  1  0.91786000  0.20166000  0.46787000  1.0
  N  N42  1  0.08215000  0.70166000  0.46787000  1.0
  N  N43  1  0.91785000  0.29834000  0.96787000  1.0
  O  O44  1  0.37879000  0.79087000  0.68353000  1.0
  O  O45  1  0.62121000  0.20913000  0.18353000  1.0
  O  O46  1  0.37878000  0.70912000  0.18353000  1.0
  O  O47  1  0.62122000  0.29088000  0.68353000  1.0
  O  O48  1  0.03233000  0.87116000  0.77515000  1.0
  O  O49  1  0.96766000  0.12884000  0.27515000  1.0
  O  O50  1  0.03233000  0.62884000  0.27515000  1.0
  O  O51  1  0.96767000  0.37116000  0.77515000  1.0
  O  O52  1  0.16473000  0.88759000  0.95388000  1.0
  O  O53  1  0.83527000  0.11240000  0.45388000  1.0
  O  O54  1  0.16474000  0.61240000  0.45388000  1.0
  O  O55  1  0.83526000  0.38760000  0.95388000  1.0
  O  O56  1  0.89524000  0.77108000  0.03121000  1.0
  O  O57  1  0.10476000  0.22893000  0.53121000  1.0
  O  O58  1  0.89524000  0.72892000  0.53122000  1.0
  O  O59  1  0.10476000  0.27107000  0.03121000  1.0
  O  O60  1  0.33086000  0.06304000  0.63704000  1.0
  O  O61  1  0.66914000  0.93696000  0.13704000  1.0
  O  O62  1  0.33087000  0.43696000  0.13704000  1.0
  O  O63  1  0.66913000  0.56304000  0.63704000  1.0
