# generated using pymatgen
data_CuH12C13S2Br
_symmetry_space_group_name_H-M   'P 1'
_cell_length_a   6.44202000
_cell_length_b   12.51850000
_cell_length_c   16.77460000
_cell_angle_alpha   93.11860000
_cell_angle_beta   90.00000000
_cell_angle_gamma   90.00000000
_symmetry_Int_Tables_number   1
_chemical_formula_structural   CuH12C13S2Br
_chemical_formula_sum   'Cu4 H48 C52 S8 Br4'
_cell_volume   1350.77463105
_cell_formula_units_Z   4
loop_
 _symmetry_equiv_pos_site_id
 _symmetry_equiv_pos_as_xyz
  1  'x, y, z'
loop_
 _atom_site_type_symbol
 _atom_site_label
 _atom_site_symmetry_multiplicity
 _atom_site_fract_x
 _atom_site_fract_y
 _atom_site_fract_z
 _atom_site_occupancy
  Cu  Cu0  1  0.55821000  0.51421000  0.44558000  1.0
  Cu  Cu1  1  0.44178000  0.01420000  0.94558000  1.0
  Cu  Cu2  1  0.57252000  0.29057000  0.43446000  1.0
  Cu  Cu3  1  0.42749000  0.79056000  0.93447000  1.0
  H  H4  1  0.00974000  0.54801000  0.29777000  1.0
  H  H5  1  0.99024000  0.04800000  0.79777000  1.0
  H  H6  1  0.98772000  0.61067000  0.16154000  1.0
  H  H7  1  0.01226000  0.11068000  0.66153000  1.0
  H  H8  1  0.20798000  0.76248000  0.12061000  1.0
  H  H9  1  0.79201000  0.26249000  0.62062000  1.0
  H  H10  1  0.45581000  0.84857000  0.21697000  1.0
  H  H11  1  0.54420000  0.34858000  0.71698000  1.0
  H  H12  1  0.48747000  0.78422000  0.35354000  1.0
  H  H13  1  0.51255000  0.28423000  0.85355000  1.0
  H  H14  1  0.07178000  0.80932000  0.53249000  1.0
  H  H15  1  0.92821000  0.30932000  0.03247000  1.0
  H  H16  1  0.07078000  0.90220000  0.66684000  1.0
  H  H17  1  0.92922000  0.40220000  0.16682000  1.0
  H  H18  1  0.82101000  0.84740000  0.77031000  1.0
  H  H19  1  0.17898000  0.34741000  0.27030000  1.0
  H  H20  1  0.58923000  0.69083000  0.74203000  1.0
  H  H21  1  0.41077000  0.19084000  0.24202000  1.0
  H  H22  1  0.59806000  0.59332000  0.60869000  1.0
  H  H23  1  0.40193000  0.09333000  0.10869000  1.0
  H  H24  1  0.32408000  0.20301000  0.58541000  1.0
  H  H25  1  0.67592000  0.70301000  0.08542000  1.0
  H  H26  1  0.41599000  0.07052000  0.68490000  1.0
  H  H27  1  0.58400000  0.57052000  0.18490000  1.0
  H  H28  1  0.49241000  0.88237000  0.64035000  1.0
  H  H29  1  0.50759000  0.38237000  0.14035000  1.0
  H  H30  1  0.46715000  0.82447000  0.49659000  1.0
  H  H31  1  0.53286000  0.32447000  0.99659000  1.0
  H  H32  1  0.36502000  0.95590000  0.39668000  1.0
  H  H33  1  0.63501000  0.45590000  0.89668000  1.0
  H  H34  1  0.88956000  0.94848000  0.44819000  1.0
  H  H35  1  0.11045000  0.44848000  0.94820000  1.0
  H  H36  1  0.89743000  0.81454000  0.33240000  1.0
  H  H37  1  0.10257000  0.31453000  0.83241000  1.0
  H  H38  1  0.85362000  0.87460000  0.19430000  1.0
  H  H39  1  0.14636000  0.37460000  0.69431000  1.0
  H  H40  1  0.80310000  0.06766000  0.17174000  1.0
  H  H41  1  0.19690000  0.56765000  0.67174000  1.0
  H  H42  1  0.79465000  0.20100000  0.28716000  1.0
  H  H43  1  0.20536000  0.70100000  0.78716000  1.0
  H  H44  1  0.08239000  0.51621000  0.51301000  1.0
  H  H45  1  0.91760000  0.01620000  0.01301000  1.0
  H  H46  1  0.01961000  0.49092000  0.41006000  1.0
  H  H47  1  0.98037000  0.99091000  0.91006000  1.0
  H  H48  1  0.04137000  0.30631000  0.39079000  1.0
  H  H49  1  0.95865000  0.80631000  0.89079000  1.0
  H  H50  1  0.10256000  0.30284000  0.49480000  1.0
  H  H51  1  0.89746000  0.80285000  0.99480000  1.0
  C  C52  1  0.24979000  0.66278000  0.33526000  1.0
  C  C53  1  0.75021000  0.16279000  0.83526000  1.0
  C  C54  1  0.10944000  0.61357000  0.28115000  1.0
  C  C55  1  0.89056000  0.11358000  0.78114000  1.0
  C  C56  1  0.09542000  0.64969000  0.20392000  1.0
  C  C57  1  0.90457000  0.14969000  0.70392000  1.0
  C  C58  1  0.21853000  0.73421000  0.18076000  1.0
  C  C59  1  0.78147000  0.23422000  0.68076000  1.0
  C  C60  1  0.35928000  0.78251000  0.23484000  1.0
  C  C61  1  0.64073000  0.28252000  0.73484000  1.0
  C  C62  1  0.37613000  0.74685000  0.31172000  1.0
  C  C63  1  0.62388000  0.24686000  0.81172000  1.0
  C  C64  1  0.83360000  0.69593000  0.56251000  1.0
  C  C65  1  0.16639000  0.19593000  0.06250000  1.0
  C  C66  1  0.96777000  0.78264000  0.57862000  1.0
  C  C67  1  0.03221000  0.28264000  0.07861000  1.0
  C  C68  1  0.96600000  0.83511000  0.65420000  1.0
  C  C69  1  0.03399000  0.33511000  0.15419000  1.0
  C  C70  1  0.82841000  0.80307000  0.71261000  1.0
  C  C71  1  0.17158000  0.30309000  0.21260000  1.0
  C  C72  1  0.69623000  0.71624000  0.69649000  1.0
  C  C73  1  0.30376000  0.21625000  0.19648000  1.0
  C  C74  1  0.69927000  0.66190000  0.62164000  1.0
  C  C75  1  0.30072000  0.16190000  0.12163000  1.0
  C  C76  1  0.33802000  0.08675000  0.48521000  1.0
  C  C77  1  0.66199000  0.58675000  0.98521000  1.0
  C  C78  1  0.35005000  0.11948000  0.56629000  1.0
  C  C79  1  0.64995000  0.61948000  0.06630000  1.0
  C  C80  1  0.40417000  0.04538000  0.62178000  1.0
  C  C81  1  0.59583000  0.54538000  0.12179000  1.0
  C  C82  1  0.44824000  0.93947000  0.59671000  1.0
  C  C83  1  0.55176000  0.43947000  0.09671000  1.0
  C  C84  1  0.43486000  0.90732000  0.51591000  1.0
  C  C85  1  0.56515000  0.40732000  0.01591000  1.0
  C  C86  1  0.37783000  0.98036000  0.45985000  1.0
  C  C87  1  0.62219000  0.48037000  0.95985000  1.0
  C  C88  1  0.84165000  0.08219000  0.37420000  1.0
  C  C89  1  0.15836000  0.58219000  0.87420000  1.0
  C  C90  1  0.86982000  0.97370000  0.38747000  1.0
  C  C91  1  0.13018000  0.47370000  0.88748000  1.0
  C  C92  1  0.87358000  0.89904000  0.32247000  1.0
  C  C93  1  0.12643000  0.39904000  0.82248000  1.0
  C  C94  1  0.84973000  0.93281000  0.24498000  1.0
  C  C95  1  0.15026000  0.43281000  0.74498000  1.0
  C  C96  1  0.82172000  0.04125000  0.23220000  1.0
  C  C97  1  0.17826000  0.54125000  0.73221000  1.0
  C  C98  1  0.81674000  0.11628000  0.29669000  1.0
  C  C99  1  0.18327000  0.61628000  0.79669000  1.0
  C  C100  1  0.05245000  0.55375000  0.45654000  1.0
  C  C101  1  0.94754000  0.05374000  0.95654000  1.0
  C  C102  1  0.07129000  0.25366000  0.43984000  1.0
  C  C103  1  0.92872000  0.75366000  0.93985000  1.0
  S  S104  1  0.28474000  0.62626000  0.43494000  1.0
  S  S105  1  0.71525000  0.12626000  0.93494000  1.0
  S  S106  1  0.81921000  0.63567000  0.46371000  1.0
  S  S107  1  0.18078000  0.13566000  0.96370000  1.0
  S  S108  1  0.83971000  0.17534000  0.45859000  1.0
  S  S109  1  0.16030000  0.67534000  0.95859000  1.0
  S  S110  1  0.29895000  0.17755000  0.40866000  1.0
  S  S111  1  0.70106000  0.67755000  0.90866000  1.0
  Br  Br112  1  0.65800000  0.40822000  0.32433000  1.0
  Br  Br113  1  0.34200000  0.90822000  0.82433000  1.0
  Br  Br114  1  0.46549000  0.40264000  0.55538000  1.0
  Br  Br115  1  0.53453000  0.90264000  0.05538000  1.0
