# generated using pymatgen
data_Mg3P4H24C14(NO9)2
_symmetry_space_group_name_H-M   'P 1'
_cell_length_a   6.94701000
_cell_length_b   9.63894000
_cell_length_c   10.31810000
_cell_angle_alpha   78.64720000
_cell_angle_beta   86.77350000
_cell_angle_gamma   79.55110000
_symmetry_Int_Tables_number   1
_chemical_formula_structural   Mg3P4H24C14(NO9)2
_chemical_formula_sum   'Mg3 P4 H24 C14 N2 O18'
_cell_volume   666.01483269
_cell_formula_units_Z   1
loop_
 _symmetry_equiv_pos_site_id
 _symmetry_equiv_pos_as_xyz
  1  'x, y, z'
loop_
 _atom_site_type_symbol
 _atom_site_label
 _atom_site_symmetry_multiplicity
 _atom_site_fract_x
 _atom_site_fract_y
 _atom_site_fract_z
 _atom_site_occupancy
  Mg  Mg0  1  0.50000000  0.50000000  0.00000000  1.0
  Mg  Mg1  1  0.29605000  0.05010000  0.05037000  1.0
  Mg  Mg2  1  0.70395000  0.94990000  0.94963000  1.0
  P  P3  1  0.45929000  0.73892000  0.18377000  1.0
  P  P4  1  0.54071000  0.26108000  0.81623000  1.0
  P  P5  1  0.14756000  0.78777000  0.97809000  1.0
  P  P6  1  0.85244000  0.21223000  0.02191000  1.0
  H  H7  1  0.36481000  0.40535000  0.61840000  1.0
  H  H8  1  0.63519000  0.59465000  0.38160000  1.0
  H  H9  1  0.99167000  0.96491000  0.15815000  1.0
  H  H10  1  0.00833000  0.03509000  0.84185000  1.0
  H  H11  1  0.19384000  0.34685000  0.07871000  1.0
  H  H12  1  0.80616000  0.65314000  0.92129000  1.0
  H  H13  1  0.36136000  0.29607000  0.17759000  1.0
  H  H14  1  0.63864000  0.70392000  0.82241000  1.0
  H  H15  1  0.58588000  0.08172000  0.17954000  1.0
  H  H16  1  0.41412000  0.91828000  0.82046000  1.0
  H  H17  1  0.45160000  0.99803000  0.28176000  1.0
  H  H18  1  0.54840000  0.00197000  0.71824000  1.0
  H  H19  1  0.91403000  0.71469000  0.22223000  1.0
  H  H20  1  0.08597000  0.28531000  0.77777000  1.0
  H  H21  1  0.10727000  0.56995000  0.20627000  1.0
  H  H22  1  0.89273000  0.43005000  0.79373000  1.0
  H  H23  1  0.30707000  0.44640000  0.39111000  1.0
  H  H24  1  0.69293000  0.55360000  0.60889000  1.0
  H  H25  1  0.23491000  0.57134000  0.75637000  1.0
  H  H26  1  0.76509000  0.42866000  0.24363000  1.0
  H  H27  1  0.99763000  0.79522000  0.66365000  1.0
  H  H28  1  0.00237000  0.20478000  0.33635000  1.0
  H  H29  1  0.91412000  0.84021000  0.42237000  1.0
  H  H30  1  0.08588000  0.15980000  0.57763000  1.0
  C  C31  1  0.18929000  0.77850000  0.15812000  1.0
  C  C32  1  0.81071000  0.22150000  0.84187000  1.0
  C  C33  1  0.07005000  0.67234000  0.24127000  1.0
  C  C34  1  0.92995000  0.32766000  0.75873000  1.0
  C  C35  1  0.10683000  0.64880000  0.38608000  1.0
  C  C36  1  0.89317000  0.35120000  0.61392000  1.0
  C  C37  1  0.23415000  0.52747000  0.44594000  1.0
  C  C38  1  0.76585000  0.47253000  0.55406000  1.0
  C  C39  1  0.19241000  0.59850000  0.65323000  1.0
  C  C40  1  0.80759000  0.40150000  0.34677000  1.0
  C  C41  1  0.06356000  0.72151000  0.59935000  1.0
  C  C42  1  0.93644000  0.27849000  0.40065000  1.0
  C  C43  1  0.01891000  0.74614000  0.46581000  1.0
  C  C44  1  0.98109000  0.25386000  0.53419000  1.0
  N  N45  1  0.27238000  0.50486000  0.57556000  1.0
  N  N46  1  0.72762000  0.49514000  0.42444000  1.0
  O  O47  1  0.53741000  0.59085000  0.15405000  1.0
  O  O48  1  0.46259000  0.40915000  0.84595000  1.0
  O  O49  1  0.51797000  0.86463000  0.07908000  1.0
  O  O50  1  0.48203000  0.13537000  0.92092000  1.0
  O  O51  1  0.50751000  0.75150000  0.32362000  1.0
  O  O52  1  0.49249000  0.24850000  0.67638000  1.0
  O  O53  1  0.27934000  0.66515000  0.92917000  1.0
  O  O54  1  0.72066000  0.33485000  0.07083000  1.0
  O  O55  1  0.19650000  0.93907000  0.91120000  1.0
  O  O56  1  0.80350000  0.06093000  0.08880000  1.0
  O  O57  1  0.92836000  0.78734000  0.96326000  1.0
  O  O58  1  0.07165000  0.21266000  0.03674000  1.0
  O  O59  1  0.13115000  0.92151000  0.18829000  1.0
  O  O60  1  0.86886000  0.07849000  0.81171000  1.0
  O  O61  1  0.29128000  0.38405000  0.12324000  1.0
  O  O62  1  0.70872000  0.61595000  0.87676000  1.0
  O  O63  1  0.44875000  0.08839000  0.21742000  1.0
  O  O64  1  0.55125000  0.91161000  0.78258000  1.0
