# generated using pymatgen
data_CdH6(CO3)2
_symmetry_space_group_name_H-M   'P 1'
_cell_length_a   7.29462000
_cell_length_b   9.01966000
_cell_length_c   9.84001000
_cell_angle_alpha   82.60090000
_cell_angle_beta   89.99970000
_cell_angle_gamma   89.99910000
_symmetry_Int_Tables_number   1
_chemical_formula_structural   CdH6(CO3)2
_chemical_formula_sum   'Cd4 H24 C8 O24'
_cell_volume   642.03240692
_cell_formula_units_Z   4
loop_
 _symmetry_equiv_pos_site_id
 _symmetry_equiv_pos_as_xyz
  1  'x, y, z'
loop_
 _atom_site_type_symbol
 _atom_site_label
 _atom_site_symmetry_multiplicity
 _atom_site_fract_x
 _atom_site_fract_y
 _atom_site_fract_z
 _atom_site_occupancy
  Cd  Cd0  1  0.50000000  0.00000000  0.50000000  1.0
  Cd  Cd1  1  0.00000000  0.00000000  0.00000000  1.0
  Cd  Cd2  1  0.00000000  0.50000000  0.50000000  1.0
  Cd  Cd3  1  0.50000000  0.50000000  0.00000000  1.0
  H  H4  1  0.74955000  0.07079000  0.74454000  1.0
  H  H5  1  0.24955000  0.92922000  0.75548000  1.0
  H  H6  1  0.25045000  0.92921000  0.25547000  1.0
  H  H7  1  0.75046000  0.07077000  0.24452000  1.0
  H  H8  1  0.46218000  0.32809000  0.62895000  1.0
  H  H9  1  0.96219000  0.67192000  0.87105000  1.0
  H  H10  1  0.53781000  0.67191000  0.37105000  1.0
  H  H11  1  0.03781000  0.32808000  0.12895000  1.0
  H  H12  1  0.08078000  0.19935000  0.48368000  1.0
  H  H13  1  0.58078000  0.80064000  0.01634000  1.0
  H  H14  1  0.91922000  0.80065000  0.51632000  1.0
  H  H15  1  0.41922000  0.19936000  0.98366000  1.0
  H  H16  1  0.86845000  0.23646000  0.45764000  1.0
  H  H17  1  0.36845000  0.76353000  0.04238000  1.0
  H  H18  1  0.13155000  0.76354000  0.54237000  1.0
  H  H19  1  0.63155000  0.23647000  0.95762000  1.0
  H  H20  1  0.10626000  0.29593000  0.73144000  1.0
  H  H21  1  0.60627000  0.70407000  0.76857000  1.0
  H  H22  1  0.89374000  0.70406000  0.26856000  1.0
  H  H23  1  0.39373000  0.29593000  0.23143000  1.0
  H  H24  1  0.15525000  0.45747000  0.77476000  1.0
  H  H25  1  0.65526000  0.54253000  0.72524000  1.0
  H  H26  1  0.84475000  0.54252000  0.22524000  1.0
  H  H27  1  0.34474000  0.45748000  0.27476000  1.0
  C  C28  1  0.68699000  0.96523000  0.79229000  1.0
  C  C29  1  0.18699000  0.03478000  0.70772000  1.0
  C  C30  1  0.31301000  0.03478000  0.20771000  1.0
  C  C31  1  0.81302000  0.96521000  0.29229000  1.0
  C  C32  1  0.60059000  0.33178000  0.58265000  1.0
  C  C33  1  0.10059000  0.66822000  0.91735000  1.0
  C  C34  1  0.39941000  0.66822000  0.41735000  1.0
  C  C35  1  0.89941000  0.33178000  0.08265000  1.0
  O  O36  1  0.57733000  0.89744000  0.72122000  1.0
  O  O37  1  0.07732000  0.10257000  0.77878000  1.0
  O  O38  1  0.42267000  0.10256000  0.27878000  1.0
  O  O39  1  0.92269000  0.89742000  0.22123000  1.0
  O  O40  1  0.22995000  0.08274000  0.58464000  1.0
  O  O41  1  0.72995000  0.91725000  0.91536000  1.0
  O  O42  1  0.77005000  0.91725000  0.41536000  1.0
  O  O43  1  0.27005000  0.08275000  0.08464000  1.0
  O  O44  1  0.70114000  0.44304000  0.59780000  1.0
  O  O45  1  0.20115000  0.55696000  0.90220000  1.0
  O  O46  1  0.29885000  0.55697000  0.40220000  1.0
  O  O47  1  0.79885000  0.44303000  0.09780000  1.0
  O  O48  1  0.64970000  0.22437000  0.51778000  1.0
  O  O49  1  0.14970000  0.77563000  0.98223000  1.0
  O  O50  1  0.35030000  0.77563000  0.48222000  1.0
  O  O51  1  0.85030000  0.22437000  0.01777000  1.0
  O  O52  1  0.99504000  0.26551000  0.42498000  1.0
  O  O53  1  0.49504000  0.73448000  0.07504000  1.0
  O  O54  1  0.00496000  0.73449000  0.57502000  1.0
  O  O55  1  0.50496000  0.26552000  0.92496000  1.0
  O  O56  1  0.14598000  0.39857000  0.69554000  1.0
  O  O57  1  0.64599000  0.60143000  0.80446000  1.0
  O  O58  1  0.85402000  0.60142000  0.30446000  1.0
  O  O59  1  0.35401000  0.39858000  0.19554000  1.0
