# generated using pymatgen
data_Cu5Ni2H24C22I5N12
_symmetry_space_group_name_H-M   'P 1'
_cell_length_a   12.62470000
_cell_length_b   13.99890000
_cell_length_c   22.65500000
_cell_angle_alpha   89.99990000
_cell_angle_beta   98.83950000
_cell_angle_gamma   89.99970000
_symmetry_Int_Tables_number   1
_chemical_formula_structural   Cu5Ni2H24C22I5N12
_chemical_formula_sum   'Cu20 Ni8 H96 C88 I20 N48'
_cell_volume   3956.30633061
_cell_formula_units_Z   4
loop_
 _symmetry_equiv_pos_site_id
 _symmetry_equiv_pos_as_xyz
  1  'x, y, z'
loop_
 _atom_site_type_symbol
 _atom_site_label
 _atom_site_symmetry_multiplicity
 _atom_site_fract_x
 _atom_site_fract_y
 _atom_site_fract_z
 _atom_site_occupancy
  Cu  Cu0  1  0.70476000  0.32140000  0.30727000  1.0
  Cu  Cu1  1  0.79523000  0.82140000  0.19273000  1.0
  Cu  Cu2  1  0.29524000  0.67860000  0.69273000  1.0
  Cu  Cu3  1  0.20476000  0.17860000  0.80727000  1.0
  Cu  Cu4  1  0.51682000  0.32901000  0.25915000  1.0
  Cu  Cu5  1  0.98318000  0.82901000  0.24085000  1.0
  Cu  Cu6  1  0.48318000  0.67099000  0.74085000  1.0
  Cu  Cu7  1  0.01682000  0.17098000  0.75915000  1.0
  Cu  Cu8  1  0.67352000  0.39362000  0.18696000  1.0
  Cu  Cu9  1  0.82648000  0.89362000  0.31305000  1.0
  Cu  Cu10  1  0.32649000  0.60638000  0.81304000  1.0
  Cu  Cu11  1  0.17351000  0.10638000  0.68695000  1.0
  Cu  Cu12  1  0.50452000  0.30420000  0.14450000  1.0
  Cu  Cu13  1  0.99548000  0.80420000  0.35550000  1.0
  Cu  Cu14  1  0.49548000  0.69580000  0.85550000  1.0
  Cu  Cu15  1  0.00452000  0.19580000  0.64450000  1.0
  Cu  Cu16  1  0.48518000  0.47282000  0.18706000  1.0
  Cu  Cu17  1  0.01483000  0.97282000  0.31294000  1.0
  Cu  Cu18  1  0.51482000  0.52718000  0.81294000  1.0
  Cu  Cu19  1  0.98518000  0.02718000  0.68706000  1.0
  Ni  Ni20  1  0.11095000  0.42305000  0.46736000  1.0
  Ni  Ni21  1  0.38905000  0.92305000  0.03264000  1.0
  Ni  Ni22  1  0.88905000  0.57696000  0.53263000  1.0
  Ni  Ni23  1  0.61095000  0.07695000  0.96737000  1.0
  Ni  Ni24  1  0.36619000  0.88607000  0.21313000  1.0
  Ni  Ni25  1  0.13381000  0.38607000  0.28688000  1.0
  Ni  Ni26  1  0.63381000  0.11393000  0.78688000  1.0
  Ni  Ni27  1  0.86619000  0.61393000  0.71312000  1.0
  H  H28  1  0.12735000  0.93902000  0.08888000  1.0
  H  H29  1  0.37265000  0.43902000  0.41112000  1.0
  H  H30  1  0.87265000  0.06098000  0.91112000  1.0
  H  H31  1  0.62736000  0.56097000  0.58888000  1.0
  H  H32  1  0.09596000  0.93955000  0.16251000  1.0
  H  H33  1  0.40404000  0.43955000  0.33749000  1.0
  H  H34  1  0.90404000  0.06045000  0.83749000  1.0
  H  H35  1  0.59596000  0.56045000  0.66251000  1.0
  H  H36  1  0.88489000  0.46706000  0.36151000  1.0
  H  H37  1  0.61511000  0.96706000  0.13849000  1.0
  H  H38  1  0.11511000  0.53294000  0.63849000  1.0
  H  H39  1  0.38489000  0.03294000  0.86151000  1.0
  H  H40  1  0.17439000  0.77377000  0.47313000  1.0
  H  H41  1  0.32562000  0.27378000  0.02687000  1.0
  H  H42  1  0.82562000  0.22623000  0.52687000  1.0
  H  H43  1  0.67439000  0.72623000  0.97313000  1.0
  H  H44  1  0.96657000  0.58236000  0.36978000  1.0
  H  H45  1  0.53343000  0.08235000  0.13022000  1.0
  H  H46  1  0.03343000  0.41764000  0.63022000  1.0
  H  H47  1  0.46657000  0.91764000  0.86978000  1.0
  H  H48  1  0.61186000  0.78649000  0.26709000  1.0
  H  H49  1  0.88814000  0.28649000  0.23291000  1.0
  H  H50  1  0.38814000  0.21351000  0.73291000  1.0
  H  H51  1  0.11186000  0.71351000  0.76709000  1.0
  H  H52  1  0.19451000  0.25116000  0.57742000  1.0
  H  H53  1  0.30549000  0.75116000  0.92258000  1.0
  H  H54  1  0.80549000  0.74884000  0.42258000  1.0
  H  H55  1  0.69451000  0.24884000  0.07742000  1.0
  H  H56  1  0.24706000  0.18451000  0.52221000  1.0
  H  H57  1  0.25294000  0.68451000  0.97779000  1.0
  H  H58  1  0.75294000  0.81549000  0.47779000  1.0
  H  H59  1  0.74706000  0.31549000  0.02221000  1.0
  H  H60  1  0.15776000  0.77758000  0.09530000  1.0
  H  H61  1  0.34225000  0.27759000  0.40471000  1.0
  H  H62  1  0.84224000  0.22241000  0.90470000  1.0
  H  H63  1  0.65775000  0.72241000  0.59529000  1.0
  H  H64  1  0.36950000  0.46139000  0.58108000  1.0
  H  H65  1  0.13050000  0.96139000  0.91892000  1.0
  H  H66  1  0.63051000  0.53861000  0.41892000  1.0
  H  H67  1  0.86950000  0.03861000  0.08108000  1.0
  H  H68  1  0.25712000  0.40848000  0.60620000  1.0
  H  H69  1  0.24289000  0.90848000  0.89380000  1.0
  H  H70  1  0.74289000  0.59152000  0.39380000  1.0
  H  H71  1  0.75711000  0.09152000  0.10620000  1.0
  H  H72  1  0.08077000  0.15512000  0.46967000  1.0
  H  H73  1  0.41923000  0.65511000  0.03033000  1.0
  H  H74  1  0.91923000  0.84489000  0.53033000  1.0
  H  H75  1  0.58077000  0.34488000  0.96967000  1.0
  H  H76  1  0.38478000  0.28825000  0.57724000  1.0
  H  H77  1  0.11522000  0.78826000  0.92276000  1.0
  H  H78  1  0.61522000  0.71174000  0.42275000  1.0
  H  H79  1  0.88478000  0.21174000  0.07725000  1.0
  H  H80  1  0.35892000  0.32865000  0.50214000  1.0
  H  H81  1  0.14108000  0.82866000  0.99786000  1.0
  H  H82  1  0.64108000  0.67134000  0.49786000  1.0
  H  H83  1  0.85892000  0.17134000  0.00214000  1.0
  H  H84  1  0.27678000  0.57368000  0.11334000  1.0
  H  H85  1  0.22323000  0.07368000  0.38666000  1.0
  H  H86  1  0.72322000  0.42632000  0.88666000  1.0
  H  H87  1  0.77677000  0.92632000  0.61334000  1.0
  H  H88  1  0.66178000  0.06603000  0.33374000  1.0
  H  H89  1  0.83822000  0.56603000  0.16626000  1.0
  H  H90  1  0.33822000  0.93397000  0.66626000  1.0
  H  H91  1  0.16178000  0.43397000  0.83374000  1.0
  H  H92  1  0.13855000  0.10119000  0.13191000  1.0
  H  H93  1  0.36145000  0.60119000  0.36809000  1.0
  H  H94  1  0.86145000  0.89881000  0.86809000  1.0
  H  H95  1  0.63855000  0.39881000  0.63191000  1.0
  H  H96  1  0.26704000  0.06558000  0.11799000  1.0
  H  H97  1  0.23296000  0.56558000  0.38201000  1.0
  H  H98  1  0.73296000  0.93441000  0.88201000  1.0
  H  H99  1  0.76704000  0.43441000  0.61800000  1.0
  H  H100  1  0.86855000  0.16756000  0.37412000  1.0
  H  H101  1  0.63145000  0.66756000  0.12588000  1.0
  H  H102  1  0.13145000  0.83244000  0.62588000  1.0
  H  H103  1  0.36855000  0.33244000  0.87412000  1.0
  H  H104  1  0.42264000  0.13198000  0.27812000  1.0
  H  H105  1  0.07735000  0.63198000  0.22188000  1.0
  H  H106  1  0.57736000  0.86802000  0.72188000  1.0
  H  H107  1  0.92265000  0.36802000  0.77812000  1.0
  H  H108  1  0.29597000  0.60400000  0.55337000  1.0
  H  H109  1  0.20404000  0.10400000  0.94663000  1.0
  H  H110  1  0.70404000  0.39600000  0.44662000  1.0
  H  H111  1  0.79597000  0.89600000  0.05337000  1.0
  H  H112  1  0.18781000  0.04785000  0.23884000  1.0
  H  H113  1  0.31219000  0.54784000  0.26116000  1.0
  H  H114  1  0.81219000  0.95215000  0.76116000  1.0
  H  H115  1  0.68781000  0.45216000  0.73884000  1.0
  H  H116  1  0.26498000  0.14642000  0.21882000  1.0
  H  H117  1  0.23502000  0.64643000  0.28118000  1.0
  H  H118  1  0.73501000  0.85357000  0.78118000  1.0
  H  H119  1  0.76498000  0.35358000  0.71882000  1.0
  H  H120  1  0.51510000  0.67944000  0.24741000  1.0
  H  H121  1  0.98491000  0.17944000  0.25259000  1.0
  H  H122  1  0.48491000  0.32056000  0.75259000  1.0
  H  H123  1  0.01509000  0.82056000  0.74741000  1.0
  C  C124  1  0.16166000  0.95034000  0.13605000  1.0
  C  C125  1  0.33834000  0.45034000  0.36395000  1.0
  C  C126  1  0.83834000  0.04965000  0.86395000  1.0
  C  C127  1  0.66166000  0.54965000  0.63605000  1.0
  C  C128  1  0.30211000  0.72120000  0.15245000  1.0
  C  C129  1  0.19790000  0.22119000  0.34755000  1.0
  C  C130  1  0.69789000  0.27880000  0.84755000  1.0
  C  C131  1  0.80210000  0.77880000  0.65245000  1.0
  C  C132  1  0.90736000  0.39511000  0.37594000  1.0
  C  C133  1  0.59264000  0.89511000  0.12406000  1.0
  C  C134  1  0.09264000  0.60489000  0.62406000  1.0
  C  C135  1  0.40736000  0.10489000  0.87594000  1.0
  C  C136  1  0.13694000  0.70647000  0.45816000  1.0
  C  C137  1  0.36306000  0.20647000  0.04185000  1.0
  C  C138  1  0.86306000  0.29353000  0.54185000  1.0
  C  C139  1  0.63694000  0.79353000  0.95816000  1.0
  C  C140  1  0.02792000  0.60746000  0.40506000  1.0
  C  C141  1  0.47209000  0.10746000  0.09494000  1.0
  C  C142  1  0.97209000  0.39254000  0.59494000  1.0
  C  C143  1  0.52791000  0.89254000  0.90506000  1.0
  C  C144  1  0.15911000  0.61433000  0.47949000  1.0
  C  C145  1  0.34089000  0.11433000  0.02052000  1.0
  C  C146  1  0.84089000  0.38567000  0.52051000  1.0
  C  C147  1  0.65912000  0.88567000  0.97949000  1.0
  C  C148  1  0.59390000  0.85940000  0.27799000  1.0
  C  C149  1  0.90609000  0.35940000  0.22201000  1.0
  C  C150  1  0.40609000  0.14060000  0.72201000  1.0
  C  C151  1  0.09391000  0.64060000  0.77799000  1.0
  C  C152  1  0.22588000  0.25724000  0.53463000  1.0
  C  C153  1  0.27412000  0.75724000  0.96537000  1.0
  C  C154  1  0.77412000  0.74276000  0.46537000  1.0
  C  C155  1  0.72588000  0.24276000  0.03463000  1.0
  C  C156  1  0.22642000  0.79199000  0.12969000  1.0
  C  C157  1  0.27359000  0.29199000  0.37032000  1.0
  C  C158  1  0.77358000  0.20801000  0.87031000  1.0
  C  C159  1  0.72641000  0.70801000  0.62969000  1.0
  C  C160  1  0.29675000  0.41903000  0.56645000  1.0
  C  C161  1  0.20325000  0.91904000  0.93355000  1.0
  C  C162  1  0.70325000  0.58096000  0.43355000  1.0
  C  C163  1  0.79675000  0.08096000  0.06645000  1.0
  C  C164  1  0.51513000  0.99688000  0.28333000  1.0
  C  C165  1  0.98486000  0.49687000  0.21667000  1.0
  C  C166  1  0.48487000  0.00313000  0.71667000  1.0
  C  C167  1  0.01514000  0.50313000  0.78333000  1.0
  C  C168  1  0.07331000  0.23180000  0.46086000  1.0
  C  C169  1  0.42669000  0.73179000  0.03914000  1.0
  C  C170  1  0.92669000  0.76820000  0.53914000  1.0
  C  C171  1  0.57331000  0.26820000  0.96086000  1.0
  C  C172  1  0.32395000  0.32154000  0.54356000  1.0
  C  C173  1  0.17605000  0.82154000  0.95644000  1.0
  C  C174  1  0.67605000  0.67846000  0.45643000  1.0
  C  C175  1  0.82395000  0.17846000  0.04357000  1.0
  C  C176  1  0.32144000  0.62486000  0.14344000  1.0
  C  C177  1  0.17857000  0.12485000  0.35656000  1.0
  C  C178  1  0.67857000  0.37514000  0.85656000  1.0
  C  C179  1  0.82142000  0.87514000  0.64344000  1.0
  C  C180  1  0.62036000  0.00460000  0.31202000  1.0
  C  C181  1  0.87964000  0.50460000  0.18798000  1.0
  C  C182  1  0.37964000  0.99541000  0.68798000  1.0
  C  C183  1  0.12036000  0.49541000  0.81202000  1.0
  C  C184  1  0.98958000  0.27143000  0.41942000  1.0
  C  C185  1  0.51042000  0.77142000  0.08058000  1.0
  C  C186  1  0.01042000  0.72857000  0.58058000  1.0
  C  C187  1  0.48958000  0.22857000  0.91942000  1.0
  C  C188  1  0.20491000  0.05124000  0.14580000  1.0
  C  C189  1  0.29509000  0.55124000  0.35420000  1.0
  C  C190  1  0.79509000  0.94876000  0.85420000  1.0
  C  C191  1  0.70491000  0.44876000  0.64580000  1.0
  C  C192  1  0.89867000  0.23973000  0.38220000  1.0
  C  C193  1  0.60133000  0.73973000  0.11780000  1.0
  C  C194  1  0.10133000  0.76027000  0.61779000  1.0
  C  C195  1  0.39867000  0.26027000  0.88221000  1.0
  C  C196  1  0.42555000  0.05684000  0.26514000  1.0
  C  C197  1  0.07444000  0.55684000  0.23486000  1.0
  C  C198  1  0.57444000  0.94316000  0.73486000  1.0
  C  C199  1  0.92556000  0.44316000  0.76514000  1.0
  C  C200  1  0.23418000  0.56683000  0.52241000  1.0
  C  C201  1  0.26583000  0.06683000  0.97759000  1.0
  C  C202  1  0.76583000  0.43317000  0.47759000  1.0
  C  C203  1  0.73418000  0.93317000  0.02241000  1.0
  C  C204  1  0.24813000  0.06976000  0.21116000  1.0
  C  C205  1  0.25187000  0.56976000  0.28884000  1.0
  C  C206  1  0.75187000  0.93024000  0.78884000  1.0
  C  C207  1  0.74813000  0.43024000  0.71116000  1.0
  C  C208  1  0.44544000  0.67939000  0.21289000  1.0
  C  C209  1  0.05456000  0.17939000  0.28712000  1.0
  C  C210  1  0.55456000  0.32061000  0.78711000  1.0
  C  C211  1  0.94544000  0.82061000  0.71288000  1.0
  I  I212  1  0.32805000  0.34304000  0.19860000  1.0
  I  I213  1  0.17195000  0.84304000  0.30140000  1.0
  I  I214  1  0.67195000  0.65696000  0.80140000  1.0
  I  I215  1  0.82805000  0.15696000  0.69860000  1.0
  I  I216  1  0.66862000  0.20606000  0.21125000  1.0
  I  I217  1  0.83138000  0.70606000  0.28876000  1.0
  I  I218  1  0.33138000  0.79394000  0.78875000  1.0
  I  I219  1  0.16862000  0.29394000  0.71125000  1.0
  I  I220  1  0.63356000  0.50101000  0.28313000  1.0
  I  I221  1  0.86644000  0.00101000  0.21687000  1.0
  I  I222  1  0.36644000  0.49899000  0.71687000  1.0
  I  I223  1  0.13356000  0.99899000  0.78313000  1.0
  I  I224  1  0.56361000  0.45613000  0.08381000  1.0
  I  I225  1  0.93639000  0.95614000  0.41619000  1.0
  I  I226  1  0.43639000  0.54387000  0.91619000  1.0
  I  I227  1  0.06360000  0.04387000  0.58381000  1.0
  I  I228  1  0.55541000  0.25911000  0.37009000  1.0
  I  I229  1  0.94459000  0.75910000  0.12990000  1.0
  I  I230  1  0.44459000  0.74089000  0.62990000  1.0
  I  I231  1  0.05541000  0.24089000  0.87010000  1.0
  N  N232  1  0.14030000  0.29343000  0.48940000  1.0
  N  N233  1  0.35970000  0.79343000  0.01060000  1.0
  N  N234  1  0.85970000  0.70657000  0.51059000  1.0
  N  N235  1  0.64030000  0.20657000  0.98941000  1.0
  N  N236  1  0.24197000  0.87652000  0.15395000  1.0
  N  N237  1  0.25803000  0.37652000  0.34605000  1.0
  N  N238  1  0.75803000  0.12348000  0.84605000  1.0
  N  N239  1  0.74197000  0.62348000  0.65395000  1.0
  N  N240  1  0.38197000  0.75466000  0.19677000  1.0
  N  N241  1  0.11803000  0.25466000  0.30323000  1.0
  N  N242  1  0.61803000  0.24534000  0.80323000  1.0
  N  N243  1  0.88196000  0.74534000  0.69677000  1.0
  N  N244  1  0.66932000  0.91809000  0.30804000  1.0
  N  N245  1  0.83067000  0.41809000  0.19196000  1.0
  N  N246  1  0.33067000  0.08191000  0.69196000  1.0
  N  N247  1  0.16933000  0.58191000  0.80804000  1.0
  N  N248  1  0.22530000  0.47357000  0.52237000  1.0
  N  N249  1  0.27471000  0.97357000  0.97763000  1.0
  N  N250  1  0.77471000  0.52643000  0.47762000  1.0
  N  N251  1  0.72530000  0.02643000  0.02238000  1.0
  N  N252  1  0.49962000  0.90343000  0.26231000  1.0
  N  N253  1  0.00037000  0.40342000  0.23769000  1.0
  N  N254  1  0.50038000  0.09658000  0.73769000  1.0
  N  N255  1  0.99963000  0.59658000  0.76231000  1.0
  N  N256  1  0.05454000  0.70121000  0.41139000  1.0
  N  N257  1  0.44546000  0.20121000  0.08861000  1.0
  N  N258  1  0.94546000  0.29879000  0.58861000  1.0
  N  N259  1  0.55454000  0.79879000  0.91140000  1.0
  N  N260  1  0.99420000  0.37046000  0.41481000  1.0
  N  N261  1  0.50580000  0.87046000  0.08519000  1.0
  N  N262  1  0.00580000  0.62954000  0.58519000  1.0
  N  N263  1  0.49420000  0.12953000  0.91481000  1.0
  N  N264  1  0.41171000  0.59940000  0.18161000  1.0
  N  N265  1  0.08830000  0.09940000  0.31839000  1.0
  N  N266  1  0.58830000  0.40060000  0.81839000  1.0
  N  N267  1  0.91170000  0.90060000  0.68161000  1.0
  N  N268  1  0.34579000  0.01608000  0.23066000  1.0
  N  N269  1  0.15421000  0.51608000  0.26934000  1.0
  N  N270  1  0.65421000  0.98392000  0.76934000  1.0
  N  N271  1  0.84579000  0.48392000  0.73066000  1.0
  N  N272  1  0.84730000  0.31814000  0.35523000  1.0
  N  N273  1  0.65270000  0.81814000  0.14477000  1.0
  N  N274  1  0.15270000  0.68186000  0.64477000  1.0
  N  N275  1  0.34730000  0.18186000  0.85523000  1.0
  N  N276  1  0.08820000  0.55225000  0.44528000  1.0
  N  N277  1  0.41180000  0.05225000  0.05472000  1.0
  N  N278  1  0.91180000  0.44775000  0.55472000  1.0
  N  N279  1  0.58820000  0.94775000  0.94528000  1.0
