# generated using pymatgen
data_CuH5C3SIN3
_symmetry_space_group_name_H-M   'P 1'
_cell_length_a   5.65970000
_cell_length_b   9.98871000
_cell_length_c   13.07930000
_cell_angle_alpha   89.99940000
_cell_angle_beta   89.99980000
_cell_angle_gamma   83.64610000
_symmetry_Int_Tables_number   1
_chemical_formula_structural   CuH5C3SIN3
_chemical_formula_sum   'Cu4 H20 C12 S4 I4 N12'
_cell_volume   734.87139501
_cell_formula_units_Z   4
loop_
 _symmetry_equiv_pos_site_id
 _symmetry_equiv_pos_as_xyz
  1  'x, y, z'
loop_
 _atom_site_type_symbol
 _atom_site_label
 _atom_site_symmetry_multiplicity
 _atom_site_fract_x
 _atom_site_fract_y
 _atom_site_fract_z
 _atom_site_occupancy
  Cu  Cu0  1  0.24129000  0.98702000  0.49865000  1.0
  Cu  Cu1  1  0.25870000  0.51297000  0.99865000  1.0
  Cu  Cu2  1  0.75870000  0.01298000  0.50134000  1.0
  Cu  Cu3  1  0.74130000  0.48703000  0.00135000  1.0
  H  H4  1  0.60508000  0.34279000  0.51514000  1.0
  H  H5  1  0.89491000  0.15720000  0.01515000  1.0
  H  H6  1  0.39493000  0.65721000  0.48485000  1.0
  H  H7  1  0.10508000  0.84279000  0.98485000  1.0
  H  H8  1  0.99768000  0.50910000  0.65666000  1.0
  H  H9  1  0.50231000  0.99090000  0.15667000  1.0
  H  H10  1  0.00234000  0.49092000  0.34334000  1.0
  H  H11  1  0.49770000  0.00909000  0.84334000  1.0
  H  H12  1  0.98971000  0.13772000  0.68732000  1.0
  H  H13  1  0.51030000  0.36228000  0.18731000  1.0
  H  H14  1  0.01027000  0.86230000  0.31268000  1.0
  H  H15  1  0.48970000  0.63772000  0.81269000  1.0
  H  H16  1  0.84110000  0.29723000  0.72732000  1.0
  H  H17  1  0.65890000  0.20277000  0.22731000  1.0
  H  H18  1  0.15890000  0.70279000  0.27268000  1.0
  H  H19  1  0.34110000  0.79722000  0.77269000  1.0
  H  H20  1  0.08695000  0.22044000  0.79965000  1.0
  H  H21  1  0.41307000  0.27957000  0.29964000  1.0
  H  H22  1  0.91306000  0.77957000  0.20036000  1.0
  H  H23  1  0.58692000  0.72044000  0.70035000  1.0
  C  C24  1  0.37671000  0.24572000  0.61483000  1.0
  C  C25  1  0.12329000  0.25428000  0.11483000  1.0
  C  C26  1  0.62329000  0.75429000  0.38517000  1.0
  C  C27  1  0.87670000  0.74571000  0.88517000  1.0
  C  C28  1  0.14392000  0.43744000  0.63145000  1.0
  C  C29  1  0.35608000  0.06255000  0.13145000  1.0
  C  C30  1  0.85611000  0.56256000  0.36855000  1.0
  C  C31  1  0.64390000  0.93744000  0.86854000  1.0
  C  C32  1  0.01258000  0.23527000  0.72239000  1.0
  C  C33  1  0.48742000  0.26473000  0.22238000  1.0
  C  C34  1  0.98741000  0.76474000  0.27761000  1.0
  C  C35  1  0.51257000  0.73527000  0.77761000  1.0
  S  S36  1  0.48316000  0.08048000  0.62492000  1.0
  S  S37  1  0.01684000  0.41952000  0.12492000  1.0
  S  S38  1  0.51683000  0.91953000  0.37508000  1.0
  S  S39  1  0.98315000  0.58047000  0.87508000  1.0
  I  I40  1  0.98381000  0.19114000  0.40868000  1.0
  I  I41  1  0.51620000  0.30886000  0.90868000  1.0
  I  I42  1  0.01619000  0.80886000  0.59133000  1.0
  I  I43  1  0.48380000  0.69113000  0.09133000  1.0
  N  N44  1  0.31810000  0.46669000  0.57220000  1.0
  N  N45  1  0.18189000  0.03330000  0.07221000  1.0
  N  N46  1  0.68190000  0.53332000  0.42780000  1.0
  N  N47  1  0.81811000  0.96668000  0.92779000  1.0
  N  N48  1  0.46076000  0.34750000  0.56308000  1.0
  N  N49  1  0.03924000  0.15250000  0.06309000  1.0
  N  N50  1  0.53922000  0.65250000  0.43692000  1.0
  N  N51  1  0.96080000  0.84750000  0.93692000  1.0
  N  N52  1  0.17135000  0.30472000  0.65934000  1.0
  N  N53  1  0.32866000  0.19528000  0.15934000  1.0
  N  N54  1  0.82866000  0.69529000  0.34066000  1.0
  N  N55  1  0.67133000  0.80472000  0.84066000  1.0
