# generated using pymatgen
data_MoH2C2NO3
_symmetry_space_group_name_H-M   'P 1'
_cell_length_a   7.46814000
_cell_length_b   7.67436000
_cell_length_c   13.90160000
_cell_angle_alpha   90.00320000
_cell_angle_beta   90.00170000
_cell_angle_gamma   89.99980000
_symmetry_Int_Tables_number   1
_chemical_formula_structural   MoH2C2NO3
_chemical_formula_sum   'Mo8 H16 C16 N8 O24'
_cell_volume   796.74510849
_cell_formula_units_Z   8
loop_
 _symmetry_equiv_pos_site_id
 _symmetry_equiv_pos_as_xyz
  1  'x, y, z'
loop_
 _atom_site_type_symbol
 _atom_site_label
 _atom_site_symmetry_multiplicity
 _atom_site_fract_x
 _atom_site_fract_y
 _atom_site_fract_z
 _atom_site_occupancy
  Mo  Mo0  1  0.08167000  0.46777000  0.72721000  1.0
  Mo  Mo1  1  0.08161000  0.96772000  0.77279000  1.0
  Mo  Mo2  1  0.41834000  0.46776000  0.22721000  1.0
  Mo  Mo3  1  0.58162000  0.03227000  0.72720000  1.0
  Mo  Mo4  1  0.91833000  0.53222000  0.27279000  1.0
  Mo  Mo5  1  0.91838000  0.03228000  0.22721000  1.0
  Mo  Mo6  1  0.58166000  0.53225000  0.77279000  1.0
  Mo  Mo7  1  0.41837000  0.96772000  0.27279000  1.0
  H  H8  1  0.86636000  0.27004000  0.90336000  1.0
  H  H9  1  0.86634000  0.77007000  0.59662000  1.0
  H  H10  1  0.63360000  0.27005000  0.40336000  1.0
  H  H11  1  0.36635000  0.22996000  0.90337000  1.0
  H  H12  1  0.13362000  0.72997000  0.09665000  1.0
  H  H13  1  0.13366000  0.22994000  0.40338000  1.0
  H  H14  1  0.36639000  0.72994000  0.59663000  1.0
  H  H15  1  0.63367000  0.77004000  0.09663000  1.0
  H  H16  1  0.21803000  0.68796000  0.92228000  1.0
  H  H17  1  0.21804000  0.18794000  0.57775000  1.0
  H  H18  1  0.28198000  0.68796000  0.42227000  1.0
  H  H19  1  0.71802000  0.81205000  0.92225000  1.0
  H  H20  1  0.78197000  0.31204000  0.07773000  1.0
  H  H21  1  0.78199000  0.81207000  0.42225000  1.0
  H  H22  1  0.71802000  0.31204000  0.57773000  1.0
  H  H23  1  0.28199000  0.18796000  0.07774000  1.0
  C  C24  1  0.92560000  0.37307000  0.94666000  1.0
  C  C25  1  0.92557000  0.87309000  0.55334000  1.0
  C  C26  1  0.57439000  0.37308000  0.44666000  1.0
  C  C27  1  0.42557000  0.12692000  0.94665000  1.0
  C  C28  1  0.07441000  0.62693000  0.05335000  1.0
  C  C29  1  0.07444000  0.12691000  0.44667000  1.0
  C  C30  1  0.42559000  0.62691000  0.55334000  1.0
  C  C31  1  0.57446000  0.87308000  0.05333000  1.0
  C  C32  1  0.11976000  0.60468000  0.95700000  1.0
  C  C33  1  0.11977000  0.10467000  0.54303000  1.0
  C  C34  1  0.38023000  0.60468000  0.45699000  1.0
  C  C35  1  0.61976000  0.89533000  0.95697000  1.0
  C  C36  1  0.88024000  0.39532000  0.04302000  1.0
  C  C37  1  0.88026000  0.89533000  0.45697000  1.0
  C  C38  1  0.61976000  0.39532000  0.54302000  1.0
  C  C39  1  0.38025000  0.10468000  0.04301000  1.0
  N  N40  1  0.04466000  0.47855000  0.90374000  1.0
  N  N41  1  0.04467000  0.97854000  0.59628000  1.0
  N  N42  1  0.45532000  0.47854000  0.40373000  1.0
  N  N43  1  0.54468000  0.02147000  0.90373000  1.0
  N  N44  1  0.95531000  0.52147000  0.09627000  1.0
  N  N45  1  0.95533000  0.02147000  0.40373000  1.0
  N  N46  1  0.54469000  0.52147000  0.59627000  1.0
  N  N47  1  0.45535000  0.97855000  0.09626000  1.0
  O  O48  1  0.06664000  0.23773000  0.74567000  1.0
  O  O49  1  0.06607000  0.73771000  0.75432000  1.0
  O  O50  1  0.43328000  0.23772000  0.24568000  1.0
  O  O51  1  0.56607000  0.26228000  0.74568000  1.0
  O  O52  1  0.93328000  0.76227000  0.25433000  1.0
  O  O53  1  0.93400000  0.26229000  0.24567000  1.0
  O  O54  1  0.56665000  0.76229000  0.75431000  1.0
  O  O55  1  0.43400000  0.73770000  0.25432000  1.0
  O  O56  1  0.31858000  0.49909000  0.75736000  1.0
  O  O57  1  0.31863000  0.99854000  0.74264000  1.0
  O  O58  1  0.18142000  0.49915000  0.25736000  1.0
  O  O59  1  0.81862000  0.00146000  0.75734000  1.0
  O  O60  1  0.68143000  0.50085000  0.24264000  1.0
  O  O61  1  0.68135000  0.00152000  0.25736000  1.0
  O  O62  1  0.81859000  0.50090000  0.74263000  1.0
  O  O63  1  0.18137000  0.99847000  0.24265000  1.0
  O  O64  1  0.08511000  0.48581000  0.60456000  1.0
  O  O65  1  0.08515000  0.98582000  0.89544000  1.0
  O  O66  1  0.41488000  0.48580000  0.10456000  1.0
  O  O67  1  0.58513000  0.01419000  0.60456000  1.0
  O  O68  1  0.91489000  0.51418000  0.39544000  1.0
  O  O69  1  0.91483000  0.01419000  0.10456000  1.0
  O  O70  1  0.58513000  0.51419000  0.89544000  1.0
  O  O71  1  0.41484000  0.98579000  0.39544000  1.0
