# generated using pymatgen
data_CuH12C20N6(OF)4
_symmetry_space_group_name_H-M   'P 1'
_cell_length_a   9.51127000
_cell_length_b   9.82696000
_cell_length_c   22.89860000
_cell_angle_alpha   90.00000000
_cell_angle_beta   91.43420000
_cell_angle_gamma   89.99990000
_symmetry_Int_Tables_number   1
_chemical_formula_structural   CuH12C20N6(OF)4
_chemical_formula_sum   'Cu4 H48 C80 N24 O16 F16'
_cell_volume   2139.58998214
_cell_formula_units_Z   4
loop_
 _symmetry_equiv_pos_site_id
 _symmetry_equiv_pos_as_xyz
  1  'x, y, z'
loop_
 _atom_site_type_symbol
 _atom_site_label
 _atom_site_symmetry_multiplicity
 _atom_site_fract_x
 _atom_site_fract_y
 _atom_site_fract_z
 _atom_site_occupancy
  Cu  Cu0  1  0.55872000  0.54239000  0.75922000  1.0
  Cu  Cu1  1  0.94128000  0.04239000  0.74078000  1.0
  Cu  Cu2  1  0.44128000  0.45761000  0.24078000  1.0
  Cu  Cu3  1  0.05872000  0.95761000  0.25922000  1.0
  H  H4  1  0.43569000  0.51337000  0.88899000  1.0
  H  H5  1  0.06431000  0.01337000  0.61101000  1.0
  H  H6  1  0.56431000  0.48663000  0.11101000  1.0
  H  H7  1  0.93569000  0.98663000  0.38899000  1.0
  H  H8  1  0.59490000  0.21461000  0.77634000  1.0
  H  H9  1  0.90510000  0.71460000  0.72366000  1.0
  H  H10  1  0.40510000  0.78540000  0.22366000  1.0
  H  H11  1  0.09490000  0.28539000  0.27634000  1.0
  H  H12  1  0.60396000  0.01654000  0.85572000  1.0
  H  H13  1  0.89605000  0.51654000  0.64428000  1.0
  H  H14  1  0.39605000  0.98346000  0.14428000  1.0
  H  H15  1  0.10395000  0.48346000  0.35572000  1.0
  H  H16  1  0.41818000  0.01108000  0.85302000  1.0
  H  H17  1  0.08182000  0.51108000  0.64698000  1.0
  H  H18  1  0.58183000  0.98892000  0.14698000  1.0
  H  H19  1  0.91818000  0.48891000  0.35302000  1.0
  H  H20  1  0.33462000  0.59826000  0.65911000  1.0
  H  H21  1  0.16538000  0.09826000  0.84089000  1.0
  H  H22  1  0.66538000  0.40174000  0.34089000  1.0
  H  H23  1  0.83462000  0.90174000  0.15911000  1.0
  H  H24  1  0.65163000  0.86130000  0.72457000  1.0
  H  H25  1  0.84837000  0.36130000  0.77543000  1.0
  H  H26  1  0.34837000  0.13870000  0.27543000  1.0
  H  H27  1  0.15163000  0.63870000  0.22457000  1.0
  H  H28  1  0.62305000  0.04809000  0.64339000  1.0
  H  H29  1  0.87695000  0.54809000  0.85661000  1.0
  H  H30  1  0.37695000  0.95191000  0.35661000  1.0
  H  H31  1  0.12305000  0.45191000  0.14339000  1.0
  H  H32  1  0.43950000  0.08515000  0.64418000  1.0
  H  H33  1  0.06050000  0.58515000  0.85582000  1.0
  H  H34  1  0.56049000  0.91485000  0.35583000  1.0
  H  H35  1  0.93951000  0.41485000  0.14417000  1.0
  H  H36  1  0.90827000  0.18368000  0.53288000  1.0
  H  H37  1  0.59173000  0.68368000  0.96712000  1.0
  H  H38  1  0.09173000  0.81632000  0.46712000  1.0
  H  H39  1  0.40827000  0.31632000  0.03288000  1.0
  H  H40  1  0.73551000  0.23861000  0.45371000  1.0
  H  H41  1  0.76449000  0.73861000  0.04629000  1.0
  H  H42  1  0.26449000  0.76139000  0.54629000  1.0
  H  H43  1  0.23551000  0.26139000  0.95371000  1.0
  H  H44  1  0.51011000  0.35475000  0.47679000  1.0
  H  H45  1  0.98988000  0.85475000  0.02321000  1.0
  H  H46  1  0.48988000  0.64525000  0.52321000  1.0
  H  H47  1  0.01012000  0.14525000  0.97679000  1.0
  H  H48  1  0.46450000  0.42282000  0.57941000  1.0
  H  H49  1  0.03549000  0.92282000  0.92060000  1.0
  H  H50  1  0.53549000  0.57718000  0.42059000  1.0
  H  H51  1  0.96451000  0.07718000  0.07940000  1.0
  C  C52  1  0.46789000  0.41565000  0.87178000  1.0
  C  C53  1  0.03212000  0.91566000  0.62822000  1.0
  C  C54  1  0.53211000  0.58434000  0.12822000  1.0
  C  C55  1  0.96789000  0.08434000  0.37178000  1.0
  C  C56  1  0.54898000  0.26662000  0.81307000  1.0
  C  C57  1  0.95103000  0.76662000  0.68693000  1.0
  C  C58  1  0.45103000  0.73338000  0.18693000  1.0
  C  C59  1  0.04897000  0.23338000  0.31307000  1.0
  C  C60  1  0.50878000  0.05939000  0.87512000  1.0
  C  C61  1  0.99123000  0.55939000  0.62487000  1.0
  C  C62  1  0.49123000  0.94061000  0.12488000  1.0
  C  C63  1  0.00877000  0.44061000  0.37512000  1.0
  C  C64  1  0.50404000  0.03116000  0.93931000  1.0
  C  C65  1  0.99597000  0.53116000  0.56069000  1.0
  C  C66  1  0.49597000  0.96884000  0.06069000  1.0
  C  C67  1  0.00403000  0.46884000  0.43931000  1.0
  C  C68  1  0.38947000  0.96426000  0.96311000  1.0
  C  C69  1  0.11054000  0.46426000  0.53689000  1.0
  C  C70  1  0.61054000  0.03574000  0.03689000  1.0
  C  C71  1  0.88947000  0.53574000  0.46311000  1.0
  C  C72  1  0.38567000  0.93385000  0.02235000  1.0
  C  C73  1  0.11434000  0.43385000  0.47765000  1.0
  C  C74  1  0.61435000  0.06616000  0.97765000  1.0
  C  C75  1  0.88566000  0.56615000  0.52235000  1.0
  C  C76  1  0.40059000  0.68729000  0.66544000  1.0
  C  C77  1  0.09940000  0.18728000  0.83456000  1.0
  C  C78  1  0.59940000  0.31271000  0.33456000  1.0
  C  C79  1  0.90059000  0.81271000  0.16544000  1.0
  C  C80  1  0.56562000  0.81693000  0.69860000  1.0
  C  C81  1  0.93438000  0.31692000  0.80140000  1.0
  C  C82  1  0.43438000  0.18307000  0.30140000  1.0
  C  C83  1  0.06562000  0.68307000  0.19860000  1.0
  C  C84  1  0.51839000  0.01360000  0.62822000  1.0
  C  C85  1  0.98161000  0.51360000  0.87178000  1.0
  C  C86  1  0.48160000  0.98640000  0.37178000  1.0
  C  C87  1  0.01840000  0.48640000  0.12822000  1.0
  C  C88  1  0.50827000  0.00628000  0.56243000  1.0
  C  C89  1  0.99173000  0.50627000  0.93757000  1.0
  C  C90  1  0.49172000  0.99373000  0.43757000  1.0
  C  C91  1  0.00828000  0.49372000  0.06243000  1.0
  C  C92  1  0.61859000  0.95558000  0.52979000  1.0
  C  C93  1  0.88140000  0.45558000  0.97021000  1.0
  C  C94  1  0.38139000  0.04442000  0.47021000  1.0
  C  C95  1  0.11860000  0.54442000  0.02979000  1.0
  C  C96  1  0.38910000  0.05063000  0.53102000  1.0
  C  C97  1  0.11089000  0.55062000  0.96898000  1.0
  C  C98  1  0.61089000  0.94938000  0.46898000  1.0
  C  C99  1  0.88911000  0.44938000  0.03102000  1.0
  C  C100  1  0.63860000  0.39976000  0.67278000  1.0
  C  C101  1  0.86140000  0.89976000  0.82722000  1.0
  C  C102  1  0.36140000  0.60024000  0.32722000  1.0
  C  C103  1  0.13860000  0.10024000  0.17278000  1.0
  C  C104  1  0.65900000  0.34060000  0.61361000  1.0
  C  C105  1  0.84100000  0.84060000  0.88639000  1.0
  C  C106  1  0.34100000  0.65940000  0.38639000  1.0
  C  C107  1  0.15900000  0.15940000  0.11361000  1.0
  C  C108  1  0.78376000  0.27037000  0.60079000  1.0
  C  C109  1  0.71623000  0.77037000  0.89921000  1.0
  C  C110  1  0.21623000  0.72963000  0.39921000  1.0
  C  C111  1  0.28377000  0.22963000  0.10079000  1.0
  C  C112  1  0.81055000  0.23566000  0.54301000  1.0
  C  C113  1  0.68945000  0.73567000  0.95699000  1.0
  C  C114  1  0.18945000  0.76433000  0.45699000  1.0
  C  C115  1  0.31055000  0.26433000  0.04301000  1.0
  C  C116  1  0.71305000  0.26673000  0.49844000  1.0
  C  C117  1  0.78695000  0.76673000  0.00156000  1.0
  C  C118  1  0.28695000  0.73327000  0.50156000  1.0
  C  C119  1  0.21305000  0.23327000  0.99844000  1.0
  C  C120  1  0.58720000  0.33181000  0.51139000  1.0
  C  C121  1  0.91280000  0.83181000  0.98861000  1.0
  C  C122  1  0.41280000  0.66819000  0.48861000  1.0
  C  C123  1  0.08720000  0.16819000  0.01139000  1.0
  C  C124  1  0.56064000  0.36926000  0.56882000  1.0
  C  C125  1  0.93935000  0.86925000  0.93118000  1.0
  C  C126  1  0.43936000  0.63074000  0.43118000  1.0
  C  C127  1  0.06065000  0.13074000  0.06882000  1.0
  C  C128  1  0.88412000  0.22012000  0.64778000  1.0
  C  C129  1  0.61588000  0.72012000  0.85222000  1.0
  C  C130  1  0.11588000  0.77988000  0.35222000  1.0
  C  C131  1  0.38412000  0.27989000  0.14778000  1.0
  N  N132  1  0.52433000  0.40037000  0.81778000  1.0
  N  N133  1  0.97566000  0.90037000  0.68222000  1.0
  N  N134  1  0.47566000  0.59963000  0.18222000  1.0
  N  N135  1  0.02434000  0.09963000  0.31778000  1.0
  N  N136  1  0.45588000  0.29880000  0.90003000  1.0
  N  N137  1  0.04412000  0.79881000  0.59997000  1.0
  N  N138  1  0.54412000  0.70119000  0.09997000  1.0
  N  N139  1  0.95588000  0.20119000  0.40003000  1.0
  N  N140  1  0.50812000  0.20588000  0.86232000  1.0
  N  N141  1  0.99188000  0.70588000  0.63768000  1.0
  N  N142  1  0.49188000  0.79412000  0.13768000  1.0
  N  N143  1  0.00812000  0.29412000  0.36232000  1.0
  N  N144  1  0.50791000  0.69394000  0.70621000  1.0
  N  N145  1  0.99209000  0.19394000  0.79379000  1.0
  N  N146  1  0.49209000  0.30606000  0.29379000  1.0
  N  N147  1  0.00791000  0.80606000  0.20621000  1.0
  N  N148  1  0.38855000  0.79900000  0.63353000  1.0
  N  N149  1  0.11145000  0.29900000  0.86647000  1.0
  N  N150  1  0.61145000  0.20100000  0.36647000  1.0
  N  N151  1  0.88855000  0.70100000  0.13353000  1.0
  N  N152  1  0.49452000  0.87946000  0.65464000  1.0
  N  N153  1  0.00548000  0.37946000  0.84536000  1.0
  N  N154  1  0.50548000  0.12054000  0.34536000  1.0
  N  N155  1  0.99452000  0.62054000  0.15464000  1.0
  O  O156  1  0.74389000  0.44662000  0.70145000  1.0
  O  O157  1  0.75611000  0.94662000  0.79855000  1.0
  O  O158  1  0.25610000  0.55338000  0.29855000  1.0
  O  O159  1  0.24390000  0.05338000  0.20145000  1.0
  O  O160  1  0.51233000  0.40980000  0.69171000  1.0
  O  O161  1  0.98767000  0.90979000  0.80829000  1.0
  O  O162  1  0.48767000  0.59021000  0.30829000  1.0
  O  O163  1  0.01233000  0.09020000  0.19171000  1.0
  O  O164  1  0.82098000  0.14880000  0.68753000  1.0
  O  O165  1  0.67902000  0.64880000  0.81247000  1.0
  O  O166  1  0.17902000  0.85120000  0.31247000  1.0
  O  O167  1  0.32097000  0.35120000  0.18753000  1.0
  O  O168  1  0.01323000  0.23773000  0.64479000  1.0
  O  O169  1  0.48677000  0.73772000  0.85522000  1.0
  O  O170  1  0.98676000  0.76227000  0.35522000  1.0
  O  O171  1  0.51323000  0.26228000  0.14478000  1.0
  F  F172  1  0.27753000  0.93054000  0.92831000  1.0
  F  F173  1  0.22248000  0.43053000  0.57169000  1.0
  F  F174  1  0.72249000  0.06947000  0.07169000  1.0
  F  F175  1  0.77752000  0.56946000  0.42831000  1.0
  F  F176  1  0.27059000  0.87134000  0.04354000  1.0
  F  F177  1  0.22942000  0.37134000  0.45646000  1.0
  F  F178  1  0.72943000  0.12867000  0.95647000  1.0
  F  F179  1  0.77058000  0.62866000  0.54353000  1.0
  F  F180  1  0.73750000  0.91285000  0.55794000  1.0
  F  F181  1  0.76250000  0.41284000  0.94206000  1.0
  F  F182  1  0.26248000  0.08716000  0.44206000  1.0
  F  F183  1  0.23751000  0.58716000  0.05794000  1.0
  F  F184  1  0.27756000  0.10040000  0.55975000  1.0
  F  F185  1  0.22243000  0.60039000  0.94025000  1.0
  F  F186  1  0.72243000  0.89962000  0.44026000  1.0
  F  F187  1  0.77757000  0.39961000  0.05974000  1.0
