# generated using pymatgen
data_SmH21(C10O7)2
_symmetry_space_group_name_H-M   'P 1'
_cell_length_a   9.35220000
_cell_length_b   10.34750000
_cell_length_c   13.15210000
_cell_angle_alpha   100.45300000
_cell_angle_beta   96.93150000
_cell_angle_gamma   113.21600000
_symmetry_Int_Tables_number   1
_chemical_formula_structural   SmH21(C10O7)2
_chemical_formula_sum   'Sm2 H42 C40 O28'
_cell_volume   1123.96791203
_cell_formula_units_Z   2
loop_
 _symmetry_equiv_pos_site_id
 _symmetry_equiv_pos_as_xyz
  1  'x, y, z'
loop_
 _atom_site_type_symbol
 _atom_site_label
 _atom_site_symmetry_multiplicity
 _atom_site_fract_x
 _atom_site_fract_y
 _atom_site_fract_z
 _atom_site_occupancy
  Sm  Sm0  1  0.71057000  0.95030000  0.97950000  1.0
  Sm  Sm1  1  0.28943000  0.04970000  0.02050000  1.0
  H  H2  1  0.56185000  0.78409000  0.57300000  1.0
  H  H3  1  0.43815000  0.21592000  0.42701000  1.0
  H  H4  1  0.49255000  0.62929000  0.67398000  1.0
  H  H5  1  0.50746000  0.37071000  0.32602000  1.0
  H  H6  1  0.50046000  0.41882000  0.16382000  1.0
  H  H7  1  0.49954000  0.58118000  0.83618000  1.0
  H  H8  1  0.89344000  0.85817000  0.82963000  1.0
  H  H9  1  0.10656000  0.14183000  0.17037000  1.0
  H  H10  1  0.72517000  0.71985000  0.80640000  1.0
  H  H11  1  0.27483000  0.28015000  0.19360000  1.0
  H  H12  1  0.49032000  0.00901000  0.81668000  1.0
  H  H13  1  0.50968000  0.99099000  0.18332000  1.0
  H  H14  1  0.62367000  0.98625000  0.75744000  1.0
  H  H15  1  0.37633000  0.01376000  0.24256000  1.0
  H  H16  1  0.66502000  0.90444000  0.35853000  1.0
  H  H17  1  0.33498000  0.09557000  0.64147000  1.0
  H  H18  1  0.96398000  0.24606000  0.63333000  1.0
  H  H19  1  0.03603000  0.75394000  0.36667000  1.0
  H  H20  1  0.05971000  0.27836000  0.32335000  1.0
  H  H21  1  0.94029000  0.72164000  0.67665000  1.0
  H  H22  1  0.21824000  0.45196000  0.67833000  1.0
  H  H23  1  0.78176000  0.54804000  0.32167000  1.0
  H  H24  1  0.06353000  0.50202000  0.63452000  1.0
  H  H25  1  0.93647000  0.49798000  0.36548000  1.0
  H  H26  1  0.25541000  0.69379000  0.56367000  1.0
  H  H27  1  0.74459000  0.30621000  0.43633000  1.0
  H  H28  1  0.30649000  0.72293000  0.70342000  1.0
  H  H29  1  0.69352000  0.27707000  0.29658000  1.0
  H  H30  1  0.94041000  0.30104000  0.15341000  1.0
  H  H31  1  0.05959000  0.69896000  0.84659000  1.0
  H  H32  1  0.19318000  0.75128000  0.15039000  1.0
  H  H33  1  0.80681000  0.24871000  0.84961000  1.0
  H  H34  1  0.68585000  0.53870000  0.04807000  1.0
  H  H35  1  0.31416000  0.46130000  0.95192000  1.0
  H  H36  1  0.37871000  0.63110000  0.12714000  1.0
  H  H37  1  0.62129000  0.36890000  0.87286000  1.0
  H  H38  1  0.38031000  0.73535000  0.25209000  1.0
  H  H39  1  0.61969000  0.26465000  0.74791000  1.0
  H  H40  1  0.49651000  0.61331000  0.35091000  1.0
  H  H41  1  0.50349000  0.38669000  0.64909000  1.0
  H  H42  1  0.61087000  0.66681000  0.25424000  1.0
  H  H43  1  0.38913000  0.33319000  0.74576000  1.0
  C  C44  1  0.80510000  0.03171000  0.21074000  1.0
  C  C45  1  0.19490000  0.96829000  0.78926000  1.0
  C  C46  1  0.85722000  0.08435000  0.32818000  1.0
  C  C47  1  0.14278000  0.91565000  0.67182000  1.0
  C  C48  1  0.76794000  0.00740000  0.39322000  1.0
  C  C49  1  0.23207000  0.99260000  0.60678000  1.0
  C  C50  1  0.81013000  0.06520000  0.50259000  1.0
  C  C51  1  0.18988000  0.93480000  0.49740000  1.0
  C  C52  1  0.93808000  0.20227000  0.54801000  1.0
  C  C53  1  0.06193000  0.79773000  0.45199000  1.0
  C  C54  1  0.02731000  0.27831000  0.48221000  1.0
  C  C55  1  0.97270000  0.72169000  0.51778000  1.0
  C  C56  1  0.98907000  0.21685000  0.37277000  1.0
  C  C57  1  0.01093000  0.78315000  0.62723000  1.0
  C  C58  1  0.71498000  0.98379000  0.57241000  1.0
  C  C59  1  0.28502000  0.01622000  0.42761000  1.0
  C  C60  1  0.17590000  0.49924000  0.61930000  1.0
  C  C61  1  0.82410000  0.50076000  0.38071000  1.0
  C  C62  1  0.29668000  0.65235000  0.62680000  1.0
  C  C63  1  0.70332000  0.34765000  0.37320000  1.0
  C  C64  1  0.64242000  0.27354000  0.06946000  1.0
  C  C65  1  0.35757000  0.72646000  0.93053000  1.0
  C  C66  1  0.79621000  0.40577000  0.10008000  1.0
  C  C67  1  0.20379000  0.59422000  0.89991000  1.0
  C  C68  1  0.93888000  0.40174000  0.14090000  1.0
  C  C69  1  0.06112000  0.59826000  0.85910000  1.0
  C  C70  1  0.08204000  0.52760000  0.16363000  1.0
  C  C71  1  0.91796000  0.47239000  0.83636000  1.0
  C  C72  1  0.08351000  0.65408000  0.13901000  1.0
  C  C73  1  0.91649000  0.34592000  0.86099000  1.0
  C  C74  1  0.93954000  0.65610000  0.09752000  1.0
  C  C75  1  0.06046000  0.34390000  0.90248000  1.0
  C  C76  1  0.79572000  0.53442000  0.08125000  1.0
  C  C77  1  0.20429000  0.46558000  0.91874000  1.0
  C  C78  1  0.93814000  0.78597000  0.06338000  1.0
  C  C79  1  0.06186000  0.21403000  0.93661000  1.0
  C  C80  1  0.36724000  0.62800000  0.20915000  1.0
  C  C81  1  0.63275000  0.37200000  0.79085000  1.0
  C  C82  1  0.49416000  0.59373000  0.26566000  1.0
  C  C83  1  0.50584000  0.40627000  0.73434000  1.0
  O  O84  1  0.90339000  0.08404000  0.15312000  1.0
  O  O85  1  0.09661000  0.91596000  0.84688000  1.0
  O  O86  1  0.66174000  0.93958000  0.16809000  1.0
  O  O87  1  0.33826000  0.06042000  0.83191000  1.0
  O  O88  1  0.62679000  0.84427000  0.52600000  1.0
  O  O89  1  0.37321000  0.15573000  0.47400000  1.0
  O  O90  1  0.72076000  0.04491000  0.66405000  1.0
  O  O91  1  0.27925000  0.95509000  0.33594000  1.0
  O  O92  1  0.14994000  0.41356000  0.51421000  1.0
  O  O93  1  0.85006000  0.58644000  0.48580000  1.0
  O  O94  1  0.44950000  0.66033000  0.61428000  1.0
  O  O95  1  0.55050000  0.33967000  0.38572000  1.0
  O  O96  1  0.63639000  0.14715000  0.04060000  1.0
  O  O97  1  0.36360000  0.85285000  0.95940000  1.0
  O  O98  1  0.51430000  0.29170000  0.07004000  1.0
  O  O99  1  0.48570000  0.70830000  0.92996000  1.0
  O  O100  1  0.80413000  0.78735000  0.03730000  1.0
  O  O101  1  0.19587000  0.21265000  0.96270000  1.0
  O  O102  1  0.07081000  0.88518000  0.06054000  1.0
  O  O103  1  0.92918000  0.11482000  0.93946000  1.0
  O  O104  1  0.21473000  0.51597000  0.20855000  1.0
  O  O105  1  0.78526000  0.48403000  0.79145000  1.0
  O  O106  1  0.46565000  0.44462000  0.23062000  1.0
  O  O107  1  0.53435000  0.55537000  0.76938000  1.0
  O  O108  1  0.77736000  0.82681000  0.82512000  1.0
  O  O109  1  0.22264000  0.17319000  0.17488000  1.0
  O  O110  1  0.57160000  0.97005000  0.81873000  1.0
  O  O111  1  0.42839000  0.02995000  0.18127000  1.0
