# generated using pymatgen
data_Cu3H21(C5N2)4
_symmetry_space_group_name_H-M   'P 1'
_cell_length_a   11.28270000
_cell_length_b   11.44300000
_cell_length_c   12.69530000
_cell_angle_alpha   88.49350000
_cell_angle_beta   65.76230000
_cell_angle_gamma   68.28240000
_symmetry_Int_Tables_number   1
_chemical_formula_structural   Cu3H21(C5N2)4
_chemical_formula_sum   'Cu6 H42 C40 N16'
_cell_volume   1373.14356082
_cell_formula_units_Z   2
loop_
 _symmetry_equiv_pos_site_id
 _symmetry_equiv_pos_as_xyz
  1  'x, y, z'
loop_
 _atom_site_type_symbol
 _atom_site_label
 _atom_site_symmetry_multiplicity
 _atom_site_fract_x
 _atom_site_fract_y
 _atom_site_fract_z
 _atom_site_occupancy
  Cu  Cu0  1  0.82526000  0.11915000  0.40488000  1.0
  Cu  Cu1  1  0.17474000  0.88085000  0.59512000  1.0
  Cu  Cu2  1  0.13525000  0.94862000  0.99264000  1.0
  Cu  Cu3  1  0.86475000  0.05138000  0.00736000  1.0
  Cu  Cu4  1  0.36005000  0.18188000  0.70814000  1.0
  Cu  Cu5  1  0.63995000  0.81812000  0.29186000  1.0
  H  H6  1  0.52489000  0.66100000  0.55865000  1.0
  H  H7  1  0.47511000  0.33900000  0.44135000  1.0
  H  H8  1  0.55070000  0.50143000  0.58267000  1.0
  H  H9  1  0.44930000  0.49857000  0.41733000  1.0
  H  H10  1  0.62878000  0.58228000  0.63302000  1.0
  H  H11  1  0.37122000  0.41773000  0.36699000  1.0
  H  H12  1  0.38557000  0.82873000  0.77788000  1.0
  H  H13  1  0.61442000  0.17127000  0.22212000  1.0
  H  H14  1  0.12157000  0.09397000  0.28697000  1.0
  H  H15  1  0.87843000  0.90603000  0.71303000  1.0
  H  H16  1  0.02637000  0.74617000  0.06283000  1.0
  H  H17  1  0.97362000  0.25384000  0.93716000  1.0
  H  H18  1  0.11419000  0.57649000  0.03862000  1.0
  H  H19  1  0.88580000  0.42351000  0.96138000  1.0
  H  H20  1  0.00938000  0.65310000  0.96472000  1.0
  H  H21  1  0.99061000  0.34690000  0.03528000  1.0
  H  H22  1  0.29632000  0.40470000  0.84088000  1.0
  H  H23  1  0.70367000  0.59530000  0.15912000  1.0
  H  H24  1  0.42436000  0.39505000  0.69999000  1.0
  H  H25  1  0.57563000  0.60495000  0.30001000  1.0
  H  H26  1  0.13039000  0.66043000  0.71017000  1.0
  H  H27  1  0.86961000  0.33957000  0.28983000  1.0
  H  H28  1  0.96921000  0.64377000  0.62698000  1.0
  H  H29  1  0.03079000  0.35623000  0.37302000  1.0
  H  H30  1  0.96994000  0.42954000  0.58806000  1.0
  H  H31  1  0.03006000  0.57046000  0.41193000  1.0
  H  H32  1  0.24627000  0.13344000  0.60570000  1.0
  H  H33  1  0.75373000  0.86657000  0.39429000  1.0
  H  H34  1  0.07311000  0.17857000  0.71251000  1.0
  H  H35  1  0.92689000  0.82143000  0.28749000  1.0
  H  H36  1  0.39016000  0.03905000  0.28423000  1.0
  H  H37  1  0.60984000  0.96094000  0.71577000  1.0
  H  H38  1  0.37864000  0.12425000  0.40434000  1.0
  H  H39  1  0.62136000  0.87575000  0.59565000  1.0
  H  H40  1  0.33035000  0.20778000  0.29821000  1.0
  H  H41  1  0.66966000  0.79222000  0.70179000  1.0
  H  H42  1  0.78410000  0.31469000  0.70176000  1.0
  H  H43  1  0.21590000  0.68530000  0.29824000  1.0
  H  H44  1  0.85188000  0.15892000  0.73364000  1.0
  H  H45  1  0.14812000  0.84108000  0.26635000  1.0
  H  H46  1  0.74855000  0.19262000  0.65242000  1.0
  H  H47  1  0.25145000  0.80738000  0.34757000  1.0
  C  C48  1  0.53373000  0.59409000  0.62143000  1.0
  C  C49  1  0.46627000  0.40591000  0.37857000  1.0
  C  C50  1  0.40432000  0.63984000  0.73452000  1.0
  C  C51  1  0.59568000  0.36016000  0.26548000  1.0
  C  C52  1  0.31183000  0.58265000  0.79803000  1.0
  C  C53  1  0.68817000  0.41734000  0.20197000  1.0
  C  C54  1  0.20884000  0.67123000  0.89976000  1.0
  C  C55  1  0.79115000  0.32877000  0.10025000  1.0
  C  C56  1  0.08347000  0.66094000  0.99682000  1.0
  C  C57  1  0.91652000  0.33906000  0.00318000  1.0
  C  C58  1  0.31721000  0.45628000  0.76483000  1.0
  C  C59  1  0.68279000  0.54372000  0.23517000  1.0
  C  C60  1  0.21518000  0.45876000  0.71533000  1.0
  C  C61  1  0.78482000  0.54124000  0.28467000  1.0
  C  C62  1  0.12742000  0.56903000  0.69259000  1.0
  C  C63  1  0.87259000  0.43097000  0.30741000  1.0
  C  C64  1  0.03809000  0.55925000  0.64628000  1.0
  C  C65  1  0.96191000  0.44075000  0.35371000  1.0
  C  C66  1  0.03822000  0.44054000  0.62432000  1.0
  C  C67  1  0.96178000  0.55946000  0.37567000  1.0
  C  C68  1  0.12918000  0.33356000  0.64805000  1.0
  C  C69  1  0.87082000  0.66644000  0.35194000  1.0
  C  C70  1  0.13684000  0.20103000  0.62834000  1.0
  C  C71  1  0.86316000  0.79898000  0.37166000  1.0
  C  C72  1  0.32687000  0.12717000  0.34710000  1.0
  C  C73  1  0.67314000  0.87283000  0.65290000  1.0
  C  C74  1  0.17855000  0.14105000  0.41786000  1.0
  C  C75  1  0.82145000  0.85894000  0.58214000  1.0
  C  C76  1  0.09293000  0.17670000  0.53798000  1.0
  C  C77  1  0.90708000  0.82330000  0.46202000  1.0
  C  C78  1  0.95934000  0.17994000  0.55551000  1.0
  C  C79  1  0.04067000  0.82006000  0.44449000  1.0
  C  C80  1  0.82876000  0.21315000  0.66676000  1.0
  C  C81  1  0.17124000  0.78684000  0.33324000  1.0
  C  C82  1  0.01169000  0.01395000  0.14506000  1.0
  C  C83  1  0.98831000  0.98605000  0.85495000  1.0
  C  C84  1  0.30623000  0.08654000  0.82336000  1.0
  C  C85  1  0.69376000  0.91346000  0.17664000  1.0
  C  C86  1  0.64398000  0.14806000  0.50756000  1.0
  C  C87  1  0.35602000  0.85193000  0.49245000  1.0
  N  N88  1  0.23701000  0.77565000  0.89838000  1.0
  N  N89  1  0.76298000  0.22435000  0.10162000  1.0
  N  N90  1  0.35540000  0.75442000  0.79864000  1.0
  N  N91  1  0.64459000  0.24558000  0.20137000  1.0
  N  N92  1  0.21577000  0.34368000  0.69243000  1.0
  N  N93  1  0.78423000  0.65632000  0.30757000  1.0
  N  N94  1  0.09651000  0.12380000  0.37111000  1.0
  N  N95  1  0.90349000  0.87620000  0.62888000  1.0
  N  N96  1  0.96331000  0.14677000  0.45275000  1.0
  N  N97  1  0.03670000  0.85322000  0.54724000  1.0
  N  N98  1  0.94248000  0.05783000  0.24478000  1.0
  N  N99  1  0.05751000  0.94217000  0.75522000  1.0
  N  N100  1  0.26095000  0.02413000  0.89117000  1.0
  N  N101  1  0.73904000  0.97587000  0.10883000  1.0
  N  N102  1  0.53110000  0.16142000  0.57988000  1.0
  N  N103  1  0.46889000  0.83858000  0.42012000  1.0
