# generated using pymatgen
data_CuH13C9SIN
_symmetry_space_group_name_H-M   'P 1'
_cell_length_a   9.67177000
_cell_length_b   9.90367000
_cell_length_c   17.06450000
_cell_angle_alpha   90.00060000
_cell_angle_beta   90.00010000
_cell_angle_gamma   63.87900000
_symmetry_Int_Tables_number   1
_chemical_formula_structural   CuH13C9SIN
_chemical_formula_sum   'Cu4 H52 C36 S4 I4 N4'
_cell_volume   1467.59879050
_cell_formula_units_Z   4
loop_
 _symmetry_equiv_pos_site_id
 _symmetry_equiv_pos_as_xyz
  1  'x, y, z'
loop_
 _atom_site_type_symbol
 _atom_site_label
 _atom_site_symmetry_multiplicity
 _atom_site_fract_x
 _atom_site_fract_y
 _atom_site_fract_z
 _atom_site_occupancy
  Cu  Cu0  1  0.59040000  0.52600000  0.10392000  1.0
  Cu  Cu1  1  0.40960000  0.47400000  0.60392000  1.0
  Cu  Cu2  1  0.45414000  0.42717000  0.20202000  1.0
  Cu  Cu3  1  0.54586000  0.57283000  0.70202000  1.0
  H  H4  1  0.62235000  0.97394000  0.08734000  1.0
  H  H5  1  0.37764000  0.02606000  0.58734000  1.0
  H  H6  1  0.54020000  0.84349000  0.08776000  1.0
  H  H7  1  0.45980000  0.15650000  0.58775000  1.0
  H  H8  1  0.65172000  0.85299000  0.00637000  1.0
  H  H9  1  0.34828000  0.14700000  0.50636000  1.0
  H  H10  1  0.91234000  0.87836000  0.10273000  1.0
  H  H11  1  0.08766000  0.12164000  0.60272000  1.0
  H  H12  1  0.94333000  0.75909000  0.02109000  1.0
  H  H13  1  0.05667000  0.24091000  0.52108000  1.0
  H  H14  1  0.03381000  0.68247000  0.11240000  1.0
  H  H15  1  0.96618000  0.31754000  0.61239000  1.0
  H  H16  1  0.75689000  0.86600000  0.21947000  1.0
  H  H17  1  0.24309000  0.13400000  0.71946000  1.0
  H  H18  1  0.87645000  0.66909000  0.22749000  1.0
  H  H19  1  0.12354000  0.33091000  0.72748000  1.0
  H  H20  1  0.67192000  0.73826000  0.21988000  1.0
  H  H21  1  0.32807000  0.26174000  0.71987000  1.0
  H  H22  1  0.85004000  0.63012000  0.96178000  1.0
  H  H23  1  0.14997000  0.36987000  0.46178000  1.0
  H  H24  1  0.90953000  0.43488000  0.96653000  1.0
  H  H25  1  0.09047000  0.56512000  0.46653000  1.0
  H  H26  1  0.33865000  0.50558000  0.05216000  1.0
  H  H27  1  0.66134000  0.49441000  0.55216000  1.0
  H  H28  1  0.12159000  0.48931000  0.98213000  1.0
  H  H29  1  0.87842000  0.51069000  0.48214000  1.0
  H  H30  1  0.09470000  0.52749000  0.83647000  1.0
  H  H31  1  0.90531000  0.47251000  0.33648000  1.0
  H  H32  1  0.28757000  0.57764000  0.76162000  1.0
  H  H33  1  0.71244000  0.42236000  0.26162000  1.0
  H  H34  1  0.89353000  0.45983000  0.82458000  1.0
  H  H35  1  0.10647000  0.54018000  0.32458000  1.0
  H  H36  1  0.82877000  0.65495000  0.83616000  1.0
  H  H37  1  0.17122000  0.34506000  0.33615000  1.0
  H  H38  1  0.70506000  0.92201000  0.58829000  1.0
  H  H39  1  0.29494000  0.07798000  0.08829000  1.0
  H  H40  1  0.62099000  0.79371000  0.58566000  1.0
  H  H41  1  0.37902000  0.20628000  0.08566000  1.0
  H  H42  1  0.82436000  0.72683000  0.57336000  1.0
  H  H43  1  0.17564000  0.27316000  0.07335000  1.0
  H  H44  1  0.87479000  0.91808000  0.70236000  1.0
  H  H45  1  0.12521000  0.08193000  0.20236000  1.0
  H  H46  1  0.99303000  0.72330000  0.68612000  1.0
  H  H47  1  0.00697000  0.27671000  0.18612000  1.0
  H  H48  1  0.91244000  0.79014000  0.78057000  1.0
  H  H49  1  0.08757000  0.20987000  0.28057000  1.0
  H  H50  1  0.58511000  0.01420000  0.72539000  1.0
  H  H51  1  0.41489000  0.98580000  0.22539000  1.0
  H  H52  1  0.62166000  0.88265000  0.80217000  1.0
  H  H53  1  0.37835000  0.11735000  0.30217000  1.0
  H  H54  1  0.50178000  0.88479000  0.72222000  1.0
  H  H55  1  0.49822000  0.11521000  0.22222000  1.0
  C  C56  1  0.64109000  0.85992000  0.07058000  1.0
  C  C57  1  0.35891000  0.14008000  0.57058000  1.0
  C  C58  1  0.92790000  0.76567000  0.08500000  1.0
  C  C59  1  0.07210000  0.23433000  0.58500000  1.0
  C  C60  1  0.77154000  0.75465000  0.20001000  1.0
  C  C61  1  0.22845000  0.24535000  0.70001000  1.0
  C  C62  1  0.78654000  0.74597000  0.11052000  1.0
  C  C63  1  0.21346000  0.25402000  0.61051000  1.0
  C  C64  1  0.81573000  0.54462000  0.98309000  1.0
  C  C65  1  0.18427000  0.45537000  0.48309000  1.0
  C  C66  1  0.67055000  0.55932000  0.94298000  1.0
  C  C67  1  0.32945000  0.44068000  0.44299000  1.0
  C  C68  1  0.43690000  0.54706000  0.94686000  1.0
  C  C69  1  0.56310000  0.45295000  0.44686000  1.0
  C  C70  1  0.32523000  0.52110000  0.98886000  1.0
  C  C71  1  0.67476000  0.47890000  0.48886000  1.0
  C  C72  1  0.20494000  0.51290000  0.94925000  1.0
  C  C73  1  0.79505000  0.48710000  0.44926000  1.0
  C  C74  1  0.18988000  0.53446000  0.86728000  1.0
  C  C75  1  0.81011000  0.46555000  0.36729000  1.0
  C  C76  1  0.29632000  0.56202000  0.82500000  1.0
  C  C77  1  0.70369000  0.43798000  0.32500000  1.0
  C  C78  1  0.42332000  0.56588000  0.86390000  1.0
  C  C79  1  0.57668000  0.43412000  0.36390000  1.0
  C  C80  1  0.65923000  0.57355000  0.85972000  1.0
  C  C81  1  0.34077000  0.42645000  0.35972000  1.0
  C  C82  1  0.79466000  0.56974000  0.81406000  1.0
  C  C83  1  0.20534000  0.43027000  0.31406000  1.0
  C  C84  1  0.74572000  0.78892000  0.69338000  1.0
  C  C85  1  0.25429000  0.21108000  0.19338000  1.0
  C  C86  1  0.72216000  0.80834000  0.60455000  1.0
  C  C87  1  0.27784000  0.19166000  0.10454000  1.0
  C  C88  1  0.89057000  0.80398000  0.71715000  1.0
  C  C89  1  0.10943000  0.19602000  0.21715000  1.0
  C  C90  1  0.60479000  0.89833000  0.73846000  1.0
  C  C91  1  0.39522000  0.10166000  0.23846000  1.0
  S  S92  1  0.81514000  0.55001000  0.08942000  1.0
  S  S93  1  0.18486000  0.44999000  0.58941000  1.0
  S  S94  1  0.77456000  0.59137000  0.70856000  1.0
  S  S95  1  0.22545000  0.40863000  0.20856000  1.0
  I  I96  1  0.69058000  0.23328000  0.12741000  1.0
  I  I97  1  0.30942000  0.76671000  0.62742000  1.0
  I  I98  1  0.35609000  0.72119000  0.18071000  1.0
  I  I99  1  0.64391000  0.27881000  0.68071000  1.0
  N  N100  1  0.56080000  0.54830000  0.98541000  1.0
  N  N101  1  0.43919000  0.45171000  0.48541000  1.0
  N  N102  1  0.53673000  0.58011000  0.82148000  1.0
  N  N103  1  0.46328000  0.41989000  0.32148000  1.0
