# generated using pymatgen
data_LaCuH14C16N2O13
_symmetry_space_group_name_H-M   'P 1'
_cell_length_a   8.23928000
_cell_length_b   11.09040000
_cell_length_c   12.16380000
_cell_angle_alpha   107.92900000
_cell_angle_beta   103.60700000
_cell_angle_gamma   95.48640000
_symmetry_Int_Tables_number   1
_chemical_formula_structural   LaCuH14C16N2O13
_chemical_formula_sum   'La2 Cu2 H28 C32 N4 O26'
_cell_volume   1010.72215320
_cell_formula_units_Z   2
loop_
 _symmetry_equiv_pos_site_id
 _symmetry_equiv_pos_as_xyz
  1  'x, y, z'
loop_
 _atom_site_type_symbol
 _atom_site_label
 _atom_site_symmetry_multiplicity
 _atom_site_fract_x
 _atom_site_fract_y
 _atom_site_fract_z
 _atom_site_occupancy
  La  La0  1  0.06313000  0.77539000  0.08612000  1.0
  La  La1  1  0.93687000  0.22462000  0.91387000  1.0
  Cu  Cu2  1  0.00450000  0.73449000  0.54345000  1.0
  Cu  Cu3  1  0.99550000  0.26551000  0.45654000  1.0
  H  H4  1  0.03933000  0.85045000  0.84384000  1.0
  H  H5  1  0.96064000  0.14956000  0.15617000  1.0
  H  H6  1  0.87856000  0.88013000  0.88610000  1.0
  H  H7  1  0.12141000  0.11989000  0.11391000  1.0
  H  H8  1  0.81469000  0.54078000  0.96363000  1.0
  H  H9  1  0.18533000  0.45920000  0.03637000  1.0
  H  H10  1  0.80338000  0.59603000  0.85760000  1.0
  H  H11  1  0.19664000  0.40395000  0.14240000  1.0
  H  H12  1  0.24492000  0.62111000  0.25068000  1.0
  H  H13  1  0.75508000  0.37888000  0.74931000  1.0
  H  H14  1  0.36132000  0.63517000  0.16791000  1.0
  H  H15  1  0.63866000  0.36482000  0.83207000  1.0
  H  H16  1  0.54420000  0.98342000  0.28743000  1.0
  H  H17  1  0.45580000  0.01657000  0.71257000  1.0
  H  H18  1  0.44221000  0.87971000  0.41913000  1.0
  H  H19  1  0.55778000  0.12028000  0.58087000  1.0
  H  H20  1  0.64647000  0.77543000  0.53621000  1.0
  H  H21  1  0.35353000  0.22455000  0.46378000  1.0
  H  H22  1  0.45360000  0.51623000  0.83589000  1.0
  H  H23  1  0.54644000  0.48379000  0.16412000  1.0
  H  H24  1  0.56435000  0.59832000  0.69284000  1.0
  H  H25  1  0.43565000  0.40170000  0.30717000  1.0
  H  H26  1  0.36404000  0.68310000  0.55449000  1.0
  H  H27  1  0.63596000  0.31691000  0.44552000  1.0
  H  H28  1  0.56564000  0.08914000  0.13260000  1.0
  H  H29  1  0.43437000  0.91088000  0.86742000  1.0
  H  H30  1  0.40112000  0.11302000  0.02469000  1.0
  H  H31  1  0.59883000  0.88700000  0.97529000  1.0
  C  C32  1  0.89342000  0.86604000  0.38773000  1.0
  C  C33  1  0.10657000  0.13394000  0.61225000  1.0
  C  C34  1  0.79109000  0.92810000  0.32201000  1.0
  C  C35  1  0.20892000  0.07190000  0.67800000  1.0
  C  C36  1  0.62771000  0.93489000  0.33592000  1.0
  C  C37  1  0.37229000  0.06509000  0.66408000  1.0
  C  C38  1  0.57088000  0.87888000  0.41106000  1.0
  C  C39  1  0.42912000  0.12111000  0.58894000  1.0
  C  C40  1  0.68059000  0.81964000  0.47436000  1.0
  C  C41  1  0.31940000  0.18033000  0.52563000  1.0
  C  C42  1  0.07229000  0.85117000  0.38512000  1.0
  C  C43  1  0.92771000  0.14883000  0.61489000  1.0
  C  C44  1  0.84756000  0.98327000  0.23494000  1.0
  C  C45  1  0.15244000  0.01673000  0.76506000  1.0
  C  C46  1  0.09333000  0.58300000  0.68279000  1.0
  C  C47  1  0.90670000  0.41698000  0.31721000  1.0
  C  C48  1  0.19552000  0.53772000  0.76461000  1.0
  C  C49  1  0.80451000  0.46227000  0.23540000  1.0
  C  C50  1  0.36818000  0.54574000  0.76975000  1.0
  C  C51  1  0.63185000  0.45427000  0.23025000  1.0
  C  C52  1  0.43162000  0.59454000  0.69265000  1.0
  C  C53  1  0.56839000  0.40549000  0.30737000  1.0
  C  C54  1  0.32237000  0.64049000  0.61510000  1.0
  C  C55  1  0.67765000  0.35954000  0.38492000  1.0
  C  C56  1  0.90609000  0.58155000  0.66603000  1.0
  C  C57  1  0.09394000  0.41844000  0.33397000  1.0
  C  C58  1  0.12896000  0.48489000  0.84902000  1.0
  C  C59  1  0.87106000  0.51510000  0.15098000  1.0
  C  C60  1  0.33835000  0.95309000  0.07811000  1.0
  C  C61  1  0.66161000  0.04695000  0.92189000  1.0
  C  C62  1  0.46310000  0.03801000  0.04907000  1.0
  C  C63  1  0.53686000  0.96204000  0.95095000  1.0
  N  N64  1  0.83727000  0.81454000  0.46209000  1.0
  N  N65  1  0.16273000  0.18545000  0.53791000  1.0
  N  N66  1  0.15867000  0.63567000  0.61240000  1.0
  N  N67  1  0.84135000  0.36433000  0.38760000  1.0
  O  O68  1  0.96864000  0.82614000  0.89255000  1.0
  O  O69  1  0.03132000  0.17386000  0.10744000  1.0
  O  O70  1  0.15020000  0.79658000  0.45612000  1.0
  O  O71  1  0.84978000  0.20340000  0.54388000  1.0
  O  O72  1  0.78924000  0.61634000  0.93956000  1.0
  O  O73  1  0.21077000  0.38363000  0.06044000  1.0
  O  O74  1  0.13745000  0.89243000  0.31708000  1.0
  O  O75  1  0.86254000  0.10756000  0.68291000  1.0
  O  O76  1  0.87906000  0.10450000  0.26332000  1.0
  O  O77  1  0.12093000  0.89550000  0.73669000  1.0
  O  O78  1  0.28651000  0.67851000  0.21132000  1.0
  O  O79  1  0.71350000  0.32149000  0.78867000  1.0
  O  O80  1  0.84854000  0.90292000  0.13485000  1.0
  O  O81  1  0.15146000  0.09707000  0.86514000  1.0
  O  O82  1  0.83824000  0.64424000  0.60002000  1.0
  O  O83  1  0.16178000  0.35575000  0.39998000  1.0
  O  O84  1  0.82518000  0.52021000  0.71375000  1.0
  O  O85  1  0.17482000  0.47979000  0.28624000  1.0
  O  O86  1  0.08149000  0.36462000  0.81564000  1.0
  O  O87  1  0.91852000  0.63537000  0.18435000  1.0
  O  O88  1  0.13688000  0.56474000  0.95202000  1.0
  O  O89  1  0.86316000  0.43527000  0.04798000  1.0
  O  O90  1  0.33815000  0.83203000  0.04747000  1.0
  O  O91  1  0.66187000  0.16801000  0.95251000  1.0
  O  O92  1  0.23370000  0.00272000  0.13464000  1.0
  O  O93  1  0.76626000  0.99729000  0.86537000  1.0
