# generated using pymatgen
data_Ag3H4C7(SN)3
_symmetry_space_group_name_H-M   'P 1'
_cell_length_a   6.85809000
_cell_length_b   11.12380000
_cell_length_c   14.91640000
_cell_angle_alpha   89.99960000
_cell_angle_beta   94.58410000
_cell_angle_gamma   89.99980000
_symmetry_Int_Tables_number   1
_chemical_formula_structural   Ag3H4C7(SN)3
_chemical_formula_sum   'Ag12 H16 C28 S12 N12'
_cell_volume   1134.30247506
_cell_formula_units_Z   4
loop_
 _symmetry_equiv_pos_site_id
 _symmetry_equiv_pos_as_xyz
  1  'x, y, z'
loop_
 _atom_site_type_symbol
 _atom_site_label
 _atom_site_symmetry_multiplicity
 _atom_site_fract_x
 _atom_site_fract_y
 _atom_site_fract_z
 _atom_site_occupancy
  Ag  Ag0  1  0.11274000  0.57630000  0.24259000  1.0
  Ag  Ag1  1  0.38728000  0.07628000  0.75741000  1.0
  Ag  Ag2  1  0.88723000  0.42371000  0.75741000  1.0
  Ag  Ag3  1  0.61274000  0.92371000  0.24259000  1.0
  Ag  Ag4  1  0.68730000  0.58906000  0.11610000  1.0
  Ag  Ag5  1  0.81271000  0.08906000  0.88389000  1.0
  Ag  Ag6  1  0.31271000  0.41094000  0.88390000  1.0
  Ag  Ag7  1  0.18730000  0.91095000  0.11611000  1.0
  Ag  Ag8  1  0.65305000  0.59587000  0.39306000  1.0
  Ag  Ag9  1  0.84694000  0.09588000  0.60694000  1.0
  Ag  Ag10  1  0.34691000  0.40412000  0.60694000  1.0
  Ag  Ag11  1  0.15307000  0.90412000  0.39307000  1.0
  H  H12  1  0.45517000  0.12815000  0.37682000  1.0
  H  H13  1  0.04481000  0.62814000  0.62317000  1.0
  H  H14  1  0.54483000  0.87185000  0.62318000  1.0
  H  H15  1  0.95518000  0.37186000  0.37683000  1.0
  H  H16  1  0.44065000  0.35125000  0.38438000  1.0
  H  H17  1  0.05934000  0.85125000  0.61561000  1.0
  H  H18  1  0.55934000  0.64875000  0.61562000  1.0
  H  H19  1  0.94066000  0.14875000  0.38438000  1.0
  H  H20  1  0.56159000  0.35775000  0.10415000  1.0
  H  H21  1  0.93842000  0.85774000  0.89585000  1.0
  H  H22  1  0.43842000  0.64224000  0.89584000  1.0
  H  H23  1  0.06158000  0.14226000  0.10415000  1.0
  H  H24  1  0.58164000  0.13602000  0.10946000  1.0
  H  H25  1  0.91836000  0.63601000  0.89053000  1.0
  H  H26  1  0.41837000  0.86397000  0.89054000  1.0
  H  H27  1  0.08163000  0.36400000  0.10946000  1.0
  C  C28  1  0.47927000  0.18222000  0.31774000  1.0
  C  C29  1  0.02073000  0.68222000  0.68226000  1.0
  C  C30  1  0.52074000  0.81778000  0.68226000  1.0
  C  C31  1  0.97927000  0.31778000  0.31775000  1.0
  C  C32  1  0.47026000  0.30684000  0.32172000  1.0
  C  C33  1  0.02973000  0.80685000  0.67827000  1.0
  C  C34  1  0.52973000  0.69315000  0.67827000  1.0
  C  C35  1  0.97027000  0.19316000  0.32173000  1.0
  C  C36  1  0.50277000  0.37434000  0.24470000  1.0
  C  C37  1  0.99723000  0.87435000  0.75530000  1.0
  C  C38  1  0.49723000  0.62566000  0.75529000  1.0
  C  C39  1  0.00278000  0.12565000  0.24470000  1.0
  C  C40  1  0.53808000  0.31070000  0.16641000  1.0
  C  C41  1  0.96194000  0.81070000  0.83358000  1.0
  C  C42  1  0.46193000  0.68929000  0.83359000  1.0
  C  C43  1  0.03806000  0.18930000  0.16642000  1.0
  C  C44  1  0.54795000  0.18632000  0.16903000  1.0
  C  C45  1  0.95206000  0.68631000  0.83097000  1.0
  C  C46  1  0.45207000  0.81367000  0.83098000  1.0
  C  C47  1  0.04794000  0.31369000  0.16903000  1.0
  C  C48  1  0.16699000  0.59897000  0.03945000  1.0
  C  C49  1  0.33301000  0.09897000  0.96055000  1.0
  C  C50  1  0.83301000  0.40103000  0.96055000  1.0
  C  C51  1  0.66699000  0.90103000  0.03945000  1.0
  C  C52  1  0.16348000  0.59300000  0.45083000  1.0
  C  C53  1  0.33652000  0.09300000  0.54917000  1.0
  C  C54  1  0.83652000  0.40700000  0.54917000  1.0
  C  C55  1  0.66349000  0.90700000  0.45083000  1.0
  S  S56  1  0.49757000  0.53274000  0.24487000  1.0
  S  S57  1  0.00244000  0.03273000  0.75512000  1.0
  S  S58  1  0.50242000  0.46725000  0.75512000  1.0
  S  S59  1  0.99757000  0.96727000  0.24488000  1.0
  S  S60  1  0.04261000  0.69312000  0.09823000  1.0
  S  S61  1  0.45738000  0.19312000  0.90176000  1.0
  S  S62  1  0.95738000  0.30688000  0.90177000  1.0
  S  S63  1  0.54262000  0.80689000  0.09824000  1.0
  S  S64  1  0.02939000  0.68407000  0.38420000  1.0
  S  S65  1  0.47060000  0.18407000  0.61581000  1.0
  S  S66  1  0.97060000  0.31593000  0.61580000  1.0
  S  S67  1  0.52940000  0.81593000  0.38420000  1.0
  N  N68  1  0.51972000  0.12144000  0.24322000  1.0
  N  N69  1  0.98028000  0.62143000  0.75678000  1.0
  N  N70  1  0.48029000  0.87855000  0.75678000  1.0
  N  N71  1  0.01971000  0.37857000  0.24323000  1.0
  N  N72  1  0.25469000  0.53069000  0.99739000  1.0
  N  N73  1  0.24532000  0.03070000  0.00262000  1.0
  N  N74  1  0.74530000  0.46931000  0.00261000  1.0
  N  N75  1  0.75469000  0.96932000  0.99739000  1.0
  N  N76  1  0.25744000  0.52541000  0.49739000  1.0
  N  N77  1  0.24255000  0.02540000  0.50261000  1.0
  N  N78  1  0.74256000  0.47460000  0.50261000  1.0
  N  N79  1  0.75744000  0.97460000  0.49739000  1.0
