# generated using pymatgen
data_Co2H36C53(NO)8
_symmetry_space_group_name_H-M   'P 1'
_cell_length_a   14.21890000
_cell_length_b   20.29510000
_cell_length_c   21.32470000
_cell_angle_alpha   107.90300000
_cell_angle_beta   109.45700000
_cell_angle_gamma   90.02470000
_symmetry_Int_Tables_number   1
_chemical_formula_structural   Co2H36C53(NO)8
_chemical_formula_sum   'Co8 H144 C212 N32 O32'
_cell_volume   5484.98571917
_cell_formula_units_Z   4
loop_
 _symmetry_equiv_pos_site_id
 _symmetry_equiv_pos_as_xyz
  1  'x, y, z'
loop_
 _atom_site_type_symbol
 _atom_site_label
 _atom_site_symmetry_multiplicity
 _atom_site_fract_x
 _atom_site_fract_y
 _atom_site_fract_z
 _atom_site_occupancy
  Co  Co0  1  0.87888000  0.88150000  0.82967000  1.0
  Co  Co1  1  0.43681000  0.66678000  0.55865000  1.0
  Co  Co2  1  0.04895000  0.61851000  0.17035000  1.0
  Co  Co3  1  0.87845000  0.83321000  0.44139000  1.0
  Co  Co4  1  0.12112000  0.11849000  0.17033000  1.0
  Co  Co5  1  0.56319000  0.33322000  0.44135000  1.0
  Co  Co6  1  0.95105000  0.38149000  0.82965000  1.0
  Co  Co7  1  0.12155000  0.16679000  0.55861000  1.0
  H  H8  1  0.91619000  0.63460000  0.85021000  1.0
  H  H9  1  0.91041000  0.47510000  0.66112000  1.0
  H  H10  1  0.88253000  0.56310000  0.59826000  1.0
  H  H11  1  0.86755000  0.68586000  0.66165000  1.0
  H  H12  1  0.03503000  0.82472000  0.94292000  1.0
  H  H13  1  0.25761000  0.97428000  0.95767000  1.0
  H  H14  1  0.07244000  0.98607000  0.86463000  1.0
  H  H15  1  0.13548000  0.85086000  0.06381000  1.0
  H  H16  1  0.26224000  0.82310000  0.15991000  1.0
  H  H17  1  0.49312000  0.86636000  0.08425000  1.0
  H  H18  1  0.36454000  0.89044000  0.98486000  1.0
  H  H19  1  0.88598000  0.72164000  0.16430000  1.0
  H  H20  1  0.66901000  0.55092000  0.10954000  1.0
  H  H21  1  0.85300000  0.50269000  0.10757000  1.0
  H  H22  1  0.78681000  0.75654000  0.25606000  1.0
  H  H23  1  0.66575000  0.83838000  0.28110000  1.0
  H  H24  1  0.45163000  0.73416000  0.07359000  1.0
  H  H25  1  0.57180000  0.65000000  0.04990000  1.0
  H  H26  1  0.50351000  0.73702000  0.46240000  1.0
  H  H27  1  0.23119000  0.62211000  0.42451000  1.0
  H  H28  1  0.20967000  0.66677000  0.31021000  1.0
  H  H29  1  0.47955000  0.83170000  0.41561000  1.0
  H  H30  1  0.52517000  0.88636000  0.34156000  1.0
  H  H31  1  0.34821000  0.71841000  0.15646000  1.0
  H  H32  1  0.30364000  0.66225000  0.23163000  1.0
  H  H33  1  0.46688000  0.17496000  0.35097000  1.0
  H  H34  1  0.74687000  0.28318000  0.39722000  1.0
  H  H35  1  0.75070000  0.14316000  0.32689000  1.0
  H  H36  1  0.42562000  0.06666000  0.31200000  1.0
  H  H37  1  0.37736000  0.94150000  0.25928000  1.0
  H  H38  1  0.65099000  0.91542000  0.21364000  1.0
  H  H39  1  0.70020000  0.04082000  0.26597000  1.0
  H  H40  1  0.39392000  0.45577000  0.49243000  1.0
  H  H41  1  0.20220000  0.28217000  0.47386000  1.0
  H  H42  1  0.09475000  0.36471000  0.52443000  1.0
  H  H43  1  0.13922000  0.49338000  0.55888000  1.0
  H  H44  1  0.06542000  0.86542000  0.14972000  1.0
  H  H45  1  0.24846000  0.02503000  0.33883000  1.0
  H  H46  1  0.28408000  0.93697000  0.40161000  1.0
  H  H47  1  0.20611000  0.81409000  0.33815000  1.0
  H  H48  1  0.09194000  0.67517000  0.05694000  1.0
  H  H49  1  0.29984000  0.52577000  0.04245000  1.0
  H  H50  1  0.20774000  0.51415000  0.13563000  1.0
  H  H51  1  0.07154000  0.64897000  0.93605000  1.0
  H  H52  1  0.10232000  0.67674000  0.83994000  1.0
  H  H53  1  0.40877000  0.63356000  0.91565000  1.0
  H  H54  1  0.37942000  0.60944000  0.01501000  1.0
  H  H55  1  0.72212000  0.77844000  0.83594000  1.0
  H  H56  1  0.55929000  0.94895000  0.88972000  1.0
  H  H57  1  0.74547000  0.99733000  0.89203000  1.0
  H  H58  1  0.53097000  0.74331000  0.74380000  1.0
  H  H59  1  0.38474000  0.66154000  0.71886000  1.0
  H  H60  1  0.37823000  0.76584000  0.92640000  1.0
  H  H61  1  0.52214000  0.85002000  0.94996000  1.0
  H  H62  1  0.04132000  0.76305000  0.53778000  1.0
  H  H63  1  0.80678000  0.87781000  0.57545000  1.0
  H  H64  1  0.89939000  0.83326000  0.68982000  1.0
  H  H65  1  0.06362000  0.66829000  0.58448000  1.0
  H  H66  1  0.18328000  0.61358000  0.65836000  1.0
  H  H67  1  0.19189000  0.78152000  0.84359000  1.0
  H  H68  1  0.07219000  0.83774000  0.76857000  1.0
  H  H69  1  0.11592000  0.32511000  0.64907000  1.0
  H  H70  1  0.34937000  0.21681000  0.60261000  1.0
  H  H71  1  0.42366000  0.35686000  0.67273000  1.0
  H  H72  1  0.11376000  0.43332000  0.68788000  1.0
  H  H73  1  0.11827000  0.55846000  0.74072000  1.0
  H  H74  1  0.43749000  0.58466000  0.78629000  1.0
  H  H75  1  0.43433000  0.45929000  0.73384000  1.0
  H  H76  1  0.90149000  0.04443000  0.50778000  1.0
  H  H77  1  0.72795000  0.21771000  0.52616000  1.0
  H  H78  1  0.57007000  0.13495000  0.47528000  1.0
  H  H79  1  0.58035000  0.00633000  0.44082000  1.0
  H  H80  1  0.08381000  0.36540000  0.14979000  1.0
  H  H81  1  0.08959000  0.52490000  0.33887000  1.0
  H  H82  1  0.11747000  0.43690000  0.40173000  1.0
  H  H83  1  0.13244000  0.31414000  0.33835000  1.0
  H  H84  1  0.96497000  0.17527000  0.05708000  1.0
  H  H85  1  0.74238000  0.02572000  0.04233000  1.0
  H  H86  1  0.92755000  0.01393000  0.13538000  1.0
  H  H87  1  0.86452000  0.14914000  0.93619000  1.0
  H  H88  1  0.73776000  0.17689000  0.84009000  1.0
  H  H89  1  0.50688000  0.13364000  0.91575000  1.0
  H  H90  1  0.63546000  0.10956000  0.01514000  1.0
  H  H91  1  0.11402000  0.27836000  0.83570000  1.0
  H  H92  1  0.33100000  0.44907000  0.89045000  1.0
  H  H93  1  0.14701000  0.49730000  0.89243000  1.0
  H  H94  1  0.21319000  0.24346000  0.74394000  1.0
  H  H95  1  0.33426000  0.16162000  0.71890000  1.0
  H  H96  1  0.54837000  0.26584000  0.92641000  1.0
  H  H97  1  0.42821000  0.35000000  0.95010000  1.0
  H  H98  1  0.49649000  0.26298000  0.53760000  1.0
  H  H99  1  0.76881000  0.37789000  0.57549000  1.0
  H  H100  1  0.79034000  0.33323000  0.68979000  1.0
  H  H101  1  0.52045000  0.16830000  0.58439000  1.0
  H  H102  1  0.47482000  0.11364000  0.65844000  1.0
  H  H103  1  0.65180000  0.28159000  0.84354000  1.0
  H  H104  1  0.69637000  0.33775000  0.76837000  1.0
  H  H105  1  0.53313000  0.82504000  0.64903000  1.0
  H  H106  1  0.25313000  0.71682000  0.60278000  1.0
  H  H107  1  0.24930000  0.85684000  0.67311000  1.0
  H  H108  1  0.57438000  0.93334000  0.68800000  1.0
  H  H109  1  0.62264000  0.05850000  0.74072000  1.0
  H  H110  1  0.34901000  0.08458000  0.78636000  1.0
  H  H111  1  0.29980000  0.95918000  0.73402000  1.0
  H  H112  1  0.60608000  0.54423000  0.50757000  1.0
  H  H113  1  0.79780000  0.71783000  0.52614000  1.0
  H  H114  1  0.90525000  0.63529000  0.47558000  1.0
  H  H115  1  0.86078000  0.50662000  0.44112000  1.0
  H  H116  1  0.93458000  0.13457000  0.85028000  1.0
  H  H117  1  0.75154000  0.97497000  0.66117000  1.0
  H  H118  1  0.71592000  0.06303000  0.59839000  1.0
  H  H119  1  0.79389000  0.18591000  0.66185000  1.0
  H  H120  1  0.90806000  0.32483000  0.94306000  1.0
  H  H121  1  0.70016000  0.47423000  0.95755000  1.0
  H  H122  1  0.79226000  0.48585000  0.86437000  1.0
  H  H123  1  0.92845000  0.35102000  0.06394000  1.0
  H  H124  1  0.89767000  0.32326000  0.16005000  1.0
  H  H125  1  0.59123000  0.36644000  0.08435000  1.0
  H  H126  1  0.62058000  0.39056000  0.98499000  1.0
  H  H127  1  0.27788000  0.22156000  0.16406000  1.0
  H  H128  1  0.44072000  0.05105000  0.11028000  1.0
  H  H129  1  0.25453000  0.00267000  0.10798000  1.0
  H  H130  1  0.46903000  0.25669000  0.25620000  1.0
  H  H131  1  0.61526000  0.33846000  0.28114000  1.0
  H  H132  1  0.62177000  0.23416000  0.07360000  1.0
  H  H133  1  0.47787000  0.14998000  0.05004000  1.0
  H  H134  1  0.95867000  0.23695000  0.46221000  1.0
  H  H135  1  0.19322000  0.12220000  0.42455000  1.0
  H  H136  1  0.10060000  0.16675000  0.31018000  1.0
  H  H137  1  0.93638000  0.33171000  0.41552000  1.0
  H  H138  1  0.81672000  0.38642000  0.34164000  1.0
  H  H139  1  0.80811000  0.21847000  0.15641000  1.0
  H  H140  1  0.92780000  0.16226000  0.23143000  1.0
  H  H141  1  0.88408000  0.67489000  0.35094000  1.0
  H  H142  1  0.65063000  0.78319000  0.39739000  1.0
  H  H143  1  0.57635000  0.64315000  0.32727000  1.0
  H  H144  1  0.88624000  0.56668000  0.31212000  1.0
  H  H145  1  0.88173000  0.44154000  0.25928000  1.0
  H  H146  1  0.56251000  0.41534000  0.21371000  1.0
  H  H147  1  0.56567000  0.54071000  0.26617000  1.0
  H  H148  1  0.09850000  0.95557000  0.49222000  1.0
  H  H149  1  0.27205000  0.78229000  0.47384000  1.0
  H  H150  1  0.42992000  0.86505000  0.52472000  1.0
  H  H151  1  0.41965000  0.99367000  0.55918000  1.0
  C  C152  1  0.88474000  0.74163000  0.79975000  1.0
  C  C153  1  0.89125000  0.66790000  0.75990000  1.0
  C  C154  1  0.90882000  0.61866000  0.79499000  1.0
  C  C155  1  0.91619000  0.54945000  0.75975000  1.0
  C  C156  1  0.93626000  0.49828000  0.79884000  1.0
  C  C157  1  0.90571000  0.52939000  0.68837000  1.0
  C  C158  1  0.88974000  0.57853000  0.65344000  1.0
  C  C159  1  0.88188000  0.64748000  0.68884000  1.0
  C  C160  1  0.06991000  0.86744000  0.93487000  1.0
  C  C161  1  0.18502000  0.94437000  0.93910000  1.0
  C  C162  1  0.09326000  0.94998000  0.89392000  1.0
  C  C163  1  0.24169000  0.87163000  0.01787000  1.0
  C  C164  1  0.21307000  0.85104000  0.06615000  1.0
  C  C165  1  0.28577000  0.83617000  0.12114000  1.0
  C  C166  1  0.38730000  0.84221000  0.12922000  1.0
  C  C167  1  0.41420000  0.86130000  0.07888000  1.0
  C  C168  1  0.34262000  0.87560000  0.02346000  1.0
  C  C169  1  0.47157000  0.84018000  0.19602000  1.0
  C  C170  1  0.85343000  0.66852000  0.15018000  1.0
  C  C171  1  0.74037000  0.57796000  0.11855000  1.0
  C  C172  1  0.83108000  0.55495000  0.11847000  1.0
  C  C173  1  0.68609000  0.69823000  0.15166000  1.0
  C  C174  1  0.71344000  0.75222000  0.21598000  1.0
  C  C175  1  0.64519000  0.79870000  0.22941000  1.0
  C  C176  1  0.55028000  0.79350000  0.17833000  1.0
  C  C177  1  0.52489000  0.73932000  0.11398000  1.0
  C  C178  1  0.59172000  0.69150000  0.10045000  1.0
  C  C179  1  0.42674000  0.71184000  0.43689000  1.0
  C  C180  1  0.28507000  0.65117000  0.41426000  1.0
  C  C181  1  0.27368000  0.67224000  0.35722000  1.0
  C  C182  1  0.38795000  0.74344000  0.32852000  1.0
  C  C183  1  0.44996000  0.80655000  0.35877000  1.0
  C  C184  1  0.47441000  0.83819000  0.31597000  1.0
  C  C185  1  0.43671000  0.80841000  0.24268000  1.0
  C  C186  1  0.37582000  0.74429000  0.21326000  1.0
  C  C187  1  0.35097000  0.71195000  0.25536000  1.0
  C  C188  1  0.54281000  0.18503000  0.35285000  1.0
  C  C189  1  0.68995000  0.23875000  0.37587000  1.0
  C  C190  1  0.69136000  0.17014000  0.34086000  1.0
  C  C191  1  0.56744000  0.06331000  0.29359000  1.0
  C  C192  1  0.47610000  0.03423000  0.29085000  1.0
  C  C193  1  0.44898000  0.96279000  0.26107000  1.0
  C  C194  1  0.51132000  0.91798000  0.23363000  1.0
  C  C195  1  0.60095000  0.94792000  0.23530000  1.0
  C  C196  1  0.62916000  0.01971000  0.26497000  1.0
  C  C197  1  0.29737000  0.55962000  0.54906000  1.0
  C  C198  1  0.27092000  0.48252000  0.52965000  1.0
  C  C199  1  0.32880000  0.43582000  0.49986000  1.0
  C  C200  1  0.30308000  0.36377000  0.47867000  1.0
  C  C201  1  0.36735000  0.31473000  0.44747000  1.0
  C  C202  1  0.21962000  0.33834000  0.48892000  1.0
  C  C203  1  0.16059000  0.38474000  0.51755000  1.0
  C  C204  1  0.18550000  0.45663000  0.53747000  1.0
  C  C205  1  0.08507000  0.75830000  0.20020000  1.0
  C  C206  1  0.13122000  0.83209000  0.23999000  1.0
  C  C207  1  0.11335000  0.88136000  0.20494000  1.0
  C  C208  1  0.15575000  0.95062000  0.24022000  1.0
  C  C209  1  0.13672000  0.00179000  0.20115000  1.0
  C  C210  1  0.21669000  0.97070000  0.31158000  1.0
  C  C211  1  0.23604000  0.92153000  0.34646000  1.0
  C  C212  1  0.19302000  0.85252000  0.31102000  1.0
  C  C213  1  0.13484000  0.63249000  0.06504000  1.0
  C  C214  1  0.24577000  0.55566000  0.06095000  1.0
  C  C215  1  0.19921000  0.55012000  0.10620000  1.0
  C  C216  1  0.22363000  0.62823000  0.98199000  1.0
  C  C217  1  0.14679000  0.64881000  0.93370000  1.0
  C  C218  1  0.16458000  0.66370000  0.87874000  1.0
  C  C219  1  0.25806000  0.65771000  0.87069000  1.0
  C  C220  1  0.33523000  0.63861000  0.92102000  1.0
  C  C221  1  0.31896000  0.62427000  0.97641000  1.0
  C  C222  1  0.27563000  0.65981000  0.80394000  1.0
  C  C223  1  0.70358000  0.83152000  0.84987000  1.0
  C  C224  1  0.62182000  0.92201000  0.88099000  1.0
  C  C225  1  0.71271000  0.94507000  0.88122000  1.0
  C  C226  1  0.53464000  0.80170000  0.84820000  1.0
  C  C227  1  0.49767000  0.74768000  0.78392000  1.0
  C  C228  1  0.41592000  0.70124000  0.77053000  1.0
  C  C229  1  0.37206000  0.70651000  0.82163000  1.0
  C  C230  1  0.41109000  0.76066000  0.88597000  1.0
  C  C231  1  0.49150000  0.80846000  0.89945000  1.0
  C  C232  1  0.98998000  0.78818000  0.56322000  1.0
  C  C233  1  0.87091000  0.84878000  0.58575000  1.0
  C  C234  1  0.91644000  0.82775000  0.64281000  1.0
  C  C235  1  0.05941000  0.75659000  0.67159000  1.0
  C  C236  1  0.09101000  0.69345000  0.64130000  1.0
  C  C237  1  0.15829000  0.66179000  0.68403000  1.0
  C  C238  1  0.19408000  0.69156000  0.75732000  1.0
  C  C239  1  0.16265000  0.75568000  0.78678000  1.0
  C  C240  1  0.09569000  0.78804000  0.74476000  1.0
  C  C241  1  0.18991000  0.31501000  0.64712000  1.0
  C  C242  1  0.31387000  0.26126000  0.62396000  1.0
  C  C243  1  0.35036000  0.32988000  0.65885000  1.0
  C  C244  1  0.27395000  0.43673000  0.70627000  1.0
  C  C245  1  0.18539000  0.46579000  0.70906000  1.0
  C  C246  1  0.18807000  0.53720000  0.73887000  1.0
  C  C247  1  0.27785000  0.58203000  0.76632000  1.0
  C  C248  1  0.36581000  0.55213000  0.76463000  1.0
  C  C249  1  0.36430000  0.48034000  0.73489000  1.0
  C  C250  1  0.74860000  0.94036000  0.45110000  1.0
  C  C251  1  0.74133000  0.01743000  0.47041000  1.0
  C  C252  1  0.82891000  0.06429000  0.50028000  1.0
  C  C253  1  0.82422000  0.13629000  0.52143000  1.0
  C  C254  1  0.91963000  0.18548000  0.55269000  1.0
  C  C255  1  0.73042000  0.16157000  0.51108000  1.0
  C  C256  1  0.64285000  0.11503000  0.48230000  1.0
  C  C257  1  0.64801000  0.04315000  0.46239000  1.0
  C  C258  1  0.11526000  0.25836000  0.20025000  1.0
  C  C259  1  0.10875000  0.33210000  0.24010000  1.0
  C  C260  1  0.09118000  0.38134000  0.20500000  1.0
  C  C261  1  0.08382000  0.45055000  0.24025000  1.0
  C  C262  1  0.06374000  0.50172000  0.20116000  1.0
  C  C263  1  0.09430000  0.47061000  0.31163000  1.0
  C  C264  1  0.11026000  0.42147000  0.34656000  1.0
  C  C265  1  0.11812000  0.35252000  0.31116000  1.0
  C  C266  1  0.93009000  0.13256000  0.06512000  1.0
  C  C267  1  0.81497000  0.05563000  0.06090000  1.0
  C  C268  1  0.90674000  0.05002000  0.10609000  1.0
  C  C269  1  0.75830000  0.12837000  0.98213000  1.0
  C  C270  1  0.78693000  0.14896000  0.93385000  1.0
  C  C271  1  0.71424000  0.16383000  0.87886000  1.0
  C  C272  1  0.61270000  0.15778000  0.87078000  1.0
  C  C273  1  0.58579000  0.13870000  0.92112000  1.0
  C  C274  1  0.65738000  0.12440000  0.97654000  1.0
  C  C275  1  0.52843000  0.15982000  0.80398000  1.0
  C  C276  1  0.14657000  0.33147000  0.84983000  1.0
  C  C277  1  0.25963000  0.42204000  0.88145000  1.0
  C  C278  1  0.16892000  0.44504000  0.88153000  1.0
  C  C279  1  0.31391000  0.30177000  0.84834000  1.0
  C  C280  1  0.28656000  0.24778000  0.78402000  1.0
  C  C281  1  0.35481000  0.20130000  0.77059000  1.0
  C  C282  1  0.44972000  0.20651000  0.82167000  1.0
  C  C283  1  0.47511000  0.26068000  0.88602000  1.0
  C  C284  1  0.40828000  0.30849000  0.89955000  1.0
  C  C285  1  0.57327000  0.28817000  0.56311000  1.0
  C  C286  1  0.71493000  0.34883000  0.58575000  1.0
  C  C287  1  0.72632000  0.32776000  0.64278000  1.0
  C  C288  1  0.61205000  0.25656000  0.67148000  1.0
  C  C289  1  0.55004000  0.19345000  0.64123000  1.0
  C  C290  1  0.52559000  0.16181000  0.68403000  1.0
  C  C291  1  0.56329000  0.19159000  0.75732000  1.0
  C  C292  1  0.62418000  0.25571000  0.78674000  1.0
  C  C293  1  0.64903000  0.28805000  0.74464000  1.0
  C  C294  1  0.45720000  0.81496000  0.64716000  1.0
  C  C295  1  0.31006000  0.76125000  0.62413000  1.0
  C  C296  1  0.30864000  0.82986000  0.65914000  1.0
  C  C297  1  0.43256000  0.93669000  0.70641000  1.0
  C  C298  1  0.52390000  0.96577000  0.70915000  1.0
  C  C299  1  0.55102000  0.03721000  0.73892000  1.0
  C  C300  1  0.48868000  0.08202000  0.76637000  1.0
  C  C301  1  0.39905000  0.05207000  0.76470000  1.0
  C  C302  1  0.37084000  0.98029000  0.73503000  1.0
  C  C303  1  0.70263000  0.44038000  0.45093000  1.0
  C  C304  1  0.72907000  0.51748000  0.47035000  1.0
  C  C305  1  0.67120000  0.56418000  0.50014000  1.0
  C  C306  1  0.69692000  0.63623000  0.52133000  1.0
  C  C307  1  0.63266000  0.68527000  0.55254000  1.0
  C  C308  1  0.78038000  0.66166000  0.51108000  1.0
  C  C309  1  0.83941000  0.61526000  0.48245000  1.0
  C  C310  1  0.81449000  0.54337000  0.46253000  1.0
  C  C311  1  0.91493000  0.24170000  0.79980000  1.0
  C  C312  1  0.86878000  0.16791000  0.76001000  1.0
  C  C313  1  0.88665000  0.11864000  0.79506000  1.0
  C  C314  1  0.84425000  0.04939000  0.75978000  1.0
  C  C315  1  0.86328000  0.99821000  0.79885000  1.0
  C  C316  1  0.78331000  0.02930000  0.68842000  1.0
  C  C317  1  0.76396000  0.07848000  0.65355000  1.0
  C  C318  1  0.80698000  0.14748000  0.68898000  1.0
  C  C319  1  0.86516000  0.36751000  0.93496000  1.0
  C  C320  1  0.75423000  0.44434000  0.93904000  1.0
  C  C321  1  0.80079000  0.44988000  0.89380000  1.0
  C  C322  1  0.77637000  0.37177000  0.01800000  1.0
  C  C323  1  0.85320000  0.35118000  0.06629000  1.0
  C  C324  1  0.83542000  0.33630000  0.12125000  1.0
  C  C325  1  0.74194000  0.34229000  0.12930000  1.0
  C  C326  1  0.66476000  0.36139000  0.07897000  1.0
  C  C327  1  0.68103000  0.37573000  0.02359000  1.0
  C  C328  1  0.72437000  0.34019000  0.19606000  1.0
  C  C329  1  0.29642000  0.16848000  0.15013000  1.0
  C  C330  1  0.37819000  0.07799000  0.11901000  1.0
  C  C331  1  0.28729000  0.05493000  0.11878000  1.0
  C  C332  1  0.46536000  0.19830000  0.15180000  1.0
  C  C333  1  0.50233000  0.25232000  0.21608000  1.0
  C  C334  1  0.58408000  0.29876000  0.22947000  1.0
  C  C335  1  0.62794000  0.29349000  0.17837000  1.0
  C  C336  1  0.58891000  0.23934000  0.11403000  1.0
  C  C337  1  0.50850000  0.19154000  0.10055000  1.0
  C  C338  1  0.01001000  0.21181000  0.43677000  1.0
  C  C339  1  0.12909000  0.15122000  0.41425000  1.0
  C  C340  1  0.08356000  0.17225000  0.35719000  1.0
  C  C341  1  0.94059000  0.24341000  0.32840000  1.0
  C  C342  1  0.90899000  0.30655000  0.35870000  1.0
  C  C343  1  0.84171000  0.33822000  0.31597000  1.0
  C  C344  1  0.80592000  0.30844000  0.24268000  1.0
  C  C345  1  0.83735000  0.24432000  0.21322000  1.0
  C  C346  1  0.90431000  0.21196000  0.25524000  1.0
  C  C347  1  0.81009000  0.68499000  0.35288000  1.0
  C  C348  1  0.68613000  0.73874000  0.37604000  1.0
  C  C349  1  0.64964000  0.67012000  0.34115000  1.0
  C  C350  1  0.72605000  0.56327000  0.29373000  1.0
  C  C351  1  0.81461000  0.53422000  0.29094000  1.0
  C  C352  1  0.81193000  0.46280000  0.26113000  1.0
  C  C353  1  0.72215000  0.41797000  0.23368000  1.0
  C  C354  1  0.63419000  0.44787000  0.23538000  1.0
  C  C355  1  0.63570000  0.51966000  0.26511000  1.0
  C  C356  1  0.25140000  0.05964000  0.54890000  1.0
  C  C357  1  0.25866000  0.98257000  0.52959000  1.0
  C  C358  1  0.17109000  0.93572000  0.49972000  1.0
  C  C359  1  0.17578000  0.86371000  0.47857000  1.0
  C  C360  1  0.08037000  0.81452000  0.44731000  1.0
  C  C361  1  0.26958000  0.83843000  0.48892000  1.0
  C  C362  1  0.35715000  0.88497000  0.51770000  1.0
  C  C363  1  0.35199000  0.95685000  0.53762000  1.0
  N  N364  1  0.02239000  0.90153000  0.89148000  1.0
  N  N365  1  0.16929000  0.89201000  0.96515000  1.0
  N  N366  1  0.90059000  0.61191000  0.13803000  1.0
  N  N367  1  0.75585000  0.65024000  0.13915000  1.0
  N  N368  1  0.38062000  0.67589000  0.46330000  1.0
  N  N369  1  0.36384000  0.71069000  0.37215000  1.0
  N  N370  1  0.59684000  0.24731000  0.38281000  1.0
  N  N371  1  0.59781000  0.13601000  0.32615000  1.0
  N  N372  1  0.13076000  0.59851000  0.10855000  1.0
  N  N373  1  0.20394000  0.60791000  0.03477000  1.0
  N  N374  1  0.76284000  0.88817000  0.86196000  1.0
  N  N375  1  0.61689000  0.84974000  0.86065000  1.0
  N  N376  1  0.91750000  0.82408000  0.53674000  1.0
  N  N377  1  0.99173000  0.78935000  0.62796000  1.0
  N  N378  1  0.21388000  0.25271000  0.61715000  1.0
  N  N379  1  0.27164000  0.36403000  0.67368000  1.0
  N  N380  1  0.97761000  0.09847000  0.10852000  1.0
  N  N381  1  0.83071000  0.10799000  0.03485000  1.0
  N  N382  1  0.09941000  0.38809000  0.86197000  1.0
  N  N383  1  0.24415000  0.34976000  0.86085000  1.0
  N  N384  1  0.61938000  0.32411000  0.53670000  1.0
  N  N385  1  0.63616000  0.28931000  0.62785000  1.0
  N  N386  1  0.40316000  0.75269000  0.61719000  1.0
  N  N387  1  0.40219000  0.86399000  0.67385000  1.0
  N  N388  1  0.86924000  0.40149000  0.89144000  1.0
  N  N389  1  0.79606000  0.39209000  0.96523000  1.0
  N  N390  1  0.23716000  0.11183000  0.13804000  1.0
  N  N391  1  0.38311000  0.15026000  0.13935000  1.0
  N  N392  1  0.08249000  0.17592000  0.46326000  1.0
  N  N393  1  0.00827000  0.21065000  0.37203000  1.0
  N  N394  1  0.78612000  0.74729000  0.38285000  1.0
  N  N395  1  0.72837000  0.63597000  0.32633000  1.0
  O  O396  1  0.86727000  0.78552000  0.76500000  1.0
  O  O397  1  0.89613000  0.75911000  0.86408000  1.0
  O  O398  1  0.91403000  0.43263000  0.76141000  1.0
  O  O399  1  0.97293000  0.51828000  0.86504000  1.0
  O  O400  1  0.38944000  0.57755000  0.55652000  1.0
  O  O401  1  0.23325000  0.60093000  0.55578000  1.0
  O  O402  1  0.42435000  0.34366000  0.42392000  1.0
  O  O403  1  0.36624000  0.25311000  0.44740000  1.0
  O  O404  1  0.10221000  0.71450000  0.23505000  1.0
  O  O405  1  0.03237000  0.74069000  0.13582000  1.0
  O  O406  1  0.15206000  0.06744000  0.23861000  1.0
  O  O407  1  0.10718000  0.98183000  0.13495000  1.0
  O  O408  1  0.83340000  0.92258000  0.44390000  1.0
  O  O409  1  0.67775000  0.89896000  0.44424000  1.0
  O  O410  1  0.00024000  0.15666000  0.57630000  1.0
  O  O411  1  0.91853000  0.24708000  0.55273000  1.0
  O  O412  1  0.13273000  0.21448000  0.23500000  1.0
  O  O413  1  0.10386000  0.24089000  0.13592000  1.0
  O  O414  1  0.08598000  0.56737000  0.23859000  1.0
  O  O415  1  0.02707000  0.48172000  0.13496000  1.0
  O  O416  1  0.61055000  0.42245000  0.44347000  1.0
  O  O417  1  0.76675000  0.39907000  0.44422000  1.0
  O  O418  1  0.57565000  0.65634000  0.57609000  1.0
  O  O419  1  0.63375000  0.74689000  0.55260000  1.0
  O  O420  1  0.89779000  0.28550000  0.76495000  1.0
  O  O421  1  0.96763000  0.25931000  0.86418000  1.0
  O  O422  1  0.84793000  0.93256000  0.76139000  1.0
  O  O423  1  0.89283000  0.01817000  0.86505000  1.0
  O  O424  1  0.16660000  0.07743000  0.55610000  1.0
  O  O425  1  0.32225000  0.10104000  0.55576000  1.0
  O  O426  1  0.99976000  0.84335000  0.42370000  1.0
  O  O427  1  0.08147000  0.75293000  0.44726000  1.0
