# generated using pymatgen
data_H6PbC4BrNO4
_symmetry_space_group_name_H-M   'P 1'
_cell_length_a   6.88037000
_cell_length_b   8.59723000
_cell_length_c   13.01800000
_cell_angle_alpha   79.59000000
_cell_angle_beta   89.99860000
_cell_angle_gamma   89.99710000
_symmetry_Int_Tables_number   1
_chemical_formula_structural   H6PbC4BrNO4
_chemical_formula_sum   'H24 Pb4 C16 Br4 N4 O16'
_cell_volume   757.36740504
_cell_formula_units_Z   4
loop_
 _symmetry_equiv_pos_site_id
 _symmetry_equiv_pos_as_xyz
  1  'x, y, z'
loop_
 _atom_site_type_symbol
 _atom_site_label
 _atom_site_symmetry_multiplicity
 _atom_site_fract_x
 _atom_site_fract_y
 _atom_site_fract_z
 _atom_site_occupancy
  H  H0  1  0.70315000  0.96336000  0.91414000  1.0
  H  H1  1  0.20313000  0.53663000  0.58589000  1.0
  H  H2  1  0.29688000  0.03662000  0.08589000  1.0
  H  H3  1  0.79686000  0.46338000  0.41412000  1.0
  H  H4  1  0.79588000  0.85568000  0.02044000  1.0
  H  H5  1  0.29581000  0.64433000  0.47959000  1.0
  H  H6  1  0.20415000  0.14430000  0.97957000  1.0
  H  H7  1  0.70421000  0.35565000  0.52041000  1.0
  H  H8  1  0.85732000  0.76088000  0.81507000  1.0
  H  H9  1  0.35738000  0.73908000  0.68496000  1.0
  H  H10  1  0.14263000  0.23907000  0.18495000  1.0
  H  H11  1  0.64262000  0.26091000  0.31503000  1.0
  H  H12  1  0.99030000  0.70070000  0.93307000  1.0
  H  H13  1  0.49027000  0.79929000  0.56692000  1.0
  H  H14  1  0.00972000  0.29929000  0.06691000  1.0
  H  H15  1  0.50969000  0.20072000  0.43308000  1.0
  H  H16  1  0.63651000  0.61650000  0.95915000  1.0
  H  H17  1  0.13650000  0.88351000  0.54089000  1.0
  H  H18  1  0.36342000  0.38348000  0.04090000  1.0
  H  H19  1  0.86349000  0.11648000  0.45909000  1.0
  H  H20  1  0.50537000  0.76454000  0.87320000  1.0
  H  H21  1  0.00535000  0.73545000  0.62683000  1.0
  H  H22  1  0.49467000  0.23544000  0.12680000  1.0
  H  H23  1  0.99466000  0.26455000  0.37315000  1.0
  Pb  Pb24  1  0.34161000  0.17395000  0.72308000  1.0
  Pb  Pb25  1  0.84162000  0.32606000  0.77702000  1.0
  Pb  Pb26  1  0.65843000  0.82616000  0.27691000  1.0
  Pb  Pb27  1  0.15848000  0.67389000  0.22308000  1.0
  C  C28  1  0.05877000  0.93452000  0.84958000  1.0
  C  C29  1  0.55882000  0.56548000  0.65039000  1.0
  C  C30  1  0.94120000  0.06549000  0.15039000  1.0
  C  C31  1  0.44121000  0.43453000  0.34960000  1.0
  C  C32  1  0.91571000  0.80066000  0.88436000  1.0
  C  C33  1  0.41572000  0.69930000  0.61564000  1.0
  C  C34  1  0.08428000  0.19931000  0.11564000  1.0
  C  C35  1  0.58429000  0.30068000  0.38435000  1.0
  C  C36  1  0.58136000  0.73815000  0.94850000  1.0
  C  C37  1  0.08133000  0.76186000  0.55154000  1.0
  C  C38  1  0.41865000  0.26185000  0.05151000  1.0
  C  C39  1  0.91866000  0.23814000  0.44845000  1.0
  C  C40  1  0.44088000  0.75048000  0.03678000  1.0
  C  C41  1  0.94087000  0.74951000  0.46325000  1.0
  C  C42  1  0.55909000  0.24957000  0.96321000  1.0
  C  C43  1  0.05911000  0.25047000  0.53675000  1.0
  Br  Br44  1  0.69107000  0.03026000  0.66861000  1.0
  Br  Br45  1  0.19109000  0.46981000  0.83137000  1.0
  Br  Br46  1  0.30900000  0.96980000  0.33139000  1.0
  Br  Br47  1  0.80904000  0.53016000  0.16867000  1.0
  N  N48  1  0.74922000  0.84906000  0.94524000  1.0
  N  N49  1  0.24921000  0.65092000  0.55479000  1.0
  N  N50  1  0.25078000  0.15090000  0.05477000  1.0
  N  N51  1  0.75079000  0.34907000  0.44520000  1.0
  O  O52  1  0.19567000  0.90546000  0.79052000  1.0
  O  O53  1  0.69569000  0.59453000  0.70945000  1.0
  O  O54  1  0.80436000  0.09455000  0.20949000  1.0
  O  O55  1  0.30436000  0.40547000  0.29051000  1.0
  O  O56  1  0.03348000  0.06634000  0.87993000  1.0
  O  O57  1  0.53358000  0.43368000  0.62000000  1.0
  O  O58  1  0.96637000  0.93371000  0.11999000  1.0
  O  O59  1  0.46642000  0.56633000  0.37998000  1.0
  O  O60  1  0.46722000  0.85778000  0.09168000  1.0
  O  O61  1  0.96723000  0.64225000  0.40833000  1.0
  O  O62  1  0.53270000  0.14229000  0.90830000  1.0
  O  O63  1  0.03270000  0.35774000  0.59166000  1.0
  O  O64  1  0.30486000  0.64926000  0.05035000  1.0
  O  O65  1  0.80477000  0.85068000  0.44971000  1.0
  O  O66  1  0.69515000  0.35074000  0.94964000  1.0
  O  O67  1  0.19517000  0.14929000  0.55031000  1.0
