# generated using pymatgen
data_ZnH9C14SClO4
_symmetry_space_group_name_H-M   'P 1'
_cell_length_a   7.56219000
_cell_length_b   12.56220000
_cell_length_c   34.67250000
_cell_angle_alpha   89.84830000
_cell_angle_beta   89.67130000
_cell_angle_gamma   91.52680000
_symmetry_Int_Tables_number   1
_chemical_formula_structural   ZnH9C14SClO4
_chemical_formula_sum   'Zn4 H36 C56 S4 Cl4 O16'
_cell_volume   3292.57275038
_cell_formula_units_Z   4
loop_
 _symmetry_equiv_pos_site_id
 _symmetry_equiv_pos_as_xyz
  1  'x, y, z'
loop_
 _atom_site_type_symbol
 _atom_site_label
 _atom_site_symmetry_multiplicity
 _atom_site_fract_x
 _atom_site_fract_y
 _atom_site_fract_z
 _atom_site_occupancy
  Zn  Zn0  1  0.67849000  0.00862000  0.49966000  1.0
  Zn  Zn1  1  0.32330000  0.00852000  0.50002000  1.0
  Zn  Zn2  1  0.17411000  0.97630000  0.00039000  1.0
  Zn  Zn3  1  0.53163000  0.98665000  0.99980000  1.0
  H  H4  1  0.70574000  0.97569000  0.88279000  1.0
  H  H5  1  0.72056000  0.96750000  0.81119000  1.0
  H  H6  1  0.83645000  0.08640000  0.69134000  1.0
  H  H7  1  0.35149000  0.89931000  0.69151000  1.0
  H  H8  1  0.32328000  0.96236000  0.74723000  1.0
  H  H9  1  0.71547000  0.02961000  0.75185000  1.0
  H  H10  1  0.70638000  0.97266000  0.11628000  1.0
  H  H11  1  0.72193000  0.96395000  0.18785000  1.0
  H  H12  1  0.83746000  0.08705000  0.30753000  1.0
  H  H13  1  0.35372000  0.89875000  0.30866000  1.0
  H  H14  1  0.32559000  0.96115000  0.25276000  1.0
  H  H15  1  0.71667000  0.03132000  0.24734000  1.0
  H  H16  1  0.01098000  0.08394000  0.86312000  1.0
  H  H17  1  0.11791000  0.08805000  0.90835000  1.0
  H  H18  1  0.02227000  0.96759000  0.89225000  1.0
  H  H19  1  0.99078000  0.00351000  0.81693000  1.0
  H  H20  1  0.09953000  0.93715000  0.77940000  1.0
  H  H21  1  0.10542000  0.07808000  0.78076000  1.0
  H  H22  1  0.22904000  0.83454000  0.63797000  1.0
  H  H23  1  0.34832000  0.83130000  0.59358000  1.0
  H  H24  1  0.20831000  0.93769000  0.60311000  1.0
  H  H25  1  0.96849000  0.14657000  0.63743000  1.0
  H  H26  1  0.84338000  0.16398000  0.59457000  1.0
  H  H27  1  0.96917000  0.04948000  0.60009000  1.0
  H  H28  1  0.02600000  0.96911000  0.10844000  1.0
  H  H29  1  0.12091000  0.08973000  0.09185000  1.0
  H  H30  1  0.01207000  0.08567000  0.13708000  1.0
  H  H31  1  0.12871000  0.07927000  0.22393000  1.0
  H  H32  1  0.08949000  0.94052000  0.21867000  1.0
  H  H33  1  0.99673000  0.02960000  0.18564000  1.0
  H  H34  1  0.20920000  0.93678000  0.39724000  1.0
  H  H35  1  0.34988000  0.83086000  0.40679000  1.0
  H  H36  1  0.23119000  0.83352000  0.36262000  1.0
  H  H37  1  0.96981000  0.05050000  0.39848000  1.0
  H  H38  1  0.84234000  0.16421000  0.40434000  1.0
  H  H39  1  0.96778000  0.14820000  0.36117000  1.0
  C  C40  1  0.40144000  0.80721000  0.50006000  1.0
  C  C41  1  0.58218000  0.00368000  0.57247000  1.0
  C  C42  1  0.42627000  0.20968000  0.49992000  1.0
  C  C43  1  0.58239000  0.00368000  0.42705000  1.0
  C  C44  1  0.28862000  0.77840000  0.00015000  1.0
  C  C45  1  0.42651000  0.99230000  0.92752000  1.0
  C  C46  1  0.25646000  0.18031000  0.00019000  1.0
  C  C47  1  0.42761000  0.99178000  0.07240000  1.0
  C  C48  1  0.42573000  0.99906000  0.88467000  1.0
  C  C49  1  0.58751000  0.98505000  0.86548000  1.0
  C  C50  1  0.59503000  0.98093000  0.82569000  1.0
  C  C51  1  0.44042000  0.98859000  0.80357000  1.0
  C  C52  1  0.27586000  0.00256000  0.82266000  1.0
  C  C53  1  0.26828000  0.01245000  0.86323000  1.0
  C  C54  1  0.44775000  0.98202000  0.76163000  1.0
  C  C55  1  0.59094000  0.00207000  0.73886000  1.0
  C  C56  1  0.72898000  0.04609000  0.67573000  1.0
  C  C57  1  0.59097000  0.99630000  0.69687000  1.0
  C  C58  1  0.45600000  0.94351000  0.67605000  1.0
  C  C59  1  0.45139000  0.94410000  0.63591000  1.0
  C  C60  1  0.58991000  0.99836000  0.61529000  1.0
  C  C61  1  0.73250000  0.04803000  0.63543000  1.0
  C  C62  1  0.42728000  0.99917000  0.11524000  1.0
  C  C63  1  0.58885000  0.98369000  0.13394000  1.0
  C  C64  1  0.59688000  0.97960000  0.17373000  1.0
  C  C65  1  0.44299000  0.98989000  0.19624000  1.0
  C  C66  1  0.27879000  0.00683000  0.17770000  1.0
  C  C67  1  0.27042000  0.01482000  0.13708000  1.0
  C  C68  1  0.44989000  0.98227000  0.23818000  1.0
  C  C69  1  0.59269000  0.00264000  0.26065000  1.0
  C  C70  1  0.73011000  0.04642000  0.32343000  1.0
  C  C71  1  0.59268000  0.99630000  0.30266000  1.0
  C  C72  1  0.45788000  0.94310000  0.32383000  1.0
  C  C73  1  0.45275000  0.94367000  0.36398000  1.0
  C  C74  1  0.59063000  0.99831000  0.38423000  1.0
  C  C75  1  0.73312000  0.04836000  0.36373000  1.0
  C  C76  1  0.55846000  0.40088000  0.50003000  1.0
  C  C77  1  0.25254000  0.61701000  0.50008000  1.0
  C  C78  1  0.41908000  0.32635000  0.50002000  1.0
  C  C79  1  0.39375000  0.69035000  0.50007000  1.0
  C  C80  1  0.31202000  0.51080000  0.50007000  1.0
  C  C81  1  0.49724000  0.50628000  0.50006000  1.0
  C  C82  1  0.11115000  0.36675000  0.00019000  1.0
  C  C83  1  0.42086000  0.59088000  0.00000000  1.0
  C  C84  1  0.25100000  0.29700000  0.00012000  1.0
  C  C85  1  0.28231000  0.66151000  0.00012000  1.0
  C  C86  1  0.35797000  0.48381000  0.00001000  1.0
  C  C87  1  0.17267000  0.47440000  0.00013000  1.0
  C  C88  1  0.09594000  0.03967000  0.88258000  1.0
  C  C89  1  0.10948000  0.00604000  0.79886000  1.0
  C  C90  1  0.30152000  0.88363000  0.61660000  1.0
  C  C91  1  0.88629000  0.10528000  0.61587000  1.0
  C  C92  1  0.09856000  0.04155000  0.11781000  1.0
  C  C93  1  0.11503000  0.01509000  0.20256000  1.0
  C  C94  1  0.30303000  0.88293000  0.38372000  1.0
  C  C95  1  0.88611000  0.10611000  0.38291000  1.0
  S  S96  1  0.21341000  0.38573000  0.50007000  1.0
  S  S97  1  0.59833000  0.63010000  0.50004000  1.0
  S  S98  1  0.45680000  0.36258000  0.99995000  1.0
  S  S99  1  0.07574000  0.59666000  0.00024000  1.0
  Cl  Cl100  1  0.77817000  0.37426000  0.50004000  1.0
  Cl  Cl101  1  0.03448000  0.64759000  0.50008000  1.0
  Cl  Cl102  1  0.89210000  0.33129000  0.00031000  1.0
  Cl  Cl103  1  0.64112000  0.62313000  0.99989000  1.0
  O  O104  1  0.55575000  0.85012000  0.49994000  1.0
  O  O105  1  0.25569000  0.85860000  0.50017000  1.0
  O  O106  1  0.43232000  0.01018000  0.55628000  1.0
  O  O107  1  0.73036000  0.00207000  0.55350000  1.0
  O  O108  1  0.27447000  0.15888000  0.50007000  1.0
  O  O109  1  0.57582000  0.16662000  0.49969000  1.0
  O  O110  1  0.73039000  0.00204000  0.44572000  1.0
  O  O111  1  0.43234000  0.01024000  0.44352000  1.0
  O  O112  1  0.13589000  0.82311000  0.00040000  1.0
  O  O113  1  0.43806000  0.82649000  0.99995000  1.0
  O  O114  1  0.57782000  0.99773000  0.94494000  1.0
  O  O115  1  0.28018000  0.97807000  0.94527000  1.0
  O  O116  1  0.41008000  0.14142000  0.99999000  1.0
  O  O117  1  0.10952000  0.12522000  0.00045000  1.0
  O  O118  1  0.28112000  0.97717000  0.05513000  1.0
  O  O119  1  0.57870000  0.99728000  0.05450000  1.0
