# generated using pymatgen
data_BaH8C10(N2O3)2
_symmetry_space_group_name_H-M   'P 1'
_cell_length_a   6.87673000
_cell_length_b   9.78505000
_cell_length_c   11.53172671
_cell_angle_alpha   65.07672611
_cell_angle_beta   73.46248481
_cell_angle_gamma   88.31440000
_symmetry_Int_Tables_number   1
_chemical_formula_structural   BaH8C10(N2O3)2
_chemical_formula_sum   'Ba2 H16 C20 N8 O12'
_cell_volume   670.91976054
_cell_formula_units_Z   2
loop_
 _symmetry_equiv_pos_site_id
 _symmetry_equiv_pos_as_xyz
  1  'x, y, z'
loop_
 _atom_site_type_symbol
 _atom_site_label
 _atom_site_symmetry_multiplicity
 _atom_site_fract_x
 _atom_site_fract_y
 _atom_site_fract_z
 _atom_site_occupancy
  Ba  Ba0  1  0.03921000  0.32983000  0.39378000  1.0
  Ba  Ba1  1  0.96079000  0.67017000  0.60622000  1.0
  H  H2  1  0.16408000  0.33907000  0.64262000  1.0
  H  H3  1  0.83592000  0.66094000  0.35738000  1.0
  H  H4  1  0.94156000  0.26270000  0.71373000  1.0
  H  H5  1  0.05844000  0.73730000  0.28627000  1.0
  H  H6  1  0.55493000  0.31047000  0.57075000  1.0
  H  H7  1  0.44506000  0.68953000  0.42925000  1.0
  H  H8  1  0.56126000  0.42054000  0.42377000  1.0
  H  H9  1  0.43874000  0.57946000  0.57623000  1.0
  H  H10  1  0.76118000  0.99364000  0.58120000  1.0
  H  H11  1  0.23882000  0.00637000  0.41879000  1.0
  H  H12  1  0.80301000  0.03585000  0.69283000  1.0
  H  H13  1  0.19699000  0.96415000  0.30717000  1.0
  H  H14  1  0.34136000  0.11008000  0.56274000  1.0
  H  H15  1  0.65863000  0.88992000  0.43726000  1.0
  H  H16  1  0.48910000  0.17034000  0.41578000  1.0
  H  H17  1  0.51089000  0.82966000  0.58422000  1.0
  C  C18  1  0.23485000  0.97692000  0.04003000  1.0
  C  C19  1  0.76516000  0.02307000  0.95998000  1.0
  C  C20  1  0.32211000  0.13077000  0.93918000  1.0
  C  C21  1  0.67790000  0.86922000  0.06082000  1.0
  C  C22  1  0.31619000  0.08776000  0.83255000  1.0
  C  C23  1  0.68381000  0.91223000  0.16746000  1.0
  C  C24  1  0.23127000  0.93350000  0.93302000  1.0
  C  C25  1  0.76873000  0.06649000  0.06699000  1.0
  C  C26  1  0.38384000  0.26332000  0.94273000  1.0
  C  C27  1  0.61616000  0.73668000  0.05727000  1.0
  C  C28  1  0.34497000  0.27371000  0.06539000  1.0
  C  C29  1  0.65502000  0.72630000  0.93461000  1.0
  C  C30  1  0.47798000  0.39034000  0.82236000  1.0
  C  C31  1  0.52202000  0.60966000  0.17764000  1.0
  C  C32  1  0.17558000  0.80171000  0.92588000  1.0
  C  C33  1  0.82442000  0.19829000  0.07412000  1.0
  C  C34  1  0.09424000  0.66566000  0.04119000  1.0
  C  C35  1  0.90576000  0.33434000  0.95881000  1.0
  C  C36  1  0.20787000  0.79953000  0.80092000  1.0
  C  C37  1  0.79213000  0.20047000  0.19908000  1.0
  N  N38  1  0.30740000  0.27941000  0.16877000  1.0
  N  N39  1  0.69260000  0.72060000  0.83122000  1.0
  N  N40  1  0.55913000  0.49277000  0.71968000  1.0
  N  N41  1  0.44087000  0.50723000  0.28031000  1.0
  N  N42  1  0.02429000  0.55335000  0.13740000  1.0
  N  N43  1  0.97570000  0.44665000  0.86260000  1.0
  N  N44  1  0.23662000  0.79788000  0.69633000  1.0
  N  N45  1  0.76336000  0.20212000  0.30368000  1.0
  O  O46  1  0.36038000  0.15566000  0.70735000  1.0
  O  O47  1  0.63961000  0.84434000  0.29265000  1.0
  O  O48  1  0.18657000  0.91173000  0.16519000  1.0
  O  O49  1  0.81345000  0.08827000  0.83481000  1.0
  O  O50  1  0.02664000  0.35139000  0.63367000  1.0
  O  O51  1  0.97336000  0.64861000  0.36633000  1.0
  O  O52  1  0.64545000  0.38572000  0.48505000  1.0
  O  O53  1  0.35455000  0.61428000  0.51495000  1.0
  O  O54  1  0.84636000  0.05926000  0.59718000  1.0
  O  O55  1  0.15364000  0.94074000  0.40282000  1.0
  O  O56  1  0.34433000  0.13884000  0.46938000  1.0
  O  O57  1  0.65566000  0.86116000  0.53062000  1.0
