# generated using pymatgen
data_ZnH8C18(NO4)3
_symmetry_space_group_name_H-M   'P 1'
_cell_length_a   9.78112000
_cell_length_b   10.84370000
_cell_length_c   19.51870000
_cell_angle_alpha   86.56300000
_cell_angle_beta   83.58370000
_cell_angle_gamma   86.25060000
_symmetry_Int_Tables_number   1
_chemical_formula_structural   ZnH8C18(NO4)3
_chemical_formula_sum   'Zn2 H16 C36 N6 O24'
_cell_volume   2049.95645298
_cell_formula_units_Z   2
loop_
 _symmetry_equiv_pos_site_id
 _symmetry_equiv_pos_as_xyz
  1  'x, y, z'
loop_
 _atom_site_type_symbol
 _atom_site_label
 _atom_site_symmetry_multiplicity
 _atom_site_fract_x
 _atom_site_fract_y
 _atom_site_fract_z
 _atom_site_occupancy
  Zn  Zn0  1  0.64604000  0.49164000  0.47733000  1.0
  Zn  Zn1  1  0.34938000  0.50311000  0.52412000  1.0
  H  H2  1  0.29642000  0.10783000  0.57298000  1.0
  H  H3  1  0.68284000  0.88694000  0.43266000  1.0
  H  H4  1  0.30484000  0.87741000  0.56816000  1.0
  H  H5  1  0.67634000  0.11692000  0.43872000  1.0
  H  H6  1  0.25492000  0.52462000  0.16070000  1.0
  H  H7  1  0.75751000  0.42623000  0.83866000  1.0
  H  H8  1  0.35149000  0.61092000  0.84289000  1.0
  H  H9  1  0.66384000  0.34691000  0.15979000  1.0
  H  H10  1  0.69968000  0.48958000  0.07122000  1.0
  H  H11  1  0.31429000  0.45692000  0.92942000  1.0
  H  H12  1  0.73960000  0.52244000  0.94484000  1.0
  H  H13  1  0.27440000  0.42340000  0.05591000  1.0
  H  H14  1  0.15698000  0.87973000  0.48364000  1.0
  H  H15  1  0.82855000  0.12174000  0.51835000  1.0
  H  H16  1  0.23317000  0.34492000  0.66983000  1.0
  H  H17  1  0.76754000  0.66441000  0.32678000  1.0
  C  C18  1  0.49209000  0.86916000  0.49865000  1.0
  C  C19  1  0.48791000  0.12553000  0.50735000  1.0
  C  C20  1  0.48475000  0.26280000  0.51036000  1.0
  C  C21  1  0.49438000  0.73221000  0.49426000  1.0
  C  C22  1  0.56681000  0.51744000  0.62729000  1.0
  C  C23  1  0.45149000  0.46781000  0.37160000  1.0
  C  C24  1  0.38097000  0.05901000  0.54259000  1.0
  C  C25  1  0.59889000  0.93576000  0.46342000  1.0
  C  C26  1  0.38382000  0.93120000  0.53872000  1.0
  C  C27  1  0.59685000  0.06338000  0.46790000  1.0
  C  C28  1  0.32949000  0.48026000  0.25871000  1.0
  C  C29  1  0.68715000  0.48574000  0.74160000  1.0
  C  C30  1  0.46307000  0.58104000  0.74435000  1.0
  C  C31  1  0.55545000  0.38864000  0.25751000  1.0
  C  C32  1  0.34085000  0.48304000  0.18675000  1.0
  C  C33  1  0.67275000  0.47256000  0.81358000  1.0
  C  C34  1  0.44619000  0.57160000  0.81579000  1.0
  C  C35  1  0.56925000  0.38782000  0.18621000  1.0
  C  C36  1  0.46300000  0.43998000  0.14902000  1.0
  C  C37  1  0.55053000  0.51288000  0.85204000  1.0
  C  C38  1  0.06385000  0.60326000  0.47717000  1.0
  C  C39  1  0.93128000  0.39591000  0.52037000  1.0
  C  C40  1  0.05552000  0.42163000  0.54472000  1.0
  C  C41  1  0.93960000  0.57758000  0.45268000  1.0
  C  C42  1  0.43871000  0.43990000  0.29712000  1.0
  C  C43  1  0.58043000  0.53411000  0.70347000  1.0
  C  C44  1  0.61536000  0.48002000  0.04012000  1.0
  C  C45  1  0.39856000  0.46612000  0.96060000  1.0
  C  C46  1  0.63780000  0.49896000  0.96881000  1.0
  C  C47  1  0.37615000  0.44698000  0.03194000  1.0
  C  C48  1  0.52948000  0.49302000  0.92777000  1.0
  C  C49  1  0.48413000  0.45418000  0.07305000  1.0
  C  C50  1  0.13491000  0.72115000  0.45272000  1.0
  C  C51  1  0.85857000  0.28003000  0.54707000  1.0
  C  C52  1  0.11394000  0.33697000  0.59954000  1.0
  C  C53  1  0.88028000  0.66568000  0.39962000  1.0
  N  N54  1  0.87314000  0.47527000  0.47488000  1.0
  N  N55  1  0.12238000  0.52326000  0.52209000  1.0
  N  N56  1  0.19210000  0.52485000  0.29136000  1.0
  N  N57  1  0.82591000  0.44584000  0.70908000  1.0
  N  N58  1  0.35077000  0.65238000  0.71168000  1.0
  N  N59  1  0.67199000  0.32481000  0.29066000  1.0
  O  O60  1  0.59844000  0.31446000  0.49605000  1.0
  O  O61  1  0.38452000  0.67989000  0.51858000  1.0
  O  O62  1  0.60436000  0.67728000  0.46712000  1.0
  O  O63  1  0.36758000  0.31851000  0.52647000  1.0
  O  O64  1  0.66738000  0.53038000  0.58177000  1.0
  O  O65  1  0.34602000  0.48288000  0.41402000  1.0
  O  O66  1  0.57636000  0.47787000  0.38212000  1.0
  O  O67  1  0.44694000  0.48721000  0.61835000  1.0
  O  O68  1  0.20816000  0.73244000  0.39860000  1.0
  O  O69  1  0.10484000  0.80706000  0.49979000  1.0
  O  O70  1  0.78811000  0.27193000  0.60223000  1.0
  O  O71  1  0.88319000  0.19224000  0.50091000  1.0
  O  O72  1  0.09412000  0.22712000  0.60714000  1.0
  O  O73  1  0.18585000  0.40159000  0.63807000  1.0
  O  O74  1  0.89542000  0.77658000  0.39650000  1.0
  O  O75  1  0.81360000  0.60438000  0.35738000  1.0
  O  O76  1  0.13226000  0.45398000  0.33489000  1.0
  O  O77  1  0.14449000  0.62617000  0.26928000  1.0
  O  O78  1  0.88058000  0.51727000  0.66402000  1.0
  O  O79  1  0.88032000  0.34831000  0.73242000  1.0
  O  O80  1  0.38596000  0.73730000  0.66962000  1.0
  O  O81  1  0.23101000  0.62728000  0.73217000  1.0
  O  O82  1  0.64344000  0.23526000  0.33072000  1.0
  O  O83  1  0.78871000  0.35920000  0.27146000  1.0
