# generated using pymatgen
data_PrH22C24N15O8
_symmetry_space_group_name_H-M   'P 1'
_cell_length_a   10.69450000
_cell_length_b   12.00470000
_cell_length_c   13.63000000
_cell_angle_alpha   94.29350000
_cell_angle_beta   101.41100000
_cell_angle_gamma   113.40900000
_symmetry_Int_Tables_number   1
_chemical_formula_structural   PrH22C24N15O8
_chemical_formula_sum   'Pr2 H44 C48 N30 O16'
_cell_volume   1551.02936189
_cell_formula_units_Z   2
loop_
 _symmetry_equiv_pos_site_id
 _symmetry_equiv_pos_as_xyz
  1  'x, y, z'
loop_
 _atom_site_type_symbol
 _atom_site_label
 _atom_site_symmetry_multiplicity
 _atom_site_fract_x
 _atom_site_fract_y
 _atom_site_fract_z
 _atom_site_occupancy
  Pr  Pr0  1  0.94825000  0.11542000  0.40975000  1.0
  Pr  Pr1  1  0.05175000  0.88458000  0.59025000  1.0
  H  H2  1  0.04791000  0.12870000  0.18216000  1.0
  H  H3  1  0.95209000  0.87130000  0.81784000  1.0
  H  H4  1  0.64041000  0.95741000  0.21224000  1.0
  H  H5  1  0.35959000  0.04259000  0.78776000  1.0
  H  H6  1  0.01155000  0.36594000  0.51603000  1.0
  H  H7  1  0.98846000  0.63406000  0.48397000  1.0
  H  H8  1  0.99058000  0.28947000  0.60943000  1.0
  H  H9  1  0.00942000  0.71053000  0.39057000  1.0
  H  H10  1  0.62377000  0.11420000  0.34960000  1.0
  H  H11  1  0.37623000  0.88580000  0.65040000  1.0
  H  H12  1  0.23374000  0.57048000  0.31705000  1.0
  H  H13  1  0.76626000  0.42952000  0.68295000  1.0
  H  H14  1  0.32992000  0.49100000  0.37536000  1.0
  H  H15  1  0.67009000  0.50900000  0.62464000  1.0
  H  H16  1  0.00890000  0.44203000  0.95455000  1.0
  H  H17  1  0.99110000  0.55797000  0.04545000  1.0
  H  H18  1  0.94083000  0.40712000  0.76754000  1.0
  H  H19  1  0.05917000  0.59289000  0.23246000  1.0
  H  H20  1  0.15102000  0.18510000  0.74646000  1.0
  H  H21  1  0.84897000  0.81490000  0.25354000  1.0
  H  H22  1  0.23837000  0.21892000  0.93410000  1.0
  H  H23  1  0.76162000  0.78107000  0.06590000  1.0
  H  H24  1  0.78367000  0.13729000  0.64663000  1.0
  H  H25  1  0.21633000  0.86271000  0.35337000  1.0
  H  H26  1  0.64629000  0.99578000  0.57681000  1.0
  H  H27  1  0.35371000  0.00422000  0.42319000  1.0
  H  H28  1  0.54041000  0.91978000  0.02436000  1.0
  H  H29  1  0.45959000  0.08022000  0.97564000  1.0
  H  H30  1  0.96545000  0.09679000  0.99290000  1.0
  H  H31  1  0.03455000  0.90321000  0.00710000  1.0
  H  H32  1  0.61468000  0.60704000  0.34065000  1.0
  H  H33  1  0.38532000  0.39296000  0.65935000  1.0
  H  H34  1  0.53794000  0.66929000  0.42217000  1.0
  H  H35  1  0.46207000  0.33071000  0.57783000  1.0
  H  H36  1  0.20194000  0.74309000  0.00858000  1.0
  H  H37  1  0.79806000  0.25692000  0.99142000  1.0
  H  H38  1  0.13301000  0.70609000  0.81818000  1.0
  H  H39  1  0.86699000  0.29392000  0.18182000  1.0
  H  H40  1  0.42900000  0.56995000  0.80126000  1.0
  H  H41  1  0.57100000  0.43005000  0.19874000  1.0
  H  H42  1  0.51196000  0.60253000  0.98931000  1.0
  H  H43  1  0.48804000  0.39747000  0.01069000  1.0
  H  H44  1  0.75087000  0.21963000  0.43368000  1.0
  H  H45  1  0.24913000  0.78037000  0.56632000  1.0
  C  C46  1  0.93641000  0.08329000  0.14424000  1.0
  C  C47  1  0.06359000  0.91671000  0.85576000  1.0
  C  C48  1  0.70901000  0.98740000  0.16102000  1.0
  C  C49  1  0.29099000  0.01260000  0.83898000  1.0
  C  C50  1  0.11332000  0.40807000  0.37505000  1.0
  C  C51  1  0.88669000  0.59193000  0.62495000  1.0
  C  C52  1  0.23103000  0.47935000  0.32404000  1.0
  C  C53  1  0.76897000  0.52065000  0.67596000  1.0
  C  C54  1  0.18215000  0.35618000  0.07157000  1.0
  C  C55  1  0.81785000  0.64382000  0.92844000  1.0
  C  C56  1  0.13122000  0.33402000  0.96100000  1.0
  C  C57  1  0.86878000  0.66598000  0.03900000  1.0
  C  C58  1  0.04433000  0.38527000  0.91199000  1.0
  C  C59  1  0.95567000  0.61473000  0.08801000  1.0
  C  C60  1  0.00486000  0.36461000  0.80645000  1.0
  C  C61  1  0.99514000  0.63539000  0.19355000  1.0
  C  C62  1  0.12310000  0.24325000  0.79487000  1.0
  C  C63  1  0.87690000  0.75675000  0.20513000  1.0
  C  C64  1  0.17072000  0.26082000  0.89990000  1.0
  C  C65  1  0.82928000  0.73917000  0.10010000  1.0
  C  C66  1  0.84751000  0.98862000  0.62897000  1.0
  C  C67  1  0.15248000  0.01138000  0.37103000  1.0
  C  C68  1  0.73809000  0.03696000  0.64217000  1.0
  C  C69  1  0.26190000  0.96304000  0.35783000  1.0
  C  C70  1  0.69493000  0.99198000  0.88428000  1.0
  C  C71  1  0.30506000  0.00802000  0.11572000  1.0
  C  C72  1  0.74574000  0.00629000  0.99378000  1.0
  C  C73  1  0.25426000  0.99371000  0.00622000  1.0
  C  C74  1  0.65345000  0.96587000  0.05653000  1.0
  C  C75  1  0.34655000  0.03412000  0.94347000  1.0
  C  C76  1  0.89044000  0.06504000  0.03933000  1.0
  C  C77  1  0.10956000  0.93496000  0.96067000  1.0
  C  C78  1  0.73539000  0.80004000  0.40510000  1.0
  C  C79  1  0.26461000  0.19997000  0.59490000  1.0
  C  C80  1  0.59415000  0.68687000  0.36178000  1.0
  C  C81  1  0.40586000  0.31313000  0.63822000  1.0
  C  C82  1  0.40720000  0.69769000  0.12512000  1.0
  C  C83  1  0.59280000  0.30231000  0.87488000  1.0
  C  C84  1  0.36268000  0.67541000  0.01435000  1.0
  C  C85  1  0.63732000  0.32459000  0.98565000  1.0
  C  C86  1  0.25492000  0.70504000  0.96481000  1.0
  C  C87  1  0.74507000  0.29496000  0.03518000  1.0
  C  C88  1  0.21674000  0.68414000  0.85895000  1.0
  C  C89  1  0.78326000  0.31587000  0.14105000  1.0
  C  C90  1  0.37976000  0.60775000  0.84917000  1.0
  C  C91  1  0.62024000  0.39225000  0.15083000  1.0
  C  C92  1  0.42649000  0.62549000  0.95456000  1.0
  C  C93  1  0.57351000  0.37451000  0.04544000  1.0
  N  N94  1  0.84769000  0.04573000  0.20522000  1.0
  N  N95  1  0.15231000  0.95427000  0.79478000  1.0
  N  N96  1  0.15164000  0.42479000  0.13762000  1.0
  N  N97  1  0.84837000  0.57521000  0.86238000  1.0
  N  N98  1  0.22642000  0.41948000  0.22616000  1.0
  N  N99  1  0.77358000  0.58052000  0.77384000  1.0
  N  N100  1  0.29951000  0.35222000  0.21789000  1.0
  N  N101  1  0.70049000  0.64777000  0.78211000  1.0
  N  N102  1  0.27178000  0.31125000  0.12038000  1.0
  N  N103  1  0.72822000  0.68875000  0.87962000  1.0
  N  N104  1  0.04247000  0.29495000  0.74743000  1.0
  N  N105  1  0.95753000  0.70505000  0.25258000  1.0
  N  N106  1  0.78021000  0.03918000  0.82335000  1.0
  N  N107  1  0.21978000  0.96081000  0.17665000  1.0
  N  N108  1  0.69115000  0.00640000  0.73327000  1.0
  N  N109  1  0.30885000  0.99360000  0.26673000  1.0
  N  N110  1  0.55665000  0.94184000  0.73572000  1.0
  N  N111  1  0.44335000  0.05815000  0.26428000  1.0
  N  N112  1  0.55787000  0.93261000  0.83121000  1.0
  N  N113  1  0.44213000  0.06739000  0.16879000  1.0
  N  N114  1  0.49962000  0.66142000  0.17902000  1.0
  N  N115  1  0.50039000  0.33858000  0.82098000  1.0
  N  N116  1  0.50435000  0.70104000  0.27401000  1.0
  N  N117  1  0.49565000  0.29896000  0.72599000  1.0
  N  N118  1  0.42216000  0.75965000  0.28122000  1.0
  N  N119  1  0.57785000  0.24035000  0.71878000  1.0
  N  N120  1  0.35972000  0.75801000  0.18724000  1.0
  N  N121  1  0.64028000  0.24199000  0.81276000  1.0
  N  N122  1  0.27695000  0.63597000  0.80084000  1.0
  N  N123  1  0.72305000  0.36403000  0.19916000  1.0
  O  O124  1  0.81559000  0.77976000  0.47528000  1.0
  O  O125  1  0.18442000  0.22024000  0.52472000  1.0
  O  O126  1  0.85694000  0.90363000  0.67312000  1.0
  O  O127  1  0.14305000  0.09637000  0.32688000  1.0
  O  O128  1  0.11646000  0.46666000  0.45590000  1.0
  O  O129  1  0.88354000  0.53334000  0.54410000  1.0
  O  O130  1  0.02954000  0.29751000  0.33284000  1.0
  O  O131  1  0.97046000  0.70249000  0.66717000  1.0
  O  O132  1  0.92651000  0.03887000  0.57052000  1.0
  O  O133  1  0.07349000  0.96113000  0.42948000  1.0
  O  O134  1  0.75621000  0.89808000  0.36895000  1.0
  O  O135  1  0.24379000  0.10192000  0.63105000  1.0
  O  O136  1  0.95227000  0.28582000  0.53529000  1.0
  O  O137  1  0.04773000  0.71418000  0.46471000  1.0
  O  O138  1  0.71783000  0.13685000  0.39518000  1.0
  O  O139  1  0.28217000  0.86315000  0.60482000  1.0
