# generated using pymatgen
data_MnH10C10(NO)4
_symmetry_space_group_name_H-M   'P 1'
_cell_length_a   5.08543000
_cell_length_b   8.32453000
_cell_length_c   12.23210000
_cell_angle_alpha   93.08130000
_cell_angle_beta   90.00000000
_cell_angle_gamma   89.99950000
_symmetry_Int_Tables_number   1
_chemical_formula_structural   MnH10C10(NO)4
_chemical_formula_sum   'Mn2 H20 C20 N8 O8'
_cell_volume   517.08280761
_cell_formula_units_Z   2
loop_
 _symmetry_equiv_pos_site_id
 _symmetry_equiv_pos_as_xyz
  1  'x, y, z'
loop_
 _atom_site_type_symbol
 _atom_site_label
 _atom_site_symmetry_multiplicity
 _atom_site_fract_x
 _atom_site_fract_y
 _atom_site_fract_z
 _atom_site_occupancy
  Mn  Mn0  1  0.00000000  0.50000000  0.50001000  1.0
  Mn  Mn1  1  0.50000000  0.00000000  0.99999000  1.0
  H  H2  1  0.26670000  0.73799000  0.31363000  1.0
  H  H3  1  0.76670000  0.76200000  0.18637000  1.0
  H  H4  1  0.73328000  0.26200000  0.68637000  1.0
  H  H5  1  0.23329000  0.23800000  0.81363000  1.0
  H  H6  1  0.56680000  0.80456000  0.49332000  1.0
  H  H7  1  0.06678000  0.69546000  0.00668000  1.0
  H  H8  1  0.43321000  0.19548000  0.50669000  1.0
  H  H9  1  0.93323000  0.30451000  0.99330000  1.0
  H  H10  1  0.69603000  0.09293000  0.39265000  1.0
  H  H11  1  0.19601000  0.40708000  0.10736000  1.0
  H  H12  1  0.30399000  0.90708000  0.60737000  1.0
  H  H13  1  0.80401000  0.59291000  0.89263000  1.0
  H  H14  1  0.35244000  0.01753000  0.25180000  1.0
  H  H15  1  0.85244000  0.48247000  0.24819000  1.0
  H  H16  1  0.64755000  0.98248000  0.74820000  1.0
  H  H17  1  0.14756000  0.51752000  0.75180000  1.0
  H  H18  1  0.15425000  0.17666000  0.30865000  1.0
  H  H19  1  0.65424000  0.32335000  0.19135000  1.0
  H  H20  1  0.84574000  0.82335000  0.69135000  1.0
  H  H21  1  0.34575000  0.67665000  0.80865000  1.0
  C  C22  1  0.09134000  0.79236000  0.34931000  1.0
  C  C23  1  0.59133000  0.70764000  0.15069000  1.0
  C  C24  1  0.90867000  0.20765000  0.65069000  1.0
  C  C25  1  0.40868000  0.29235000  0.84931000  1.0
  C  C26  1  0.73056000  0.83570000  0.44191000  1.0
  C  C27  1  0.23056000  0.66430000  0.05809000  1.0
  C  C28  1  0.26944000  0.16431000  0.55810000  1.0
  C  C29  1  0.76945000  0.33569000  0.94190000  1.0
  C  C30  1  0.78685000  0.97531000  0.39142000  1.0
  C  C31  1  0.28685000  0.52470000  0.10857000  1.0
  C  C32  1  0.21315000  0.02469000  0.60858000  1.0
  C  C33  1  0.71315000  0.47529000  0.89142000  1.0
  C  C34  1  0.14904000  0.05743000  0.26500000  1.0
  C  C35  1  0.64905000  0.44257000  0.23500000  1.0
  C  C36  1  0.85094000  0.94257000  0.73500000  1.0
  C  C37  1  0.35094000  0.55743000  0.76500000  1.0
  C  C38  1  0.01857000  0.07990000  0.15359000  1.0
  C  C39  1  0.51856000  0.42011000  0.34641000  1.0
  C  C40  1  0.98143000  0.92009000  0.84640000  1.0
  C  C41  1  0.48144000  0.57991000  0.65360000  1.0
  N  N42  1  0.92277000  0.72240000  0.41546000  1.0
  N  N43  1  0.42276000  0.77761000  0.08455000  1.0
  N  N44  1  0.07723000  0.27761000  0.58455000  1.0
  N  N45  1  0.57725000  0.22239000  0.91545000  1.0
  N  N46  1  0.01565000  0.94577000  0.33319000  1.0
  N  N47  1  0.51565000  0.55423000  0.16681000  1.0
  N  N48  1  0.98435000  0.05424000  0.66682000  1.0
  N  N49  1  0.48435000  0.44576000  0.83318000  1.0
  O  O50  1  0.17128000  0.12823000  0.07970000  1.0
  O  O51  1  0.67128000  0.37177000  0.42030000  1.0
  O  O52  1  0.82872000  0.87174000  0.92030000  1.0
  O  O53  1  0.32872000  0.62825000  0.57970000  1.0
  O  O54  1  0.77269000  0.05873000  0.14454000  1.0
  O  O55  1  0.27270000  0.44127000  0.35547000  1.0
  O  O56  1  0.22729000  0.94125000  0.85546000  1.0
  O  O57  1  0.72730000  0.55875000  0.64454000  1.0
