# generated using pymatgen
data_ZnH6C11NO10
_symmetry_space_group_name_H-M   'P 1'
_cell_length_a   10.45080000
_cell_length_b   10.96950000
_cell_length_c   11.78960000
_cell_angle_alpha   88.58900000
_cell_angle_beta   81.75100000
_cell_angle_gamma   84.37200000
_symmetry_Int_Tables_number   1
_chemical_formula_structural   ZnH6C11NO10
_chemical_formula_sum   'Zn2 H12 C22 N2 O20'
_cell_volume   1331.05286034
_cell_formula_units_Z   2
loop_
 _symmetry_equiv_pos_site_id
 _symmetry_equiv_pos_as_xyz
  1  'x, y, z'
loop_
 _atom_site_type_symbol
 _atom_site_label
 _atom_site_symmetry_multiplicity
 _atom_site_fract_x
 _atom_site_fract_y
 _atom_site_fract_z
 _atom_site_occupancy
  Zn  Zn0  1  0.61954000  0.48845000  0.49390000  1.0
  Zn  Zn1  1  0.35224000  0.51272000  0.53671000  1.0
  H  H2  1  0.68124000  0.10066000  0.57308000  1.0
  H  H3  1  0.22759000  0.05262000  0.45846000  1.0
  H  H4  1  0.38898000  0.83969000  0.70873000  1.0
  H  H5  1  0.27579000  0.81059000  0.52033000  1.0
  H  H6  1  0.65859000  0.06777000  0.39131000  1.0
  H  H7  1  0.69661000  0.90940000  0.51328000  1.0
  H  H8  1  0.61932000  0.87860000  0.35447000  1.0
  H  H9  1  0.53659000  0.07206000  0.87770000  1.0
  H  H10  1  0.45792000  0.27405000  0.21351000  1.0
  H  H11  1  0.60393000  0.72307000  0.78786000  1.0
  H  H12  1  0.31098000  0.93265000  0.21559000  1.0
  H  H13  1  0.30244000  0.22733000  0.64317000  1.0
  C  C14  1  0.46015000  0.51325000  0.30222000  1.0
  C  C15  1  0.47665000  0.49974000  0.73496000  1.0
  C  C16  1  0.46049000  0.51256000  0.17994000  1.0
  C  C17  1  0.58721000  0.06323000  0.59917000  1.0
  C  C18  1  0.55259000  0.06769000  0.39513000  1.0
  C  C19  1  0.60888000  0.92214000  0.57699000  1.0
  C  C20  1  0.52738000  0.92994000  0.39035000  1.0
  C  C21  1  0.46855000  0.50865000  0.07556000  1.0
  C  C22  1  0.35459000  0.08533000  0.55338000  1.0
  C  C23  1  0.36191000  0.94080000  0.57336000  1.0
  C  C24  1  0.55008000  0.11324000  0.72062000  1.0
  C  C25  1  0.49527000  0.12259000  0.51480000  1.0
  C  C26  1  0.53372000  0.13409000  0.28255000  1.0
  C  C27  1  0.65363000  0.84273000  0.67473000  1.0
  C  C28  1  0.43432000  0.88789000  0.31330000  1.0
  C  C29  1  0.49711000  0.88099000  0.51641000  1.0
  C  C30  1  0.48226000  0.50102000  0.85635000  1.0
  C  C31  1  0.47621000  0.50513000  0.96054000  1.0
  C  C32  1  0.50222000  0.26254000  0.51320000  1.0
  C  C33  1  0.50408000  0.73954000  0.51356000  1.0
  C  C34  1  0.04479000  0.50867000  0.53578000  1.0
  C  C35  1  0.92403000  0.49395000  0.50954000  1.0
  N  N36  1  0.14756000  0.52172000  0.55752000  1.0
  N  N37  1  0.82186000  0.48138000  0.48615000  1.0
  O  O38  1  0.57177000  0.50408000  0.33435000  1.0
  O  O39  1  0.55239000  0.02793000  0.80490000  1.0
  O  O40  1  0.59215000  0.09464000  0.19149000  1.0
  O  O41  1  0.45564000  0.23935000  0.29131000  1.0
  O  O42  1  0.76479000  0.83535000  0.69579000  1.0
  O  O43  1  0.56208000  0.77495000  0.73214000  1.0
  O  O44  1  0.43427000  0.77932000  0.29232000  1.0
  O  O45  1  0.35825000  0.97566000  0.26591000  1.0
  O  O46  1  0.29901000  0.13919000  0.65810000  1.0
  O  O47  1  0.28096000  0.12023000  0.46501000  1.0
  O  O48  1  0.34170000  0.91755000  0.69121000  1.0
  O  O49  1  0.34991000  0.51981000  0.36507000  1.0
  O  O50  1  0.26090000  0.90087000  0.51828000  1.0
  O  O51  1  0.61332000  0.30144000  0.48685000  1.0
  O  O52  1  0.39567000  0.32946000  0.53712000  1.0
  O  O53  1  0.61516000  0.68160000  0.49168000  1.0
  O  O54  1  0.39677000  0.69081000  0.53566000  1.0
  O  O55  1  0.58453000  0.49407000  0.66823000  1.0
  O  O56  1  0.36304000  0.50794000  0.70700000  1.0
  O  O57  1  0.53246000  0.22295000  0.73944000  1.0
