# generated using pymatgen
data_GdPH15C7NO7
_symmetry_space_group_name_H-M   'P 1'
_cell_length_a   5.35647000
_cell_length_b   12.69990000
_cell_length_c   19.94040000
_cell_angle_alpha   89.99940000
_cell_angle_beta   90.74070000
_cell_angle_gamma   89.99700000
_symmetry_Int_Tables_number   1
_chemical_formula_structural   GdPH15C7NO7
_chemical_formula_sum   'Gd4 P4 H60 C28 N4 O28'
_cell_volume   1356.36492915
_cell_formula_units_Z   4
loop_
 _symmetry_equiv_pos_site_id
 _symmetry_equiv_pos_as_xyz
  1  'x, y, z'
loop_
 _atom_site_type_symbol
 _atom_site_label
 _atom_site_symmetry_multiplicity
 _atom_site_fract_x
 _atom_site_fract_y
 _atom_site_fract_z
 _atom_site_occupancy
  Gd  Gd0  1  0.12540000  0.35829000  0.52492000  1.0
  Gd  Gd1  1  0.87467000  0.85828000  0.97508000  1.0
  Gd  Gd2  1  0.87460000  0.64171000  0.47508000  1.0
  Gd  Gd3  1  0.12537000  0.14171000  0.02492000  1.0
  P  P4  1  0.38268000  0.47650000  0.40844000  1.0
  P  P5  1  0.61733000  0.97649000  0.09156000  1.0
  P  P6  1  0.61731000  0.52350000  0.59156000  1.0
  P  P7  1  0.38269000  0.02351000  0.90845000  1.0
  H  H8  1  0.07880000  0.42269000  0.32271000  1.0
  H  H9  1  0.21708000  0.54446000  0.30693000  1.0
  H  H10  1  0.25328000  0.27046000  0.26181000  1.0
  H  H11  1  0.45993000  0.27711000  0.33246000  1.0
  H  H12  1  0.62809000  0.16824000  0.23892000  1.0
  H  H13  1  0.82758000  0.27567000  0.25782000  1.0
  H  H14  1  0.43574000  0.26348000  0.14540000  1.0
  H  H15  1  0.78960000  0.44524000  0.18029000  1.0
  H  H16  1  0.57508000  0.44013000  0.11118000  1.0
  H  H17  1  0.40068000  0.53935000  0.20788000  1.0
  H  H18  1  0.21901000  0.42606000  0.18723000  1.0
  H  H19  1  0.71786000  0.32143000  0.42914000  1.0
  H  H20  1  0.95525000  0.32260000  0.38219000  1.0
  H  H21  1  0.30936000  0.15272000  0.47918000  1.0
  H  H22  1  0.51360000  0.20009000  0.53104000  1.0
  H  H23  1  0.92119000  0.92269000  0.17730000  1.0
  H  H24  1  0.78285000  0.04445000  0.19308000  1.0
  H  H25  1  0.74670000  0.77045000  0.23820000  1.0
  H  H26  1  0.54008000  0.77710000  0.16755000  1.0
  H  H27  1  0.37190000  0.66824000  0.26109000  1.0
  H  H28  1  0.17242000  0.77566000  0.24218000  1.0
  H  H29  1  0.56423000  0.76347000  0.35461000  1.0
  H  H30  1  0.21035000  0.94523000  0.31971000  1.0
  H  H31  1  0.42484000  0.94013000  0.38882000  1.0
  H  H32  1  0.59925000  0.03935000  0.29212000  1.0
  H  H33  1  0.78093000  0.92605000  0.31278000  1.0
  H  H34  1  0.28215000  0.82142000  0.07087000  1.0
  H  H35  1  0.04477000  0.82259000  0.11781000  1.0
  H  H36  1  0.69069000  0.65273000  0.02082000  1.0
  H  H37  1  0.48644000  0.70010000  0.96896000  1.0
  H  H38  1  0.92121000  0.57731000  0.67729000  1.0
  H  H39  1  0.78293000  0.45553000  0.69307000  1.0
  H  H40  1  0.74674000  0.72954000  0.73819000  1.0
  H  H41  1  0.54009000  0.72289000  0.66754000  1.0
  H  H42  1  0.37194000  0.83176000  0.76108000  1.0
  H  H43  1  0.17244000  0.72433000  0.74218000  1.0
  H  H44  1  0.56429000  0.73653000  0.85460000  1.0
  H  H45  1  0.21043000  0.55476000  0.81971000  1.0
  H  H46  1  0.42496000  0.55987000  0.88882000  1.0
  H  H47  1  0.59935000  0.46065000  0.79212000  1.0
  H  H48  1  0.78101000  0.57394000  0.81277000  1.0
  H  H49  1  0.28211000  0.67857000  0.57086000  1.0
  H  H50  1  0.04472000  0.67741000  0.61781000  1.0
  H  H51  1  0.69061000  0.84728000  0.52082000  1.0
  H  H52  1  0.48637000  0.79990000  0.46896000  1.0
  H  H53  1  0.07881000  0.07731000  0.82270000  1.0
  H  H54  1  0.21712000  0.95554000  0.80692000  1.0
  H  H55  1  0.25326000  0.22955000  0.76180000  1.0
  H  H56  1  0.45992000  0.22290000  0.83245000  1.0
  H  H57  1  0.62806000  0.33176000  0.73891000  1.0
  H  H58  1  0.82758000  0.22434000  0.75782000  1.0
  H  H59  1  0.43575000  0.23653000  0.64539000  1.0
  H  H60  1  0.78964000  0.05477000  0.68029000  1.0
  H  H61  1  0.57513000  0.05987000  0.61118000  1.0
  H  H62  1  0.40072000  0.96066000  0.70788000  1.0
  H  H63  1  0.21904000  0.07395000  0.68722000  1.0
  H  H64  1  0.71783000  0.17859000  0.92913000  1.0
  H  H65  1  0.95523000  0.17741000  0.88220000  1.0
  H  H66  1  0.30930000  0.34728000  0.97919000  1.0
  H  H67  1  0.51357000  0.29990000  0.03104000  1.0
  C  C68  1  0.26295000  0.46374000  0.32264000  1.0
  C  C69  1  0.43702000  0.30139000  0.27992000  1.0
  C  C70  1  0.64282000  0.25429000  0.23722000  1.0
  C  C71  1  0.61712000  0.29198000  0.16485000  1.0
  C  C72  1  0.60937000  0.41294000  0.16277000  1.0
  C  C73  1  0.40252000  0.45292000  0.20787000  1.0
  C  C74  1  0.81241000  0.24886000  0.11801000  1.0
  C  C75  1  0.73702000  0.96373000  0.17737000  1.0
  C  C76  1  0.56298000  0.80137000  0.22008000  1.0
  C  C77  1  0.35717000  0.75428000  0.26278000  1.0
  C  C78  1  0.38282000  0.79197000  0.33515000  1.0
  C  C79  1  0.39058000  0.91293000  0.33722000  1.0
  C  C80  1  0.59742000  0.95291000  0.29214000  1.0
  C  C81  1  0.18756000  0.74887000  0.38199000  1.0
  C  C82  1  0.73706000  0.53625000  0.67735000  1.0
  C  C83  1  0.56299000  0.69862000  0.72007000  1.0
  C  C84  1  0.35722000  0.74571000  0.76278000  1.0
  C  C85  1  0.38290000  0.70802000  0.83514000  1.0
  C  C86  1  0.39065000  0.58706000  0.83723000  1.0
  C  C87  1  0.59752000  0.54708000  0.79213000  1.0
  C  C88  1  0.18760000  0.75113000  0.88199000  1.0
  C  C89  1  0.26298000  0.03627000  0.82264000  1.0
  C  C90  1  0.43702000  0.19862000  0.77992000  1.0
  C  C91  1  0.64281000  0.24571000  0.73722000  1.0
  C  C92  1  0.61715000  0.20803000  0.66485000  1.0
  C  C93  1  0.60941000  0.08706000  0.66277000  1.0
  C  C94  1  0.40253000  0.04709000  0.70786000  1.0
  C  C95  1  0.81244000  0.25113000  0.61801000  1.0
  N  N96  1  0.44009000  0.41665000  0.27695000  1.0
  N  N97  1  0.55987000  0.91664000  0.22305000  1.0
  N  N98  1  0.55993000  0.58335000  0.72305000  1.0
  N  N99  1  0.44013000  0.08336000  0.77694000  1.0
  O  O100  1  0.44541000  0.36619000  0.43774000  1.0
  O  O101  1  0.15921000  0.51365000  0.45147000  1.0
  O  O102  1  0.59826000  0.55443000  0.40868000  1.0
  O  O103  1  0.00495000  0.20029000  0.13897000  1.0
  O  O104  1  0.77711000  0.26092000  0.05407000  1.0
  O  O105  1  0.89914000  0.29731000  0.42555000  1.0
  O  O106  1  0.32676000  0.18694000  0.52257000  1.0
  O  O107  1  0.55461000  0.86619000  0.06226000  1.0
  O  O108  1  0.84080000  0.01364000  0.04853000  1.0
  O  O109  1  0.40175000  0.05444000  0.09131000  1.0
  O  O110  1  0.99503000  0.70030000  0.36104000  1.0
  O  O111  1  0.22286000  0.76092000  0.44593000  1.0
  O  O112  1  0.10090000  0.79731000  0.07445000  1.0
  O  O113  1  0.67329000  0.68694000  0.97743000  1.0
  O  O114  1  0.55456000  0.63380000  0.56226000  1.0
  O  O115  1  0.84079000  0.48635000  0.54852000  1.0
  O  O116  1  0.40176000  0.44556000  0.59132000  1.0
  O  O117  1  0.99507000  0.79971000  0.86104000  1.0
  O  O118  1  0.22292000  0.73908000  0.94592000  1.0
  O  O119  1  0.10085000  0.70269000  0.57445000  1.0
  O  O120  1  0.67321000  0.81305000  0.47742000  1.0
  O  O121  1  0.44543000  0.13381000  0.93774000  1.0
  O  O122  1  0.15922000  0.98635000  0.95147000  1.0
  O  O123  1  0.59824000  0.94558000  0.90869000  1.0
  O  O124  1  0.00496000  0.29970000  0.63896000  1.0
  O  O125  1  0.77713000  0.23908000  0.55406000  1.0
  O  O126  1  0.89911000  0.20269000  0.92554000  1.0
  O  O127  1  0.32672000  0.31306000  0.02258000  1.0
