# generated using pymatgen
data_MnH5C6N2O5
_symmetry_space_group_name_H-M   'P 1'
_cell_length_a   7.60017000
_cell_length_b   9.43334000
_cell_length_c   11.12940000
_cell_angle_alpha   89.99750000
_cell_angle_beta   89.99580000
_cell_angle_gamma   79.91600000
_symmetry_Int_Tables_number   1
_chemical_formula_structural   MnH5C6N2O5
_chemical_formula_sum   'Mn4 H20 C24 N8 O20'
_cell_volume   785.59598151
_cell_formula_units_Z   4
loop_
 _symmetry_equiv_pos_site_id
 _symmetry_equiv_pos_as_xyz
  1  'x, y, z'
loop_
 _atom_site_type_symbol
 _atom_site_label
 _atom_site_symmetry_multiplicity
 _atom_site_fract_x
 _atom_site_fract_y
 _atom_site_fract_z
 _atom_site_occupancy
  Mn  Mn0  1  0.21550000  0.48811000  0.67211000  1.0
  Mn  Mn1  1  0.28448000  0.01188000  0.17209000  1.0
  Mn  Mn2  1  0.78448000  0.51188000  0.32790000  1.0
  Mn  Mn3  1  0.71553000  0.98813000  0.82791000  1.0
  H  H4  1  0.07023000  0.69666000  0.90548000  1.0
  H  H5  1  0.42979000  0.80333000  0.40548000  1.0
  H  H6  1  0.92978000  0.30333000  0.09451000  1.0
  H  H7  1  0.57022000  0.19667000  0.59452000  1.0
  H  H8  1  0.10618000  0.67263000  0.13415000  1.0
  H  H9  1  0.39382000  0.82736000  0.63415000  1.0
  H  H10  1  0.89381000  0.32737000  0.86584000  1.0
  H  H11  1  0.60618000  0.17263000  0.36584000  1.0
  H  H12  1  0.30643000  0.44760000  0.21128000  1.0
  H  H13  1  0.19357000  0.05240000  0.71128000  1.0
  H  H14  1  0.69357000  0.55241000  0.78873000  1.0
  H  H15  1  0.80643000  0.94759000  0.28872000  1.0
  H  H16  1  0.88892000  0.44816000  0.60094000  1.0
  H  H17  1  0.61109000  0.05183000  0.10093000  1.0
  H  H18  1  0.11106000  0.55183000  0.39907000  1.0
  H  H19  1  0.38894000  0.94818000  0.89907000  1.0
  H  H20  1  0.02049000  0.29454000  0.60182000  1.0
  H  H21  1  0.47952000  0.20546000  0.10182000  1.0
  H  H22  1  0.97950000  0.70545000  0.39818000  1.0
  H  H23  1  0.52050000  0.79455000  0.89819000  1.0
  C  C24  1  0.15565000  0.60572000  0.94861000  1.0
  C  C25  1  0.34435000  0.89427000  0.44861000  1.0
  C  C26  1  0.84434000  0.39427000  0.05138000  1.0
  C  C27  1  0.65565000  0.10574000  0.55139000  1.0
  C  C28  1  0.17424000  0.59155000  0.07257000  1.0
  C  C29  1  0.32577000  0.90844000  0.57256000  1.0
  C  C30  1  0.82575000  0.40844000  0.92743000  1.0
  C  C31  1  0.67424000  0.09155000  0.42743000  1.0
  C  C32  1  0.28346000  0.46777000  0.11560000  1.0
  C  C33  1  0.21655000  0.03223000  0.61560000  1.0
  C  C34  1  0.71654000  0.53223000  0.88440000  1.0
  C  C35  1  0.78345000  0.96777000  0.38440000  1.0
  C  C36  1  0.34361000  0.38851000  0.92300000  1.0
  C  C37  1  0.15640000  0.11148000  0.42300000  1.0
  C  C38  1  0.65638000  0.61148000  0.07700000  1.0
  C  C39  1  0.84362000  0.88853000  0.57700000  1.0
  C  C40  1  0.43713000  0.27710000  0.83554000  1.0
  C  C41  1  0.06287000  0.22290000  0.33555000  1.0
  C  C42  1  0.56286000  0.72290000  0.16446000  1.0
  C  C43  1  0.93713000  0.77712000  0.66446000  1.0
  C  C44  1  0.55287000  0.53341000  0.54929000  1.0
  C  C45  1  0.94712000  0.96659000  0.04929000  1.0
  C  C46  1  0.44709000  0.46658000  0.45072000  1.0
  C  C47  1  0.05291000  0.03342000  0.95070000  1.0
  N  N48  1  0.23856000  0.50343000  0.87359000  1.0
  N  N49  1  0.26144000  0.99656000  0.37358000  1.0
  N  N50  1  0.76143000  0.49656000  0.12641000  1.0
  N  N51  1  0.73858000  0.00345000  0.62642000  1.0
  N  N52  1  0.37061000  0.36750000  0.04070000  1.0
  N  N53  1  0.12940000  0.13249000  0.54070000  1.0
  N  N54  1  0.62939000  0.63250000  0.95930000  1.0
  N  N55  1  0.87060000  0.86750000  0.45930000  1.0
  O  O56  1  0.37767000  0.28406000  0.72876000  1.0
  O  O57  1  0.12232000  0.21593000  0.22877000  1.0
  O  O58  1  0.62232000  0.71593000  0.27124000  1.0
  O  O59  1  0.87767000  0.78408000  0.77125000  1.0
  O  O60  1  0.56845000  0.18859000  0.87546000  1.0
  O  O61  1  0.93157000  0.31141000  0.37548000  1.0
  O  O62  1  0.43157000  0.81141000  0.12453000  1.0
  O  O63  1  0.06843000  0.68859000  0.62454000  1.0
  O  O64  1  0.47689000  0.56302000  0.64912000  1.0
  O  O65  1  0.02309000  0.93697000  0.14911000  1.0
  O  O66  1  0.52307000  0.43697000  0.35088000  1.0
  O  O67  1  0.97695000  0.06304000  0.85087000  1.0
  O  O68  1  0.70916000  0.55369000  0.52107000  1.0
  O  O69  1  0.79084000  0.94630000  0.02108000  1.0
  O  O70  1  0.29082000  0.44629000  0.47894000  1.0
  O  O71  1  0.20918000  0.05372000  0.97892000  1.0
  O  O72  1  0.98514000  0.38780000  0.64735000  1.0
  O  O73  1  0.51486000  0.11219000  0.14735000  1.0
  O  O74  1  0.01485000  0.61219000  0.35265000  1.0
  O  O75  1  0.48516000  0.88782000  0.85265000  1.0
