# generated using pymatgen
data_AgH4C5SNO3
_symmetry_space_group_name_H-M   'P 1'
_cell_length_a   5.40351000
_cell_length_b   7.96982000
_cell_length_c   8.09436000
_cell_angle_alpha   86.38020000
_cell_angle_beta   89.98270000
_cell_angle_gamma   70.46900000
_symmetry_Int_Tables_number   1
_chemical_formula_structural   AgH4C5SNO3
_chemical_formula_sum   'Ag2 H8 C10 S2 N2 O6'
_cell_volume   327.79074838
_cell_formula_units_Z   2
loop_
 _symmetry_equiv_pos_site_id
 _symmetry_equiv_pos_as_xyz
  1  'x, y, z'
loop_
 _atom_site_type_symbol
 _atom_site_label
 _atom_site_symmetry_multiplicity
 _atom_site_fract_x
 _atom_site_fract_y
 _atom_site_fract_z
 _atom_site_occupancy
  Ag  Ag0  1  0.88535000  0.99935000  0.50115000  1.0
  Ag  Ag1  1  0.79802000  0.00144000  0.99887000  1.0
  H  H2  1  0.66546000  0.71109000  0.46814000  1.0
  H  H3  1  0.38013000  0.28515000  0.53130000  1.0
  H  H4  1  0.78272000  0.40879000  0.35132000  1.0
  H  H5  1  0.19277000  0.58767000  0.64667000  1.0
  H  H6  1  0.29899000  0.80674000  0.24208000  1.0
  H  H7  1  0.10382000  0.19646000  0.76020000  1.0
  H  H8  1  0.43996000  0.51122000  0.11796000  1.0
  H  H9  1  0.94665000  0.49261000  0.88311000  1.0
  C  C10  1  0.83628000  0.65988000  0.39117000  1.0
  C  C11  1  0.49787000  0.33791000  0.60871000  1.0
  C  C12  1  0.90194000  0.49336000  0.32723000  1.0
  C  C13  1  0.39586000  0.50458000  0.67178000  1.0
  C  C14  1  0.12561000  0.43578000  0.23145000  1.0
  C  C15  1  0.55943000  0.56433000  0.76822000  1.0
  C  C16  1  0.19117000  0.71439000  0.26530000  1.0
  C  C17  1  0.90410000  0.28720000  0.73615000  1.0
  C  C18  1  0.26931000  0.54931000  0.19638000  1.0
  C  C19  1  0.81588000  0.45266000  0.80439000  1.0
  S  S20  1  0.23228000  0.21325000  0.16492000  1.0
  S  S21  1  0.44083000  0.78698000  0.83440000  1.0
  N  N22  1  0.98188000  0.76719000  0.36429000  1.0
  N  N23  1  0.74988000  0.23226000  0.63685000  1.0
  O  O24  1  0.35753000  0.22335000  0.00449000  1.0
  O  O25  1  0.57770000  0.77922000  0.99366000  1.0
  O  O26  1  0.98789000  0.17072000  0.15344000  1.0
  O  O27  1  0.15566000  0.82475000  0.84838000  1.0
  O  O28  1  0.41389000  0.10569000  0.29591000  1.0
  O  O29  1  0.50934000  0.89669000  0.70209000  1.0
