# generated using pymatgen
data_AgPH26C29N4O3
_symmetry_space_group_name_H-M   'P 1'
_cell_length_a   9.35685000
_cell_length_b   9.42058000
_cell_length_c   16.60990000
_cell_angle_alpha   74.94100000
_cell_angle_beta   74.83600000
_cell_angle_gamma   68.54990000
_symmetry_Int_Tables_number   1
_chemical_formula_structural   AgPH26C29N4O3
_chemical_formula_sum   'Ag2 P2 H52 C58 N8 O6'
_cell_volume   1293.10884072
_cell_formula_units_Z   2
loop_
 _symmetry_equiv_pos_site_id
 _symmetry_equiv_pos_as_xyz
  1  'x, y, z'
loop_
 _atom_site_type_symbol
 _atom_site_label
 _atom_site_symmetry_multiplicity
 _atom_site_fract_x
 _atom_site_fract_y
 _atom_site_fract_z
 _atom_site_occupancy
  Ag  Ag0  1  0.17485000  0.80035000  0.80256000  1.0
  Ag  Ag1  1  0.79972000  0.17543000  0.30279000  1.0
  P  P2  1  0.32698000  0.87961000  0.67377000  1.0
  P  P3  1  0.87887000  0.32691000  0.17400000  1.0
  H  H4  1  0.50200000  0.31464000  0.77486000  1.0
  H  H5  1  0.31425000  0.50477000  0.27441000  1.0
  H  H6  1  0.91980000  0.07569000  0.73090000  1.0
  H  H7  1  0.07616000  0.92064000  0.23066000  1.0
  H  H8  1  0.45908000  0.09164000  0.87547000  1.0
  H  H9  1  0.08967000  0.46389000  0.37509000  1.0
  H  H10  1  0.58588000  0.84142000  0.96642000  1.0
  H  H11  1  0.83796000  0.59116000  0.46620000  1.0
  H  H12  1  0.87863000  0.72073000  0.93399000  1.0
  H  H13  1  0.71762000  0.88189000  0.43379000  1.0
  H  H14  1  0.81444000  0.32103000  0.70226000  1.0
  H  H15  1  0.32340000  0.81412000  0.20129000  1.0
  H  H16  1  0.63522000  0.45875000  0.68139000  1.0
  H  H17  1  0.46090000  0.63552000  0.18040000  1.0
  H  H18  1  0.54780000  0.25009000  0.46080000  1.0
  H  H19  1  0.25137000  0.54841000  0.96019000  1.0
  H  H20  1  0.49516000  0.30391000  0.60660000  1.0
  H  H21  1  0.30619000  0.49648000  0.10571000  1.0
  H  H22  1  0.98036000  0.27015000  0.56688000  1.0
  H  H23  1  0.26876000  0.97931000  0.06679000  1.0
  H  H24  1  0.01569000  0.20791000  0.42486000  1.0
  H  H25  1  0.20554000  0.01385000  0.92500000  1.0
  H  H26  1  0.51453000  0.66501000  0.79514000  1.0
  H  H27  1  0.66483000  0.51392000  0.29611000  1.0
  H  H28  1  0.79715000  0.59108000  0.80368000  1.0
  H  H29  1  0.59159000  0.79441000  0.30465000  1.0
  H  H30  1  0.97041000  0.71676000  0.69290000  1.0
  H  H31  1  0.71787000  0.96594000  0.19334000  1.0
  H  H32  1  0.86498000  0.91214000  0.57058000  1.0
  H  H33  1  0.91299000  0.86078000  0.07037000  1.0
  H  H34  1  0.58719000  0.98421000  0.56220000  1.0
  H  H35  1  0.98420000  0.58500000  0.06184000  1.0
  H  H36  1  0.34293000  0.09690000  0.50510000  1.0
  H  H37  1  0.09765000  0.34296000  0.00518000  1.0
  H  H38  1  0.25942000  0.38359000  0.46852000  1.0
  H  H39  1  0.38636000  0.25933000  0.96819000  1.0
  H  H40  1  0.12233000  0.54282000  0.58063000  1.0
  H  H41  1  0.54678000  0.12128000  0.07986000  1.0
  H  H42  1  0.06813000  0.41217000  0.73188000  1.0
  H  H43  1  0.41517000  0.06699000  0.23120000  1.0
  H  H44  1  0.15909000  0.12641000  0.76965000  1.0
  H  H45  1  0.12725000  0.15830000  0.26942000  1.0
  H  H46  1  0.57692000  0.67247000  0.56305000  1.0
  H  H47  1  0.67376000  0.57583000  0.06207000  1.0
  H  H48  1  0.57200000  0.58083000  0.43733000  1.0
  H  H49  1  0.58374000  0.57103000  0.93569000  1.0
  H  H50  1  0.32699000  0.66846000  0.38018000  1.0
  H  H51  1  0.67082000  0.32696000  0.87908000  1.0
  H  H52  1  0.08484000  0.84884000  0.45058000  1.0
  H  H53  1  0.84818000  0.08551000  0.95093000  1.0
  H  H54  1  0.08881000  0.93890000  0.57768000  1.0
  H  H55  1  0.93614000  0.08922000  0.07890000  1.0
  C  C56  1  0.84092000  0.02973000  0.78302000  1.0
  C  C57  1  0.02932000  0.84269000  0.28274000  1.0
  C  C58  1  0.67885000  0.10873000  0.79724000  1.0
  C  C59  1  0.10812000  0.68160000  0.29688000  1.0
  C  C60  1  0.58542000  0.03618000  0.86425000  1.0
  C  C61  1  0.03452000  0.58947000  0.36399000  1.0
  C  C62  1  0.65633000  0.89783000  0.91407000  1.0
  C  C63  1  0.89525000  0.66061000  0.41384000  1.0
  C  C64  1  0.81864000  0.83033000  0.89710000  1.0
  C  C65  1  0.82793000  0.82182000  0.39687000  1.0
  C  C66  1  0.70318000  0.33471000  0.68532000  1.0
  C  C67  1  0.33617000  0.70372000  0.18454000  1.0
  C  C68  1  0.64108000  0.25357000  0.48717000  1.0
  C  C69  1  0.25427000  0.64131000  0.98667000  1.0
  C  C70  1  0.61198000  0.28535000  0.56806000  1.0
  C  C71  1  0.28658000  0.61263000  0.06741000  1.0
  C  C72  1  0.73375000  0.29341000  0.59879000  1.0
  C  C73  1  0.29404000  0.73394000  0.09820000  1.0
  C  C74  1  0.88094000  0.26578000  0.54624000  1.0
  C  C75  1  0.26504000  0.88030000  0.04599000  1.0
  C  C76  1  0.90103000  0.23186000  0.46627000  1.0
  C  C77  1  0.23058000  0.89994000  0.96619000  1.0
  C  C78  1  0.53292000  0.82948000  0.67840000  1.0
  C  C79  1  0.82932000  0.53152000  0.17868000  1.0
  C  C80  1  0.59288000  0.71811000  0.74618000  1.0
  C  C81  1  0.71823000  0.59137000  0.24687000  1.0
  C  C82  1  0.75051000  0.67648000  0.75067000  1.0
  C  C83  1  0.67707000  0.74783000  0.25143000  1.0
  C  C84  1  0.84849000  0.74672000  0.68790000  1.0
  C  C85  1  0.74750000  0.84488000  0.18831000  1.0
  C  C86  1  0.78946000  0.85694000  0.61999000  1.0
  C  C87  1  0.85763000  0.78592000  0.12003000  1.0
  C  C88  1  0.63264000  0.89791000  0.61513000  1.0
  C  C89  1  0.89813000  0.63024000  0.11513000  1.0
  C  C90  1  0.26082000  0.09116000  0.64051000  1.0
  C  C91  1  0.09193000  0.26037000  0.14046000  1.0
  C  C92  1  0.28706000  0.16516000  0.55541000  1.0
  C  C93  1  0.16645000  0.28682000  0.05532000  1.0
  C  C94  1  0.23830000  0.32701000  0.53458000  1.0
  C  C95  1  0.32945000  0.23788000  0.03427000  1.0
  C  C96  1  0.16065000  0.41666000  0.59768000  1.0
  C  C97  1  0.41971000  0.15971000  0.09716000  1.0
  C  C98  1  0.13081000  0.34398000  0.68208000  1.0
  C  C99  1  0.34646000  0.12979000  0.18160000  1.0
  C  C100  1  0.18150000  0.18221000  0.70337000  1.0
  C  C101  1  0.18348000  0.18072000  0.20312000  1.0
  C  C102  1  0.33305000  0.81128000  0.57918000  1.0
  C  C103  1  0.81058000  0.33280000  0.07934000  1.0
  C  C104  1  0.46844000  0.71004000  0.53919000  1.0
  C  C105  1  0.71087000  0.46771000  0.03855000  1.0
  C  C106  1  0.46564000  0.65914000  0.46798000  1.0
  C  C107  1  0.66085000  0.46499000  0.96694000  1.0
  C  C108  1  0.32840000  0.70869000  0.43579000  1.0
  C  C109  1  0.71009000  0.32833000  0.93504000  1.0
  C  C110  1  0.19250000  0.80956000  0.47553000  1.0
  C  C111  1  0.80930000  0.19282000  0.97558000  1.0
  C  C112  1  0.19462000  0.85954000  0.54700000  1.0
  C  C113  1  0.85814000  0.19484000  0.04754000  1.0
  N  N114  1  0.90772000  0.89602000  0.83219000  1.0
  N  N115  1  0.89475000  0.90976000  0.33201000  1.0
  N  N116  1  0.61306000  0.24998000  0.75059000  1.0
  N  N117  1  0.25023000  0.61538000  0.25016000  1.0
  N  N118  1  0.78286000  0.22630000  0.43641000  1.0
  N  N119  1  0.22585000  0.78221000  0.93623000  1.0
  N  N120  1  0.21959000  0.43710000  0.83918000  1.0
  N  N121  1  0.43353000  0.22145000  0.33931000  1.0
  O  O122  1  0.34315000  0.47784000  0.81150000  1.0
  O  O123  1  0.47494000  0.34396000  0.31251000  1.0
  O  O124  1  0.08870000  0.54105000  0.85387000  1.0
  O  O125  1  0.53804000  0.09110000  0.35318000  1.0
  O  O126  1  0.22958000  0.29654000  0.85175000  1.0
  O  O127  1  0.29183000  0.23188000  0.35191000  1.0
