# generated using pymatgen
data_HgH8C8(SN2)2
_symmetry_space_group_name_H-M   'P 1'
_cell_length_a   7.82677000
_cell_length_b   7.82674000
_cell_length_c   11.05558655
_cell_angle_alpha   101.55951351
_cell_angle_beta   101.55874067
_cell_angle_gamma   115.66900000
_symmetry_Int_Tables_number   1
_chemical_formula_structural   HgH8C8(SN2)2
_chemical_formula_sum   'Hg2 H16 C16 S4 N8'
_cell_volume   565.51862378
_cell_formula_units_Z   2
loop_
 _symmetry_equiv_pos_site_id
 _symmetry_equiv_pos_as_xyz
  1  'x, y, z'
loop_
 _atom_site_type_symbol
 _atom_site_label
 _atom_site_symmetry_multiplicity
 _atom_site_fract_x
 _atom_site_fract_y
 _atom_site_fract_z
 _atom_site_occupancy
  Hg  Hg0  1  0.62302000  0.62339000  0.00001000  1.0
  Hg  Hg1  1  0.87340000  0.37303000  0.50002000  1.0
  H  H2  1  0.95868000  0.79659000  0.82740000  1.0
  H  H3  1  0.96917000  0.13314000  0.17308000  1.0
  H  H4  1  0.38315000  0.71917000  0.67307000  1.0
  H  H5  1  0.04659000  0.70869000  0.32740000  1.0
  H  H6  1  0.42572000  0.11395000  0.82514000  1.0
  H  H7  1  0.28905000  0.60148000  0.17464000  1.0
  H  H8  1  0.85149000  0.03905000  0.67463000  1.0
  H  H9  1  0.36396000  0.17573000  0.32515000  1.0
  H  H10  1  0.17701000  0.95291000  0.71302000  1.0
  H  H11  1  0.24038000  0.46510000  0.28699000  1.0
  H  H12  1  0.71511000  0.99037000  0.78698000  1.0
  H  H13  1  0.20290000  0.92702000  0.21302000  1.0
  H  H14  1  0.29168000  0.21883000  0.75175000  1.0
  H  H15  1  0.46727000  0.54061000  0.24784000  1.0
  H  H16  1  0.79062000  0.21727000  0.74784000  1.0
  H  H17  1  0.46883000  0.04169000  0.25175000  1.0
  C  C18  1  0.88932000  0.98405000  0.35792000  1.0
  C  C19  1  0.62573000  0.53016000  0.64207000  1.0
  C  C20  1  0.78015000  0.37572000  0.14207000  1.0
  C  C21  1  0.23405000  0.63933000  0.85792000  1.0
  C  C22  1  0.02846000  0.94024000  0.90462000  1.0
  C  C23  1  0.03531000  0.12522000  0.09573000  1.0
  C  C24  1  0.37523000  0.78531000  0.59572000  1.0
  C  C25  1  0.19023000  0.77846000  0.40462000  1.0
  C  C26  1  0.19441000  0.10819000  0.90185000  1.0
  C  C27  1  0.20616000  0.29342000  0.09810000  1.0
  C  C28  1  0.54343000  0.95616000  0.59809000  1.0
  C  C29  1  0.35820000  0.94443000  0.40185000  1.0
  C  C30  1  0.27534000  0.09671000  0.79125000  1.0
  C  C31  1  0.30572000  0.48501000  0.20861000  1.0
  C  C32  1  0.73501000  0.05571000  0.70859000  1.0
  C  C33  1  0.34671000  0.02536000  0.29125000  1.0
  S  S34  1  0.05769000  0.18647000  0.48281000  1.0
  S  S35  1  0.70274000  0.57330000  0.51683000  1.0
  S  S36  1  0.82328000  0.45272000  0.01685000  1.0
  S  S37  1  0.43647000  0.80769000  0.98281000  1.0
  N  N38  1  0.77894000  0.83599000  0.26909000  1.0
  N  N39  1  0.56685000  0.50896000  0.73111000  1.0
  N  N40  1  0.75895000  0.31684000  0.23113000  1.0
  N  N41  1  0.08600000  0.52895000  0.76910000  1.0
  N  N42  1  0.94883000  0.94975000  0.00025000  1.0
  N  N43  1  0.19976000  0.69884000  0.50025000  1.0
  N  N44  1  0.28264000  0.28304000  0.99991000  1.0
  N  N45  1  0.53304000  0.03264000  0.49990000  1.0
