# generated using pymatgen
data_CdH8C12(NO2)2
_symmetry_space_group_name_H-M   'P 1'
_cell_length_a   10.08200000
_cell_length_b   10.21230000
_cell_length_c   12.73260000
_cell_angle_alpha   90.00000000
_cell_angle_beta   105.12700000
_cell_angle_gamma   90.00000000
_symmetry_Int_Tables_number   1
_chemical_formula_structural   CdH8C12(NO2)2
_chemical_formula_sum   'Cd4 H32 C48 N8 O16'
_cell_volume   1265.52884327
_cell_formula_units_Z   4
loop_
 _symmetry_equiv_pos_site_id
 _symmetry_equiv_pos_as_xyz
  1  'x, y, z'
loop_
 _atom_site_type_symbol
 _atom_site_label
 _atom_site_symmetry_multiplicity
 _atom_site_fract_x
 _atom_site_fract_y
 _atom_site_fract_z
 _atom_site_occupancy
  Cd  Cd0  1  0.40282000  0.13107000  0.06109000  1.0
  Cd  Cd1  1  0.90282000  0.36894000  0.56109000  1.0
  Cd  Cd2  1  0.59718000  0.86894000  0.93891000  1.0
  Cd  Cd3  1  0.09718000  0.63107000  0.43891000  1.0
  H  H4  1  0.04526000  0.14621000  0.42221000  1.0
  H  H5  1  0.54526000  0.35379000  0.92221000  1.0
  H  H6  1  0.95474000  0.85379000  0.57779000  1.0
  H  H7  1  0.45474000  0.64621000  0.07779000  1.0
  H  H8  1  0.14690000  0.29523000  0.73543000  1.0
  H  H9  1  0.64690000  0.20477000  0.23543000  1.0
  H  H10  1  0.85311000  0.70477000  0.26457000  1.0
  H  H11  1  0.35311000  0.79523000  0.76457000  1.0
  H  H12  1  0.52895000  0.19627000  0.44907000  1.0
  H  H13  1  0.02895000  0.30373000  0.94907000  1.0
  H  H14  1  0.47105000  0.80373000  0.55093000  1.0
  H  H15  1  0.97105000  0.69627000  0.05093000  1.0
  H  H16  1  0.38239000  0.97151000  0.66492000  1.0
  H  H17  1  0.88239000  0.52849000  0.16492000  1.0
  H  H18  1  0.61761000  0.02848000  0.33508000  1.0
  H  H19  1  0.11761000  0.47152000  0.83508000  1.0
  H  H20  1  0.23508000  0.98013000  0.47014000  1.0
  H  H21  1  0.73508000  0.51987000  0.97014000  1.0
  H  H22  1  0.76492000  0.01987000  0.52986000  1.0
  H  H23  1  0.26492000  0.48013000  0.02986000  1.0
  H  H24  1  0.18861000  0.43978000  0.28581000  1.0
  H  H25  1  0.68861000  0.06022000  0.78581000  1.0
  H  H26  1  0.81139000  0.56022000  0.71419000  1.0
  H  H27  1  0.31139000  0.93978000  0.21419000  1.0
  H  H28  1  0.34870000  0.48376000  0.61881000  1.0
  H  H29  1  0.84870000  0.01624000  0.11881000  1.0
  H  H30  1  0.65130000  0.51624000  0.38119000  1.0
  H  H31  1  0.15130000  0.98376000  0.88119000  1.0
  H  H32  1  0.52665000  0.30943000  0.62353000  1.0
  H  H33  1  0.02665000  0.19057000  0.12353000  1.0
  H  H34  1  0.47335000  0.69057000  0.37647000  1.0
  H  H35  1  0.97335000  0.80943000  0.87647000  1.0
  C  C36  1  0.34190000  0.13025000  0.83366000  1.0
  C  C37  1  0.84190000  0.36975000  0.33366000  1.0
  C  C38  1  0.65810000  0.86975000  0.16634000  1.0
  C  C39  1  0.15810000  0.63025000  0.66634000  1.0
  C  C40  1  0.27351000  0.13269000  0.71417000  1.0
  C  C41  1  0.77351000  0.36731000  0.21417000  1.0
  C  C42  1  0.72649000  0.86730000  0.28583000  1.0
  C  C43  1  0.22649000  0.63270000  0.78583000  1.0
  C  C44  1  0.11421000  0.14125000  0.50388000  1.0
  C  C45  1  0.61422000  0.35875000  0.00388000  1.0
  C  C46  1  0.88579000  0.85875000  0.49612000  1.0
  C  C47  1  0.38579000  0.64125000  0.99612000  1.0
  C  C48  1  0.16923000  0.22466000  0.67839000  1.0
  C  C49  1  0.66924000  0.27534000  0.17839000  1.0
  C  C50  1  0.83076000  0.77534000  0.32161000  1.0
  C  C51  1  0.33077000  0.72466000  0.82161000  1.0
  C  C52  1  0.35604000  0.24651000  0.24747000  1.0
  C  C53  1  0.85604000  0.25348000  0.74746000  1.0
  C  C54  1  0.64396000  0.75349000  0.75253000  1.0
  C  C55  1  0.14396000  0.74651000  0.25253000  1.0
  C  C56  1  0.35797000  0.30892000  0.35463000  1.0
  C  C57  1  0.85797000  0.19108000  0.85463000  1.0
  C  C58  1  0.64203000  0.69108000  0.64537000  1.0
  C  C59  1  0.14203000  0.80892000  0.14537000  1.0
  C  C60  1  0.45371000  0.27213000  0.45097000  1.0
  C  C61  1  0.95371000  0.22788000  0.95097000  1.0
  C  C62  1  0.54629000  0.72787000  0.54903000  1.0
  C  C63  1  0.04629000  0.77212000  0.04903000  1.0
  C  C64  1  0.30029000  0.04343000  0.63894000  1.0
  C  C65  1  0.80030000  0.45657000  0.13894000  1.0
  C  C66  1  0.69971000  0.95657000  0.36106000  1.0
  C  C67  1  0.19971000  0.54343000  0.86106000  1.0
  C  C68  1  0.21952000  0.04883000  0.53154000  1.0
  C  C69  1  0.71952000  0.45117000  0.03154000  1.0
  C  C70  1  0.78048000  0.95117000  0.46846000  1.0
  C  C71  1  0.28048000  0.54883000  0.96846000  1.0
  C  C72  1  0.26386000  0.40754000  0.35936000  1.0
  C  C73  1  0.76387000  0.09246000  0.85936000  1.0
  C  C74  1  0.73614000  0.59246000  0.64064000  1.0
  C  C75  1  0.23613000  0.90754000  0.14064000  1.0
  C  C76  1  0.35401000  0.43196000  0.54519000  1.0
  C  C77  1  0.85401000  0.06804000  0.04519000  1.0
  C  C78  1  0.64599000  0.56804000  0.45481000  1.0
  C  C79  1  0.14599000  0.93196000  0.95481000  1.0
  C  C80  1  0.45203000  0.33507000  0.54771000  1.0
  C  C81  1  0.95203000  0.16493000  0.04771000  1.0
  C  C82  1  0.54797000  0.66493000  0.45229000  1.0
  C  C83  1  0.04797000  0.83507000  0.95229000  1.0
  N  N84  1  0.08986000  0.22832000  0.57619000  1.0
  N  N85  1  0.58986000  0.27168000  0.07619000  1.0
  N  N86  1  0.91014000  0.77168000  0.42381000  1.0
  N  N87  1  0.41014000  0.72832000  0.92382000  1.0
  N  N88  1  0.26163000  0.46752000  0.45275000  1.0
  N  N89  1  0.76163000  0.03248000  0.95275000  1.0
  N  N90  1  0.73837000  0.53248000  0.54725000  1.0
  N  N91  1  0.23837000  0.96752000  0.04725000  1.0
  O  O92  1  0.43034000  0.14418000  0.25055000  1.0
  O  O93  1  0.93034000  0.35582000  0.75055000  1.0
  O  O94  1  0.56966000  0.85583000  0.74945000  1.0
  O  O95  1  0.06966000  0.64417000  0.24945000  1.0
  O  O96  1  0.30485000  0.21852000  0.89136000  1.0
  O  O97  1  0.80485000  0.28148000  0.39136000  1.0
  O  O98  1  0.69515000  0.78148000  0.10864000  1.0
  O  O99  1  0.19515000  0.71852000  0.60864000  1.0
  O  O100  1  0.28466000  0.29730000  0.16000000  1.0
  O  O101  1  0.78466000  0.20270000  0.66000000  1.0
  O  O102  1  0.71534000  0.70270000  0.84000000  1.0
  O  O103  1  0.21534000  0.79730000  0.34000000  1.0
  O  O104  1  0.42572000  0.03940000  0.87387000  1.0
  O  O105  1  0.92572000  0.46060000  0.37387000  1.0
  O  O106  1  0.57428000  0.96060000  0.12613000  1.0
  O  O107  1  0.07428000  0.53940000  0.62613000  1.0
