# generated using pymatgen
data_Zn4H44C52Cl2O13
_symmetry_space_group_name_H-M   'P 1'
_cell_length_a   15.17890000
_cell_length_b   15.17990000
_cell_length_c   19.53610000
_cell_angle_alpha   88.65760000
_cell_angle_beta   88.85460000
_cell_angle_gamma   89.81490000
_symmetry_Int_Tables_number   1
_chemical_formula_structural   Zn4H44C52Cl2O13
_chemical_formula_sum   'Zn4 H44 C52 Cl2 O13'
_cell_volume   4499.24274495
_cell_formula_units_Z   1
loop_
 _symmetry_equiv_pos_site_id
 _symmetry_equiv_pos_as_xyz
  1  'x, y, z'
loop_
 _atom_site_type_symbol
 _atom_site_label
 _atom_site_symmetry_multiplicity
 _atom_site_fract_x
 _atom_site_fract_y
 _atom_site_fract_z
 _atom_site_occupancy
  Zn  Zn0  1  0.57553000  0.56726000  0.43563000  1.0
  Zn  Zn1  1  0.43244000  0.58165000  0.55702000  1.0
  Zn  Zn2  1  0.57395000  0.42351000  0.55697000  1.0
  Zn  Zn3  1  0.41567000  0.42830000  0.44892000  1.0
  H  H4  1  0.60882000  0.55076000  0.22920000  1.0
  H  H5  1  0.35232000  0.16493000  0.56115000  1.0
  H  H6  1  0.61433000  0.40879000  0.76391000  1.0
  H  H7  1  0.59980000  0.49237000  0.99926000  1.0
  H  H8  1  0.33771000  0.47518000  0.10719000  1.0
  H  H9  1  0.44214000  0.62782000  0.89715000  1.0
  H  H10  1  0.40295000  0.54057000  0.99923000  1.0
  H  H11  1  0.60632000  0.56757000  0.10252000  1.0
  H  H12  1  0.30378000  0.54903000  0.74390000  1.0
  H  H13  1  0.20457000  0.51934000  0.78850000  1.0
  H  H14  1  0.28662000  0.43848000  0.77184000  1.0
  H  H15  1  0.62690000  0.41167000  0.89093000  1.0
  H  H16  1  0.16043000  0.42699000  0.68924000  1.0
  H  H17  1  0.26094000  0.45204000  0.64652000  1.0
  H  H18  1  0.21981000  0.61102000  0.63999000  1.0
  H  H19  1  0.12070000  0.58856000  0.68667000  1.0
  H  H20  1  0.05833000  0.25983000  0.27189000  1.0
  H  H21  1  0.15825000  0.30735000  0.29875000  1.0
  H  H22  1  0.12797000  0.20034000  0.32864000  1.0
  H  H23  1  0.09781000  0.30978000  0.42058000  1.0
  H  H24  1  0.99853000  0.26336000  0.39396000  1.0
  H  H25  1  0.97264000  0.39469000  0.31658000  1.0
  H  H26  1  0.14875000  0.45646000  0.42589000  1.0
  H  H27  1  0.07166000  0.44140000  0.34191000  1.0
  H  H28  1  0.79029000  0.34293000  0.24082000  1.0
  H  H29  1  0.68796000  0.37332000  0.27920000  1.0
  H  H30  1  0.73517000  0.44002000  0.21243000  1.0
  H  H31  1  0.75942000  0.50847000  0.32757000  1.0
  H  H32  1  0.86047000  0.47957000  0.28815000  1.0
  H  H33  1  0.85556000  0.33446000  0.35738000  1.0
  H  H34  1  0.76008000  0.37211000  0.39925000  1.0
  H  H35  1  0.81872000  0.60536000  0.73419000  1.0
  H  H36  1  0.71397000  0.57330000  0.70459000  1.0
  H  H37  1  0.99679000  0.56642000  0.63301000  1.0
  H  H38  1  0.77004000  0.50512000  0.76430000  1.0
  H  H39  1  0.78409000  0.44280000  0.64612000  1.0
  H  H40  1  0.88822000  0.47405000  0.67558000  1.0
  H  H41  1  0.87194000  0.61974000  0.60967000  1.0
  H  H42  1  0.77057000  0.58341000  0.57981000  1.0
  H  H43  1  0.40281000  0.85564000  0.54174000  1.0
  H  H44  1  0.65037000  0.83375000  0.43291000  1.0
  H  H45  1  0.34016000  0.00148000  0.56623000  1.0
  H  H46  1  0.43252000  0.62602000  0.77005000  1.0
  H  H47  1  0.66755000  0.99641000  0.43168000  1.0
  C  C48  1  0.26070000  0.51110000  0.51339000  1.0
  C  C49  1  0.46794000  0.52788000  0.02068000  1.0
  C  C50  1  0.53714000  0.51403000  0.97767000  1.0
  C  C51  1  0.73794000  0.48343000  0.48739000  1.0
  C  C52  1  0.52146000  0.51603000  0.75943000  1.0
  C  C53  1  0.16307000  0.51083000  0.52391000  1.0
  C  C54  1  0.83677000  0.47998000  0.48372000  1.0
  C  C55  1  0.96980000  0.44061000  0.42001000  1.0
  C  C56  1  0.87830000  0.43948000  0.42629000  1.0
  C  C57  1  0.88292000  0.51722000  0.53636000  1.0
  C  C58  1  0.97682000  0.51409000  0.53245000  1.0
  C  C59  1  0.47226000  0.52051000  0.09516000  1.0
  C  C60  1  0.02000000  0.47828000  0.47328000  1.0
  C  C61  1  0.11317000  0.48005000  0.47079000  1.0
  C  C62  1  0.12054000  0.54090000  0.58523000  1.0
  C  C63  1  0.51668000  0.73755000  0.49029000  1.0
  C  C64  1  0.02951000  0.54322000  0.58661000  1.0
  C  C65  1  0.52543000  0.83538000  0.48818000  1.0
  C  C66  1  0.48172000  0.16474000  0.51277000  1.0
  C  C67  1  0.39849000  0.03329000  0.54368000  1.0
  C  C68  1  0.40529000  0.12353000  0.54123000  1.0
  C  C69  1  0.54929000  0.11407000  0.48550000  1.0
  C  C70  1  0.39826000  0.49109000  0.13326000  1.0
  C  C71  1  0.54363000  0.02043000  0.48502000  1.0
  C  C72  1  0.46663000  0.97992000  0.51595000  1.0
  C  C73  1  0.46028000  0.88703000  0.51751000  1.0
  C  C74  1  0.60027000  0.87563000  0.45620000  1.0
  C  C75  1  0.48563000  0.26341000  0.51151000  1.0
  C  C76  1  0.60944000  0.96582000  0.45539000  1.0
  C  C77  1  0.51393000  0.51242000  0.68358000  1.0
  C  C78  1  0.48658000  0.49499000  0.31592000  1.0
  C  C79  1  0.47758000  0.50069000  0.23993000  1.0
  C  C80  1  0.55055000  0.53244000  0.20125000  1.0
  C  C81  1  0.40082000  0.47957000  0.20429000  1.0
  C  C82  1  0.54905000  0.54138000  0.13062000  1.0
  C  C83  1  0.16865000  0.56113000  0.64978000  1.0
  C  C84  1  0.21108000  0.47844000  0.68230000  1.0
  C  C85  1  0.25374000  0.49724000  0.75043000  1.0
  C  C86  1  0.01698000  0.39885000  0.36012000  1.0
  C  C87  1  0.05347000  0.30630000  0.37680000  1.0
  C  C88  1  0.10205000  0.26621000  0.31576000  1.0
  C  C89  1  0.82200000  0.39478000  0.37436000  1.0
  C  C90  1  0.79936000  0.45195000  0.31103000  1.0
  C  C91  1  0.75058000  0.39939000  0.25797000  1.0
  C  C92  1  0.47880000  0.57878000  0.86812000  1.0
  C  C93  1  0.83589000  0.56004000  0.59584000  1.0
  C  C94  1  0.82369000  0.50005000  0.65988000  1.0
  C  C95  1  0.77939000  0.54852000  0.71895000  1.0
  C  C96  1  0.47348000  0.57819000  0.79719000  1.0
  C  C97  1  0.57704000  0.45638000  0.79377000  1.0
  C  C98  1  0.58381000  0.45841000  0.86447000  1.0
  C  C99  1  0.53319000  0.51808000  0.90310000  1.0
  Cl  Cl100  1  0.64101000  0.16550000  0.44872000  1.0
  Cl  Cl101  1  0.30477000  0.44272000  0.24464000  1.0
  O  O102  1  0.49935000  0.49949000  0.49958000  1.0
  O  O103  1  0.45977000  0.56557000  0.65482000  1.0
  O  O104  1  0.43758000  0.44115000  0.34985000  1.0
  O  O105  1  0.56238000  0.45573000  0.65326000  1.0
  O  O106  1  0.54498000  0.54527000  0.34052000  1.0
  O  O107  1  0.56820000  0.69449000  0.45072000  1.0
  O  O108  1  0.42945000  0.30224000  0.47386000  1.0
  O  O109  1  0.30548000  0.56573000  0.54728000  1.0
  O  O110  1  0.69949000  0.43249000  0.53127000  1.0
  O  O111  1  0.29287000  0.45706000  0.47010000  1.0
  O  O112  1  0.70078000  0.53812000  0.44666000  1.0
  O  O113  1  0.45853000  0.70480000  0.53156000  1.0
  O  O114  1  0.54274000  0.29849000  0.54892000  1.0
