# generated using pymatgen
data_CuH6C6BrN2
_symmetry_space_group_name_H-M   'P 1'
_cell_length_a   12.58070000
_cell_length_b   14.01140000
_cell_length_c   14.01313158
_cell_angle_alpha   78.37160151
_cell_angle_beta   63.31870646
_cell_angle_gamma   63.33310000
_symmetry_Int_Tables_number   1
_chemical_formula_structural   CuH6C6BrN2
_chemical_formula_sum   'Cu8 H48 C48 Br8 N16'
_cell_volume   1972.34551440
_cell_formula_units_Z   8
loop_
 _symmetry_equiv_pos_site_id
 _symmetry_equiv_pos_as_xyz
  1  'x, y, z'
loop_
 _atom_site_type_symbol
 _atom_site_label
 _atom_site_symmetry_multiplicity
 _atom_site_fract_x
 _atom_site_fract_y
 _atom_site_fract_z
 _atom_site_occupancy
  Cu  Cu0  1  0.82171000  0.53190000  0.99868000  1.0
  Cu  Cu1  1  0.35228000  0.46827000  0.00130000  1.0
  Cu  Cu2  1  0.60351000  0.49867000  0.96820000  1.0
  Cu  Cu3  1  0.07051000  0.50129000  0.03176000  1.0
  Cu  Cu4  1  0.82185000  0.99870000  0.53171000  1.0
  Cu  Cu5  1  0.35228000  0.00131000  0.46812000  1.0
  Cu  Cu6  1  0.60356000  0.96825000  0.49871000  1.0
  Cu  Cu7  1  0.07043000  0.03176000  0.50134000  1.0
  H  H8  1  0.03288000  0.59757000  0.24755000  1.0
  H  H9  1  0.09501000  0.64018000  0.11457000  1.0
  H  H10  1  0.55538000  0.76856000  0.07444000  1.0
  H  H11  1  0.57387000  0.63705000  0.11813000  1.0
  H  H12  1  0.87799000  0.40242000  0.75251000  1.0
  H  H13  1  0.84971000  0.35975000  0.88546000  1.0
  H  H14  1  0.39832000  0.23144000  0.92557000  1.0
  H  H15  1  0.32897000  0.36294000  0.88189000  1.0
  H  H16  1  0.88062000  0.74749000  0.90235000  1.0
  H  H17  1  0.98526000  0.61453000  0.85975000  1.0
  H  H18  1  0.57383000  0.57443000  0.73145000  1.0
  H  H19  1  0.46083000  0.61810000  0.86292000  1.0
  H  H20  1  0.53045000  0.25249000  0.09763000  1.0
  H  H21  1  0.45955000  0.38548000  0.14020000  1.0
  H  H22  1  0.87986000  0.42556000  0.26858000  1.0
  H  H23  1  0.94203000  0.38191000  0.13707000  1.0
  H  H24  1  0.03294000  0.24747000  0.59757000  1.0
  H  H25  1  0.09495000  0.11452000  0.64024000  1.0
  H  H26  1  0.55534000  0.07442000  0.76854000  1.0
  H  H27  1  0.57383000  0.11809000  0.63703000  1.0
  H  H28  1  0.87799000  0.75247000  0.40244000  1.0
  H  H29  1  0.84973000  0.88545000  0.35985000  1.0
  H  H30  1  0.39836000  0.92557000  0.23146000  1.0
  H  H31  1  0.32903000  0.88189000  0.36297000  1.0
  H  H32  1  0.88057000  0.90238000  0.74750000  1.0
  H  H33  1  0.98525000  0.85982000  0.61450000  1.0
  H  H34  1  0.57400000  0.73144000  0.57443000  1.0
  H  H35  1  0.46100000  0.86295000  0.61807000  1.0
  H  H36  1  0.53046000  0.09764000  0.25252000  1.0
  H  H37  1  0.45954000  0.14023000  0.38549000  1.0
  H  H38  1  0.87970000  0.26854000  0.42559000  1.0
  H  H39  1  0.94183000  0.13707000  0.38193000  1.0
  H  H40  1  0.07587000  0.75382000  0.24620000  1.0
  H  H41  1  0.98425000  0.82901000  0.17100000  1.0
  H  H42  1  0.34908000  0.77622000  0.22380000  1.0
  H  H43  1  0.43091000  0.69571000  0.30429000  1.0
  H  H44  1  0.07588000  0.24618000  0.75381000  1.0
  H  H45  1  0.98427000  0.17097000  0.82903000  1.0
  H  H46  1  0.34896000  0.22377000  0.77621000  1.0
  H  H47  1  0.43083000  0.30427000  0.69572000  1.0
  H  H48  1  0.07987000  0.74614000  0.74609000  1.0
  H  H49  1  0.06341000  0.67096000  0.67093000  1.0
  H  H50  1  0.37527000  0.72385000  0.72370000  1.0
  H  H51  1  0.37662000  0.80428000  0.80425000  1.0
  H  H52  1  0.57209000  0.25390000  0.25388000  1.0
  H  H53  1  0.40529000  0.32908000  0.32904000  1.0
  H  H54  1  0.82280000  0.27628000  0.27618000  1.0
  H  H55  1  0.98514000  0.19575000  0.19574000  1.0
  C  C56  1  0.89122000  0.67686000  0.18262000  1.0
  C  C57  1  0.67463000  0.69925000  0.16005000  1.0
  C  C58  1  0.01069000  0.66423000  0.19210000  1.0
  C  C59  1  0.55950000  0.71332000  0.14257000  1.0
  C  C60  1  0.75068000  0.32309000  0.81738000  1.0
  C  C61  1  0.53382000  0.30078000  0.83993000  1.0
  C  C62  1  0.86701000  0.33573000  0.80790000  1.0
  C  C63  1  0.41528000  0.28667000  0.85743000  1.0
  C  C64  1  0.81816000  0.68258000  0.82307000  1.0
  C  C65  1  0.62378000  0.66005000  0.80077000  1.0
  C  C66  1  0.92503000  0.69207000  0.83569000  1.0
  C  C67  1  0.52273000  0.64257000  0.78667000  1.0
  C  C68  1  0.32384000  0.31742000  0.17693000  1.0
  C  C69  1  0.08471000  0.33991000  0.19924000  1.0
  C  C70  1  0.45281000  0.30793000  0.16428000  1.0
  C  C71  1  0.95208000  0.35743000  0.21333000  1.0
  C  C72  1  0.89118000  0.18260000  0.67689000  1.0
  C  C73  1  0.67455000  0.16006000  0.69920000  1.0
  C  C74  1  0.01066000  0.19208000  0.66426000  1.0
  C  C75  1  0.55941000  0.14255000  0.71330000  1.0
  C  C76  1  0.75068000  0.81741000  0.32316000  1.0
  C  C77  1  0.53391000  0.83996000  0.30077000  1.0
  C  C78  1  0.86700000  0.80792000  0.33579000  1.0
  C  C79  1  0.41536000  0.85744000  0.28671000  1.0
  C  C80  1  0.81820000  0.82309000  0.68255000  1.0
  C  C81  1  0.62387000  0.80079000  0.66006000  1.0
  C  C82  1  0.92503000  0.83573000  0.69205000  1.0
  C  C83  1  0.52285000  0.78670000  0.64255000  1.0
  C  C84  1  0.32381000  0.17691000  0.31744000  1.0
  C  C85  1  0.08460000  0.19920000  0.33998000  1.0
  C  C86  1  0.45279000  0.16430000  0.30795000  1.0
  C  C87  1  0.95195000  0.21331000  0.35746000  1.0
  C  C88  1  0.76782000  0.75258000  0.24744000  1.0
  C  C89  1  0.65724000  0.76404000  0.23599000  1.0
  C  C90  1  0.99072000  0.76700000  0.23301000  1.0
  C  C91  1  0.43231000  0.75786000  0.24216000  1.0
  C  C92  1  0.76777000  0.24739000  0.75259000  1.0
  C  C93  1  0.65721000  0.23595000  0.76402000  1.0
  C  C94  1  0.99073000  0.23298000  0.76701000  1.0
  C  C95  1  0.43222000  0.24212000  0.75786000  1.0
  C  C96  1  0.77045000  0.74739000  0.74737000  1.0
  C  C97  1  0.67126000  0.73596000  0.73599000  1.0
  C  C98  1  0.00789000  0.73296000  0.73293000  1.0
  C  C99  1  0.44016000  0.74215000  0.74210000  1.0
  C  C100  1  0.26521000  0.25260000  0.25263000  1.0
  C  C101  1  0.14321000  0.26399000  0.26406000  1.0
  C  C102  1  0.47377000  0.26706000  0.26706000  1.0
  C  C103  1  0.92440000  0.25788000  0.25788000  1.0
  Br  Br104  1  0.05279000  0.40161000  0.91584000  1.0
  Br  Br105  1  0.37028000  0.59845000  0.08434000  1.0
  Br  Br106  1  0.70448000  0.41580000  0.09840000  1.0
  Br  Br107  1  0.21883000  0.58414000  0.90146000  1.0
  Br  Br108  1  0.05306000  0.91567000  0.40157000  1.0
  Br  Br109  1  0.37026000  0.08416000  0.59836000  1.0
  Br  Br110  1  0.70445000  0.09852000  0.41585000  1.0
  Br  Br111  1  0.21871000  0.90158000  0.58421000  1.0
  N  N112  1  0.79297000  0.62661000  0.10326000  1.0
  N  N113  1  0.90175000  0.61636000  0.11359000  1.0
  N  N114  1  0.52278000  0.37342000  0.89668000  1.0
  N  N115  1  0.63165000  0.38365000  0.88637000  1.0
  N  N116  1  0.66949000  0.60328000  0.87342000  1.0
  N  N117  1  0.76805000  0.61362000  0.88364000  1.0
  N  N118  1  0.14629000  0.39670000  0.12659000  1.0
  N  N119  1  0.26538000  0.38641000  0.11637000  1.0
  N  N120  1  0.79290000  0.10330000  0.62656000  1.0
  N  N121  1  0.90169000  0.11360000  0.61635000  1.0
  N  N122  1  0.52282000  0.89675000  0.37342000  1.0
  N  N123  1  0.63168000  0.88643000  0.38366000  1.0
  N  N124  1  0.66958000  0.87343000  0.60328000  1.0
  N  N125  1  0.76817000  0.88365000  0.61356000  1.0
  N  N126  1  0.14620000  0.12655000  0.39674000  1.0
  N  N127  1  0.26531000  0.11634000  0.38640000  1.0
