# generated using pymatgen
data_CuH5C6S(N2O)2
_symmetry_space_group_name_H-M   'P 1'
_cell_length_a   5.85396000
_cell_length_b   10.68200000
_cell_length_c   14.02330000
_cell_angle_alpha   89.99920000
_cell_angle_beta   89.99980000
_cell_angle_gamma   75.87300000
_symmetry_Int_Tables_number   1
_chemical_formula_structural   CuH5C6S(N2O)2
_chemical_formula_sum   'Cu4 H20 C24 S4 N16 O8'
_cell_volume   850.38486112
_cell_formula_units_Z   4
loop_
 _symmetry_equiv_pos_site_id
 _symmetry_equiv_pos_as_xyz
  1  'x, y, z'
loop_
 _atom_site_type_symbol
 _atom_site_label
 _atom_site_symmetry_multiplicity
 _atom_site_fract_x
 _atom_site_fract_y
 _atom_site_fract_z
 _atom_site_occupancy
  Cu  Cu0  1  0.13863000  0.43430000  0.56964000  1.0
  Cu  Cu1  1  0.36136000  0.06571000  0.06964000  1.0
  Cu  Cu2  1  0.86137000  0.56570000  0.43036000  1.0
  Cu  Cu3  1  0.63864000  0.93431000  0.93035000  1.0
  H  H4  1  0.41245000  0.30421000  0.69175000  1.0
  H  H5  1  0.08755000  0.19579000  0.19176000  1.0
  H  H6  1  0.58755000  0.69579000  0.30824000  1.0
  H  H7  1  0.91245000  0.80422000  0.80825000  1.0
  H  H8  1  0.45116000  0.26008000  0.81136000  1.0
  H  H9  1  0.04883000  0.23992000  0.31137000  1.0
  H  H10  1  0.54884000  0.73991000  0.18863000  1.0
  H  H11  1  0.95117000  0.76008000  0.68863000  1.0
  H  H12  1  0.12829000  0.33053000  0.92817000  1.0
  H  H13  1  0.37171000  0.16946000  0.42817000  1.0
  H  H14  1  0.87172000  0.66945000  0.07183000  1.0
  H  H15  1  0.62829000  0.83053000  0.57183000  1.0
  H  H16  1  0.71453000  0.45760000  0.95405000  1.0
  H  H17  1  0.78547000  0.04239000  0.45405000  1.0
  H  H18  1  0.28548000  0.54238000  0.04595000  1.0
  H  H19  1  0.21453000  0.95760000  0.54596000  1.0
  H  H20  1  0.68209000  0.55829000  0.65543000  1.0
  H  H21  1  0.81790000  0.94171000  0.15543000  1.0
  H  H22  1  0.31790000  0.44171000  0.34457000  1.0
  H  H23  1  0.18211000  0.05830000  0.84457000  1.0
  C  C24  1  0.34272000  0.64848000  0.48831000  1.0
  C  C25  1  0.15728000  0.85153000  0.98830000  1.0
  C  C26  1  0.65726000  0.35152000  0.51170000  1.0
  C  C27  1  0.84272000  0.14848000  0.01169000  1.0
  C  C28  1  0.12423000  0.37547000  0.77676000  1.0
  C  C29  1  0.37577000  0.12453000  0.27677000  1.0
  C  C30  1  0.87577000  0.62452000  0.22323000  1.0
  C  C31  1  0.62424000  0.87548000  0.72324000  1.0
  C  C32  1  0.02411000  0.38185000  0.86954000  1.0
  C  C33  1  0.47587000  0.11814000  0.36954000  1.0
  C  C34  1  0.97588000  0.61814000  0.13046000  1.0
  C  C35  1  0.52412000  0.88186000  0.63047000  1.0
  C  C36  1  0.79701000  0.45186000  0.88411000  1.0
  C  C37  1  0.70299000  0.04813000  0.38412000  1.0
  C  C38  1  0.20300000  0.54813000  0.11589000  1.0
  C  C39  1  0.29701000  0.95186000  0.61588000  1.0
  C  C40  1  0.67240000  0.51729000  0.80577000  1.0
  C  C41  1  0.82759000  0.98270000  0.30576000  1.0
  C  C42  1  0.32760000  0.48270000  0.19423000  1.0
  C  C43  1  0.17241000  0.01730000  0.69424000  1.0
  C  C44  1  0.77884000  0.50897000  0.71654000  1.0
  C  C45  1  0.72115000  0.99103000  0.21654000  1.0
  C  C46  1  0.22115000  0.49103000  0.28347000  1.0
  C  C47  1  0.27886000  0.00898000  0.78346000  1.0
  S  S48  1  0.07701000  0.66317000  0.53167000  1.0
  S  S49  1  0.42300000  0.83683000  0.03166000  1.0
  S  S50  1  0.92299000  0.33683000  0.46833000  1.0
  S  S51  1  0.57701000  0.16318000  0.96833000  1.0
  N  N52  1  0.53519000  0.63570000  0.45760000  1.0
  N  N53  1  0.96482000  0.86432000  0.95760000  1.0
  N  N54  1  0.46480000  0.36430000  0.54240000  1.0
  N  N55  1  0.03519000  0.13570000  0.04239000  1.0
  N  N56  1  0.99904000  0.43992000  0.70139000  1.0
  N  N57  1  0.50096000  0.06009000  0.20139000  1.0
  N  N58  1  0.00096000  0.56009000  0.29861000  1.0
  N  N59  1  0.49905000  0.93993000  0.79861000  1.0
  N  N60  1  0.34377000  0.30690000  0.75879000  1.0
  N  N61  1  0.15622000  0.19310000  0.25880000  1.0
  N  N62  1  0.65623000  0.69310000  0.24120000  1.0
  N  N63  1  0.84377000  0.80691000  0.74121000  1.0
  N  N64  1  0.43456000  0.59194000  0.81589000  1.0
  N  N65  1  0.06545000  0.90806000  0.31589000  1.0
  N  N66  1  0.56545000  0.40806000  0.18412000  1.0
  N  N67  1  0.93455000  0.09194000  0.68411000  1.0
  O  O68  1  0.34219000  0.66118000  0.74737000  1.0
  O  O69  1  0.15780000  0.83882000  0.24736000  1.0
  O  O70  1  0.65781000  0.33882000  0.25264000  1.0
  O  O71  1  0.84219000  0.16118000  0.75264000  1.0
  O  O72  1  0.32909000  0.58415000  0.89218000  1.0
  O  O73  1  0.17090000  0.91584000  0.39217000  1.0
  O  O74  1  0.67091000  0.41584000  0.10783000  1.0
  O  O75  1  0.82909000  0.08416000  0.60783000  1.0
