# generated using pymatgen
data_Al2H3C24S6(ClO4)3
_symmetry_space_group_name_H-M   'P 1'
_cell_length_a   3.96614000
_cell_length_b   20.14285000
_cell_length_c   20.14290000
_cell_angle_alpha   120.00024634
_cell_angle_beta   90.00010000
_cell_angle_gamma   90.00000000
_symmetry_Int_Tables_number   1
_chemical_formula_structural   Al2H3C24S6(ClO4)3
_chemical_formula_sum   'Al2 H3 C24 S6 Cl3 O12'
_cell_volume   1393.60760994
_cell_formula_units_Z   1
loop_
 _symmetry_equiv_pos_site_id
 _symmetry_equiv_pos_as_xyz
  1  'x, y, z'
loop_
 _atom_site_type_symbol
 _atom_site_label
 _atom_site_symmetry_multiplicity
 _atom_site_fract_x
 _atom_site_fract_y
 _atom_site_fract_z
 _atom_site_occupancy
  Al  Al0  1  0.00079000  0.50000000  0.00000000  1.0
  Al  Al1  1  0.00221000  0.83333000  0.66666000  1.0
  H  H2  1  0.47662000  0.61447000  0.43753000  1.0
  H  H3  1  0.47662000  0.82306000  0.88553000  1.0
  H  H4  1  0.47661000  0.06246000  0.67693000  1.0
  C  C5  1  0.50113000  0.38253000  0.94196000  1.0
  C  C6  1  0.50113000  0.55943000  0.11747000  1.0
  C  C7  1  0.50114000  0.55804000  0.94057000  1.0
  C  C8  1  0.50178000  0.77470000  0.54899000  1.0
  C  C9  1  0.50178000  0.77429000  0.72529000  1.0
  C  C10  1  0.50178000  0.95100000  0.72570000  1.0
  C  C11  1  0.49168000  0.68029000  0.25090000  1.0
  C  C12  1  0.48656000  0.65466000  0.41644000  1.0
  C  C13  1  0.49939000  0.60171000  0.20230000  1.0
  C  C14  1  0.49860000  0.73309000  0.46421000  1.0
  C  C15  1  0.50321000  0.63543000  0.33862000  1.0
  C  C16  1  0.50629000  0.69982000  0.32896000  1.0
  C  C17  1  0.49168000  0.57061000  0.81971000  1.0
  C  C18  1  0.48655000  0.76178000  0.84534000  1.0
  C  C19  1  0.49939000  0.60060000  0.89830000  1.0
  C  C20  1  0.49860000  0.73112000  0.76691000  1.0
  C  C21  1  0.50320000  0.70319000  0.86457000  1.0
  C  C22  1  0.50628000  0.62914000  0.80018000  1.0
  C  C23  1  0.49167000  0.24910000  0.92939000  1.0
  C  C24  1  0.48655000  0.08356000  0.73822000  1.0
  C  C25  1  0.49939000  0.29770000  0.89940000  1.0
  C  C26  1  0.49859000  0.03578000  0.76887000  1.0
  C  C27  1  0.50319000  0.16138000  0.79681000  1.0
  C  C28  1  0.50627000  0.17104000  0.87086000  1.0
  S  S29  1  0.51695000  0.55148000  0.25157000  1.0
  S  S30  1  0.52267000  0.78385000  0.41541000  1.0
  S  S31  1  0.51695000  0.70009000  0.94852000  1.0
  S  S32  1  0.52267000  0.63156000  0.71615000  1.0
  S  S33  1  0.51694000  0.24843000  0.79991000  1.0
  S  S34  1  0.52266000  0.08459000  0.86844000  1.0
  Cl  Cl35  1  0.48474000  0.74667000  0.22165000  1.0
  Cl  Cl36  1  0.48474000  0.47498000  0.75333000  1.0
  Cl  Cl37  1  0.48474000  0.27835000  0.02502000  1.0
  O  O38  1  0.73621000  0.57385000  0.98950000  1.0
  O  O39  1  0.73621000  0.41565000  0.92615000  1.0
  O  O40  1  0.73621000  0.51050000  0.08435000  1.0
  O  O41  1  0.26693000  0.50931000  0.92561000  1.0
  O  O42  1  0.26693000  0.57440000  0.08371000  1.0
  O  O43  1  0.26694000  0.41629000  0.99069000  1.0
  O  O44  1  0.73727000  0.91746000  0.74097000  1.0
  O  O45  1  0.73727000  0.82351000  0.58254000  1.0
  O  O46  1  0.73727000  0.75902000  0.67648000  1.0
  O  O47  1  0.26907000  0.91731000  0.67629000  1.0
  O  O48  1  0.26907000  0.82371000  0.74102000  1.0
  O  O49  1  0.26907000  0.75898000  0.58269000  1.0
