# generated using pymatgen
data_CdPH13C14NO4
_symmetry_space_group_name_H-M   'P 1'
_cell_length_a   8.41997000
_cell_length_b   14.02329159
_cell_length_c   14.90180000
_cell_angle_alpha   64.64370933
_cell_angle_beta   73.62100000
_cell_angle_gamma   72.53389826
_symmetry_Int_Tables_number   1
_chemical_formula_structural   CdPH13C14NO4
_chemical_formula_sum   'Cd4 P4 H52 C56 N4 O16'
_cell_volume   1492.49381592
_cell_formula_units_Z   4
loop_
 _symmetry_equiv_pos_site_id
 _symmetry_equiv_pos_as_xyz
  1  'x, y, z'
loop_
 _atom_site_type_symbol
 _atom_site_label
 _atom_site_symmetry_multiplicity
 _atom_site_fract_x
 _atom_site_fract_y
 _atom_site_fract_z
 _atom_site_occupancy
  Cd  Cd0  1  0.14461000  0.74986000  0.25010000  1.0
  Cd  Cd1  1  0.85539000  0.25014000  0.74990000  1.0
  Cd  Cd2  1  0.60115000  0.75002000  0.24997000  1.0
  Cd  Cd3  1  0.39885000  0.24998000  0.75003000  1.0
  P  P4  1  0.79993000  0.94826000  0.15821000  1.0
  P  P5  1  0.90615000  0.55162000  0.34177000  1.0
  P  P6  1  0.20005000  0.05175000  0.84179000  1.0
  P  P7  1  0.09386000  0.44838000  0.65822000  1.0
  H  H8  1  0.63861000  0.01966000  0.32541000  1.0
  H  H9  1  0.98331000  0.48036000  0.17447000  1.0
  H  H10  1  0.36137000  0.98035000  0.67460000  1.0
  H  H11  1  0.01668000  0.51964000  0.82553000  1.0
  H  H12  1  0.67919000  0.16138000  0.37247000  1.0
  H  H13  1  0.21281000  0.33871000  0.12737000  1.0
  H  H14  1  0.32081000  0.83862000  0.62754000  1.0
  H  H15  1  0.78718000  0.66129000  0.87263000  1.0
  H  H16  1  0.89252000  0.27313000  0.26345000  1.0
  H  H17  1  0.42901000  0.22706000  0.23639000  1.0
  H  H18  1  0.10748000  0.72687000  0.73656000  1.0
  H  H19  1  0.57098000  0.77293000  0.76361000  1.0
  H  H20  1  0.06754000  0.24198000  0.10796000  1.0
  H  H21  1  0.41745000  0.25810000  0.39200000  1.0
  H  H22  1  0.93246000  0.75802000  0.89205000  1.0
  H  H23  1  0.58256000  0.74189000  0.60800000  1.0
  H  H24  1  0.02859000  0.10130000  0.06366000  1.0
  H  H25  1  0.19344000  0.39876000  0.43629000  1.0
  H  H26  1  0.97141000  0.89870000  0.93635000  1.0
  H  H27  1  0.80656000  0.60124000  0.56371000  1.0
  H  H28  1  0.84021000  0.05822000  0.98186000  1.0
  H  H29  1  0.88025000  0.44146000  0.51810000  1.0
  H  H30  1  0.15979000  0.94179000  0.01814000  1.0
  H  H31  1  0.11976000  0.55854000  0.48190000  1.0
  H  H32  1  0.72811000  0.95680000  0.01331000  1.0
  H  H33  1  0.69835000  0.54304000  0.48664000  1.0
  H  H34  1  0.27190000  0.04320000  0.98669000  1.0
  H  H35  1  0.30166000  0.45696000  0.51336000  1.0
  H  H36  1  0.57759000  0.16525000  0.05759000  1.0
  H  H37  1  0.79932000  0.33469000  0.44229000  1.0
  H  H38  1  0.42241000  0.83475000  0.94241000  1.0
  H  H39  1  0.20069000  0.66531000  0.55771000  1.0
  H  H40  1  0.46690000  0.06371000  0.08971000  1.0
  H  H41  1  0.61938000  0.43648000  0.41041000  1.0
  H  H42  1  0.53310000  0.93629000  0.91029000  1.0
  H  H43  1  0.38062000  0.56352000  0.58959000  1.0
  H  H44  1  0.27026000  0.93937000  0.25327000  1.0
  H  H45  1  0.46255000  0.56026000  0.24704000  1.0
  H  H46  1  0.72975000  0.06063000  0.74672000  1.0
  H  H47  1  0.53745000  0.43974000  0.75296000  1.0
  H  H48  1  0.21679000  0.04833000  0.35652000  1.0
  H  H49  1  0.62161000  0.45160000  0.14362000  1.0
  H  H50  1  0.78321000  0.95167000  0.64347000  1.0
  H  H51  1  0.37838000  0.54840000  0.85638000  1.0
  H  H52  1  0.83706000  0.86442000  0.56006000  1.0
  H  H53  1  0.26144000  0.63553000  0.93991000  1.0
  H  H54  1  0.16293000  0.13559000  0.43993000  1.0
  H  H55  1  0.73856000  0.36447000  0.06008000  1.0
  H  H56  1  0.90379000  0.76692000  0.44542000  1.0
  H  H57  1  0.11590000  0.73297000  0.05462000  1.0
  H  H58  1  0.09622000  0.23308000  0.55458000  1.0
  H  H59  1  0.88410000  0.26703000  0.94538000  1.0
  C  C60  1  0.83048000  0.05128000  0.19204000  1.0
  C  C61  1  0.07355000  0.44870000  0.30789000  1.0
  C  C62  1  0.16952000  0.94872000  0.80797000  1.0
  C  C63  1  0.92645000  0.55130000  0.69211000  1.0
  C  C64  1  0.73175000  0.06939000  0.27857000  1.0
  C  C65  1  0.07942000  0.43062000  0.22132000  1.0
  C  C66  1  0.26824000  0.93062000  0.72143000  1.0
  C  C67  1  0.92059000  0.56937000  0.77868000  1.0
  C  C68  1  0.75430000  0.14879000  0.30417000  1.0
  C  C69  1  0.20701000  0.35129000  0.19571000  1.0
  C  C70  1  0.24569000  0.85121000  0.69584000  1.0
  C  C71  1  0.79298000  0.64871000  0.80429000  1.0
  C  C72  1  0.87410000  0.21172000  0.24295000  1.0
  C  C73  1  0.32864000  0.28841000  0.25693000  1.0
  C  C74  1  0.12588000  0.78829000  0.75705000  1.0
  C  C75  1  0.67137000  0.71158000  0.74307000  1.0
  C  C76  1  0.97241000  0.19432000  0.15626000  1.0
  C  C77  1  0.32293000  0.30576000  0.34365000  1.0
  C  C78  1  0.02758000  0.80568000  0.84375000  1.0
  C  C79  1  0.67706000  0.69424000  0.65634000  1.0
  C  C80  1  0.95087000  0.11445000  0.13110000  1.0
  C  C81  1  0.19631000  0.38559000  0.36883000  1.0
  C  C82  1  0.04912000  0.88555000  0.86891000  1.0
  C  C83  1  0.80369000  0.61441000  0.63117000  1.0
  C  C84  1  0.73684000  0.01989000  0.03592000  1.0
  C  C85  1  0.79254000  0.47993000  0.46402000  1.0
  C  C86  1  0.26316000  0.98011000  0.96409000  1.0
  C  C87  1  0.20747000  0.52007000  0.53598000  1.0
  C  C88  1  0.57011000  0.10169000  0.03491000  1.0
  C  C89  1  0.70611000  0.39831000  0.46507000  1.0
  C  C90  1  0.42989000  0.89831000  0.96509000  1.0
  C  C91  1  0.29390000  0.60169000  0.53493000  1.0
  C  C92  1  0.51479000  0.15829000  0.93265000  1.0
  C  C93  1  0.60546000  0.34182000  0.56742000  1.0
  C  C94  1  0.48521000  0.84171000  0.06736000  1.0
  C  C95  1  0.39455000  0.65818000  0.43257000  1.0
  C  C96  1  0.17477000  0.92659000  0.32180000  1.0
  C  C97  1  0.42301000  0.57324000  0.17835000  1.0
  C  C98  1  0.82524000  0.07341000  0.67819000  1.0
  C  C99  1  0.57699000  0.42676000  0.82165000  1.0
  C  C100  1  0.14375000  0.98666000  0.38076000  1.0
  C  C101  1  0.51113000  0.51328000  0.11932000  1.0
  C  C102  1  0.85626000  0.01334000  0.61923000  1.0
  C  C103  1  0.48887000  0.48672000  0.88068000  1.0
  C  C104  1  0.01961000  0.96783000  0.46840000  1.0
  C  C105  1  0.45586000  0.53216000  0.03159000  1.0
  C  C106  1  0.98039000  0.03218000  0.53159000  1.0
  C  C107  1  0.54414000  0.46785000  0.96841000  1.0
  C  C108  1  0.93352000  0.88581000  0.49281000  1.0
  C  C109  1  0.31205000  0.61412000  0.00720000  1.0
  C  C110  1  0.06648000  0.11420000  0.50718000  1.0
  C  C111  1  0.68795000  0.38589000  0.99280000  1.0
  C  C112  1  0.97030000  0.82969000  0.42970000  1.0
  C  C113  1  0.22956000  0.67020000  0.07035000  1.0
  C  C114  1  0.02970000  0.17031000  0.57029000  1.0
  C  C115  1  0.77043000  0.32981000  0.92965000  1.0
  N  N116  1  0.08888000  0.84973000  0.34564000  1.0
  N  N117  1  0.28407000  0.65009000  0.15450000  1.0
  N  N118  1  0.91113000  0.15027000  0.65435000  1.0
  N  N119  1  0.71594000  0.34991000  0.84549000  1.0
  O  O120  1  0.96667000  0.86965000  0.14307000  1.0
  O  O121  1  0.97921000  0.63016000  0.35701000  1.0
  O  O122  1  0.03332000  0.13035000  0.85694000  1.0
  O  O123  1  0.02079000  0.36984000  0.64299000  1.0
  O  O124  1  0.65608000  0.90005000  0.23880000  1.0
  O  O125  1  0.79459000  0.59989000  0.26117000  1.0
  O  O126  1  0.34391000  0.09995000  0.76121000  1.0
  O  O127  1  0.20542000  0.40011000  0.73883000  1.0
  O  O128  1  0.61966000  0.14874000  0.85367000  1.0
  O  O129  1  0.62208000  0.35150000  0.64630000  1.0
  O  O130  1  0.38033000  0.85126000  0.14633000  1.0
  O  O131  1  0.37792000  0.64851000  0.35370000  1.0
  O  O132  1  0.36470000  0.21246000  0.92834000  1.0
  O  O133  1  0.50516000  0.28760000  0.57192000  1.0
  O  O134  1  0.63528000  0.78755000  0.07166000  1.0
  O  O135  1  0.49485000  0.71240000  0.42809000  1.0
