# generated using pymatgen
data_AgH4C9NO5
_symmetry_space_group_name_H-M   'P 1'
_cell_length_a   6.71559000
_cell_length_b   8.92190000
_cell_length_c   14.42240000
_cell_angle_alpha   102.02100000
_cell_angle_beta   89.99990000
_cell_angle_gamma   90.00000000
_symmetry_Int_Tables_number   1
_chemical_formula_structural   AgH4C9NO5
_chemical_formula_sum   'Ag4 H16 C36 N4 O20'
_cell_volume   845.18073784
_cell_formula_units_Z   4
loop_
 _symmetry_equiv_pos_site_id
 _symmetry_equiv_pos_as_xyz
  1  'x, y, z'
loop_
 _atom_site_type_symbol
 _atom_site_label
 _atom_site_symmetry_multiplicity
 _atom_site_fract_x
 _atom_site_fract_y
 _atom_site_fract_z
 _atom_site_occupancy
  Ag  Ag0  1  0.97324000  0.81996000  0.88857000  1.0
  Ag  Ag1  1  0.47324000  0.18004000  0.61143000  1.0
  Ag  Ag2  1  0.02676000  0.18004000  0.11143000  1.0
  Ag  Ag3  1  0.52675000  0.81996000  0.38857000  1.0
  H  H4  1  0.28566000  0.42591000  0.37873000  1.0
  H  H5  1  0.78566000  0.57409000  0.12127000  1.0
  H  H6  1  0.71434000  0.57409000  0.62127000  1.0
  H  H7  1  0.21434000  0.42591000  0.87873000  1.0
  H  H8  1  0.18767000  0.16301000  0.40076000  1.0
  H  H9  1  0.68767000  0.83699000  0.09924000  1.0
  H  H10  1  0.81233000  0.83699000  0.59924000  1.0
  H  H11  1  0.31233000  0.16301000  0.90076000  1.0
  H  H12  1  0.08388000  0.12642000  0.56131000  1.0
  H  H13  1  0.58388000  0.87358000  0.93869000  1.0
  H  H14  1  0.91612000  0.87358000  0.43869000  1.0
  H  H15  1  0.41612000  0.12642000  0.06131000  1.0
  H  H16  1  0.09114000  0.34767000  0.69938000  1.0
  H  H17  1  0.59114000  0.65233000  0.80062000  1.0
  H  H18  1  0.90886000  0.65233000  0.30062000  1.0
  H  H19  1  0.40886000  0.34767000  0.19938000  1.0
  C  C20  1  0.26268000  0.78359000  0.67452000  1.0
  C  C21  1  0.76268000  0.21641000  0.82548000  1.0
  C  C22  1  0.73733000  0.21641000  0.32548000  1.0
  C  C23  1  0.23732000  0.78359000  0.17452000  1.0
  C  C24  1  0.31833000  0.79550000  0.58046000  1.0
  C  C25  1  0.81833000  0.20450000  0.91954000  1.0
  C  C26  1  0.68167000  0.20450000  0.41954000  1.0
  C  C27  1  0.18167000  0.79550000  0.08046000  1.0
  C  C28  1  0.25104000  0.52535000  0.52683000  1.0
  C  C29  1  0.75105000  0.47465000  0.97317000  1.0
  C  C30  1  0.74895000  0.47465000  0.47316000  1.0
  C  C31  1  0.24896000  0.52535000  0.02684000  1.0
  C  C32  1  0.24644000  0.40388000  0.44806000  1.0
  C  C33  1  0.74644000  0.59612000  0.05194000  1.0
  C  C34  1  0.75356000  0.59612000  0.55194000  1.0
  C  C35  1  0.25356000  0.40388000  0.94806000  1.0
  C  C36  1  0.19082000  0.25972000  0.46097000  1.0
  C  C37  1  0.69082000  0.74028000  0.03903000  1.0
  C  C38  1  0.80918000  0.74028000  0.53902000  1.0
  C  C39  1  0.30918000  0.25972000  0.96098000  1.0
  C  C40  1  0.13951000  0.23716000  0.55219000  1.0
  C  C41  1  0.63951000  0.76284000  0.94781000  1.0
  C  C42  1  0.86050000  0.76284000  0.44781000  1.0
  C  C43  1  0.36050000  0.23716000  0.05219000  1.0
  C  C44  1  0.14114000  0.36111000  0.62976000  1.0
  C  C45  1  0.64114000  0.63889000  0.87024000  1.0
  C  C46  1  0.85886000  0.63889000  0.37024000  1.0
  C  C47  1  0.35886000  0.36111000  0.12976000  1.0
  C  C48  1  0.19779000  0.50795000  0.61766000  1.0
  C  C49  1  0.69780000  0.49205000  0.88234000  1.0
  C  C50  1  0.80220000  0.49205000  0.38233000  1.0
  C  C51  1  0.30220000  0.50795000  0.11766000  1.0
  C  C52  1  0.19201000  0.64169000  0.69690000  1.0
  C  C53  1  0.69201000  0.35831000  0.80310000  1.0
  C  C54  1  0.80799000  0.35831000  0.30309000  1.0
  C  C55  1  0.30799000  0.64169000  0.19690000  1.0
  N  N56  1  0.27175000  0.91862000  0.74654000  1.0
  N  N57  1  0.77175000  0.08138000  0.75346000  1.0
  N  N58  1  0.72825000  0.08138000  0.25346000  1.0
  N  N59  1  0.22825000  0.91862000  0.24654000  1.0
  O  O60  1  0.29189000  0.90355000  0.83113000  1.0
  O  O61  1  0.79189000  0.09645000  0.66887000  1.0
  O  O62  1  0.70811000  0.09645000  0.16887000  1.0
  O  O63  1  0.20811000  0.90355000  0.33113000  1.0
  O  O64  1  0.25531000  0.04911000  0.72690000  1.0
  O  O65  1  0.75531000  0.95088000  0.77311000  1.0
  O  O66  1  0.74469000  0.95089000  0.27310000  1.0
  O  O67  1  0.24469000  0.04912000  0.22689000  1.0
  O  O68  1  0.38179000  0.90842000  0.55188000  1.0
  O  O69  1  0.88179000  0.09158000  0.94812000  1.0
  O  O70  1  0.61820000  0.09158000  0.44812000  1.0
  O  O71  1  0.11821000  0.90842000  0.05188000  1.0
  O  O72  1  0.30788000  0.66489000  0.51003000  1.0
  O  O73  1  0.80788000  0.33511000  0.98997000  1.0
  O  O74  1  0.69212000  0.33511000  0.48997000  1.0
  O  O75  1  0.19212000  0.66489000  0.01003000  1.0
  O  O76  1  0.12169000  0.62613000  0.77533000  1.0
  O  O77  1  0.62170000  0.37388000  0.72467000  1.0
  O  O78  1  0.87831000  0.37387000  0.22467000  1.0
  O  O79  1  0.37830000  0.62612000  0.27533000  1.0
