# generated using pymatgen
data_Cd2H26C24N6O11
_symmetry_space_group_name_H-M   'P 1'
_cell_length_a   11.15330000
_cell_length_b   14.09360000
_cell_length_c   20.88450000
_cell_angle_alpha   72.20000000
_cell_angle_beta   89.99990000
_cell_angle_gamma   89.99990000
_symmetry_Int_Tables_number   1
_chemical_formula_structural   Cd2H26C24N6O11
_chemical_formula_sum   'Cd8 H104 C96 N24 O44'
_cell_volume   3125.68623176
_cell_formula_units_Z   4
loop_
 _symmetry_equiv_pos_site_id
 _symmetry_equiv_pos_as_xyz
  1  'x, y, z'
loop_
 _atom_site_type_symbol
 _atom_site_label
 _atom_site_symmetry_multiplicity
 _atom_site_fract_x
 _atom_site_fract_y
 _atom_site_fract_z
 _atom_site_occupancy
  Cd  Cd0  1  0.00000000  0.00000000  0.00000000  1.0
  Cd  Cd1  1  0.50000000  0.00000000  0.50000000  1.0
  Cd  Cd2  1  0.62337000  0.87723000  0.24984000  1.0
  Cd  Cd3  1  0.12336000  0.12277000  0.25016000  1.0
  Cd  Cd4  1  0.37664000  0.12276000  0.75016000  1.0
  Cd  Cd5  1  0.87664000  0.87724000  0.74984000  1.0
  Cd  Cd6  1  0.50000000  0.00000000  0.00000000  1.0
  Cd  Cd7  1  0.00000000  0.00000000  0.50000000  1.0
  H  H8  1  0.14284000  0.66692000  0.90834000  1.0
  H  H9  1  0.64283000  0.33309000  0.59166000  1.0
  H  H10  1  0.85716000  0.33309000  0.09166000  1.0
  H  H11  1  0.35716000  0.66691000  0.40834000  1.0
  H  H12  1  0.11134000  0.57257000  0.98572000  1.0
  H  H13  1  0.61134000  0.42743000  0.51427000  1.0
  H  H14  1  0.88866000  0.42744000  0.01427000  1.0
  H  H15  1  0.38866000  0.57257000  0.48573000  1.0
  H  H16  1  0.32310000  0.57924000  0.02313000  1.0
  H  H17  1  0.82310000  0.42076000  0.47687000  1.0
  H  H18  1  0.67690000  0.42077000  0.97686000  1.0
  H  H19  1  0.17689000  0.57924000  0.52313000  1.0
  H  H20  1  0.31219000  0.54249000  0.94904000  1.0
  H  H21  1  0.81219000  0.45751000  0.55096000  1.0
  H  H22  1  0.68781000  0.45751000  0.05096000  1.0
  H  H23  1  0.18781000  0.54249000  0.44904000  1.0
  H  H24  1  0.36234000  0.75691000  0.94963000  1.0
  H  H25  1  0.86234000  0.24309000  0.55038000  1.0
  H  H26  1  0.63765000  0.24309000  0.05037000  1.0
  H  H27  1  0.13766000  0.75691000  0.44962000  1.0
  H  H28  1  0.35798000  0.71548000  0.87799000  1.0
  H  H29  1  0.85798000  0.28453000  0.62201000  1.0
  H  H30  1  0.64201000  0.28453000  0.12201000  1.0
  H  H31  1  0.14202000  0.71547000  0.37799000  1.0
  H  H32  1  0.54345000  0.66035000  0.99185000  1.0
  H  H33  1  0.04345000  0.33965000  0.50815000  1.0
  H  H34  1  0.45654000  0.33966000  0.00815000  1.0
  H  H35  1  0.95655000  0.66035000  0.49185000  1.0
  H  H36  1  0.53405000  0.59849000  0.92888000  1.0
  H  H37  1  0.03404000  0.40151000  0.57112000  1.0
  H  H38  1  0.46595000  0.40151000  0.07112000  1.0
  H  H39  1  0.96595000  0.59849000  0.42888000  1.0
  H  H40  1  0.11143000  0.78870000  0.11910000  1.0
  H  H41  1  0.61143000  0.21130000  0.38090000  1.0
  H  H42  1  0.88856000  0.21130000  0.88090000  1.0
  H  H43  1  0.38856000  0.78871000  0.61910000  1.0
  H  H44  1  0.09435000  0.84101000  0.90962000  1.0
  H  H45  1  0.59436000  0.15900000  0.59038000  1.0
  H  H46  1  0.90565000  0.15900000  0.09038000  1.0
  H  H47  1  0.40565000  0.84101000  0.40962000  1.0
  H  H48  1  0.63701000  0.97123000  0.81185000  1.0
  H  H49  1  0.13701000  0.02877000  0.68815000  1.0
  H  H50  1  0.36299000  0.02877000  0.18815000  1.0
  H  H51  1  0.86299000  0.97123000  0.31184000  1.0
  H  H52  1  0.73153000  0.66763000  0.86579000  1.0
  H  H53  1  0.23153000  0.33236000  0.63421000  1.0
  H  H54  1  0.26846000  0.33237000  0.13421000  1.0
  H  H55  1  0.76847000  0.66763000  0.36579000  1.0
  H  H56  1  0.80129000  0.58793000  0.20245000  1.0
  H  H57  1  0.30128000  0.41207000  0.29755000  1.0
  H  H58  1  0.19872000  0.41205000  0.79754000  1.0
  H  H59  1  0.69872000  0.58794000  0.70246000  1.0
  H  H60  1  0.89549000  0.49366000  0.13146000  1.0
  H  H61  1  0.39548000  0.50635000  0.36853000  1.0
  H  H62  1  0.10451000  0.50633000  0.86852000  1.0
  H  H63  1  0.60451000  0.49367000  0.63148000  1.0
  H  H64  1  0.91879000  0.57682000  0.00804000  1.0
  H  H65  1  0.41879000  0.42319000  0.49196000  1.0
  H  H66  1  0.08121000  0.42318000  0.99195000  1.0
  H  H67  1  0.58120000  0.57681000  0.50805000  1.0
  H  H68  1  0.85254000  0.75188000  0.95751000  1.0
  H  H69  1  0.35255000  0.24813000  0.54249000  1.0
  H  H70  1  0.14746000  0.24812000  0.04248000  1.0
  H  H71  1  0.64746000  0.75187000  0.45752000  1.0
  H  H72  1  0.85111000  0.37622000  0.22925000  1.0
  H  H73  1  0.35113000  0.62378000  0.27074000  1.0
  H  H74  1  0.14888000  0.62378000  0.77075000  1.0
  H  H75  1  0.64887000  0.37622000  0.72926000  1.0
  H  H76  1  0.65825000  0.46488000  0.23270000  1.0
  H  H77  1  0.15826000  0.53513000  0.26729000  1.0
  H  H78  1  0.34174000  0.53511000  0.76730000  1.0
  H  H79  1  0.84174000  0.46488000  0.73271000  1.0
  H  H80  1  0.46595000  0.37052000  0.24828000  1.0
  H  H81  1  0.96597000  0.62949000  0.25172000  1.0
  H  H82  1  0.53405000  0.62947000  0.75172000  1.0
  H  H83  1  0.03404000  0.37053000  0.74828000  1.0
  H  H84  1  0.46752000  0.18958000  0.26020000  1.0
  H  H85  1  0.96754000  0.81042000  0.23980000  1.0
  H  H86  1  0.53248000  0.81040000  0.73980000  1.0
  H  H87  1  0.03248000  0.18959000  0.76020000  1.0
  H  H88  1  0.99682000  0.96074000  0.15139000  1.0
  H  H89  1  0.49682000  0.03926000  0.34861000  1.0
  H  H90  1  0.00318000  0.03926000  0.84861000  1.0
  H  H91  1  0.50319000  0.96074000  0.65139000  1.0
  H  H92  1  0.87264000  0.92229000  0.12705000  1.0
  H  H93  1  0.37264000  0.07770000  0.37295000  1.0
  H  H94  1  0.12737000  0.07770000  0.87295000  1.0
  H  H95  1  0.62737000  0.92229000  0.62705000  1.0
  H  H96  1  0.66390000  0.99847000  0.10616000  1.0
  H  H97  1  0.16391000  0.00153000  0.39384000  1.0
  H  H98  1  0.33609000  0.00153000  0.89384000  1.0
  H  H99  1  0.83610000  0.99847000  0.60616000  1.0
  H  H100  1  0.57165000  0.08838000  0.09822000  1.0
  H  H101  1  0.07165000  0.91162000  0.40179000  1.0
  H  H102  1  0.42835000  0.91162000  0.90179000  1.0
  H  H103  1  0.92835000  0.08838000  0.59821000  1.0
  H  H104  1  0.37571000  0.89933000  0.12677000  1.0
  H  H105  1  0.87571000  0.10067000  0.37323000  1.0
  H  H106  1  0.62429000  0.10067000  0.87323000  1.0
  H  H107  1  0.12429000  0.89933000  0.62677000  1.0
  H  H108  1  0.29161000  0.96013000  0.06467000  1.0
  H  H109  1  0.79161000  0.03987000  0.43533000  1.0
  H  H110  1  0.70838000  0.03988000  0.93533000  1.0
  H  H111  1  0.20839000  0.96012000  0.56467000  1.0
  C  C112  1  0.16909000  0.63644000  0.96145000  1.0
  C  C113  1  0.66909000  0.36357000  0.53854000  1.0
  C  C114  1  0.83091000  0.36357000  0.03854000  1.0
  C  C115  1  0.33091000  0.63644000  0.46146000  1.0
  C  C116  1  0.30083000  0.60564000  0.96915000  1.0
  C  C117  1  0.80083000  0.39436000  0.53085000  1.0
  C  C118  1  0.69916000  0.39436000  0.03084000  1.0
  C  C119  1  0.19916000  0.60564000  0.46915000  1.0
  C  C120  1  0.38049000  0.69265000  0.93179000  1.0
  C  C121  1  0.88049000  0.30735000  0.56822000  1.0
  C  C122  1  0.61951000  0.30736000  0.06821000  1.0
  C  C123  1  0.11951000  0.69264000  0.43178000  1.0
  C  C124  1  0.51335000  0.66791000  0.94031000  1.0
  C  C125  1  0.01335000  0.33209000  0.55969000  1.0
  C  C126  1  0.48664000  0.33210000  0.05969000  1.0
  C  C127  1  0.98664000  0.66791000  0.44031000  1.0
  C  C128  1  0.11707000  0.77802000  0.06997000  1.0
  C  C129  1  0.61707000  0.22197000  0.43003000  1.0
  C  C130  1  0.88293000  0.22197000  0.93003000  1.0
  C  C131  1  0.38293000  0.77803000  0.56997000  1.0
  C  C132  1  0.10669000  0.80774000  0.96344000  1.0
  C  C133  1  0.60670000  0.19225000  0.53656000  1.0
  C  C134  1  0.89331000  0.19226000  0.03656000  1.0
  C  C135  1  0.39330000  0.80775000  0.46344000  1.0
  C  C136  1  0.63778000  0.89109000  0.83582000  1.0
  C  C137  1  0.13779000  0.10891000  0.66418000  1.0
  C  C138  1  0.36221000  0.10891000  0.16418000  1.0
  C  C139  1  0.86221000  0.89109000  0.33582000  1.0
  C  C140  1  0.68721000  0.73755000  0.86229000  1.0
  C  C141  1  0.18721000  0.26245000  0.63772000  1.0
  C  C142  1  0.31279000  0.26245000  0.13771000  1.0
  C  C143  1  0.81279000  0.73755000  0.36229000  1.0
  C  C144  1  0.78962000  0.76773000  0.05095000  1.0
  C  C145  1  0.28962000  0.23227000  0.44905000  1.0
  C  C146  1  0.21038000  0.23226000  0.94904000  1.0
  C  C147  1  0.71038000  0.76774000  0.55096000  1.0
  C  C148  1  0.77563000  0.72141000  0.12057000  1.0
  C  C149  1  0.27563000  0.27859000  0.37943000  1.0
  C  C150  1  0.22437000  0.27858000  0.87943000  1.0
  C  C151  1  0.72437000  0.72142000  0.62057000  1.0
  C  C152  1  0.81392000  0.62268000  0.14860000  1.0
  C  C153  1  0.31392000  0.37732000  0.35140000  1.0
  C  C154  1  0.18608000  0.37731000  0.85139000  1.0
  C  C155  1  0.68608000  0.62269000  0.64861000  1.0
  C  C156  1  0.86563000  0.57027000  0.10889000  1.0
  C  C157  1  0.36563000  0.42974000  0.39111000  1.0
  C  C158  1  0.13437000  0.42973000  0.89110000  1.0
  C  C159  1  0.63437000  0.57027000  0.60890000  1.0
  C  C160  1  0.87918000  0.61685000  0.03996000  1.0
  C  C161  1  0.37918000  0.38316000  0.46004000  1.0
  C  C162  1  0.12082000  0.38315000  0.96003000  1.0
  C  C163  1  0.62081000  0.61685000  0.53997000  1.0
  C  C164  1  0.84212000  0.71505000  0.01129000  1.0
  C  C165  1  0.34212000  0.28495000  0.48871000  1.0
  C  C166  1  0.15788000  0.28495000  0.98870000  1.0
  C  C167  1  0.65788000  0.71505000  0.51130000  1.0
  C  C168  1  0.73342000  0.86669000  0.01493000  1.0
  C  C169  1  0.23342000  0.13331000  0.48508000  1.0
  C  C170  1  0.26658000  0.13331000  0.98507000  1.0
  C  C171  1  0.76659000  0.86669000  0.51493000  1.0
  C  C172  1  0.72098000  0.77383000  0.16617000  1.0
  C  C173  1  0.22097000  0.22617000  0.33383000  1.0
  C  C174  1  0.27903000  0.22616000  0.83383000  1.0
  C  C175  1  0.77903000  0.77384000  0.66617000  1.0
  C  C176  1  0.65869000  0.18148000  0.24990000  1.0
  C  C177  1  0.15870000  0.81853000  0.25010000  1.0
  C  C178  1  0.34131000  0.81852000  0.75010000  1.0
  C  C179  1  0.84131000  0.18148000  0.74990000  1.0
  C  C180  1  0.76738000  0.23487000  0.24051000  1.0
  C  C181  1  0.26740000  0.76514000  0.25949000  1.0
  C  C182  1  0.23262000  0.76513000  0.75949000  1.0
  C  C183  1  0.73261000  0.23486000  0.74051000  1.0
  C  C184  1  0.76592000  0.33650000  0.23496000  1.0
  C  C185  1  0.26593000  0.66350000  0.26504000  1.0
  C  C186  1  0.23408000  0.66349000  0.76504000  1.0
  C  C187  1  0.73407000  0.33650000  0.73496000  1.0
  C  C188  1  0.65826000  0.38570000  0.23737000  1.0
  C  C189  1  0.15828000  0.61431000  0.26262000  1.0
  C  C190  1  0.34173000  0.61430000  0.76263000  1.0
  C  C191  1  0.84173000  0.38570000  0.73737000  1.0
  C  C192  1  0.55045000  0.33294000  0.24605000  1.0
  C  C193  1  0.05046000  0.66706000  0.25394000  1.0
  C  C194  1  0.44954000  0.66705000  0.75395000  1.0
  C  C195  1  0.94954000  0.33295000  0.74605000  1.0
  C  C196  1  0.55114000  0.23140000  0.25308000  1.0
  C  C197  1  0.05115000  0.76860000  0.24692000  1.0
  C  C198  1  0.44886000  0.76859000  0.74693000  1.0
  C  C199  1  0.94886000  0.23141000  0.75307000  1.0
  C  C200  1  0.65330000  0.07499000  0.25048000  1.0
  C  C201  1  0.15330000  0.92501000  0.24952000  1.0
  C  C202  1  0.34671000  0.92501000  0.74952000  1.0
  C  C203  1  0.84670000  0.07499000  0.75048000  1.0
  C  C204  1  0.88809000  0.18865000  0.23790000  1.0
  C  C205  1  0.38809000  0.81136000  0.26209000  1.0
  C  C206  1  0.11192000  0.81136000  0.76209000  1.0
  C  C207  1  0.61191000  0.18864000  0.73791000  1.0
  N  N208  1  0.14295000  0.71341000  0.99256000  1.0
  N  N209  1  0.64295000  0.28659000  0.50744000  1.0
  N  N210  1  0.85705000  0.28660000  0.00744000  1.0
  N  N211  1  0.35705000  0.71341000  0.49256000  1.0
  N  N212  1  0.15063000  0.69299000  0.06063000  1.0
  N  N213  1  0.65063000  0.30701000  0.43937000  1.0
  N  N214  1  0.84937000  0.30701000  0.93937000  1.0
  N  N215  1  0.34937000  0.69300000  0.56063000  1.0
  N  N216  1  0.08890000  0.85052000  0.01160000  1.0
  N  N217  1  0.58890000  0.14948000  0.48841000  1.0
  N  N218  1  0.91110000  0.14948000  0.98841000  1.0
  N  N219  1  0.41110000  0.85052000  0.51159000  1.0
  N  N220  1  0.58461000  0.74606000  0.89371000  1.0
  N  N221  1  0.08461000  0.25394000  0.60629000  1.0
  N  N222  1  0.41539000  0.25395000  0.10629000  1.0
  N  N223  1  0.91539000  0.74606000  0.39371000  1.0
  N  N224  1  0.55178000  0.84349000  0.87698000  1.0
  N  N225  1  0.05178000  0.15651000  0.62302000  1.0
  N  N226  1  0.44822000  0.15651000  0.12302000  1.0
  N  N227  1  0.94822000  0.84349000  0.37698000  1.0
  N  N228  1  0.72341000  0.82824000  0.82555000  1.0
  N  N229  1  0.22341000  0.17176000  0.67445000  1.0
  N  N230  1  0.27659000  0.17177000  0.17445000  1.0
  N  N231  1  0.77659000  0.82823000  0.32555000  1.0
  O  O232  1  0.79820000  0.93928000  0.98119000  1.0
  O  O233  1  0.29820000  0.06072000  0.51882000  1.0
  O  O234  1  0.20180000  0.06072000  0.01881000  1.0
  O  O235  1  0.70181000  0.93928000  0.48118000  1.0
  O  O236  1  0.61983000  0.86493000  0.01820000  1.0
  O  O237  1  0.11984000  0.13507000  0.48180000  1.0
  O  O238  1  0.38017000  0.13507000  0.98179000  1.0
  O  O239  1  0.88017000  0.86493000  0.51821000  1.0
  O  O240  1  0.73190000  0.86972000  0.15061000  1.0
  O  O241  1  0.23189000  0.13028000  0.34939000  1.0
  O  O242  1  0.26812000  0.13027000  0.84939000  1.0
  O  O243  1  0.76813000  0.86973000  0.65061000  1.0
  O  O244  1  0.66914000  0.72310000  0.21938000  1.0
  O  O245  1  0.16914000  0.27690000  0.28062000  1.0
  O  O246  1  0.33085000  0.27689000  0.78062000  1.0
  O  O247  1  0.83084000  0.72310000  0.71939000  1.0
  O  O248  1  0.95505000  0.94605000  0.11312000  1.0
  O  O249  1  0.45505000  0.05396000  0.38688000  1.0
  O  O250  1  0.04496000  0.05396000  0.88688000  1.0
  O  O251  1  0.54496000  0.94604000  0.61312000  1.0
  O  O252  1  0.72524000  0.04519000  0.21394000  1.0
  O  O253  1  0.22524000  0.95481000  0.28607000  1.0
  O  O254  1  0.27475000  0.95480000  0.78606000  1.0
  O  O255  1  0.77475000  0.04520000  0.71393000  1.0
  O  O256  1  0.57230000  0.01779000  0.28643000  1.0
  O  O257  1  0.07230000  0.98221000  0.21357000  1.0
  O  O258  1  0.42770000  0.98220000  0.71358000  1.0
  O  O259  1  0.92770000  0.01779000  0.78643000  1.0
  O  O260  1  0.95193000  0.22175000  0.18580000  1.0
  O  O261  1  0.45194000  0.77825000  0.31420000  1.0
  O  O262  1  0.04807000  0.77826000  0.81419000  1.0
  O  O263  1  0.54807000  0.22175000  0.68580000  1.0
  O  O264  1  0.92600000  0.12222000  0.29118000  1.0
  O  O265  1  0.42600000  0.87779000  0.20882000  1.0
  O  O266  1  0.07401000  0.87778000  0.70881000  1.0
  O  O267  1  0.57400000  0.12221000  0.79119000  1.0
  O  O268  1  0.62250000  0.05377000  0.07345000  1.0
  O  O269  1  0.12250000  0.94623000  0.42655000  1.0
  O  O270  1  0.37749000  0.94623000  0.92655000  1.0
  O  O271  1  0.87750000  0.05377000  0.57345000  1.0
  O  O272  1  0.35798000  0.91082000  0.07847000  1.0
  O  O273  1  0.85798000  0.08918000  0.42153000  1.0
  O  O274  1  0.64202000  0.08919000  0.92154000  1.0
  O  O275  1  0.14202000  0.91081000  0.57847000  1.0
