# generated using pymatgen
data_ZnH10C17N2O3
_symmetry_space_group_name_H-M   'P 1'
_cell_length_a   10.66050000
_cell_length_b   12.57700000
_cell_length_c   13.67010000
_cell_angle_alpha   90.00000000
_cell_angle_beta   90.00030000
_cell_angle_gamma   91.25280000
_symmetry_Int_Tables_number   1
_chemical_formula_structural   ZnH10C17N2O3
_chemical_formula_sum   'Zn4 H40 C68 N8 O12'
_cell_volume   1832.40935667
_cell_formula_units_Z   4
loop_
 _symmetry_equiv_pos_site_id
 _symmetry_equiv_pos_as_xyz
  1  'x, y, z'
loop_
 _atom_site_type_symbol
 _atom_site_label
 _atom_site_symmetry_multiplicity
 _atom_site_fract_x
 _atom_site_fract_y
 _atom_site_fract_z
 _atom_site_occupancy
  Zn  Zn0  1  0.46507000  0.12893000  0.43180000  1.0
  Zn  Zn1  1  0.03492000  0.37108000  0.93180000  1.0
  Zn  Zn2  1  0.53492000  0.87107000  0.56820000  1.0
  Zn  Zn3  1  0.96508000  0.62893000  0.06820000  1.0
  H  H4  1  0.68839000  0.08039000  0.15004000  1.0
  H  H5  1  0.81161000  0.41961000  0.65004000  1.0
  H  H6  1  0.31161000  0.91961000  0.84996000  1.0
  H  H7  1  0.18839000  0.58039000  0.34995000  1.0
  H  H8  1  0.80995000  0.21687000  0.05232000  1.0
  H  H9  1  0.69005000  0.28313000  0.55232000  1.0
  H  H10  1  0.19005000  0.78313000  0.94768000  1.0
  H  H11  1  0.30995000  0.71686000  0.44768000  1.0
  H  H12  1  0.67565000  0.46334000  0.23823000  1.0
  H  H13  1  0.82435000  0.03666000  0.73823000  1.0
  H  H14  1  0.32435000  0.53666000  0.76177000  1.0
  H  H15  1  0.17565000  0.96334000  0.26177000  1.0
  H  H16  1  0.53667000  0.43500000  0.35746000  1.0
  H  H17  1  0.96333000  0.06500000  0.85746000  1.0
  H  H18  1  0.46333000  0.56500000  0.64254000  1.0
  H  H19  1  0.03667000  0.93500000  0.14254000  1.0
  H  H20  1  0.37489000  0.50061000  0.41224000  1.0
  H  H21  1  0.12511000  0.99939000  0.91223000  1.0
  H  H22  1  0.62511000  0.49939000  0.58776000  1.0
  H  H23  1  0.87489000  0.00061000  0.08776000  1.0
  H  H24  1  0.22463000  0.57257000  0.53092000  1.0
  H  H25  1  0.27538000  0.92743000  0.03092000  1.0
  H  H26  1  0.77538000  0.42743000  0.46908000  1.0
  H  H27  1  0.72462000  0.07258000  0.96908000  1.0
  H  H28  1  0.13970000  0.46005000  0.66711000  1.0
  H  H29  1  0.36030000  0.03994000  0.16711000  1.0
  H  H30  1  0.86030000  0.53995000  0.33290000  1.0
  H  H31  1  0.63970000  0.96006000  0.83289000  1.0
  H  H32  1  0.13640000  0.28619000  0.75365000  1.0
  H  H33  1  0.36359000  0.21381000  0.25365000  1.0
  H  H34  1  0.86359000  0.71381000  0.24635000  1.0
  H  H35  1  0.63641000  0.78619000  0.74635000  1.0
  H  H36  1  0.20505000  0.09563000  0.75950000  1.0
  H  H37  1  0.29495000  0.40437000  0.25951000  1.0
  H  H38  1  0.79495000  0.90437000  0.24050000  1.0
  H  H39  1  0.70505000  0.59563000  0.74049000  1.0
  H  H40  1  0.34391000  0.02882000  0.62666000  1.0
  H  H41  1  0.15609000  0.47118000  0.12667000  1.0
  H  H42  1  0.65609000  0.97118000  0.37334000  1.0
  H  H43  1  0.84391000  0.52882000  0.87333000  1.0
  C  C44  1  0.61370000  0.19244000  0.25200000  1.0
  C  C45  1  0.88630000  0.30756000  0.75200000  1.0
  C  C46  1  0.38630000  0.80756000  0.74800000  1.0
  C  C47  1  0.11371000  0.69244000  0.24800000  1.0
  C  C48  1  0.68807000  0.16456000  0.16908000  1.0
  C  C49  1  0.81193000  0.33544000  0.66908000  1.0
  C  C50  1  0.31193000  0.83544000  0.83092000  1.0
  C  C51  1  0.18807000  0.66456000  0.33092000  1.0
  C  C52  1  0.75393000  0.23957000  0.11551000  1.0
  C  C53  1  0.74606000  0.26043000  0.61551000  1.0
  C  C54  1  0.24607000  0.76043000  0.88449000  1.0
  C  C55  1  0.25394000  0.73957000  0.38449000  1.0
  C  C56  1  0.75193000  0.34900000  0.14083000  1.0
  C  C57  1  0.74807000  0.15101000  0.64083000  1.0
  C  C58  1  0.24808000  0.65100000  0.85917000  1.0
  C  C59  1  0.25193000  0.84899000  0.35917000  1.0
  C  C60  1  0.67917000  0.37908000  0.21966000  1.0
  C  C61  1  0.82082000  0.12092000  0.71967000  1.0
  C  C62  1  0.32083000  0.62092000  0.78033000  1.0
  C  C63  1  0.17918000  0.87908000  0.28034000  1.0
  C  C64  1  0.60835000  0.30492000  0.27599000  1.0
  C  C65  1  0.89165000  0.19508000  0.77599000  1.0
  C  C66  1  0.39165000  0.69509000  0.72401000  1.0
  C  C67  1  0.10835000  0.80492000  0.22401000  1.0
  C  C68  1  0.53179000  0.34777000  0.35125000  1.0
  C  C69  1  0.96821000  0.15223000  0.85125000  1.0
  C  C70  1  0.46821000  0.65223000  0.64876000  1.0
  C  C71  1  0.03179000  0.84777000  0.14875000  1.0
  C  C72  1  0.37766000  0.34400000  0.47632000  1.0
  C  C73  1  0.12234000  0.15600000  0.97632000  1.0
  C  C74  1  0.62234000  0.65600000  0.52368000  1.0
  C  C75  1  0.87767000  0.84400000  0.02368000  1.0
  C  C76  1  0.33958000  0.44909000  0.47072000  1.0
  C  C77  1  0.16042000  0.05091000  0.97072000  1.0
  C  C78  1  0.66042000  0.55091000  0.52928000  1.0
  C  C79  1  0.83958000  0.94910000  0.02928000  1.0
  C  C80  1  0.25339000  0.49036000  0.53845000  1.0
  C  C81  1  0.24660000  0.00964000  0.03845000  1.0
  C  C82  1  0.74661000  0.50964000  0.46155000  1.0
  C  C83  1  0.75340000  0.99036000  0.96155000  1.0
  C  C84  1  0.20538000  0.42866000  0.61378000  1.0
  C  C85  1  0.29462000  0.07134000  0.11378000  1.0
  C  C86  1  0.79463000  0.57134000  0.38622000  1.0
  C  C87  1  0.70538000  0.92867000  0.88621000  1.0
  C  C88  1  0.24224000  0.32152000  0.62268000  1.0
  C  C89  1  0.25776000  0.17848000  0.12268000  1.0
  C  C90  1  0.75776000  0.67848000  0.37732000  1.0
  C  C91  1  0.74224000  0.82152000  0.87731000  1.0
  C  C92  1  0.19899000  0.25378000  0.69883000  1.0
  C  C93  1  0.30102000  0.24621000  0.19883000  1.0
  C  C94  1  0.80101000  0.74622000  0.30117000  1.0
  C  C95  1  0.69899000  0.75379000  0.80116000  1.0
  C  C96  1  0.23654000  0.14971000  0.70186000  1.0
  C  C97  1  0.26347000  0.35029000  0.20186000  1.0
  C  C98  1  0.76346000  0.85029000  0.29814000  1.0
  C  C99  1  0.73654000  0.64971000  0.79814000  1.0
  C  C100  1  0.31584000  0.11173000  0.62775000  1.0
  C  C101  1  0.18416000  0.38827000  0.12775000  1.0
  C  C102  1  0.68416000  0.88827000  0.37225000  1.0
  C  C103  1  0.81584000  0.61173000  0.87225000  1.0
  C  C104  1  0.32634000  0.27808000  0.55289000  1.0
  C  C105  1  0.17366000  0.22192000  0.05289000  1.0
  C  C106  1  0.67366000  0.72192000  0.44711000  1.0
  C  C107  1  0.82634000  0.77809000  0.94711000  1.0
  C  C108  1  0.82742000  0.42860000  0.08470000  1.0
  C  C109  1  0.67258000  0.07141000  0.58470000  1.0
  C  C110  1  0.17258000  0.57140000  0.91530000  1.0
  C  C111  1  0.32742000  0.92859000  0.41530000  1.0
  N  N112  1  0.45798000  0.29374000  0.41090000  1.0
  N  N113  1  0.04202000  0.20625000  0.91090000  1.0
  N  N114  1  0.54202000  0.70625000  0.58910000  1.0
  N  N115  1  0.95798000  0.79375000  0.08910000  1.0
  N  N116  1  0.35927000  0.17398000  0.55627000  1.0
  N  N117  1  0.14074000  0.32601000  0.05627000  1.0
  N  N118  1  0.64073000  0.82602000  0.44373000  1.0
  N  N119  1  0.85926000  0.67399000  0.94373000  1.0
  O  O120  1  0.55355000  0.11834000  0.29881000  1.0
  O  O121  1  0.94644000  0.38166000  0.79881000  1.0
  O  O122  1  0.44644000  0.88166000  0.70119000  1.0
  O  O123  1  0.05356000  0.61834000  0.20119000  1.0
  O  O124  1  0.87494000  0.39944000  0.00355000  1.0
  O  O125  1  0.62506000  0.10056000  0.50355000  1.0
  O  O126  1  0.12506000  0.60056000  0.99645000  1.0
  O  O127  1  0.37493000  0.89944000  0.49645000  1.0
  O  O128  1  0.83976000  0.52206000  0.12081000  1.0
  O  O129  1  0.66023000  0.97794000  0.62081000  1.0
  O  O130  1  0.16024000  0.47794000  0.87919000  1.0
  O  O131  1  0.33976000  0.02206000  0.37920000  1.0
