# generated using pymatgen
data_ZnH6C5N8
_symmetry_space_group_name_H-M   'P 1'
_cell_length_a   6.02860000
_cell_length_b   6.86371000
_cell_length_c   10.93680000
_cell_angle_alpha   91.55910000
_cell_angle_beta   92.08390000
_cell_angle_gamma   111.14700000
_symmetry_Int_Tables_number   1
_chemical_formula_structural   ZnH6C5N8
_chemical_formula_sum   'Zn2 H12 C10 N16'
_cell_volume   421.39933507
_cell_formula_units_Z   2
loop_
 _symmetry_equiv_pos_site_id
 _symmetry_equiv_pos_as_xyz
  1  'x, y, z'
loop_
 _atom_site_type_symbol
 _atom_site_label
 _atom_site_symmetry_multiplicity
 _atom_site_fract_x
 _atom_site_fract_y
 _atom_site_fract_z
 _atom_site_occupancy
  Zn  Zn0  1  0.27788000  0.05920000  0.55274000  1.0
  Zn  Zn1  1  0.72212000  0.94080000  0.44726000  1.0
  H  H2  1  0.76319000  0.20117000  0.67453000  1.0
  H  H3  1  0.23680000  0.79882000  0.32548000  1.0
  H  H4  1  0.29281000  0.25548000  0.01576000  1.0
  H  H5  1  0.70720000  0.74454000  0.98424000  1.0
  H  H6  1  0.11296000  0.17986000  0.80094000  1.0
  H  H7  1  0.88704000  0.82015000  0.19906000  1.0
  H  H8  1  0.63080000  0.26170000  0.15541000  1.0
  H  H9  1  0.36920000  0.73830000  0.84459000  1.0
  H  H10  1  0.86815000  0.46974000  0.09661000  1.0
  H  H11  1  0.13186000  0.53026000  0.90339000  1.0
  H  H12  1  0.88142000  0.21859000  0.09122000  1.0
  H  H13  1  0.11858000  0.78141000  0.90878000  1.0
  C  C14  1  0.65736000  0.20864000  0.75211000  1.0
  C  C15  1  0.34263000  0.79135000  0.24789000  1.0
  C  C16  1  0.63582000  0.26102000  0.95890000  1.0
  C  C17  1  0.36418000  0.73897000  0.04110000  1.0
  C  C18  1  0.39775000  0.24180000  0.93925000  1.0
  C  C19  1  0.60225000  0.75821000  0.06075000  1.0
  C  C20  1  0.29819000  0.19867000  0.82083000  1.0
  C  C21  1  0.70181000  0.80133000  0.17917000  1.0
  C  C22  1  0.75803000  0.30243000  0.08272000  1.0
  C  C23  1  0.24197000  0.69756000  0.91728000  1.0
  N  N24  1  0.08256000  0.08739000  0.39783000  1.0
  N  N25  1  0.91744000  0.91261000  0.60217000  1.0
  N  N26  1  0.16806000  0.19474000  0.31320000  1.0
  N  N27  1  0.83194000  0.80526000  0.68680000  1.0
  N  N28  1  0.25194000  0.29578000  0.23153000  1.0
  N  N29  1  0.74806000  0.70422000  0.76847000  1.0
  N  N30  1  0.38711000  0.80327000  0.53732000  1.0
  N  N31  1  0.61288000  0.19672000  0.46268000  1.0
  N  N32  1  0.28558000  0.62544000  0.56666000  1.0
  N  N33  1  0.71442000  0.37457000  0.43334000  1.0
  N  N34  1  0.18926000  0.45467000  0.59502000  1.0
  N  N35  1  0.81073000  0.54532000  0.40498000  1.0
  N  N36  1  0.42692000  0.17862000  0.72630000  1.0
  N  N37  1  0.57308000  0.82138000  0.27370000  1.0
  N  N38  1  0.76492000  0.24546000  0.86307000  1.0
  N  N39  1  0.23508000  0.75454000  0.13693000  1.0
