# generated using pymatgen
data_HgH19C26Br2(NCl3)4
_symmetry_space_group_name_H-M   'P 1'
_cell_length_a   10.81090000
_cell_length_b   11.67160000
_cell_length_c   16.15840000
_cell_angle_alpha   104.59600000
_cell_angle_beta   95.90220000
_cell_angle_gamma   101.06900000
_symmetry_Int_Tables_number   1
_chemical_formula_structural   HgH19C26Br2(NCl3)4
_chemical_formula_sum   'Hg2 H38 C52 Br4 N8 Cl24'
_cell_volume   1911.66691889
_cell_formula_units_Z   2
loop_
 _symmetry_equiv_pos_site_id
 _symmetry_equiv_pos_as_xyz
  1  'x, y, z'
loop_
 _atom_site_type_symbol
 _atom_site_label
 _atom_site_symmetry_multiplicity
 _atom_site_fract_x
 _atom_site_fract_y
 _atom_site_fract_z
 _atom_site_occupancy
  Hg  Hg0  1  0.82661000  0.87061000  0.03515000  1.0
  Hg  Hg1  1  0.17339000  0.12939000  0.96485000  1.0
  H  H2  1  0.57878000  0.57560000  0.50114000  1.0
  H  H3  1  0.42122000  0.42440000  0.49886000  1.0
  H  H4  1  0.89226000  0.88081000  0.59515000  1.0
  H  H5  1  0.10774000  0.11919000  0.40485000  1.0
  H  H6  1  0.82432000  0.84704000  0.42446000  1.0
  H  H7  1  0.17568000  0.15296000  0.57554000  1.0
  H  H8  1  0.45003000  0.54194000  0.18063000  1.0
  H  H9  1  0.54997000  0.45806000  0.81937000  1.0
  H  H10  1  0.26267000  0.35123000  0.17516000  1.0
  H  H11  1  0.73733000  0.64877000  0.82484000  1.0
  H  H12  1  0.71472000  0.53799000  0.21548000  1.0
  H  H13  1  0.28528000  0.46201000  0.78452000  1.0
  H  H14  1  0.80231000  0.63218000  0.10478000  1.0
  H  H15  1  0.19769000  0.36782000  0.89522000  1.0
  H  H16  1  0.69743000  0.95405000  0.21321000  1.0
  H  H17  1  0.30257000  0.04595000  0.78679000  1.0
  H  H18  1  0.61149000  0.87552000  0.33059000  1.0
  H  H19  1  0.38851000  0.12448000  0.66941000  1.0
  H  H20  1  0.70212000  0.90378000  0.77818000  1.0
  H  H21  1  0.29788000  0.09622000  0.22182000  1.0
  H  H22  1  0.87200000  0.05741000  0.88913000  1.0
  H  H23  1  0.12800000  0.94259000  0.11087000  1.0
  H  H24  1  0.14740000  0.86479000  0.81987000  1.0
  H  H25  1  0.85260000  0.13521000  0.18013000  1.0
  H  H26  1  0.99144000  0.70722000  0.70139000  1.0
  H  H27  1  0.00856000  0.29278000  0.29861000  1.0
  H  H28  1  0.56526000  0.18227000  0.00966000  1.0
  H  H29  1  0.43474000  0.81773000  0.99034000  1.0
  H  H30  1  0.78637000  0.22816000  0.96809000  1.0
  H  H31  1  0.21363000  0.77183000  0.03191000  1.0
  H  H32  1  0.19548000  0.72249000  0.23155000  1.0
  H  H33  1  0.80452000  0.27752000  0.76845000  1.0
  H  H34  1  0.20029000  0.55168000  0.29535000  1.0
  H  H35  1  0.79971000  0.44832000  0.70465000  1.0
  H  H36  1  0.70931000  0.28636000  0.48071000  1.0
  H  H37  1  0.29069000  0.71364000  0.51929000  1.0
  H  H38  1  0.52632000  0.28400000  0.37403000  1.0
  H  H39  1  0.47369000  0.71600000  0.62597000  1.0
  C  C40  1  0.73273000  0.71907000  0.57685000  1.0
  C  C41  1  0.26727000  0.28092000  0.42315000  1.0
  C  C42  1  0.81590000  0.81106000  0.55150000  1.0
  C  C43  1  0.18410000  0.18894000  0.44850000  1.0
  C  C44  1  0.78045000  0.79432000  0.46448000  1.0
  C  C45  1  0.21955000  0.20568000  0.53552000  1.0
  C  C46  1  0.67292000  0.69257000  0.43387000  1.0
  C  C47  1  0.32708000  0.30743000  0.56613000  1.0
  C  C48  1  0.60611000  0.64337000  0.34914000  1.0
  C  C49  1  0.39388000  0.35663000  0.65086000  1.0
  C  C50  1  0.50029000  0.54328000  0.32114000  1.0
  C  C51  1  0.49971000  0.45672000  0.67886000  1.0
  C  C52  1  0.43013000  0.50193000  0.23297000  1.0
  C  C53  1  0.56987000  0.49807000  0.76703000  1.0
  C  C54  1  0.33494000  0.40513000  0.23013000  1.0
  C  C55  1  0.66505000  0.59487000  0.76987000  1.0
  C  C56  1  0.34706000  0.38883000  0.31687000  1.0
  C  C57  1  0.65293000  0.61117000  0.68313000  1.0
  C  C58  1  0.73559000  0.70265000  0.65995000  1.0
  C  C59  1  0.26441000  0.29735000  0.34005000  1.0
  C  C60  1  0.65609000  0.69908000  0.28253000  1.0
  C  C61  1  0.34391000  0.30092000  0.71747000  1.0
  C  C62  1  0.70977000  0.63074000  0.21748000  1.0
  C  C63  1  0.29023000  0.36926000  0.78252000  1.0
  C  C64  1  0.75803000  0.68245000  0.15557000  1.0
  C  C65  1  0.24197000  0.31755000  0.84443000  1.0
  C  C66  1  0.70177000  0.86282000  0.21688000  1.0
  C  C67  1  0.29823000  0.13718000  0.78312000  1.0
  C  C68  1  0.65327000  0.81841000  0.28212000  1.0
  C  C69  1  0.34673000  0.18159000  0.71788000  1.0
  C  C70  1  0.83356000  0.79326000  0.72956000  1.0
  C  C71  1  0.16644000  0.20674000  0.27044000  1.0
  C  C72  1  0.80001000  0.89251000  0.78401000  1.0
  C  C73  1  0.19999000  0.10749000  0.21599000  1.0
  C  C74  1  0.89399000  0.97798000  0.84623000  1.0
  C  C75  1  0.10601000  0.02202000  0.15377000  1.0
  C  C76  1  0.04820000  0.87121000  0.80691000  1.0
  C  C77  1  0.95180000  0.12880000  0.19309000  1.0
  C  C78  1  0.96065000  0.78307000  0.74171000  1.0
  C  C79  1  0.03936000  0.21693000  0.25829000  1.0
  C  C80  1  0.62101000  0.27499000  0.01902000  1.0
  C  C81  1  0.37899000  0.72501000  0.98098000  1.0
  C  C82  1  0.71175000  0.27475000  0.95247000  1.0
  C  C83  1  0.28825000  0.72525000  0.04753000  1.0
  C  C84  1  0.16774000  0.72708000  0.29555000  1.0
  C  C85  1  0.83226000  0.27293000  0.70445000  1.0
  C  C86  1  0.12070000  0.59759000  0.30147000  1.0
  C  C87  1  0.87930000  0.40241000  0.69854000  1.0
  C  C88  1  0.71022000  0.25307000  0.41099000  1.0
  C  C89  1  0.28978000  0.74694000  0.58901000  1.0
  C  C90  1  0.57272000  0.20680000  0.36377000  1.0
  C  C91  1  0.42728000  0.79320000  0.63623000  1.0
  Br  Br92  1  0.65405000  0.97625000  0.99852000  1.0
  Br  Br93  1  0.34595000  0.02375000  0.00148000  1.0
  Br  Br94  1  0.95645000  0.72065000  0.97367000  1.0
  Br  Br95  1  0.04355000  0.27935000  0.02633000  1.0
  N  N96  1  0.64786000  0.65009000  0.50387000  1.0
  N  N97  1  0.35214000  0.34991000  0.49613000  1.0
  N  N98  1  0.44762000  0.47406000  0.37145000  1.0
  N  N99  1  0.55237000  0.52594000  0.62855000  1.0
  N  N100  1  0.75342000  0.79635000  0.15506000  1.0
  N  N101  1  0.24658000  0.20365000  0.84494000  1.0
  N  N102  1  0.01561000  0.96749000  0.85741000  1.0
  N  N103  1  0.98439000  0.03251000  0.14259000  1.0
  Cl  Cl104  1  0.51068000  0.36690000  0.01098000  1.0
  Cl  Cl105  1  0.48932000  0.63310000  0.98902000  1.0
  Cl  Cl106  1  0.71403000  0.31971000  0.12431000  1.0
  Cl  Cl107  1  0.28596000  0.68029000  0.87569000  1.0
  Cl  Cl108  1  0.78962000  0.42242000  0.95150000  1.0
  Cl  Cl109  1  0.21037000  0.57758000  0.04850000  1.0
  Cl  Cl110  1  0.62593000  0.18860000  0.84774000  1.0
  Cl  Cl111  1  0.37407000  0.81140000  0.15225000  1.0
  Cl  Cl112  1  0.05065000  0.81501000  0.30740000  1.0
  Cl  Cl113  1  0.94936000  0.18499000  0.69260000  1.0
  Cl  Cl114  1  0.30875000  0.79864000  0.37288000  1.0
  Cl  Cl115  1  0.69125000  0.20136000  0.62712000  1.0
  Cl  Cl116  1  0.07001000  0.59292000  0.40196000  1.0
  Cl  Cl117  1  0.92999000  0.40708000  0.59804000  1.0
  Cl  Cl118  1  0.99834000  0.51543000  0.21329000  1.0
  Cl  Cl119  1  0.00166000  0.48457000  0.78671000  1.0
  Cl  Cl120  1  0.78650000  0.37888000  0.37728000  1.0
  Cl  Cl121  1  0.21351000  0.62112000  0.62272000  1.0
  Cl  Cl122  1  0.79897000  0.13839000  0.39778000  1.0
  Cl  Cl123  1  0.20103000  0.86160000  0.60222000  1.0
  Cl  Cl124  1  0.56145000  0.14605000  0.25054000  1.0
  Cl  Cl125  1  0.43855000  0.85395000  0.74945000  1.0
  Cl  Cl126  1  0.48846000  0.09851000  0.41057000  1.0
  Cl  Cl127  1  0.51154000  0.90148000  0.58943000  1.0
