# generated using pymatgen
data_CdH8C6(N2Cl)2
_symmetry_space_group_name_H-M   'P 1'
_cell_length_a   3.88451000
_cell_length_b   9.29516000
_cell_length_c   13.73080000
_cell_angle_alpha   83.87000000
_cell_angle_beta   89.97550000
_cell_angle_gamma   78.02700000
_symmetry_Int_Tables_number   1
_chemical_formula_structural   CdH8C6(N2Cl)2
_chemical_formula_sum   'Cd2 H16 C12 N8 Cl4'
_cell_volume   482.10106530
_cell_formula_units_Z   2
loop_
 _symmetry_equiv_pos_site_id
 _symmetry_equiv_pos_as_xyz
  1  'x, y, z'
loop_
 _atom_site_type_symbol
 _atom_site_label
 _atom_site_symmetry_multiplicity
 _atom_site_fract_x
 _atom_site_fract_y
 _atom_site_fract_z
 _atom_site_occupancy
  Cd  Cd0  1  0.03260000  0.99980000  0.25002000  1.0
  Cd  Cd1  1  0.96739000  0.00020000  0.74999000  1.0
  H  H2  1  0.79512000  0.87907000  0.05081000  1.0
  H  H3  1  0.67538000  0.12134000  0.44931000  1.0
  H  H4  1  0.20486000  0.12093000  0.94919000  1.0
  H  H5  1  0.32462000  0.87866000  0.55069000  1.0
  H  H6  1  0.00366000  0.64265000  0.97295000  1.0
  H  H7  1  0.64695000  0.35861000  0.52622000  1.0
  H  H8  1  0.99634000  0.35735000  0.02705000  1.0
  H  H9  1  0.35304000  0.64140000  0.47377000  1.0
  H  H10  1  0.46532000  0.45786000  0.11029000  1.0
  H  H11  1  0.92351000  0.54309000  0.38815000  1.0
  H  H12  1  0.53469000  0.54214000  0.88971000  1.0
  H  H13  1  0.07650000  0.45691000  0.61185000  1.0
  H  H14  1  0.47322000  0.63127000  0.26161000  1.0
  H  H15  1  0.10541000  0.36853000  0.23751000  1.0
  H  H16  1  0.52677000  0.36873000  0.73839000  1.0
  H  H17  1  0.89460000  0.63147000  0.76249000  1.0
  C  C18  1  0.09253000  0.65956000  0.04474000  1.0
  C  C19  1  0.75284000  0.34127000  0.45450000  1.0
  C  C20  1  0.90748000  0.34045000  0.95526000  1.0
  C  C21  1  0.24715000  0.65873000  0.54550000  1.0
  C  C22  1  0.32128000  0.56988000  0.11497000  1.0
  C  C23  1  0.89183000  0.43078000  0.38397000  1.0
  C  C24  1  0.67873000  0.43012000  0.88504000  1.0
  C  C25  1  0.10816000  0.56922000  0.61603000  1.0
  C  C26  1  0.32569000  0.65658000  0.19274000  1.0
  C  C27  1  0.98302000  0.34357000  0.30648000  1.0
  C  C28  1  0.67431000  0.34343000  0.80726000  1.0
  C  C29  1  0.01698000  0.65642000  0.69352000  1.0
  N  N30  1  0.11336000  0.78982000  0.17128000  1.0
  N  N31  1  0.90436000  0.21015000  0.32843000  1.0
  N  N32  1  0.88663000  0.21018000  0.82872000  1.0
  N  N33  1  0.09564000  0.78984000  0.67157000  1.0
  N  N34  1  0.97607000  0.78942000  0.08127000  1.0
  N  N35  1  0.76665000  0.21097000  0.41846000  1.0
  N  N36  1  0.02392000  0.21058000  0.91872000  1.0
  N  N37  1  0.23335000  0.78903000  0.58154000  1.0
  Cl  Cl38  1  0.58055000  0.89144000  0.37441000  1.0
  Cl  Cl39  1  0.47343000  0.10813000  0.12566000  1.0
  Cl  Cl40  1  0.41945000  0.10856000  0.62559000  1.0
  Cl  Cl41  1  0.52656000  0.89186000  0.87434000  1.0
