# generated using pymatgen
data_ZnH8C8(N3O)2
_symmetry_space_group_name_H-M   'P 1'
_cell_length_a   9.35888000
_cell_length_b   9.91149000
_cell_length_c   12.67260000
_cell_angle_alpha   76.23890000
_cell_angle_beta   68.36500000
_cell_angle_gamma   86.10210000
_symmetry_Int_Tables_number   1
_chemical_formula_structural   ZnH8C8(N3O)2
_chemical_formula_sum   'Zn4 H32 C32 N24 O8'
_cell_volume   1061.08439823
_cell_formula_units_Z   4
loop_
 _symmetry_equiv_pos_site_id
 _symmetry_equiv_pos_as_xyz
  1  'x, y, z'
loop_
 _atom_site_type_symbol
 _atom_site_label
 _atom_site_symmetry_multiplicity
 _atom_site_fract_x
 _atom_site_fract_y
 _atom_site_fract_z
 _atom_site_occupancy
  Zn  Zn0  1  0.46419000  0.91467000  0.90181000  1.0
  Zn  Zn1  1  0.53581000  0.08534000  0.09820000  1.0
  Zn  Zn2  1  0.88362000  0.56230000  0.12410000  1.0
  Zn  Zn3  1  0.11638000  0.43770000  0.87590000  1.0
  H  H4  1  0.92083000  0.27554000  0.78690000  1.0
  H  H5  1  0.07918000  0.72446000  0.21309000  1.0
  H  H6  1  0.75987000  0.16491000  0.85755000  1.0
  H  H7  1  0.24013000  0.83508000  0.14245000  1.0
  H  H8  1  0.77255000  0.00609000  0.30503000  1.0
  H  H9  1  0.22744000  0.99391000  0.69497000  1.0
  H  H10  1  0.57406000  0.62044000  0.92070000  1.0
  H  H11  1  0.42594000  0.37956000  0.07930000  1.0
  H  H12  1  0.73160000  0.54151000  0.94488000  1.0
  H  H13  1  0.26840000  0.45849000  0.05512000  1.0
  H  H14  1  0.61824000  0.93638000  0.51760000  1.0
  H  H15  1  0.38176000  0.06362000  0.48240000  1.0
  H  H16  1  0.00252000  0.16638000  0.23641000  1.0
  H  H17  1  0.99747000  0.83362000  0.76359000  1.0
  H  H18  1  0.65425000  0.34731000  0.29561000  1.0
  H  H19  1  0.34576000  0.65270000  0.70439000  1.0
  H  H20  1  0.54610000  0.21465000  0.28432000  1.0
  H  H21  1  0.45391000  0.78536000  0.71567000  1.0
  H  H22  1  0.92450000  0.18933000  0.57600000  1.0
  H  H23  1  0.07550000  0.81067000  0.42400000  1.0
  H  H24  1  0.57330000  0.39143000  0.81839000  1.0
  H  H25  1  0.42670000  0.60858000  0.18161000  1.0
  H  H26  1  0.59677000  0.36575000  0.49160000  1.0
  H  H27  1  0.40323000  0.63424000  0.50841000  1.0
  H  H28  1  0.77968000  0.57929000  0.73204000  1.0
  H  H29  1  0.22032000  0.42071000  0.26796000  1.0
  H  H30  1  0.88786000  0.66607000  0.51701000  1.0
  H  H31  1  0.11213000  0.33393000  0.48299000  1.0
  H  H32  1  0.82839000  0.99963000  0.13221000  1.0
  H  H33  1  0.17161000  0.00037000  0.86779000  1.0
  H  H34  1  0.86684000  0.83184000  0.19387000  1.0
  H  H35  1  0.13316000  0.16816000  0.80613000  1.0
  C  C36  1  0.66709000  0.71773000  0.00491000  1.0
  C  C37  1  0.33290000  0.28227000  0.99509000  1.0
  C  C38  1  0.76055000  0.05852000  0.56271000  1.0
  C  C39  1  0.23945000  0.94148000  0.43730000  1.0
  C  C40  1  0.80461000  0.04524000  0.36660000  1.0
  C  C41  1  0.19538000  0.95476000  0.63340000  1.0
  C  C42  1  0.80697000  0.28403000  0.95602000  1.0
  C  C43  1  0.19304000  0.71596000  0.04397000  1.0
  C  C44  1  0.67500000  0.02117000  0.69139000  1.0
  C  C45  1  0.32501000  0.97882000  0.30861000  1.0
  C  C46  1  0.71764000  0.00644000  0.48522000  1.0
  C  C47  1  0.28236000  0.99357000  0.51478000  1.0
  C  C48  1  0.71655000  0.30803000  0.13486000  1.0
  C  C49  1  0.28346000  0.69197000  0.86514000  1.0
  C  C50  1  0.75461000  0.84976000  0.08072000  1.0
  C  C51  1  0.24539000  0.15024000  0.91929000  1.0
  C  C52  1  0.93155000  0.13472000  0.32912000  1.0
  C  C53  1  0.06844000  0.86529000  0.67088000  1.0
  C  C54  1  0.88946000  0.14826000  0.51623000  1.0
  C  C55  1  0.11054000  0.85174000  0.48377000  1.0
  C  C56  1  0.75081000  0.52204000  0.48705000  1.0
  C  C57  1  0.24918000  0.47796000  0.51295000  1.0
  C  C58  1  0.81473000  0.57291000  0.35768000  1.0
  C  C59  1  0.18527000  0.42709000  0.64232000  1.0
  C  C60  1  0.62591000  0.42979000  0.72411000  1.0
  C  C61  1  0.37409000  0.57021000  0.27589000  1.0
  C  C62  1  0.63846000  0.41558000  0.54321000  1.0
  C  C63  1  0.36153000  0.58441000  0.45679000  1.0
  C  C64  1  0.73971000  0.53444000  0.67689000  1.0
  C  C65  1  0.26030000  0.46556000  0.32311000  1.0
  C  C66  1  0.80144000  0.58276000  0.55660000  1.0
  C  C67  1  0.19856000  0.41723000  0.44340000  1.0
  N  N68  1  0.89403000  0.38433000  0.96062000  1.0
  N  N69  1  0.10598000  0.61567000  0.03937000  1.0
  N  N70  1  0.64957000  0.92272000  0.04440000  1.0
  N  N71  1  0.35043000  0.07728000  0.95560000  1.0
  N  N72  1  0.59449000  0.83764000  0.99368000  1.0
  N  N73  1  0.40550000  0.16237000  0.00632000  1.0
  N  N74  1  0.83770000  0.39533000  0.07861000  1.0
  N  N75  1  0.16230000  0.60467000  0.92138000  1.0
  N  N76  1  0.69491000  0.23448000  0.06274000  1.0
  N  N77  1  0.30509000  0.76552000  0.93725000  1.0
  N  N78  1  0.82487000  0.24196000  0.85959000  1.0
  N  N79  1  0.17513000  0.75804000  0.14040000  1.0
  N  N80  1  0.76779000  0.71960000  0.05975000  1.0
  N  N81  1  0.23221000  0.28040000  0.94026000  1.0
  N  N82  1  0.64070000  0.60493000  0.96993000  1.0
  N  N83  1  0.35930000  0.39507000  0.03008000  1.0
  N  N84  1  0.62119000  0.29768000  0.24620000  1.0
  N  N85  1  0.37882000  0.70232000  0.75379000  1.0
  N  N86  1  0.97417000  0.18655000  0.40222000  1.0
  N  N87  1  0.02583000  0.81345000  0.59778000  1.0
  N  N88  1  0.57448000  0.37083000  0.65931000  1.0
  N  N89  1  0.42552000  0.62918000  0.34069000  1.0
  N  N90  1  0.84476000  0.89911000  0.12651000  1.0
  N  N91  1  0.15524000  0.10089000  0.87350000  1.0
  O  O92  1  0.55194000  0.94223000  0.72829000  1.0
  O  O93  1  0.44806000  0.05777000  0.27171000  1.0
  O  O94  1  0.72089000  0.06392000  0.75877000  1.0
  O  O95  1  0.27913000  0.93607000  0.24123000  1.0
  O  O96  1  0.79297000  0.49472000  0.29622000  1.0
  O  O97  1  0.20704000  0.50527000  0.70378000  1.0
  O  O98  1  0.88663000  0.68814000  0.31417000  1.0
  O  O99  1  0.11337000  0.31185000  0.68583000  1.0
