# generated using pymatgen
data_Al4H32C59N2O25
_symmetry_space_group_name_H-M   'P 1'
_cell_length_a   6.67551000
_cell_length_b   22.53980000
_cell_length_c   25.13740000
_cell_angle_alpha   107.82500000
_cell_angle_beta   90.62000000
_cell_angle_gamma   90.03250000
_symmetry_Int_Tables_number   1
_chemical_formula_structural   Al4H32C59N2O25
_chemical_formula_sum   'Al4 H32 C59 N2 O25'
_cell_volume   3600.48426051
_cell_formula_units_Z   1
loop_
 _symmetry_equiv_pos_site_id
 _symmetry_equiv_pos_as_xyz
  1  'x, y, z'
loop_
 _atom_site_type_symbol
 _atom_site_label
 _atom_site_symmetry_multiplicity
 _atom_site_fract_x
 _atom_site_fract_y
 _atom_site_fract_z
 _atom_site_occupancy
  Al  Al0  1  0.14819000  0.49934000  0.49956000  1.0
  Al  Al1  1  0.65010000  0.49890000  0.50009000  1.0
  Al  Al2  1  0.67058000  0.99903000  0.00110000  1.0
  Al  Al3  1  0.16878000  0.99948000  0.00104000  1.0
  H  H4  1  0.61009000  0.91389000  0.11818000  1.0
  H  H5  1  0.58566000  0.85353000  0.18425000  1.0
  H  H6  1  0.21773000  0.81283000  0.16320000  1.0
  H  H7  1  0.18990000  0.81534000  0.25163000  1.0
  H  H8  1  0.18553000  0.74879000  0.31270000  1.0
  H  H9  1  0.58899000  0.68650000  0.25396000  1.0
  H  H10  1  0.59290000  0.75362000  0.19310000  1.0
  H  H11  1  0.57139000  0.68072000  0.34204000  1.0
  H  H12  1  0.57796000  0.61395000  0.40469000  1.0
  H  H13  1  0.21083000  0.58744000  0.38004000  1.0
  H  H14  1  0.20543000  0.65148000  0.31515000  1.0
  H  H15  1  0.13904000  0.12362000  0.79048000  1.0
  H  H16  1  0.69324000  0.20958000  0.86656000  1.0
  H  H17  1  0.69296000  0.14155000  0.92768000  1.0
  H  H18  1  0.73222000  0.21099000  0.77572000  1.0
  H  H19  1  0.72564000  0.27683000  0.71333000  1.0
  H  H20  1  0.08397000  0.29071000  0.72781000  1.0
  H  H21  1  0.09043000  0.22492000  0.79007000  1.0
  H  H22  1  0.12293000  0.28612000  0.63558000  1.0
  H  H23  1  0.67114000  0.43621000  0.63956000  1.0
  H  H24  1  0.67646000  0.37643000  0.70758000  1.0
  H  H25  1  0.45743000  0.86250000  0.02963000  1.0
  H  H26  1  0.20198000  0.84192000  0.01332000  1.0
  H  H27  1  0.49681000  0.77129000  0.06634000  1.0
  H  H28  1  0.24383000  0.74964000  0.04857000  1.0
  H  H29  1  0.31856000  0.73500000  0.94648000  1.0
  H  H30  1  0.47335000  0.68666000  0.97356000  1.0
  H  H31  1  0.57184000  0.75617000  0.96468000  1.0
  H  H32  1  0.40028000  0.57990000  0.52855000  1.0
  H  H33  1  0.90129000  0.41706000  0.48861000  1.0
  H  H34  1  0.41682000  0.92295000  0.96173000  1.0
  H  H35  1  0.92055000  0.08090000  0.02796000  1.0
  C  C36  1  0.39998000  0.41256000  0.41540000  1.0
  C  C37  1  0.39440000  0.43628000  0.56229000  1.0
  C  C38  1  0.89845000  0.58630000  0.58541000  1.0
  C  C39  1  0.90040000  0.56005000  0.43620000  1.0
  C  C40  1  0.74307000  0.89121000  0.12803000  1.0
  C  C41  1  0.72951000  0.85689000  0.16527000  1.0
  C  C42  1  0.90011000  0.82787000  0.17918000  1.0
  C  C43  1  0.08220000  0.83550000  0.15478000  1.0
  C  C44  1  0.09753000  0.86988000  0.11729000  1.0
  C  C45  1  0.92481000  0.89836000  0.10280000  1.0
  C  C46  1  0.05853000  0.78638000  0.25122000  1.0
  C  C47  1  0.05628000  0.74858000  0.28570000  1.0
  C  C48  1  0.88771000  0.71187000  0.28781000  1.0
  C  C49  1  0.72049000  0.71544000  0.25436000  1.0
  C  C50  1  0.72257000  0.75345000  0.21989000  1.0
  C  C51  1  0.89230000  0.78943000  0.21725000  1.0
  C  C52  1  0.71156000  0.65939000  0.34927000  1.0
  C  C53  1  0.71432000  0.62263000  0.38473000  1.0
  C  C54  1  0.89494000  0.59713000  0.39643000  1.0
  C  C55  1  0.07172000  0.60812000  0.37121000  1.0
  C  C56  1  0.06783000  0.64445000  0.33546000  1.0
  C  C57  1  0.88834000  0.67146000  0.32421000  1.0
  C  C58  1  0.91420000  0.86415000  0.86226000  1.0
  C  C59  1  0.91399000  0.82065000  0.81869000  1.0
  C  C60  1  0.91304000  0.77293000  0.77117000  1.0
  C  C61  1  0.91095000  0.72873000  0.72764000  1.0
  C  C62  1  0.90794000  0.68079000  0.68025000  1.0
  C  C63  1  0.90387000  0.63703000  0.63683000  1.0
  C  C64  1  0.39759000  0.36158000  0.36413000  1.0
  C  C65  1  0.40226000  0.31788000  0.32075000  1.0
  C  C66  1  0.40856000  0.27013000  0.27329000  1.0
  C  C67  1  0.41534000  0.22612000  0.22971000  1.0
  C  C68  1  0.42107000  0.17837000  0.18226000  1.0
  C  C69  1  0.42557000  0.13477000  0.13877000  1.0
  C  C70  1  0.26428000  0.09178000  0.85550000  1.0
  C  C71  1  0.25995000  0.12970000  0.82115000  1.0
  C  C72  1  0.41485000  0.17288000  0.82433000  1.0
  C  C73  1  0.57167000  0.17619000  0.86288000  1.0
  C  C74  1  0.57207000  0.13847000  0.89751000  1.0
  C  C75  1  0.41741000  0.09575000  0.89506000  1.0
  C  C76  1  0.58979000  0.22944000  0.76619000  1.0
  C  C77  1  0.58613000  0.26658000  0.73103000  1.0
  C  C78  1  0.40435000  0.28879000  0.71586000  1.0
  C  C79  1  0.22656000  0.27266000  0.73763000  1.0
  C  C80  1  0.23015000  0.23551000  0.77272000  1.0
  C  C81  1  0.41176000  0.21293000  0.78761000  1.0
  C  C82  1  0.24274000  0.31980000  0.63841000  1.0
  C  C83  1  0.24297000  0.35377000  0.60069000  1.0
  C  C84  1  0.39587000  0.39625000  0.60010000  1.0
  C  C85  1  0.55146000  0.40324000  0.63931000  1.0
  C  C86  1  0.55397000  0.36933000  0.67720000  1.0
  C  C87  1  0.40030000  0.32670000  0.67727000  1.0
  C  C88  1  0.41566000  0.06086000  0.93705000  1.0
  C  C89  1  0.42533000  0.08428000  0.08729000  1.0
  C  C90  1  0.92521000  0.93591000  0.06325000  1.0
  C  C91  1  0.91447000  0.91433000  0.91395000  1.0
  C  C92  1  0.32809000  0.83901000  0.04102000  1.0
  C  C93  1  0.37569000  0.77164000  0.03636000  1.0
  C  C94  1  0.43809000  0.73527000  0.97704000  1.0
  N  N95  1  0.10638000  0.04341000  0.84488000  1.0
  N  N96  1  0.07984000  0.33956000  0.55851000  1.0
  O  O97  1  0.56362000  0.44656000  0.54413000  1.0
  O  O98  1  0.23205000  0.42958000  0.43834000  1.0
  O  O99  1  0.07136000  0.54158000  0.44770000  1.0
  O  O100  1  0.22551000  0.45728000  0.55305000  1.0
  O  O101  1  0.06568000  0.57012000  0.56153000  1.0
  O  O102  1  0.57151000  0.43533000  0.43288000  1.0
  O  O103  1  0.39984000  0.53647000  0.50600000  1.0
  O  O104  1  0.72662000  0.56300000  0.56869000  1.0
  O  O105  1  0.73438000  0.55052000  0.45699000  1.0
  O  O106  1  0.89924000  0.46191000  0.49590000  1.0
  O  O107  1  0.25464000  0.06621000  0.06522000  1.0
  O  O108  1  0.58540000  0.05070000  0.95581000  1.0
  O  O109  1  0.74433000  0.93529000  0.93314000  1.0
  O  O110  1  0.59520000  0.06282000  0.06822000  1.0
  O  O111  1  0.75435000  0.94772000  0.04522000  1.0
  O  O112  1  0.24473000  0.04743000  0.95217000  1.0
  O  O113  1  0.41917000  0.96159000  0.99244000  1.0
  O  O114  1  0.09312000  0.95321000  0.04936000  1.0
  O  O115  1  0.08495000  0.93232000  0.93624000  1.0
  O  O116  1  0.91945000  0.03709000  0.00663000  1.0
  O  O117  1  0.16038000  0.98892000  0.83633000  1.0
  O  O118  1  0.93129000  0.06096000  0.84272000  1.0
  O  O119  1  0.90927000  0.33367000  0.57541000  1.0
  O  O120  1  0.12359000  0.33275000  0.50928000  1.0
  O  O121  1  0.28545000  0.87532000  0.09791000  1.0
