# generated using pymatgen
data_Zr3H25C44O21F
_symmetry_space_group_name_H-M   'P 1'
_cell_length_a   19.00987287
_cell_length_b   19.13391072
_cell_length_c   19.13450000
_cell_angle_alpha   90.33096425
_cell_angle_beta   119.76116123
_cell_angle_gamma   119.75935733
_symmetry_Int_Tables_number   1
_chemical_formula_structural   Zr3H25C44O21F
_chemical_formula_sum   'Zr6 H50 C88 O42 F2'
_cell_volume   4942.72073561
_cell_formula_units_Z   2
loop_
 _symmetry_equiv_pos_site_id
 _symmetry_equiv_pos_as_xyz
  1  'x, y, z'
loop_
 _atom_site_type_symbol
 _atom_site_label
 _atom_site_symmetry_multiplicity
 _atom_site_fract_x
 _atom_site_fract_y
 _atom_site_fract_z
 _atom_site_occupancy
  Zr  Zr0  1  0.49992000  0.90765000  0.90770000  1.0
  Zr  Zr1  1  0.50061000  0.09227000  0.09237000  1.0
  Zr  Zr2  1  0.68615000  0.09201000  0.09192000  1.0
  Zr  Zr3  1  0.31436000  0.90805000  0.90794000  1.0
  Zr  Zr4  1  0.50021000  0.90827000  0.09173000  1.0
  Zr  Zr5  1  0.50020000  0.09174000  0.90824000  1.0
  H  H6  1  0.64582000  0.92664000  0.07200000  1.0
  H  H7  1  0.35465000  0.92796000  0.07333000  1.0
  H  H8  1  0.64606000  0.21778000  0.07284000  1.0
  H  H9  1  0.35442000  0.92719000  0.78216000  1.0
  H  H10  1  0.50044000  0.45075000  0.11345000  1.0
  H  H11  1  0.50063000  0.54950000  0.88705000  1.0
  H  H12  1  0.49768000  0.67797000  0.11045000  1.0
  H  H13  1  0.50027000  0.55115000  0.11363000  1.0
  H  H14  1  0.49791000  0.31968000  0.88727000  1.0
  H  H15  1  0.50052000  0.44905000  0.88674000  1.0
  H  H16  1  0.49933000  0.11287000  0.45026000  1.0
  H  H17  1  0.49952000  0.88647000  0.54897000  1.0
  H  H18  1  0.50223000  0.11267000  0.68027000  1.0
  H  H19  1  0.49938000  0.11317000  0.55076000  1.0
  H  H20  1  0.50241000  0.88946000  0.32198000  1.0
  H  H21  1  0.49965000  0.88626000  0.44870000  1.0
  H  H22  1  0.83644000  0.44980000  0.88717000  1.0
  H  H23  1  0.16372000  0.55093000  0.11336000  1.0
  H  H24  1  0.06657000  0.67685000  0.88706000  1.0
  H  H25  1  0.93643000  0.55005000  0.88646000  1.0
  H  H26  1  0.93374000  0.32105000  0.11062000  1.0
  H  H27  1  0.06381000  0.45072000  0.11402000  1.0
  H  H28  1  0.83645000  0.88671000  0.44927000  1.0
  H  H29  1  0.16370000  0.11295000  0.55039000  1.0
  H  H30  1  0.06658000  0.88941000  0.67910000  1.0
  H  H31  1  0.93644000  0.88604000  0.54952000  1.0
  H  H32  1  0.93376000  0.11295000  0.32330000  1.0
  H  H33  1  0.06386000  0.11360000  0.45021000  1.0
  H  H34  1  0.29131000  0.11424000  0.11193000  1.0
  H  H35  1  0.24257000  0.17892000  0.17918000  1.0
  H  H36  1  0.06855000  0.88997000  0.88753000  1.0
  H  H37  1  0.70944000  0.88801000  0.88572000  1.0
  H  H38  1  0.75825000  0.82086000  0.82103000  1.0
  H  H39  1  0.93224000  0.11240000  0.11008000  1.0
  H  H40  1  0.06411000  0.45027000  0.44980000  1.0
  H  H41  1  0.93617000  0.55027000  0.54980000  1.0
  H  H42  1  0.29074000  0.67724000  0.67950000  1.0
  H  H43  1  0.16483000  0.55067000  0.55031000  1.0
  H  H44  1  0.70947000  0.32045000  0.32269000  1.0
  H  H45  1  0.83533000  0.44964000  0.44926000  1.0
  H  H46  1  0.49651000  0.26702000  0.11555000  1.0
  H  H47  1  0.49659000  0.72923000  0.88083000  1.0
  H  H48  1  0.50355000  0.11906000  0.27061000  1.0
  H  H49  1  0.50371000  0.88438000  0.73280000  1.0
  H  H50  1  0.65055000  0.26596000  0.88078000  1.0
  H  H51  1  0.34971000  0.73068000  0.11577000  1.0
  H  H52  1  0.65055000  0.88432000  0.26940000  1.0
  H  H53  1  0.34968000  0.11929000  0.73410000  1.0
  H  H54  1  0.88723000  0.26694000  0.27029000  1.0
  H  H55  1  0.11318000  0.72979000  0.73315000  1.0
  C  C56  1  0.49608000  0.76177000  0.99898000  1.0
  C  C57  1  0.50416000  0.00094000  0.23817000  1.0
  C  C58  1  0.49598000  0.23403000  0.99695000  1.0
  C  C59  1  0.50441000  0.00308000  0.76593000  1.0
  C  C60  1  0.73506000  0.00059000  0.99645000  1.0
  C  C61  1  0.26472000  0.76183000  0.76569000  1.0
  C  C62  1  0.26561000  0.00361000  0.99934000  1.0
  C  C63  1  0.73569000  0.23431000  0.23817000  1.0
  C  C64  1  0.73768000  0.00296000  0.23782000  1.0
  C  C65  1  0.73775000  0.23379000  0.99881000  1.0
  C  C66  1  0.26261000  0.00118000  0.76620000  1.0
  C  C67  1  0.26269000  0.76221000  0.99705000  1.0
  C  C68  1  0.49730000  0.31129000  0.99888000  1.0
  C  C69  1  0.49745000  0.68585000  0.99842000  1.0
  C  C70  1  0.49830000  0.35014000  0.06321000  1.0
  C  C71  1  0.49991000  0.42408000  0.06270000  1.0
  C  C72  1  0.49867000  0.64808000  0.93520000  1.0
  C  C73  1  0.50012000  0.57567000  0.93728000  1.0
  C  C74  1  0.49835000  0.64874000  0.06196000  1.0
  C  C75  1  0.49982000  0.57732000  0.06327000  1.0
  C  C76  1  0.49841000  0.34944000  0.93637000  1.0
  C  C77  1  0.49992000  0.42234000  0.93657000  1.0
  C  C78  1  0.50036000  0.46129000  0.00011000  1.0
  C  C79  1  0.50039000  0.53885000  0.00024000  1.0
  C  C80  1  0.50269000  0.00151000  0.31403000  1.0
  C  C81  1  0.50291000  0.00109000  0.68859000  1.0
  C  C82  1  0.50138000  0.06470000  0.35173000  1.0
  C  C83  1  0.49985000  0.06263000  0.42411000  1.0
  C  C84  1  0.50181000  0.93673000  0.64966000  1.0
  C  C85  1  0.50013000  0.93725000  0.57571000  1.0
  C  C86  1  0.50172000  0.06359000  0.65046000  1.0
  C  C87  1  0.50006000  0.06336000  0.57748000  1.0
  C  C88  1  0.50170000  0.93796000  0.35114000  1.0
  C  C89  1  0.50016000  0.93664000  0.42253000  1.0
  C  C90  1  0.49958000  0.99969000  0.46097000  1.0
  C  C91  1  0.49962000  0.99983000  0.53851000  1.0
  C  C92  1  0.81284000  0.31141000  0.99841000  1.0
  C  C93  1  0.18749000  0.68607000  0.99888000  1.0
  C  C94  1  0.78660000  0.34969000  0.93522000  1.0
  C  C95  1  0.86103000  0.42363000  0.93733000  1.0
  C  C96  1  0.21362000  0.64894000  0.06324000  1.0
  C  C97  1  0.13914000  0.57656000  0.06264000  1.0
  C  C98  1  0.08620000  0.64818000  0.93626000  1.0
  C  C99  1  0.01346000  0.57678000  0.93640000  1.0
  C  C100  1  0.91412000  0.35038000  0.06208000  1.0
  C  C101  1  0.98679000  0.42335000  0.06347000  1.0
  C  C102  1  0.96145000  0.46153000  0.00029000  1.0
  C  C103  1  0.03872000  0.53905000  0.00004000  1.0
  C  C104  1  0.81281000  0.00115000  0.31404000  1.0
  C  C105  1  0.18745000  0.00166000  0.68871000  1.0
  C  C106  1  0.78663000  0.93684000  0.35121000  1.0
  C  C107  1  0.86106000  0.93743000  0.42365000  1.0
  C  C108  1  0.21361000  0.06488000  0.65045000  1.0
  C  C109  1  0.13915000  0.06277000  0.57656000  1.0
  C  C110  1  0.08619000  0.93800000  0.64981000  1.0
  C  C111  1  0.01347000  0.93660000  0.57689000  1.0
  C  C112  1  0.91412000  0.06379000  0.35200000  1.0
  C  C113  1  0.98682000  0.06366000  0.42345000  1.0
  C  C114  1  0.96149000  0.00002000  0.46117000  1.0
  C  C115  1  0.03875000  0.99978000  0.53869000  1.0
  C  C116  1  0.21311000  0.06522000  0.06335000  1.0
  C  C117  1  0.14020000  0.06539000  0.06486000  1.0
  C  C118  1  0.16514000  0.12908000  0.12916000  1.0
  C  C119  1  0.08714000  0.93817000  0.93624000  1.0
  C  C120  1  0.01251000  0.93644000  0.93590000  1.0
  C  C121  1  0.90910000  0.87282000  0.87286000  1.0
  C  C122  1  0.78763000  0.93662000  0.93480000  1.0
  C  C123  1  0.86057000  0.93516000  0.93462000  1.0
  C  C124  1  0.83565000  0.87087000  0.87092000  1.0
  C  C125  1  0.91361000  0.06370000  0.06184000  1.0
  C  C126  1  0.98825000  0.06409000  0.06353000  1.0
  C  C127  1  0.09166000  0.12712000  0.12719000  1.0
  C  C128  1  0.18680000  0.00255000  0.99961000  1.0
  C  C129  1  0.03802000  0.00040000  0.00016000  1.0
  C  C130  1  0.81391000  0.00031000  0.99751000  1.0
  C  C131  1  0.96275000  0.99985000  0.99958000  1.0
  C  C132  1  0.81338000  0.31150000  0.31411000  1.0
  C  C133  1  0.18693000  0.68587000  0.68853000  1.0
  C  C134  1  0.91563000  0.35012000  0.35166000  1.0
  C  C135  1  0.98723000  0.42392000  0.42398000  1.0
  C  C136  1  0.08469000  0.64838000  0.64996000  1.0
  C  C137  1  0.01304000  0.57605000  0.57614000  1.0
  C  C138  1  0.21240000  0.64836000  0.65005000  1.0
  C  C139  1  0.14098000  0.57702000  0.57724000  1.0
  C  C140  1  0.78781000  0.34991000  0.35158000  1.0
  C  C141  1  0.85922000  0.42274000  0.42294000  1.0
  C  C142  1  0.96131000  0.46141000  0.46111000  1.0
  C  C143  1  0.03890000  0.53888000  0.53861000  1.0
  O  O144  1  0.49593000  0.79344000  0.93886000  1.0
  O  O145  1  0.50440000  0.06108000  0.20650000  1.0
  O  O146  1  0.49593000  0.20224000  0.05695000  1.0
  O  O147  1  0.50454000  0.94311000  0.79775000  1.0
  O  O148  1  0.76319000  0.05986000  0.05566000  1.0
  O  O149  1  0.23629000  0.79387000  0.79770000  1.0
  O  O150  1  0.23744000  0.94442000  0.94004000  1.0
  O  O151  1  0.76418000  0.20232000  0.20618000  1.0
  O  O152  1  0.64533000  0.94288000  0.20545000  1.0
  O  O153  1  0.64536000  0.20139000  0.93875000  1.0
  O  O154  1  0.35499000  0.06124000  0.79855000  1.0
  O  O155  1  0.35503000  0.79455000  0.05716000  1.0
  O  O156  1  0.76480000  0.20197000  0.05718000  1.0
  O  O157  1  0.23561000  0.94272000  0.79795000  1.0
  O  O158  1  0.23575000  0.79416000  0.93876000  1.0
  O  O159  1  0.76466000  0.06119000  0.20582000  1.0
  O  O160  1  0.64468000  0.94107000  0.93736000  1.0
  O  O161  1  0.64469000  0.20246000  0.20603000  1.0
  O  O162  1  0.35596000  0.06265000  0.05890000  1.0
  O  O163  1  0.35570000  0.79394000  0.79748000  1.0
  O  O164  1  0.50421000  0.06161000  0.79812000  1.0
  O  O165  1  0.49645000  0.79423000  0.05779000  1.0
  O  O166  1  0.50380000  0.94211000  0.20575000  1.0
  O  O167  1  0.49628000  0.20191000  0.93846000  1.0
  O  O168  1  0.39574000  0.94789000  0.84411000  1.0
  O  O169  1  0.60475000  0.15583000  0.05211000  1.0
  O  O170  1  0.39594000  0.94842000  0.05234000  1.0
  O  O171  1  0.60455000  0.94765000  0.05157000  1.0
  O  O172  1  0.57741000  0.03843000  0.11468000  1.0
  O  O173  1  0.42313000  0.88535000  0.96157000  1.0
  O  O174  1  0.42338000  0.03824000  0.96208000  1.0
  O  O175  1  0.57708000  0.03790000  0.96176000  1.0
  O  O176  1  0.49767000  0.31889000  0.12614000  1.0
  O  O177  1  0.49843000  0.67885000  0.87181000  1.0
  O  O178  1  0.50159000  0.12807000  0.32091000  1.0
  O  O179  1  0.50240000  0.87375000  0.68085000  1.0
  O  O180  1  0.69184000  0.31798000  0.87180000  1.0
  O  O181  1  0.30838000  0.68023000  0.12631000  1.0
  O  O182  1  0.69185000  0.87381000  0.31991000  1.0
  O  O183  1  0.30837000  0.12834000  0.68215000  1.0
  O  O184  1  0.94827000  0.31883000  0.32074000  1.0
  O  O185  1  0.05211000  0.67934000  0.68128000  1.0
  F  F186  1  0.11567000  0.18796000  0.18834000  1.0
  F  F187  1  0.88504000  0.81168000  0.81196000  1.0
