# generated using pymatgen
data_AgH13C14(NO)2
_symmetry_space_group_name_H-M   'P 1'
_cell_length_a   6.70756000
_cell_length_b   22.81620000
_cell_length_c   23.28742616
_cell_angle_alpha   89.99782935
_cell_angle_beta   88.34228757
_cell_angle_gamma   89.99820000
_symmetry_Int_Tables_number   1
_chemical_formula_structural   AgH13C14(NO)2
_chemical_formula_sum   'Ag8 H104 C112 N16 O16'
_cell_volume   3562.44012681
_cell_formula_units_Z   8
loop_
 _symmetry_equiv_pos_site_id
 _symmetry_equiv_pos_as_xyz
  1  'x, y, z'
loop_
 _atom_site_type_symbol
 _atom_site_label
 _atom_site_symmetry_multiplicity
 _atom_site_fract_x
 _atom_site_fract_y
 _atom_site_fract_z
 _atom_site_occupancy
  Ag  Ag0  1  0.18667000  0.46497000  0.75885000  1.0
  Ag  Ag1  1  0.31337000  0.96496000  0.74115000  1.0
  Ag  Ag2  1  0.81337000  0.53504000  0.24116000  1.0
  Ag  Ag3  1  0.68661000  0.03504000  0.25884000  1.0
  Ag  Ag4  1  0.79608000  0.52322000  0.74878000  1.0
  Ag  Ag5  1  0.70392000  0.02322000  0.75122000  1.0
  Ag  Ag6  1  0.20392000  0.47677000  0.25124000  1.0
  Ag  Ag7  1  0.29605000  0.97677000  0.24876000  1.0
  H  H8  1  0.16717000  0.36656000  0.66642000  1.0
  H  H9  1  0.33293000  0.86655000  0.83357000  1.0
  H  H10  1  0.83288000  0.63345000  0.33357000  1.0
  H  H11  1  0.66706000  0.13346000  0.16643000  1.0
  H  H12  1  0.15285000  0.25730000  0.65884000  1.0
  H  H13  1  0.34725000  0.75729000  0.84115000  1.0
  H  H14  1  0.84718000  0.74270000  0.34115000  1.0
  H  H15  1  0.65275000  0.24272000  0.15885000  1.0
  H  H16  1  0.22167000  0.25077000  0.84285000  1.0
  H  H17  1  0.27827000  0.75077000  0.65716000  1.0
  H  H18  1  0.77833000  0.74924000  0.15714000  1.0
  H  H19  1  0.72172000  0.24923000  0.34285000  1.0
  H  H20  1  0.23926000  0.36035000  0.84135000  1.0
  H  H21  1  0.26075000  0.86035000  0.65864000  1.0
  H  H22  1  0.76079000  0.63965000  0.15863000  1.0
  H  H23  1  0.73926000  0.13964000  0.34136000  1.0
  H  H24  1  0.24874000  0.06361000  0.65661000  1.0
  H  H25  1  0.25125000  0.56361000  0.84340000  1.0
  H  H26  1  0.75122000  0.93638000  0.34338000  1.0
  H  H27  1  0.74874000  0.43640000  0.15662000  1.0
  H  H28  1  0.25058000  0.17202000  0.65656000  1.0
  H  H29  1  0.24944000  0.67203000  0.84345000  1.0
  H  H30  1  0.74943000  0.82797000  0.34343000  1.0
  H  H31  1  0.75053000  0.32799000  0.15657000  1.0
  H  H32  1  0.11674000  0.16479000  0.83944000  1.0
  H  H33  1  0.38323000  0.66479000  0.66057000  1.0
  H  H34  1  0.88321000  0.83522000  0.16055000  1.0
  H  H35  1  0.61678000  0.33522000  0.33945000  1.0
  H  H36  1  0.12742000  0.05644000  0.83157000  1.0
  H  H37  1  0.37252000  0.55644000  0.66845000  1.0
  H  H38  1  0.87248000  0.94357000  0.16842000  1.0
  H  H39  1  0.62752000  0.44357000  0.33158000  1.0
  H  H40  1  0.80647000  0.46135000  0.94683000  1.0
  H  H41  1  0.69347000  0.96135000  0.55319000  1.0
  H  H42  1  0.19354000  0.53865000  0.05318000  1.0
  H  H43  1  0.30646000  0.03865000  0.44681000  1.0
  H  H44  1  0.94367000  0.39803000  0.96479000  1.0
  H  H45  1  0.55628000  0.89803000  0.53522000  1.0
  H  H46  1  0.05631000  0.60197000  0.03521000  1.0
  H  H47  1  0.44364000  0.10197000  0.46478000  1.0
  H  H48  1  0.25068000  0.45799000  0.97442000  1.0
  H  H49  1  0.24929000  0.95799000  0.52558000  1.0
  H  H50  1  0.74932000  0.54201000  0.02560000  1.0
  H  H51  1  0.75065000  0.04201000  0.47441000  1.0
  H  H52  1  0.25423000  0.56324000  0.95005000  1.0
  H  H53  1  0.24567000  0.06325000  0.54993000  1.0
  H  H54  1  0.74576000  0.43675000  0.04995000  1.0
  H  H55  1  0.75425000  0.93676000  0.45007000  1.0
  H  H56  1  0.99418000  0.56133000  0.93751000  1.0
  H  H57  1  0.50573000  0.06134000  0.56249000  1.0
  H  H58  1  0.00581000  0.43866000  0.06249000  1.0
  H  H59  1  0.49420000  0.93867000  0.43751000  1.0
  H  H60  1  0.66954000  0.42984000  0.66479000  1.0
  H  H61  1  0.83047000  0.92981000  0.83519000  1.0
  H  H62  1  0.33039000  0.57017000  0.33521000  1.0
  H  H63  1  0.16957000  0.07020000  0.16480000  1.0
  H  H64  1  0.64805000  0.32182000  0.65854000  1.0
  H  H65  1  0.85203000  0.82179000  0.84144000  1.0
  H  H66  1  0.35194000  0.67819000  0.34145000  1.0
  H  H67  1  0.14800000  0.17822000  0.15857000  1.0
  H  H68  1  0.72325000  0.31676000  0.84253000  1.0
  H  H69  1  0.77692000  0.81676000  0.65744000  1.0
  H  H70  1  0.27688000  0.68323000  0.15745000  1.0
  H  H71  1  0.22312000  0.18321000  0.34257000  1.0
  H  H72  1  0.73070000  0.42502000  0.84118000  1.0
  H  H73  1  0.76940000  0.92503000  0.65880000  1.0
  H  H74  1  0.26938000  0.57496000  0.15881000  1.0
  H  H75  1  0.23062000  0.07495000  0.34119000  1.0
  H  H76  1  0.74329000  0.12633000  0.65796000  1.0
  H  H77  1  0.75679000  0.62632000  0.84202000  1.0
  H  H78  1  0.25676000  0.87368000  0.34201000  1.0
  H  H79  1  0.24321000  0.37369000  0.15800000  1.0
  H  H80  1  0.74527000  0.23473000  0.65658000  1.0
  H  H81  1  0.75483000  0.73471000  0.84340000  1.0
  H  H82  1  0.25480000  0.76527000  0.34340000  1.0
  H  H83  1  0.24517000  0.26529000  0.15662000  1.0
  H  H84  1  0.62711000  0.23029000  0.83996000  1.0
  H  H85  1  0.87294000  0.73026000  0.66001000  1.0
  H  H86  1  0.37285000  0.76972000  0.16001000  1.0
  H  H87  1  0.12714000  0.26972000  0.34000000  1.0
  H  H88  1  0.63344000  0.12124000  0.83347000  1.0
  H  H89  1  0.86657000  0.62121000  0.66652000  1.0
  H  H90  1  0.36648000  0.87877000  0.16650000  1.0
  H  H91  1  0.13351000  0.37877000  0.33351000  1.0
  H  H92  1  0.95847000  0.57671000  0.54187000  1.0
  H  H93  1  0.54157000  0.07672000  0.95812000  1.0
  H  H94  1  0.04160000  0.42327000  0.45815000  1.0
  H  H95  1  0.45838000  0.92329000  0.04186000  1.0
  H  H96  1  0.21951000  0.57099000  0.55002000  1.0
  H  H97  1  0.28052000  0.07102000  0.94998000  1.0
  H  H98  1  0.78055000  0.42899000  0.45000000  1.0
  H  H99  1  0.71943000  0.92900000  0.05000000  1.0
  H  H100  1  0.19266000  0.46242000  0.55286000  1.0
  H  H101  1  0.30730000  0.96245000  0.94715000  1.0
  H  H102  1  0.80741000  0.53756000  0.44716000  1.0
  H  H103  1  0.69262000  0.03756000  0.05284000  1.0
  H  H104  1  0.74330000  0.48185000  0.54375000  1.0
  H  H105  1  0.75667000  0.98186000  0.95625000  1.0
  H  H106  1  0.25677000  0.51813000  0.45627000  1.0
  H  H107  1  0.24325000  0.01816000  0.04373000  1.0
  H  H108  1  0.86274000  0.41345000  0.55359000  1.0
  H  H109  1  0.63719000  0.91347000  0.94642000  1.0
  H  H110  1  0.13732000  0.58653000  0.44643000  1.0
  H  H111  1  0.36274000  0.08655000  0.05357000  1.0
  C  C112  1  0.17948000  0.33836000  0.70408000  1.0
  C  C113  1  0.32060000  0.83835000  0.79592000  1.0
  C  C114  1  0.82056000  0.66165000  0.29591000  1.0
  C  C115  1  0.67939000  0.16166000  0.20409000  1.0
  C  C116  1  0.17191000  0.27766000  0.70064000  1.0
  C  C117  1  0.32816000  0.77766000  0.79936000  1.0
  C  C118  1  0.82813000  0.72235000  0.29935000  1.0
  C  C119  1  0.67183000  0.22235000  0.20065000  1.0
  C  C120  1  0.18619000  0.24351000  0.75057000  1.0
  C  C121  1  0.31383000  0.74351000  0.74943000  1.0
  C  C122  1  0.81382000  0.75650000  0.24942000  1.0
  C  C123  1  0.68616000  0.25650000  0.25058000  1.0
  C  C124  1  0.20615000  0.27409000  0.80240000  1.0
  C  C125  1  0.29384000  0.77408000  0.69760000  1.0
  C  C126  1  0.79386000  0.72592000  0.19759000  1.0
  C  C127  1  0.70614000  0.22592000  0.30241000  1.0
  C  C128  1  0.21534000  0.33489000  0.80241000  1.0
  C  C129  1  0.28468000  0.83488000  0.69759000  1.0
  C  C130  1  0.78468000  0.66512000  0.19758000  1.0
  C  C131  1  0.71532000  0.16511000  0.30241000  1.0
  C  C132  1  0.21833000  0.08805000  0.69604000  1.0
  C  C133  1  0.28165000  0.58805000  0.80397000  1.0
  C  C134  1  0.78161000  0.91195000  0.30396000  1.0
  C  C135  1  0.71835000  0.41196000  0.19605000  1.0
  C  C136  1  0.21900000  0.14876000  0.69664000  1.0
  C  C137  1  0.28099000  0.64876000  0.80337000  1.0
  C  C138  1  0.78098000  0.85124000  0.30336000  1.0
  C  C139  1  0.71898000  0.35125000  0.19665000  1.0
  C  C140  1  0.18433000  0.17912000  0.74845000  1.0
  C  C141  1  0.31568000  0.67911000  0.75155000  1.0
  C  C142  1  0.81566000  0.82088000  0.25154000  1.0
  C  C143  1  0.68431000  0.32089000  0.24847000  1.0
  C  C144  1  0.14998000  0.14471000  0.79784000  1.0
  C  C145  1  0.35000000  0.64470000  0.70217000  1.0
  C  C146  1  0.84997000  0.85529000  0.20216000  1.0
  C  C147  1  0.65001000  0.35530000  0.29785000  1.0
  C  C148  1  0.15312000  0.08404000  0.79384000  1.0
  C  C149  1  0.34684000  0.58403000  0.70617000  1.0
  C  C150  1  0.84680000  0.91597000  0.20616000  1.0
  C  C151  1  0.65319000  0.41597000  0.29385000  1.0
  C  C152  1  0.16561000  0.46553000  0.88722000  1.0
  C  C153  1  0.33435000  0.96555000  0.61278000  1.0
  C  C154  1  0.83444000  0.53445000  0.11280000  1.0
  C  C155  1  0.66560000  0.03446000  0.38721000  1.0
  C  C156  1  0.93123000  0.44564000  0.97250000  1.0
  C  C157  1  0.56872000  0.94565000  0.52752000  1.0
  C  C158  1  0.06878000  0.55436000  0.02750000  1.0
  C  C159  1  0.43120000  0.05436000  0.47248000  1.0
  C  C160  1  0.12349000  0.47621000  0.95136000  1.0
  C  C161  1  0.37646000  0.97622000  0.54863000  1.0
  C  C162  1  0.87652000  0.52379000  0.04865000  1.0
  C  C163  1  0.62349000  0.02379000  0.45135000  1.0
  C  C164  1  0.11239000  0.54234000  0.96379000  1.0
  C  C165  1  0.38754000  0.04234000  0.53621000  1.0
  C  C166  1  0.88759000  0.45766000  0.03622000  1.0
  C  C167  1  0.61241000  0.95766000  0.46379000  1.0
  C  C168  1  0.67971000  0.40280000  0.70319000  1.0
  C  C169  1  0.82035000  0.90278000  0.79679000  1.0
  C  C170  1  0.32029000  0.59721000  0.29680000  1.0
  C  C171  1  0.17969000  0.09722000  0.20320000  1.0
  C  C172  1  0.67051000  0.34213000  0.70014000  1.0
  C  C173  1  0.82957000  0.84211000  0.79983000  1.0
  C  C174  1  0.32951000  0.65788000  0.29984000  1.0
  C  C175  1  0.17046000  0.15789000  0.20018000  1.0
  C  C176  1  0.68815000  0.30829000  0.75019000  1.0
  C  C177  1  0.81196000  0.80828000  0.74978000  1.0
  C  C178  1  0.31191000  0.69171000  0.24978000  1.0
  C  C179  1  0.18807000  0.19171000  0.25023000  1.0
  C  C180  1  0.70808000  0.33933000  0.80172000  1.0
  C  C181  1  0.79205000  0.83933000  0.69825000  1.0
  C  C182  1  0.29201000  0.66066000  0.19826000  1.0
  C  C183  1  0.20798000  0.16065000  0.30176000  1.0
  C  C184  1  0.71341000  0.40027000  0.80175000  1.0
  C  C185  1  0.78668000  0.90027000  0.69823000  1.0
  C  C186  1  0.28665000  0.59973000  0.19824000  1.0
  C  C187  1  0.21333000  0.09972000  0.30177000  1.0
  C  C188  1  0.71773000  0.15113000  0.69753000  1.0
  C  C189  1  0.78233000  0.65112000  0.80246000  1.0
  C  C190  1  0.28227000  0.84887000  0.30245000  1.0
  C  C191  1  0.21768000  0.34888000  0.19757000  1.0
  C  C192  1  0.71687000  0.21208000  0.69717000  1.0
  C  C193  1  0.78320000  0.71207000  0.80282000  1.0
  C  C194  1  0.28316000  0.78792000  0.30280000  1.0
  C  C195  1  0.21680000  0.28792000  0.19721000  1.0
  C  C196  1  0.68642000  0.24349000  0.74858000  1.0
  C  C197  1  0.81368000  0.74347000  0.75139000  1.0
  C  C198  1  0.31361000  0.75651000  0.25139000  1.0
  C  C199  1  0.18635000  0.25652000  0.24863000  1.0
  C  C200  1  0.65594000  0.20959000  0.79842000  1.0
  C  C201  1  0.84410000  0.70957000  0.70156000  1.0
  C  C202  1  0.34404000  0.79041000  0.20155000  1.0
  C  C203  1  0.15593000  0.29041000  0.29847000  1.0
  C  C204  1  0.65794000  0.14877000  0.79553000  1.0
  C  C205  1  0.84210000  0.64875000  0.70445000  1.0
  C  C206  1  0.34202000  0.85123000  0.20444000  1.0
  C  C207  1  0.15795000  0.35124000  0.29558000  1.0
  C  C208  1  0.02412000  0.49406000  0.62549000  1.0
  C  C209  1  0.47584000  0.99406000  0.87451000  1.0
  C  C210  1  0.97596000  0.50593000  0.37453000  1.0
  C  C211  1  0.52405000  0.00595000  0.12548000  1.0
  C  C212  1  0.08952000  0.54905000  0.53159000  1.0
  C  C213  1  0.41051000  0.04907000  0.96841000  1.0
  C  C214  1  0.91054000  0.45094000  0.46843000  1.0
  C  C215  1  0.58943000  0.95094000  0.03158000  1.0
  C  C216  1  0.05739000  0.48914000  0.56021000  1.0
  C  C217  1  0.44257000  0.98916000  0.93979000  1.0
  C  C218  1  0.94266000  0.51084000  0.43980000  1.0
  C  C219  1  0.55734000  0.01086000  0.06019000  1.0
  C  C220  1  0.88099000  0.45702000  0.53356000  1.0
  C  C221  1  0.61898000  0.95703000  0.96645000  1.0
  C  C222  1  0.11907000  0.54296000  0.46647000  1.0
  C  C223  1  0.38096000  0.04298000  0.03354000  1.0
  N  N224  1  0.20298000  0.36684000  0.75404000  1.0
  N  N225  1  0.29707000  0.86683000  0.74595000  1.0
  N  N226  1  0.79706000  0.63317000  0.24595000  1.0
  N  N227  1  0.70292000  0.13317000  0.25405000  1.0
  N  N228  1  0.18694000  0.05555000  0.74379000  1.0
  N  N229  1  0.31303000  0.55555000  0.75622000  1.0
  N  N230  1  0.81300000  0.94445000  0.25620000  1.0
  N  N231  1  0.68699000  0.44446000  0.24380000  1.0
  N  N232  1  0.70331000  0.43180000  0.75299000  1.0
  N  N233  1  0.79672000  0.93179000  0.74699000  1.0
  N  N234  1  0.29671000  0.56820000  0.24700000  1.0
  N  N235  1  0.20330000  0.06820000  0.25300000  1.0
  N  N236  1  0.68951000  0.11929000  0.74580000  1.0
  N  N237  1  0.81053000  0.61928000  0.75419000  1.0
  N  N238  1  0.31047000  0.88071000  0.25417000  1.0
  N  N239  1  0.18951000  0.38072000  0.24584000  1.0
  O  O240  1  0.02697000  0.48079000  0.85321000  1.0
  O  O241  1  0.47297000  0.98080000  0.64679000  1.0
  O  O242  1  0.97313000  0.51920000  0.14680000  1.0
  O  O243  1  0.52695000  0.01920000  0.35321000  1.0
  O  O244  1  0.33171000  0.44380000  0.87156000  1.0
  O  O245  1  0.16822000  0.94381000  0.62844000  1.0
  O  O246  1  0.66833000  0.55617000  0.12847000  1.0
  O  O247  1  0.83169000  0.05619000  0.37155000  1.0
  O  O248  1  0.12997000  0.46056000  0.65593000  1.0
  O  O249  1  0.36999000  0.96056000  0.84409000  1.0
  O  O250  1  0.87014000  0.53944000  0.34410000  1.0
  O  O251  1  0.62987000  0.03945000  0.15590000  1.0
  O  O252  1  0.89203000  0.52997000  0.64405000  1.0
  O  O253  1  0.60793000  0.02996000  0.85594000  1.0
  O  O254  1  0.10803000  0.47003000  0.35596000  1.0
  O  O255  1  0.39198000  0.97004000  0.14404000  1.0
