# generated using pymatgen
data_KH11C6N4O5
_symmetry_space_group_name_H-M   'P 1'
_cell_length_a   7.43952000
_cell_length_b   10.04290000
_cell_length_c   15.75124741
_cell_angle_alpha   108.59167574
_cell_angle_beta   103.66281535
_cell_angle_gamma   89.99690000
_symmetry_Int_Tables_number   1
_chemical_formula_structural   KH11C6N4O5
_chemical_formula_sum   'K4 H44 C24 N16 O20'
_cell_volume   1080.24237071
_cell_formula_units_Z   4
loop_
 _symmetry_equiv_pos_site_id
 _symmetry_equiv_pos_as_xyz
  1  'x, y, z'
loop_
 _atom_site_type_symbol
 _atom_site_label
 _atom_site_symmetry_multiplicity
 _atom_site_fract_x
 _atom_site_fract_y
 _atom_site_fract_z
 _atom_site_occupancy
  K  K0  1  0.23141000  0.23123000  0.46242000  1.0
  K  K1  1  0.76866000  0.76899000  0.53762000  1.0
  K  K2  1  0.73906000  0.23869000  0.47761000  1.0
  K  K3  1  0.26086000  0.76118000  0.52240000  1.0
  H  H4  1  0.43426000  0.60615000  0.27900000  1.0
  H  H5  1  0.84486000  0.67281000  0.27893000  1.0
  H  H6  1  0.56603000  0.32720000  0.72102000  1.0
  H  H7  1  0.15484000  0.39389000  0.72102000  1.0
  H  H8  1  0.24375000  0.37494000  0.01218000  1.0
  H  H9  1  0.76854000  0.63707000  0.01211000  1.0
  H  H10  1  0.75630000  0.36290000  0.98787000  1.0
  H  H11  1  0.23153000  0.62501000  0.98788000  1.0
  H  H12  1  0.58869000  0.35792000  0.27830000  1.0
  H  H13  1  0.68983000  0.92030000  0.27824000  1.0
  H  H14  1  0.41154000  0.07975000  0.72171000  1.0
  H  H15  1  0.30986000  0.64202000  0.72166000  1.0
  H  H16  1  0.16406000  0.32455000  0.23882000  1.0
  H  H17  1  0.07488000  0.91413000  0.23862000  1.0
  H  H18  1  0.83620000  0.08573000  0.76137000  1.0
  H  H19  1  0.92486000  0.67564000  0.76130000  1.0
  H  H20  1  0.31556000  0.22232000  0.29155000  1.0
  H  H21  1  0.97617000  0.06913000  0.29139000  1.0
  H  H22  1  0.68458000  0.93081000  0.70859000  1.0
  H  H23  1  0.02365000  0.77784000  0.70855000  1.0
  H  H24  1  0.38600000  0.08756000  0.15471000  1.0
  H  H25  1  0.76852000  0.06695000  0.15459000  1.0
  H  H26  1  0.61386000  0.93299000  0.84539000  1.0
  H  H27  1  0.23140000  0.91230000  0.84531000  1.0
  H  H28  1  0.15873000  0.12613000  0.11122000  1.0
  H  H29  1  0.95240000  0.98507000  0.11108000  1.0
  H  H30  1  0.84119000  0.01492000  0.88893000  1.0
  H  H31  1  0.04758000  0.87403000  0.88888000  1.0
  H  H32  1  0.34374000  0.16419000  0.01387000  1.0
  H  H33  1  0.67015000  0.84944000  0.01376000  1.0
  H  H34  1  0.65617000  0.15054000  0.98619000  1.0
  H  H35  1  0.32987000  0.83570000  0.98612000  1.0
  H  H36  1  0.52727000  0.25838000  0.10898000  1.0
  H  H37  1  0.58179000  0.85031000  0.10888000  1.0
  H  H38  1  0.47273000  0.14964000  0.89105000  1.0
  H  H39  1  0.41810000  0.74130000  0.89098000  1.0
  H  H40  1  0.40826000  0.93652000  0.33969000  1.0
  H  H41  1  0.93150000  0.40310000  0.33963000  1.0
  H  H42  1  0.59168000  0.59693000  0.66035000  1.0
  H  H43  1  0.06846000  0.06360000  0.66034000  1.0
  H  H44  1  0.47766000  0.99433000  0.44872000  1.0
  H  H45  1  0.97082000  0.45417000  0.44864000  1.0
  H  H46  1  0.52242000  0.54579000  0.55132000  1.0
  H  H47  1  0.02905000  0.00568000  0.55132000  1.0
  C  C48  1  0.46710000  0.48323000  0.38354000  1.0
  C  C49  1  0.91677000  0.90033000  0.38343000  1.0
  C  C50  1  0.53331000  0.09970000  0.61653000  1.0
  C  C51  1  0.08297000  0.51680000  0.61648000  1.0
  C  C52  1  0.45173000  0.39971000  0.27994000  1.0
  C  C53  1  0.82845000  0.88016000  0.27984000  1.0
  C  C54  1  0.54858000  0.11986000  0.72012000  1.0
  C  C55  1  0.17123000  0.60030000  0.72005000  1.0
  C  C56  1  0.29865000  0.27915000  0.24149000  1.0
  C  C57  1  0.94299000  0.96223000  0.24134000  1.0
  C  C58  1  0.70151000  0.03770000  0.75863000  1.0
  C  C59  1  0.05679000  0.72095000  0.75857000  1.0
  C  C60  1  0.30050000  0.17409000  0.14637000  1.0
  C  C61  1  0.84584000  0.97214000  0.14623000  1.0
  C  C62  1  0.69948000  0.02780000  0.85374000  1.0
  C  C63  1  0.15405000  0.82589000  0.85368000  1.0
  C  C64  1  0.37512000  0.23808000  0.08470000  1.0
  C  C65  1  0.70965000  0.84641000  0.08460000  1.0
  C  C66  1  0.62487000  0.15354000  0.91535000  1.0
  C  C67  1  0.29028000  0.76177000  0.91529000  1.0
  C  C68  1  0.34042000  0.49256000  0.14540000  1.0
  C  C69  1  0.80527000  0.65277000  0.14534000  1.0
  C  C70  1  0.65984000  0.34725000  0.85464000  1.0
  C  C71  1  0.19454000  0.50746000  0.85462000  1.0
  N  N72  1  0.42454000  0.50532000  0.23251000  1.0
  N  N73  1  0.80817000  0.72712000  0.23243000  1.0
  N  N74  1  0.57574000  0.27289000  0.76752000  1.0
  N  N75  1  0.19147000  0.49471000  0.76750000  1.0
  N  N76  1  0.29573000  0.36836000  0.07738000  1.0
  N  N77  1  0.78191000  0.70890000  0.07731000  1.0
  N  N78  1  0.70441000  0.29109000  0.92266000  1.0
  N  N79  1  0.21803000  0.63162000  0.92266000  1.0
  N  N80  1  0.29907000  0.60492000  0.11323000  1.0
  N  N81  1  0.81447000  0.50825000  0.11319000  1.0
  N  N82  1  0.70113000  0.49177000  0.88679000  1.0
  N  N83  1  0.18545000  0.39510000  0.88679000  1.0
  N  N84  1  0.30953000  0.73504000  0.17172000  1.0
  N  N85  1  0.86246000  0.43664000  0.17169000  1.0
  N  N86  1  0.69056000  0.56339000  0.82829000  1.0
  N  N87  1  0.13761000  0.26497000  0.82831000  1.0
  O  O88  1  0.47899000  0.41194000  0.43833000  1.0
  O  O89  1  0.95995000  0.02642000  0.43817000  1.0
  O  O90  1  0.52140000  0.97358000  0.56176000  1.0
  O  O91  1  0.03970000  0.58809000  0.56170000  1.0
  O  O92  1  0.47023000  0.61589000  0.40665000  1.0
  O  O93  1  0.93646000  0.79083000  0.40662000  1.0
  O  O94  1  0.53009000  0.20922000  0.59338000  1.0
  O  O95  1  0.06345000  0.38409000  0.59332000  1.0
  O  O96  1  0.34053000  0.76409000  0.25924000  1.0
  O  O97  1  0.91894000  0.49517000  0.25921000  1.0
  O  O98  1  0.65961000  0.50489000  0.74076000  1.0
  O  O99  1  0.08119000  0.23594000  0.74078000  1.0
  O  O100  1  0.28486000  0.83178000  0.13648000  1.0
  O  O101  1  0.85188000  0.30466000  0.13649000  1.0
  O  O102  1  0.71503000  0.69537000  0.86350000  1.0
  O  O103  1  0.14826000  0.16823000  0.86355000  1.0
  O  O104  1  0.45385000  0.02342000  0.39252000  1.0
  O  O105  1  0.93877000  0.36891000  0.39242000  1.0
  O  O106  1  0.54606000  0.63105000  0.60754000  1.0
  O  O107  1  0.06119000  0.97664000  0.60754000  1.0
