# generated using pymatgen
data_Hf3H14C39N3O16
_symmetry_space_group_name_H-M   'P 1'
_cell_length_a   14.87570000
_cell_length_b   14.91170000
_cell_length_c   14.89630000
_cell_angle_alpha   90.68580000
_cell_angle_beta   90.53340000
_cell_angle_gamma   90.71190000
_symmetry_Int_Tables_number   1
_chemical_formula_structural   Hf3H14C39N3O16
_chemical_formula_sum   'Hf6 H28 C78 N6 O32'
_cell_volume   3303.68713378
_cell_formula_units_Z   2
loop_
 _symmetry_equiv_pos_site_id
 _symmetry_equiv_pos_as_xyz
  1  'x, y, z'
loop_
 _atom_site_type_symbol
 _atom_site_label
 _atom_site_symmetry_multiplicity
 _atom_site_fract_x
 _atom_site_fract_y
 _atom_site_fract_z
 _atom_site_occupancy
  Hf  Hf0  1  0.16732000  0.02461000  0.21757000  1.0
  Hf  Hf1  1  0.98088000  0.16850000  0.26058000  1.0
  Hf  Hf2  1  0.08928000  0.99268000  0.99817000  1.0
  Hf  Hf3  1  0.12509000  0.21127000  0.07402000  1.0
  Hf  Hf4  1  0.94814000  0.94933000  0.18208000  1.0
  Hf  Hf5  1  0.90530000  0.13336000  0.04174000  1.0
  H  H6  1  0.41040000  0.85536000  0.83264000  1.0
  H  H7  1  0.59028000  0.88683000  0.82365000  1.0
  H  H8  1  0.60913000  0.32158000  0.37623000  1.0
  H  H9  1  0.42763000  0.33780000  0.37497000  1.0
  H  H10  1  0.74039000  0.45325000  0.90692000  1.0
  H  H11  1  0.73046000  0.63265000  0.93782000  1.0
  H  H12  1  0.28197000  0.65296000  0.36874000  1.0
  H  H13  1  0.28133000  0.47207000  0.38582000  1.0
  H  H14  1  0.81369000  0.78582000  0.50219000  1.0
  H  H15  1  0.84442000  0.77456000  0.68161000  1.0
  H  H16  1  0.27862000  0.32702000  0.70327000  1.0
  H  H17  1  0.29374000  0.32510000  0.52187000  1.0
  H  H18  1  0.17183000  0.21514000  0.26486000  1.0
  H  H19  1  0.10367000  0.86393000  0.13549000  1.0
  H  H20  1  0.04336000  0.14825000  0.91317000  1.0
  H  H21  1  0.81955000  0.08672000  0.19710000  1.0
  H  H22  1  0.56658000  0.92542000  0.51803000  1.0
  H  H23  1  0.66984000  0.06948000  0.75070000  1.0
  H  H24  1  0.53485000  0.16468000  0.74854000  1.0
  H  H25  1  0.43299000  0.02071000  0.51569000  1.0
  H  H26  1  0.88072000  0.46814000  0.65932000  1.0
  H  H27  1  0.02534000  0.70044000  0.76245000  1.0
  H  H28  1  0.12023000  0.69889000  0.62706000  1.0
  H  H29  1  0.97559000  0.46634000  0.52494000  1.0
  H  H30  1  0.65607000  0.71454000  0.11921000  1.0
  H  H31  1  0.42480000  0.60877000  0.97443000  1.0
  H  H32  1  0.42331000  0.47517000  0.06977000  1.0
  H  H33  1  0.65473000  0.57989000  0.21453000  1.0
  C  C34  1  0.44764000  0.77277000  0.94874000  1.0
  C  C35  1  0.46294000  0.82434000  0.87205000  1.0
  C  C36  1  0.55553000  0.84089000  0.86781000  1.0
  C  C37  1  0.59689000  0.79871000  0.94092000  1.0
  C  C38  1  0.60245000  0.40696000  0.25685000  1.0
  C  C39  1  0.56884000  0.36265000  0.33216000  1.0
  C  C40  1  0.47520000  0.37086000  0.33120000  1.0
  C  C41  1  0.45145000  0.42132000  0.25613000  1.0
  C  C42  1  0.85618000  0.49119000  0.82342000  1.0
  C  C43  1  0.77948000  0.50591000  0.87545000  1.0
  C  C44  1  0.77473000  0.59830000  0.89165000  1.0
  C  C45  1  0.84754000  0.64011000  0.84882000  1.0
  C  C46  1  0.16241000  0.64592000  0.45455000  1.0
  C  C47  1  0.23784000  0.61269000  0.41004000  1.0
  C  C48  1  0.23726000  0.51933000  0.41874000  1.0
  C  C49  1  0.16225000  0.49535000  0.46962000  1.0
  C  C50  1  0.73021000  0.90078000  0.54109000  1.0
  C  C51  1  0.78221000  0.82433000  0.55525000  1.0
  C  C52  1  0.79837000  0.81902000  0.64766000  1.0
  C  C53  1  0.75571000  0.89143000  0.69002000  1.0
  C  C54  1  0.36362000  0.20738000  0.69584000  1.0
  C  C55  1  0.31926000  0.28262000  0.66270000  1.0
  C  C56  1  0.32694000  0.28135000  0.56907000  1.0
  C  C57  1  0.37727000  0.20624000  0.54496000  1.0
  C  C58  1  0.25917000  0.89082000  0.07730000  1.0
  C  C59  1  0.29434000  0.09545000  0.32109000  1.0
  C  C60  1  0.22740000  0.33904000  0.14533000  1.0
  C  C61  1  0.08054000  0.85729000  0.32145000  1.0
  C  C62  1  0.81365000  0.27288000  0.17463000  1.0
  C  C63  1  0.91076000  0.01692000  0.87016000  1.0
  C  C64  1  0.05200000  0.27092000  0.38835000  1.0
  C  C65  1  0.84650000  0.02913000  0.35218000  1.0
  C  C66  1  0.97194000  0.82142000  0.00318000  1.0
  C  C67  1  0.22961000  0.12479000  0.90669000  1.0
  C  C68  1  0.98563000  0.30335000  0.94046000  1.0
  C  C69  1  0.77693000  0.95466000  0.06529000  1.0
  C  C70  1  0.29927000  0.14129000  0.84252000  1.0
  C  C71  1  0.34082000  0.16758000  0.77723000  1.0
  C  C72  1  0.35638000  0.13760000  0.38469000  1.0
  C  C73  1  0.37809000  0.16826000  0.45852000  1.0
  C  C74  1  0.84363000  0.96758000  0.82022000  1.0
  C  C75  1  0.78895000  0.93332000  0.76794000  1.0
  C  C76  1  0.77410000  0.00287000  0.40953000  1.0
  C  C77  1  0.73925000  0.95596000  0.46676000  1.0
  C  C78  1  0.56093000  0.97941000  0.56740000  1.0
  C  C79  1  0.62961000  0.99287000  0.63193000  1.0
  C  C80  1  0.61827000  0.05818000  0.69922000  1.0
  C  C81  1  0.54174000  0.11174000  0.69810000  1.0
  C  C82  1  0.47580000  0.10111000  0.63048000  1.0
  C  C83  1  0.48507000  0.03269000  0.56632000  1.0
  C  C84  1  0.12264000  0.72721000  0.43178000  1.0
  C  C85  1  0.09704000  0.79251000  0.39022000  1.0
  C  C86  1  0.12475000  0.40873000  0.47125000  1.0
  C  C87  1  0.09427000  0.33463000  0.45023000  1.0
  C  C88  1  0.92274000  0.77135000  0.93601000  1.0
  C  C89  1  0.88934000  0.71831000  0.88151000  1.0
  C  C90  1  0.91157000  0.41714000  0.83344000  1.0
  C  C91  1  0.95892000  0.36048000  0.86834000  1.0
  C  C92  1  0.93487000  0.51742000  0.65348000  1.0
  C  C93  1  0.94856000  0.58177000  0.72227000  1.0
  C  C94  1  0.01385000  0.64915000  0.71072000  1.0
  C  C95  1  0.06726000  0.64833000  0.63390000  1.0
  C  C96  1  0.05643000  0.58089000  0.56780000  1.0
  C  C97  1  0.98790000  0.51669000  0.57723000  1.0
  C  C98  1  0.74941000  0.34224000  0.19135000  1.0
  C  C99  1  0.68404000  0.38393000  0.21718000  1.0
  C  C100  1  0.29079000  0.40112000  0.18781000  1.0
  C  C101  1  0.36484000  0.42248000  0.21840000  1.0
  C  C102  1  0.67482000  0.83207000  0.98285000  1.0
  C  C103  1  0.72714000  0.88738000  0.01606000  1.0
  C  C104  1  0.37292000  0.78297000  0.00358000  1.0
  C  C105  1  0.31597000  0.81837000  0.05055000  1.0
  C  C106  1  0.60506000  0.66242000  0.10781000  1.0
  C  C107  1  0.53800000  0.67292000  0.04217000  1.0
  C  C108  1  0.47402000  0.60364000  0.02859000  1.0
  C  C109  1  0.47340000  0.52785000  0.08187000  1.0
  C  C110  1  0.53740000  0.51933000  0.15054000  1.0
  C  C111  1  0.60440000  0.58599000  0.16140000  1.0
  N  N112  1  0.53065000  0.74922000  0.98602000  1.0
  N  N113  1  0.53054000  0.44736000  0.21241000  1.0
  N  N114  1  0.89285000  0.57426000  0.79918000  1.0
  N  N115  1  0.11816000  0.57406000  0.49543000  1.0
  N  N116  1  0.70625000  0.93705000  0.62438000  1.0
  N  N117  1  0.40369000  0.16279000  0.62371000  1.0
  O  O118  1  0.21119000  0.91847000  0.01170000  1.0
  O  O119  1  0.21866000  0.06896000  0.35324000  1.0
  O  O120  1  0.26021000  0.26412000  0.11795000  1.0
  O  O121  1  0.14625000  0.91084000  0.30632000  1.0
  O  O122  1  0.00558000  0.85402000  0.27847000  1.0
  O  O123  1  0.14326000  0.35230000  0.13692000  1.0
  O  O124  1  0.30855000  0.08657000  0.23714000  1.0
  O  O125  1  0.26011000  0.92342000  0.15702000  1.0
  O  O126  1  0.03284000  0.04285000  0.24577000  1.0
  O  O127  1  0.15301000  0.07702000  0.09208000  1.0
  O  O128  1  0.13366000  0.17730000  0.22669000  1.0
  O  O129  1  0.08661000  0.92650000  0.13600000  1.0
  O  O130  1  0.86710000  0.25741000  0.24010000  1.0
  O  O131  1  0.99002000  0.98619000  0.87633000  1.0
  O  O132  1  0.02471000  0.30338000  0.31330000  1.0
  O  O133  1  0.87361000  0.96337000  0.30400000  1.0
  O  O134  1  0.94100000  0.82753000  0.08239000  1.0
  O  O135  1  0.21442000  0.19025000  0.96034000  1.0
  O  O136  1  0.91973000  0.25545000  0.96813000  1.0
  O  O137  1  0.78326000  0.03373000  0.03449000  1.0
  O  O138  1  0.06551000  0.30397000  0.97274000  1.0
  O  O139  1  0.81141000  0.92786000  0.13971000  1.0
  O  O140  1  0.04377000  0.18697000  0.40181000  1.0
  O  O141  1  0.18598000  0.05026000  0.90287000  1.0
  O  O142  1  0.04638000  0.85629000  0.97627000  1.0
  O  O143  1  0.87959000  0.10860000  0.35311000  1.0
  O  O144  1  0.80998000  0.22975000  0.09980000  1.0
  O  O145  1  0.88380000  0.09117000  0.90497000  1.0
  O  O146  1  0.96721000  0.01148000  0.06031000  1.0
  O  O147  1  0.99917000  0.19672000  0.12632000  1.0
  O  O148  1  0.04350000  0.13096000  0.97574000  1.0
  O  O149  1  0.88228000  0.08716000  0.17988000  1.0
