# generated using pymatgen
data_ZnH22C25N4O5
_symmetry_space_group_name_H-M   'P 1'
_cell_length_a   12.99120000
_cell_length_b   13.90340000
_cell_length_c   16.77300000
_cell_angle_alpha   79.90390000
_cell_angle_beta   67.23030000
_cell_angle_gamma   62.15220000
_symmetry_Int_Tables_number   1
_chemical_formula_structural   ZnH22C25N4O5
_chemical_formula_sum   'Zn4 H88 C100 N16 O20'
_cell_volume   2469.90634927
_cell_formula_units_Z   4
loop_
 _symmetry_equiv_pos_site_id
 _symmetry_equiv_pos_as_xyz
  1  'x, y, z'
loop_
 _atom_site_type_symbol
 _atom_site_label
 _atom_site_symmetry_multiplicity
 _atom_site_fract_x
 _atom_site_fract_y
 _atom_site_fract_z
 _atom_site_occupancy
  Zn  Zn0  1  0.47959000  0.72550000  0.29641000  1.0
  Zn  Zn1  1  0.00138000  0.77442000  0.20370000  1.0
  Zn  Zn2  1  0.52042000  0.27449000  0.70358000  1.0
  Zn  Zn3  1  0.99862000  0.22558000  0.79630000  1.0
  H  H4  1  0.16620000  0.66524000  0.51197000  1.0
  H  H5  1  0.84371000  0.83525000  0.98774000  1.0
  H  H6  1  0.83380000  0.33476000  0.48803000  1.0
  H  H7  1  0.15630000  0.16475000  0.01226000  1.0
  H  H8  1  0.09978000  0.79980000  0.47559000  1.0
  H  H9  1  0.87480000  0.70080000  0.02424000  1.0
  H  H10  1  0.90022000  0.20019000  0.52441000  1.0
  H  H11  1  0.12521000  0.29920000  0.97576000  1.0
  H  H12  1  0.17997000  0.73276000  0.63561000  1.0
  H  H13  1  0.04860000  0.76715000  0.86423000  1.0
  H  H14  1  0.82004000  0.26724000  0.36438000  1.0
  H  H15  1  0.95141000  0.23285000  0.13577000  1.0
  H  H16  1  0.02417000  0.78444000  0.64023000  1.0
  H  H17  1  0.94888000  0.71574000  0.85953000  1.0
  H  H18  1  0.97583000  0.21555000  0.35977000  1.0
  H  H19  1  0.05113000  0.28427000  0.14047000  1.0
  H  H20  1  0.18188000  0.90821000  0.56788000  1.0
  H  H21  1  0.15734000  0.59170000  0.93251000  1.0
  H  H22  1  0.81812000  0.09179000  0.43212000  1.0
  H  H23  1  0.84266000  0.40830000  0.06749000  1.0
  H  H24  1  0.02340000  0.95983000  0.57904000  1.0
  H  H25  1  0.06174000  0.54030000  0.92085000  1.0
  H  H26  1  0.97660000  0.04016000  0.42096000  1.0
  H  H27  1  0.93826000  0.45970000  0.07915000  1.0
  H  H28  1  0.12262000  0.88624000  0.72988000  1.0
  H  H29  1  0.23893000  0.61370000  0.77063000  1.0
  H  H30  1  0.87738000  0.11376000  0.27011000  1.0
  H  H31  1  0.76107000  0.38630000  0.22937000  1.0
  H  H32  1  0.96613000  0.93572000  0.73872000  1.0
  H  H33  1  0.14077000  0.56461000  0.76120000  1.0
  H  H34  1  0.03387000  0.06428000  0.26128000  1.0
  H  H35  1  0.85922000  0.43539000  0.23880000  1.0
  H  H36  1  0.48239000  0.79100000  0.46500000  1.0
  H  H37  1  0.23836000  0.70873000  0.03517000  1.0
  H  H38  1  0.51761000  0.20899000  0.53500000  1.0
  H  H39  1  0.76164000  0.29126000  0.96483000  1.0
  H  H40  1  0.68218000  0.82617000  0.20494000  1.0
  H  H41  1  0.21291000  0.67397000  0.29532000  1.0
  H  H42  1  0.31783000  0.17383000  0.79505000  1.0
  H  H43  1  0.78709000  0.32603000  0.70467000  1.0
  H  H44  1  0.74307000  0.91388000  0.30460000  1.0
  H  H45  1  0.46128000  0.58622000  0.19580000  1.0
  H  H46  1  0.25693000  0.08612000  0.69540000  1.0
  H  H47  1  0.53873000  0.41378000  0.80419000  1.0
  H  H48  1  0.73543000  0.97272000  0.41525000  1.0
  H  H49  1  0.62319000  0.52770000  0.08504000  1.0
  H  H50  1  0.26456000  0.02729000  0.58475000  1.0
  H  H51  1  0.37680000  0.47230000  0.91496000  1.0
  H  H52  1  0.77212000  0.99391000  0.54406000  1.0
  H  H53  1  0.80962000  0.50677000  0.95618000  1.0
  H  H54  1  0.22786000  0.00610000  0.45594000  1.0
  H  H55  1  0.19037000  0.49323000  0.04382000  1.0
  H  H56  1  0.55923000  0.82203000  0.69771000  1.0
  H  H57  1  0.57836000  0.67757000  0.80252000  1.0
  H  H58  1  0.44078000  0.17796000  0.30229000  1.0
  H  H59  1  0.42164000  0.32243000  0.19748000  1.0
  H  H60  1  0.52603000  0.79605000  0.57047000  1.0
  H  H61  1  0.39211000  0.70331000  0.92982000  1.0
  H  H62  1  0.47398000  0.20395000  0.42953000  1.0
  H  H63  1  0.60789000  0.29670000  0.07017000  1.0
  H  H64  1  0.44925000  0.97524000  0.78556000  1.0
  H  H65  1  0.71014000  0.52448000  0.71448000  1.0
  H  H66  1  0.55074000  0.02477000  0.21444000  1.0
  H  H67  1  0.28988000  0.47551000  0.28552000  1.0
  H  H68  1  0.34270000  0.95555000  0.93971000  1.0
  H  H69  1  0.73852000  0.54386000  0.56026000  1.0
  H  H70  1  0.65730000  0.04445000  0.06029000  1.0
  H  H71  1  0.26150000  0.45613000  0.43974000  1.0
  H  H72  1  0.69594000  0.80538000  0.97886000  1.0
  H  H73  1  0.97925000  0.69541000  0.52159000  1.0
  H  H74  1  0.30405000  0.19463000  0.02114000  1.0
  H  H75  1  0.02075000  0.30459000  0.47841000  1.0
  H  H76  1  0.79958000  0.83077000  0.82454000  1.0
  H  H77  1  0.95365000  0.67014000  0.67594000  1.0
  H  H78  1  0.20042000  0.16923000  0.17546000  1.0
  H  H79  1  0.04636000  0.32985000  0.32407000  1.0
  H  H80  1  0.61188000  0.76318000  0.10097000  1.0
  H  H81  1  0.97598000  0.73677000  0.39917000  1.0
  H  H82  1  0.38812000  0.23684000  0.89903000  1.0
  H  H83  1  0.02402000  0.26323000  0.60083000  1.0
  H  H84  1  0.22974000  0.88613000  0.24623000  1.0
  H  H85  1  0.86216000  0.61369000  0.25387000  1.0
  H  H86  1  0.77026000  0.11387000  0.75376000  1.0
  H  H87  1  0.13784000  0.38631000  0.74614000  1.0
  H  H88  1  0.25540000  0.95512000  0.07703000  1.0
  H  H89  1  0.78756000  0.54472000  0.42309000  1.0
  H  H90  1  0.74460000  0.04487000  0.92297000  1.0
  H  H91  1  0.21245000  0.45527000  0.57692000  1.0
  C  C92  1  0.29241000  0.73472000  0.45757000  1.0
  C  C93  1  0.98489000  0.76526000  0.04226000  1.0
  C  C94  1  0.70760000  0.26528000  0.54243000  1.0
  C  C95  1  0.01511000  0.23474000  0.95774000  1.0
  C  C96  1  0.16162000  0.74669000  0.51138000  1.0
  C  C97  1  0.91969000  0.75364000  0.98841000  1.0
  C  C98  1  0.83838000  0.25330000  0.48861000  1.0
  C  C99  1  0.08032000  0.24636000  0.01159000  1.0
  C  C100  1  0.11361000  0.78732000  0.60359000  1.0
  C  C101  1  0.00449000  0.71279000  0.89626000  1.0
  C  C102  1  0.88640000  0.21268000  0.39641000  1.0
  C  C103  1  0.99552000  0.28721000  0.10374000  1.0
  C  C104  1  0.09399000  0.90383000  0.60726000  1.0
  C  C105  1  0.10472000  0.59619000  0.89286000  1.0
  C  C106  1  0.90602000  0.09617000  0.39274000  1.0
  C  C107  1  0.89528000  0.40381000  0.10714000  1.0
  C  C108  1  0.05420000  0.94048000  0.69949000  1.0
  C  C109  1  0.19416000  0.55956000  0.80072000  1.0
  C  C110  1  0.94580000  0.05952000  0.30050000  1.0
  C  C111  1  0.80584000  0.44044000  0.19927000  1.0
  C  C112  1  0.03071000  0.05705000  0.70661000  1.0
  C  C113  1  0.29415000  0.44291000  0.79357000  1.0
  C  C114  1  0.96929000  0.94295000  0.29339000  1.0
  C  C115  1  0.70585000  0.55709000  0.20643000  1.0
  C  C116  1  0.54470000  0.81391000  0.40927000  1.0
  C  C117  1  0.26772000  0.68590000  0.09097000  1.0
  C  C118  1  0.45530000  0.18609000  0.59073000  1.0
  C  C119  1  0.73227000  0.31410000  0.90903000  1.0
  C  C120  1  0.64519000  0.83702000  0.27442000  1.0
  C  C121  1  0.25638000  0.66310000  0.22586000  1.0
  C  C122  1  0.35481000  0.16298000  0.72557000  1.0
  C  C123  1  0.74363000  0.33689000  0.77414000  1.0
  C  C124  1  0.67750000  0.87934000  0.32356000  1.0
  C  C125  1  0.38015000  0.62076000  0.17680000  1.0
  C  C126  1  0.32250000  0.12066000  0.67644000  1.0
  C  C127  1  0.61985000  0.37923000  0.82320000  1.0
  C  C128  1  0.62818000  0.88288000  0.48395000  1.0
  C  C129  1  0.49471000  0.61707000  0.01635000  1.0
  C  C130  1  0.37182000  0.11712000  0.51605000  1.0
  C  C131  1  0.50529000  0.38293000  0.98365000  1.0
  C  C132  1  0.69642000  0.93978000  0.47705000  1.0
  C  C133  1  0.61294000  0.56049000  0.02324000  1.0
  C  C134  1  0.30356000  0.06023000  0.52295000  1.0
  C  C135  1  0.38705000  0.43951000  0.97676000  1.0
  C  C136  1  0.71607000  0.95275000  0.54928000  1.0
  C  C137  1  0.71764000  0.54764000  0.95098000  1.0
  C  C138  1  0.28392000  0.04725000  0.45072000  1.0
  C  C139  1  0.28235000  0.45236000  0.04902000  1.0
  C  C140  1  0.66627000  0.91176000  0.63009000  1.0
  C  C141  1  0.70765000  0.58847000  0.87016000  1.0
  C  C142  1  0.33372000  0.08824000  0.36991000  1.0
  C  C143  1  0.29234000  0.41154000  0.12984000  1.0
  C  C144  1  0.59560000  0.85747000  0.63649000  1.0
  C  C145  1  0.58909000  0.64235000  0.86375000  1.0
  C  C146  1  0.40440000  0.14253000  0.36351000  1.0
  C  C147  1  0.41091000  0.35765000  0.13624000  1.0
  C  C148  1  0.57720000  0.84216000  0.56424000  1.0
  C  C149  1  0.48321000  0.65751000  0.93601000  1.0
  C  C150  1  0.42280000  0.15783000  0.43576000  1.0
  C  C151  1  0.51678000  0.34249000  0.06399000  1.0
  C  C152  1  0.70352000  0.91717000  0.70204000  1.0
  C  C153  1  0.82218000  0.58319000  0.79828000  1.0
  C  C154  1  0.29647000  0.08283000  0.29796000  1.0
  C  C155  1  0.17782000  0.41681000  0.20173000  1.0
  C  C156  1  0.63289000  0.90215000  0.79377000  1.0
  C  C157  1  0.82812000  0.59825000  0.70655000  1.0
  C  C158  1  0.36711000  0.09785000  0.20623000  1.0
  C  C159  1  0.17189000  0.40175000  0.29346000  1.0
  C  C160  1  0.50385000  0.93692000  0.82755000  1.0
  C  C161  1  0.76807000  0.56312000  0.67263000  1.0
  C  C162  1  0.49614000  0.06308000  0.17245000  1.0
  C  C163  1  0.23195000  0.43686000  0.32737000  1.0
  C  C164  1  0.44309000  0.92690000  0.91533000  1.0
  C  C165  1  0.78536000  0.57296000  0.58479000  1.0
  C  C166  1  0.55691000  0.07311000  0.08467000  1.0
  C  C167  1  0.21465000  0.42703000  0.41522000  1.0
  C  C168  1  0.51161000  0.87912000  0.97055000  1.0
  C  C169  1  0.86109000  0.62096000  0.52965000  1.0
  C  C170  1  0.48839000  0.12090000  0.02945000  1.0
  C  C171  1  0.13891000  0.37904000  0.47035000  1.0
  C  C172  1  0.64085000  0.84310000  0.93727000  1.0
  C  C173  1  0.92052000  0.65744000  0.56307000  1.0
  C  C174  1  0.35915000  0.15692000  0.06273000  1.0
  C  C175  1  0.07948000  0.34256000  0.43694000  1.0
  C  C176  1  0.69971000  0.85626000  0.85033000  1.0
  C  C177  1  0.90536000  0.64439000  0.65006000  1.0
  C  C178  1  0.30029000  0.14375000  0.14967000  1.0
  C  C179  1  0.09464000  0.35561000  0.34995000  1.0
  C  C180  1  0.51218000  0.80979000  0.11659000  1.0
  C  C181  1  0.93854000  0.69008000  0.38359000  1.0
  C  C182  1  0.48782000  0.19021000  0.88341000  1.0
  C  C183  1  0.06147000  0.30992000  0.61641000  1.0
  C  C184  1  0.31273000  0.87281000  0.18986000  1.0
  C  C185  1  0.87539000  0.62703000  0.31028000  1.0
  C  C186  1  0.68727000  0.12719000  0.81014000  1.0
  C  C187  1  0.12461000  0.37297000  0.68973000  1.0
  C  C188  1  0.32483000  0.90619000  0.10629000  1.0
  C  C189  1  0.83734000  0.59364000  0.39383000  1.0
  C  C190  1  0.67516000  0.09382000  0.89371000  1.0
  C  C191  1  0.16267000  0.40636000  0.60617000  1.0
  N  N192  1  0.61436000  0.86313000  0.40952000  1.0
  N  N193  1  0.38679000  0.63677000  0.09081000  1.0
  N  N194  1  0.38564000  0.13687000  0.59048000  1.0
  N  N195  1  0.61321000  0.36323000  0.90919000  1.0
  N  N196  1  0.45224000  0.86621000  0.05975000  1.0
  N  N197  1  0.87820000  0.63366000  0.44041000  1.0
  N  N198  1  0.54776000  0.13380000  0.94025000  1.0
  N  N199  1  0.12181000  0.36634000  0.55959000  1.0
  N  N200  1  0.43026000  0.81304000  0.19490000  1.0
  N  N201  1  0.93817000  0.68682000  0.30526000  1.0
  N  N202  1  0.56974000  0.18696000  0.80510000  1.0
  N  N203  1  0.06183000  0.31318000  0.69475000  1.0
  N  N204  1  0.56145000  0.79784000  0.32870000  1.0
  N  N205  1  0.18781000  0.70211000  0.17151000  1.0
  N  N206  1  0.43855000  0.20216000  0.67129000  1.0
  N  N207  1  0.81219000  0.29789000  0.82849000  1.0
  O  O208  1  0.32014000  0.73020000  0.37455000  1.0
  O  O209  1  0.92517000  0.76968000  0.12529000  1.0
  O  O210  1  0.67986000  0.26981000  0.62545000  1.0
  O  O211  1  0.07484000  0.23031000  0.87472000  1.0
  O  O212  1  0.36375000  0.72911000  0.49296000  1.0
  O  O213  1  0.08606000  0.77073000  0.00687000  1.0
  O  O214  1  0.63626000  0.27087000  0.50704000  1.0
  O  O215  1  0.91393000  0.22928000  0.99314000  1.0
  O  O216  1  0.97487000  0.13125000  0.66310000  1.0
  O  O217  1  0.26897000  0.36874000  0.83706000  1.0
  O  O218  1  0.02513000  0.86876000  0.33689000  1.0
  O  O219  1  0.73102000  0.63126000  0.16294000  1.0
  O  O220  1  0.07050000  0.07247000  0.76162000  1.0
  O  O221  1  0.40429000  0.42748000  0.73847000  1.0
  O  O222  1  0.92950000  0.92754000  0.23838000  1.0
  O  O223  1  0.59571000  0.57252000  0.26152000  1.0
  O  O224  1  0.79748000  0.93062000  0.68545000  1.0
  O  O225  1  0.91298000  0.56987000  0.81484000  1.0
  O  O226  1  0.20251000  0.06938000  0.31455000  1.0
  O  O227  1  0.08701000  0.43014000  0.18518000  1.0
