# generated using pymatgen
data_AlH12(C5O3)6
_symmetry_space_group_name_H-M   'P 1'
_cell_length_a   4.02465000
_cell_length_b   29.13861160
_cell_length_c   29.13680000
_cell_angle_alpha   120.00182972
_cell_angle_beta   90.00010000
_cell_angle_gamma   89.99990001
_symmetry_Int_Tables_number   1
_chemical_formula_structural   AlH12(C5O3)6
_chemical_formula_sum   'Al2 H24 C60 O36'
_cell_volume   2959.11231844
_cell_formula_units_Z   2
loop_
 _symmetry_equiv_pos_site_id
 _symmetry_equiv_pos_as_xyz
  1  'x, y, z'
loop_
 _atom_site_type_symbol
 _atom_site_label
 _atom_site_symmetry_multiplicity
 _atom_site_fract_x
 _atom_site_fract_y
 _atom_site_fract_z
 _atom_site_occupancy
  Al  Al0  1  0.00012000  0.50000000  0.99999000  1.0
  Al  Al1  1  0.99947000  0.83334000  0.66668000  1.0
  H  H2  1  0.43491000  0.68627000  0.51971000  1.0
  H  H3  1  0.56439000  0.83345000  0.51970000  1.0
  H  H4  1  0.56448000  0.49987000  0.14695000  1.0
  H  H5  1  0.43552000  0.64708000  0.14696000  1.0
  H  H6  1  0.43488000  0.83343000  0.81375000  1.0
  H  H7  1  0.56437000  0.68625000  0.66656000  1.0
  H  H8  1  0.56447000  0.64708000  0.00013000  1.0
  H  H9  1  0.43552000  0.49987000  0.85291000  1.0
  H  H10  1  0.43492000  0.98030000  0.66657000  1.0
  H  H11  1  0.56444000  0.98034000  0.81378000  1.0
  H  H12  1  0.56448000  0.35304000  0.85291000  1.0
  H  H13  1  0.43552000  0.35305000  0.00012000  1.0
  H  H14  1  0.82895000  0.74672000  0.36548000  1.0
  H  H15  1  0.17099000  0.61873000  0.36547000  1.0
  H  H16  1  0.17099000  0.71466000  0.30114000  1.0
  H  H17  1  0.82860000  0.58649000  0.30117000  1.0
  H  H18  1  0.82876000  0.61875000  0.75329000  1.0
  H  H19  1  0.17093000  0.74673000  0.88129000  1.0
  H  H20  1  0.17102000  0.58646000  0.78532000  1.0
  H  H21  1  0.82856000  0.71467000  0.91350000  1.0
  H  H22  1  0.82898000  0.13455000  0.88126000  1.0
  H  H23  1  0.17112000  0.13455000  0.75326000  1.0
  H  H24  1  0.17105000  0.19887000  0.91352000  1.0
  H  H25  1  0.82859000  0.19883000  0.78530000  1.0
  C  C26  1  0.50007000  0.41899000  0.95949000  1.0
  C  C27  1  0.50007000  0.54050000  0.08100000  1.0
  C  C28  1  0.50006000  0.54050000  0.95949000  1.0
  C  C29  1  0.49951000  0.79284000  0.58565000  1.0
  C  C30  1  0.49952000  0.79282000  0.70719000  1.0
  C  C31  1  0.49951000  0.91437000  0.70721000  1.0
  C  C32  1  0.49961000  0.76331000  0.52660000  1.0
  C  C33  1  0.46191000  0.70838000  0.49885000  1.0
  C  C34  1  0.46586000  0.68004000  0.44360000  1.0
  C  C35  1  0.49981000  0.70722000  0.41444000  1.0
  C  C36  1  0.53369000  0.76356000  0.44359000  1.0
  C  C37  1  0.53745000  0.79049000  0.49885000  1.0
  C  C38  1  0.49989000  0.67887000  0.35775000  1.0
  C  C39  1  0.49995000  0.65444000  0.30889000  1.0
  C  C40  1  0.49998000  0.62610000  0.25220000  1.0
  C  C41  1  0.53365000  0.56976000  0.22305000  1.0
  C  C42  1  0.53757000  0.54284000  0.16780000  1.0
  C  C43  1  0.50002000  0.57003000  0.14006000  1.0
  C  C44  1  0.46244000  0.62496000  0.16780000  1.0
  C  C45  1  0.46632000  0.65328000  0.22305000  1.0
  C  C46  1  0.49959000  0.76329000  0.73671000  1.0
  C  C47  1  0.46189000  0.79046000  0.79164000  1.0
  C  C48  1  0.46584000  0.76355000  0.81998000  1.0
  C  C49  1  0.49981000  0.70721000  0.79278000  1.0
  C  C50  1  0.53366000  0.68002000  0.73644000  1.0
  C  C51  1  0.53741000  0.70835000  0.70951000  1.0
  C  C52  1  0.49987000  0.67887000  0.82113000  1.0
  C  C53  1  0.49993000  0.65444000  0.84556000  1.0
  C  C54  1  0.49998000  0.62610000  0.87391000  1.0
  C  C55  1  0.53364000  0.65328000  0.93023000  1.0
  C  C56  1  0.53756000  0.62496000  0.95716000  1.0
  C  C57  1  0.50000000  0.57003000  0.92997000  1.0
  C  C58  1  0.46241000  0.54284000  0.87503000  1.0
  C  C59  1  0.46631000  0.56976000  0.84671000  1.0
  C  C60  1  0.49965000  0.97343000  0.73673000  1.0
  C  C61  1  0.46193000  0.00116000  0.70953000  1.0
  C  C62  1  0.46588000  0.05642000  0.73645000  1.0
  C  C63  1  0.49985000  0.08557000  0.79278000  1.0
  C  C64  1  0.53375000  0.05644000  0.81999000  1.0
  C  C65  1  0.53751000  0.00118000  0.79166000  1.0
  C  C66  1  0.49990000  0.14226000  0.82112000  1.0
  C  C67  1  0.49994000  0.19112000  0.84555000  1.0
  C  C68  1  0.49998000  0.24781000  0.87390000  1.0
  C  C69  1  0.53365000  0.27695000  0.84670000  1.0
  C  C70  1  0.53759000  0.33220000  0.87503000  1.0
  C  C71  1  0.50002000  0.35994000  0.92996000  1.0
  C  C72  1  0.46242000  0.33220000  0.95715000  1.0
  C  C73  1  0.46631000  0.27695000  0.93022000  1.0
  C  C74  1  0.55790000  0.79927000  0.42002000  1.0
  C  C75  1  0.44185000  0.62076000  0.42005000  1.0
  C  C76  1  0.44265000  0.71256000  0.24659000  1.0
  C  C77  1  0.55730000  0.53402000  0.24659000  1.0
  C  C78  1  0.55791000  0.62074000  0.70071000  1.0
  C  C79  1  0.44187000  0.79927000  0.87926000  1.0
  C  C80  1  0.44269000  0.53402000  0.78743000  1.0
  C  C81  1  0.55733000  0.71257000  0.96599000  1.0
  C  C82  1  0.55788000  0.08001000  0.87927000  1.0
  C  C83  1  0.44184000  0.07995000  0.70070000  1.0
  C  C84  1  0.44261000  0.25342000  0.96597000  1.0
  C  C85  1  0.55728000  0.25342000  0.78742000  1.0
  O  O86  1  0.73494000  0.55056000  0.99253000  1.0
  O  O87  1  0.73494000  0.44197000  0.94943000  1.0
  O  O88  1  0.73496000  0.50747000  0.05802000  1.0
  O  O89  1  0.26520000  0.50746000  0.94943000  1.0
  O  O90  1  0.26519000  0.55057000  0.05803000  1.0
  O  O91  1  0.26518000  0.44197000  0.99253000  1.0
  O  O92  1  0.73433000  0.89138000  0.71726000  1.0
  O  O93  1  0.73432000  0.82588000  0.60865000  1.0
  O  O94  1  0.73434000  0.78278000  0.67415000  1.0
  O  O95  1  0.26453000  0.89139000  0.67418000  1.0
  O  O96  1  0.26455000  0.82586000  0.71725000  1.0
  O  O97  1  0.26453000  0.78279000  0.60864000  1.0
  O  O98  1  0.74888000  0.78234000  0.37621000  1.0
  O  O99  1  0.41958000  0.84191000  0.44056000  1.0
  O  O100  1  0.25103000  0.59386000  0.37622000  1.0
  O  O101  1  0.58016000  0.59868000  0.44060000  1.0
  O  O102  1  0.25189000  0.73952000  0.29043000  1.0
  O  O103  1  0.58140000  0.73463000  0.22607000  1.0
  O  O104  1  0.74796000  0.55090000  0.29043000  1.0
  O  O105  1  0.41865000  0.49142000  0.22605000  1.0
  O  O106  1  0.74886000  0.59387000  0.71766000  1.0
  O  O107  1  0.41968000  0.59865000  0.65808000  1.0
  O  O108  1  0.25106000  0.78235000  0.90616000  1.0
  O  O109  1  0.58024000  0.84190000  0.90134000  1.0
  O  O110  1  0.25195000  0.55089000  0.76047000  1.0
  O  O111  1  0.58149000  0.49143000  0.76536000  1.0
  O  O112  1  0.74799000  0.73952000  0.94910000  1.0
  O  O113  1  0.41873000  0.73463000  0.00860000  1.0
  O  O114  1  0.74886000  0.12382000  0.90614000  1.0
  O  O115  1  0.41954000  0.05948000  0.90137000  1.0
  O  O116  1  0.25106000  0.12378000  0.71763000  1.0
  O  O117  1  0.58010000  0.05939000  0.65807000  1.0
  O  O118  1  0.25186000  0.20959000  0.94909000  1.0
  O  O119  1  0.58131000  0.27395000  0.00857000  1.0
  O  O120  1  0.74793000  0.20958000  0.76046000  1.0
  O  O121  1  0.41861000  0.27395000  0.76535000  1.0
