# generated using pymatgen
data_Co3H90C133(N9O)2
_symmetry_space_group_name_H-M   'P 1'
_cell_length_a   9.29787000
_cell_length_b   19.04400000
_cell_length_c   19.04590000
_cell_angle_alpha   117.40600000
_cell_angle_beta   99.36480000
_cell_angle_gamma   99.36900000
_symmetry_Int_Tables_number   1
_chemical_formula_structural   Co3H90C133(N9O)2
_chemical_formula_sum   'Co3 H90 C133 N18 O2'
_cell_volume   2843.19319852
_cell_formula_units_Z   1
loop_
 _symmetry_equiv_pos_site_id
 _symmetry_equiv_pos_as_xyz
  1  'x, y, z'
loop_
 _atom_site_type_symbol
 _atom_site_label
 _atom_site_symmetry_multiplicity
 _atom_site_fract_x
 _atom_site_fract_y
 _atom_site_fract_z
 _atom_site_occupancy
  Co  Co0  1  0.50000000  0.00000000  0.50000000  1.0
  Co  Co1  1  0.00000000  0.50000000  0.50000000  1.0
  Co  Co2  1  0.50000000  0.50000000  0.00000000  1.0
  H  H3  1  0.25005000  0.23333000  0.65485000  1.0
  H  H4  1  0.59536000  0.34542000  0.57876000  1.0
  H  H5  1  0.01671000  0.42146000  0.76672000  1.0
  H  H6  1  0.74994000  0.76667000  0.34515000  1.0
  H  H7  1  0.40464000  0.65458000  0.42124000  1.0
  H  H8  1  0.98329000  0.57854000  0.23328000  1.0
  H  H9  1  0.06803000  0.14630000  0.49898000  1.0
  H  H10  1  0.56901000  0.50129000  0.64741000  1.0
  H  H11  1  0.92154000  0.35265000  0.85374000  1.0
  H  H12  1  0.93197000  0.85370000  0.50102000  1.0
  H  H13  1  0.43099000  0.49871000  0.35259000  1.0
  H  H14  1  0.07845000  0.64735000  0.14626000  1.0
  H  H15  1  0.07109000  0.88576000  0.22751000  1.0
  H  H16  1  0.84444000  0.77270000  0.65841000  1.0
  H  H17  1  0.18562000  0.34165000  0.11423000  1.0
  H  H18  1  0.92890000  0.11424000  0.77249000  1.0
  H  H19  1  0.15556000  0.22730000  0.34159000  1.0
  H  H20  1  0.81437000  0.65835000  0.88577000  1.0
  H  H21  1  0.25765000  0.78775000  0.18739000  1.0
  H  H22  1  0.07154000  0.81276000  0.60077000  1.0
  H  H23  1  0.47030000  0.39946000  0.21210000  1.0
  H  H24  1  0.74234000  0.21225000  0.81261000  1.0
  H  H25  1  0.92845000  0.18724000  0.39923000  1.0
  H  H26  1  0.52969000  0.60054000  0.78790000  1.0
  H  H27  1  0.67913000  0.81560000  0.21688000  1.0
  H  H28  1  0.46297000  0.78308000  0.59882000  1.0
  H  H29  1  0.86360000  0.40112000  0.18429000  1.0
  H  H30  1  0.32086000  0.18440000  0.78312000  1.0
  H  H31  1  0.53702000  0.21692000  0.40118000  1.0
  H  H32  1  0.13639000  0.59889000  0.81572000  1.0
  H  H33  1  0.65090000  0.68629000  0.08601000  1.0
  H  H34  1  0.56549000  0.91402000  0.60043000  1.0
  H  H35  1  0.96454000  0.39960000  0.31363000  1.0
  H  H36  1  0.34910000  0.31371000  0.91399000  1.0
  H  H37  1  0.43451000  0.08598000  0.39957000  1.0
  H  H38  1  0.03546000  0.60040000  0.68637000  1.0
  H  H39  1  0.30268000  0.55638000  0.12603000  1.0
  H  H40  1  0.17698000  0.87405000  0.43072000  1.0
  H  H41  1  0.74642000  0.56966000  0.44345000  1.0
  H  H42  1  0.69731000  0.44362000  0.87397000  1.0
  H  H43  1  0.82301000  0.12595000  0.56928000  1.0
  H  H44  1  0.25358000  0.43034000  0.55655000  1.0
  H  H45  1  0.31550000  0.68024000  0.25826000  1.0
  H  H46  1  0.05773000  0.74173000  0.42225000  1.0
  H  H47  1  0.63567000  0.57809000  0.31958000  1.0
  H  H48  1  0.68449000  0.31976000  0.74174000  1.0
  H  H49  1  0.94226000  0.25827000  0.57775000  1.0
  H  H50  1  0.36432000  0.42191000  0.68043000  1.0
  H  H51  1  0.13193000  0.04834000  0.27351000  1.0
  H  H52  1  0.85811000  0.72665000  0.77486000  1.0
  H  H53  1  0.08350000  0.22502000  0.95182000  1.0
  H  H54  1  0.86806000  0.95166000  0.72649000  1.0
  H  H55  1  0.14188000  0.27335000  0.22514000  1.0
  H  H56  1  0.91649000  0.77498000  0.04817000  1.0
  H  H57  1  0.89459000  0.05398000  0.19761000  1.0
  H  H58  1  0.69658000  0.80241000  0.85639000  1.0
  H  H59  1  0.84050000  0.14354000  0.94621000  1.0
  H  H60  1  0.10540000  0.94602000  0.80238000  1.0
  H  H61  1  0.30341000  0.19759000  0.14361000  1.0
  H  H62  1  0.15950000  0.85646000  0.05379000  1.0
  H  H63  1  0.65058000  0.98684000  0.34100000  1.0
  H  H64  1  0.30932000  0.65916000  0.64578000  1.0
  H  H65  1  0.66366000  0.35407000  0.01306000  1.0
  H  H66  1  0.34941000  0.01316000  0.65900000  1.0
  H  H67  1  0.69068000  0.34084000  0.35422000  1.0
  H  H68  1  0.33634000  0.64593000  0.98694000  1.0
  H  H69  1  0.88706000  0.98323000  0.41769000  1.0
  H  H70  1  0.46922000  0.58263000  0.56544000  1.0
  H  H71  1  0.90382000  0.43432000  0.01668000  1.0
  H  H72  1  0.11293000  0.01678000  0.58231000  1.0
  H  H73  1  0.53078000  0.41737000  0.43456000  1.0
  H  H74  1  0.09617000  0.56568000  0.98332000  1.0
  H  H75  1  0.51056000  0.98591000  0.21889000  1.0
  H  H76  1  0.29117000  0.78112000  0.76708000  1.0
  H  H77  1  0.52450000  0.23298000  0.01414000  1.0
  H  H78  1  0.48943000  0.01409000  0.78111000  1.0
  H  H79  1  0.70882000  0.21888000  0.23292000  1.0
  H  H80  1  0.47550000  0.76702000  0.98586000  1.0
  H  H81  1  0.60829000  0.01030000  0.15632000  1.0
  H  H82  1  0.45152000  0.84371000  0.85403000  1.0
  H  H83  1  0.59767000  0.14594000  0.98973000  1.0
  H  H84  1  0.39170000  0.98970000  0.84368000  1.0
  H  H85  1  0.54847000  0.15629000  0.14597000  1.0
  H  H86  1  0.40233000  0.85406000  0.01028000  1.0
  H  H87  1  0.59942000  0.08960000  0.25152000  1.0
  H  H88  1  0.34754000  0.74847000  0.83810000  1.0
  H  H89  1  0.50953000  0.16188000  0.91045000  1.0
  H  H90  1  0.40057000  0.91041000  0.74848000  1.0
  H  H91  1  0.65245000  0.25153000  0.16190000  1.0
  H  H92  1  0.49046000  0.83811000  0.08955000  1.0
  C  C93  1  0.37584000  0.13737000  0.60642000  1.0
  C  C94  1  0.76941000  0.39379000  0.53113000  1.0
  C  C95  1  0.23839000  0.46896000  0.86270000  1.0
  C  C96  1  0.62415000  0.86263000  0.39358000  1.0
  C  C97  1  0.23058000  0.60621000  0.46887000  1.0
  C  C98  1  0.76160000  0.53104000  0.13730000  1.0
  C  C99  1  0.25867000  0.17795000  0.60351000  1.0
  C  C100  1  0.65525000  0.39676000  0.57470000  1.0
  C  C101  1  0.08066000  0.42545000  0.82207000  1.0
  C  C102  1  0.74133000  0.82205000  0.39649000  1.0
  C  C103  1  0.34475000  0.60324000  0.42530000  1.0
  C  C104  1  0.91934000  0.57455000  0.17793000  1.0
  C  C105  1  0.16658000  0.13399000  0.52529000  1.0
  C  C106  1  0.64133000  0.47497000  0.60884000  1.0
  C  C107  1  0.03247000  0.39122000  0.86604000  1.0
  C  C108  1  0.83341000  0.86601000  0.47470000  1.0
  C  C109  1  0.35867000  0.52503000  0.39116000  1.0
  C  C110  1  0.96753000  0.60878000  0.13396000  1.0
  C  C111  1  0.22729000  0.06654000  0.48040000  1.0
  C  C112  1  0.74688000  0.51982000  0.58621000  1.0
  C  C113  1  0.16059000  0.41375000  0.93349000  1.0
  C  C114  1  0.77270000  0.93346000  0.51960000  1.0
  C  C115  1  0.25313000  0.48018000  0.41379000  1.0
  C  C116  1  0.83941000  0.58625000  0.06651000  1.0
  C  C117  1  0.16833000  0.01117000  0.39624000  1.0
  C  C118  1  0.77205000  0.60398000  0.61492000  1.0
  C  C119  1  0.15711000  0.38495000  0.98886000  1.0
  C  C120  1  0.83166000  0.98884000  0.60376000  1.0
  C  C121  1  0.22794000  0.39602000  0.38508000  1.0
  C  C122  1  0.84289000  0.61505000  0.01114000  1.0
  C  C123  1  0.23769000  0.95134000  0.35245000  1.0
  C  C124  1  0.88559000  0.64768000  0.59900000  1.0
  C  C125  1  0.28643000  0.40098000  0.04859000  1.0
  C  C126  1  0.76231000  0.04866000  0.64755000  1.0
  C  C127  1  0.11441000  0.35232000  0.40101000  1.0
  C  C128  1  0.71356000  0.59902000  0.95141000  1.0
  C  C129  1  0.17467000  0.89010000  0.26672000  1.0
  C  C130  1  0.90884000  0.73346000  0.62363000  1.0
  C  C131  1  0.28484000  0.37647000  0.10982000  1.0
  C  C132  1  0.82532000  0.10990000  0.73328000  1.0
  C  C133  1  0.09116000  0.26655000  0.37637000  1.0
  C  C134  1  0.71515000  0.62353000  0.89018000  1.0
  C  C135  1  0.26851000  0.84021000  0.24671000  1.0
  C  C136  1  0.02296000  0.75344000  0.59389000  1.0
  C  C137  1  0.42862000  0.40632000  0.15965000  1.0
  C  C138  1  0.73148000  0.15979000  0.75329000  1.0
  C  C139  1  0.97704000  0.24656000  0.40611000  1.0
  C  C140  1  0.57138000  0.59369000  0.84035000  1.0
  C  C141  1  0.38863000  0.87058000  0.32033000  1.0
  C  C142  1  0.06912000  0.67972000  0.55053000  1.0
  C  C143  1  0.51829000  0.44956000  0.12923000  1.0
  C  C144  1  0.61136000  0.12942000  0.67967000  1.0
  C  C145  1  0.93088000  0.32029000  0.44947000  1.0
  C  C146  1  0.48171000  0.55044000  0.87077000  1.0
  C  C147  1  0.50496000  0.83362000  0.32408000  1.0
  C  C148  1  0.18145000  0.67583000  0.50963000  1.0
  C  C149  1  0.67152000  0.49040000  0.16622000  1.0
  C  C150  1  0.49503000  0.16638000  0.67592000  1.0
  C  C151  1  0.81855000  0.32417000  0.49037000  1.0
  C  C152  1  0.32847000  0.50961000  0.83379000  1.0
  C  C153  1  0.49892000  0.75803000  0.24812000  1.0
  C  C154  1  0.25145000  0.75184000  0.51006000  1.0
  C  C155  1  0.74111000  0.49004000  0.24182000  1.0
  C  C156  1  0.50108000  0.24197000  0.75188000  1.0
  C  C157  1  0.74855000  0.24816000  0.48993000  1.0
  C  C158  1  0.25888000  0.50996000  0.75818000  1.0
  C  C159  1  0.59489000  0.75902000  0.19890000  1.0
  C  C160  1  0.39662000  0.80108000  0.56029000  1.0
  C  C161  1  0.83591000  0.43975000  0.24083000  1.0
  C  C162  1  0.40510000  0.24098000  0.80110000  1.0
  C  C163  1  0.60337000  0.19892000  0.43971000  1.0
  C  C164  1  0.16409000  0.56025000  0.75917000  1.0
  C  C165  1  0.57919000  0.68733000  0.12621000  1.0
  C  C166  1  0.45355000  0.87381000  0.56131000  1.0
  C  C167  1  0.89184000  0.43878000  0.31255000  1.0
  C  C168  1  0.42081000  0.31267000  0.87379000  1.0
  C  C169  1  0.54645000  0.12619000  0.43869000  1.0
  C  C170  1  0.10816000  0.56123000  0.68745000  1.0
  C  C171  1  0.38486000  0.61491000  0.14820000  1.0
  C  C172  1  0.23703000  0.85185000  0.46703000  1.0
  C  C173  1  0.77006000  0.53328000  0.38493000  1.0
  C  C174  1  0.61513000  0.38509000  0.85179000  1.0
  C  C175  1  0.76297000  0.14815000  0.53297000  1.0
  C  C176  1  0.22994000  0.46673000  0.61507000  1.0
  C  C177  1  0.39235000  0.68382000  0.22172000  1.0
  C  C178  1  0.17117000  0.77826000  0.46232000  1.0
  C  C179  1  0.70890000  0.53795000  0.31604000  1.0
  C  C180  1  0.60764000  0.31618000  0.77828000  1.0
  C  C181  1  0.82882000  0.22174000  0.53768000  1.0
  C  C182  1  0.29110000  0.46205000  0.68396000  1.0
  C  C183  1  0.02680000  0.01568000  0.35127000  1.0
  C  C184  1  0.67537000  0.64899000  0.66436000  1.0
  C  C185  1  0.01108000  0.33545000  0.98437000  1.0
  C  C186  1  0.97319000  0.98432000  0.64873000  1.0
  C  C187  1  0.32462000  0.35101000  0.33564000  1.0
  C  C188  1  0.98891000  0.66455000  0.01563000  1.0
  C  C189  1  0.02590000  0.03492000  0.28831000  1.0
  C  C190  1  0.73730000  0.71186000  0.74661000  1.0
  C  C191  1  0.99092000  0.25328000  0.96522000  1.0
  C  C192  1  0.97409000  0.96508000  0.71168000  1.0
  C  C193  1  0.26270000  0.28814000  0.25339000  1.0
  C  C194  1  0.00908000  0.74672000  0.03478000  1.0
  C  C195  1  0.89204000  0.03754000  0.24540000  1.0
  C  C196  1  0.64625000  0.75467000  0.79215000  1.0
  C  C197  1  0.85440000  0.20775000  0.96259000  1.0
  C  C198  1  0.10795000  0.96246000  0.75460000  1.0
  C  C199  1  0.35375000  0.24533000  0.20785000  1.0
  C  C200  1  0.14560000  0.79225000  0.03741000  1.0
  C  C201  1  0.75451000  0.02065000  0.26352000  1.0
  C  C202  1  0.49057000  0.73655000  0.75715000  1.0
  C  C203  1  0.73365000  0.24274000  0.97934000  1.0
  C  C204  1  0.24548000  0.97935000  0.73648000  1.0
  C  C205  1  0.50943000  0.26345000  0.24285000  1.0
  C  C206  1  0.26634000  0.75726000  0.02066000  1.0
  C  C207  1  0.75576000  0.00088000  0.32593000  1.0
  C  C208  1  0.42955000  0.67423000  0.67492000  1.0
  C  C209  1  0.75474000  0.32491000  0.99904000  1.0
  C  C210  1  0.24423000  0.99912000  0.67407000  1.0
  C  C211  1  0.57045000  0.32578000  0.32508000  1.0
  C  C212  1  0.24526000  0.67509000  0.00096000  1.0
  C  C213  1  0.88951000  0.99903000  0.36958000  1.0
  C  C214  1  0.51976000  0.63067000  0.62938000  1.0
  C  C215  1  0.89040000  0.37040000  0.00090000  1.0
  C  C216  1  0.11047000  0.00097000  0.63041000  1.0
  C  C217  1  0.48024000  0.36933000  0.37062000  1.0
  C  C218  1  0.10959000  0.62960000  0.99910000  1.0
  C  C219  1  0.61055000  0.02644000  0.21988000  1.0
  C  C220  1  0.39021000  0.78014000  0.80660000  1.0
  C  C221  1  0.58386000  0.19337000  0.97358000  1.0
  C  C222  1  0.38943000  0.97356000  0.78012000  1.0
  C  C223  1  0.60979000  0.21986000  0.19340000  1.0
  C  C224  1  0.41614000  0.80664000  0.02642000  1.0
  C  C225  1  0.00025000  0.99995000  0.99999000  1.0
  N  N226  1  0.35544000  0.06877000  0.53094000  1.0
  N  N227  1  0.82451000  0.46924000  0.53795000  1.0
  N  N228  1  0.28656000  0.46207000  0.93128000  1.0
  N  N229  1  0.64455000  0.93123000  0.46906000  1.0
  N  N230  1  0.17549000  0.53076000  0.46205000  1.0
  N  N231  1  0.71344000  0.53793000  0.06872000  1.0
  N  N232  1  0.37065000  0.93951000  0.38471000  1.0
  N  N233  1  0.98631000  0.61533000  0.55494000  1.0
  N  N234  1  0.43123000  0.44505000  0.06036000  1.0
  N  N235  1  0.62935000  0.06049000  0.61529000  1.0
  N  N236  1  0.01369000  0.38467000  0.44506000  1.0
  N  N237  1  0.56877000  0.55495000  0.93964000  1.0
  N  N238  1  0.47648000  0.61618000  0.10084000  1.0
  N  N239  1  0.37608000  0.89919000  0.51560000  1.0
  N  N240  1  0.86028000  0.48459000  0.38367000  1.0
  N  N241  1  0.52351000  0.38382000  0.89917000  1.0
  N  N242  1  0.62392000  0.10080000  0.48440000  1.0
  N  N243  1  0.13971000  0.51541000  0.61633000  1.0
  O  O244  1  0.87343000  0.99952000  0.99957000  1.0
  O  O245  1  0.12709000  0.00038000  0.00040000  1.0
