# generated using pymatgen
data_ZnH22C21NO6
_symmetry_space_group_name_H-M   'P 1'
_cell_length_a   10.92800000
_cell_length_b   14.69190000
_cell_length_c   16.21920000
_cell_angle_alpha   88.12100000
_cell_angle_beta   88.32850000
_cell_angle_gamma   71.28420000
_symmetry_Int_Tables_number   1
_chemical_formula_structural   ZnH22C21NO6
_chemical_formula_sum   'Zn2 H44 C42 N2 O12'
_cell_volume   2464.54105207
_cell_formula_units_Z   2
loop_
 _symmetry_equiv_pos_site_id
 _symmetry_equiv_pos_as_xyz
  1  'x, y, z'
loop_
 _atom_site_type_symbol
 _atom_site_label
 _atom_site_symmetry_multiplicity
 _atom_site_fract_x
 _atom_site_fract_y
 _atom_site_fract_z
 _atom_site_occupancy
  Zn  Zn0  1  0.46892000  0.60201000  0.50279000  1.0
  Zn  Zn1  1  0.52237000  0.40260000  0.50525000  1.0
  H  H2  1  0.40868000  0.64692000  0.92042000  1.0
  H  H3  1  0.62766000  0.35280000  0.08648000  1.0
  H  H4  1  0.49641000  0.91619000  0.37539000  1.0
  H  H5  1  0.48620000  0.09084000  0.63411000  1.0
  H  H6  1  0.15801000  0.33071000  0.63406000  1.0
  H  H7  1  0.02818000  0.39550000  0.70086000  1.0
  H  H8  1  0.31727000  0.36092000  0.72681000  1.0
  H  H9  1  0.19159000  0.42976000  0.79157000  1.0
  H  H10  1  0.12161000  0.28444000  0.82540000  1.0
  H  H11  1  0.28591000  0.26147000  0.85079000  1.0
  H  H12  1  0.24659000  0.21369000  0.75991000  1.0
  H  H13  1  0.83295000  0.67477000  0.62619000  1.0
  H  H14  1  0.94445000  0.60649000  0.70125000  1.0
  H  H15  1  0.64843000  0.65781000  0.71062000  1.0
  H  H16  1  0.75394000  0.58148000  0.78202000  1.0
  H  H17  1  0.83607000  0.71382000  0.82333000  1.0
  H  H18  1  0.66485000  0.75259000  0.83315000  1.0
  H  H19  1  0.74140000  0.79266000  0.74775000  1.0
  H  H20  1  0.06480000  0.56824000  0.37730000  1.0
  H  H21  1  0.92840000  0.61592000  0.44422000  1.0
  H  H22  1  0.04901000  0.67452000  0.43071000  1.0
  H  H23  1  0.94989000  0.32857000  0.44010000  1.0
  H  H24  1  0.93943000  0.43368000  0.38059000  1.0
  H  H25  1  0.06890000  0.38779000  0.45054000  1.0
  H  H26  1  0.52245000  0.75555000  0.07483000  1.0
  H  H27  1  0.54827000  0.66630000  0.15624000  1.0
  H  H28  1  0.30527000  0.84202000  0.14120000  1.0
  H  H29  1  0.34102000  0.75532000  0.22306000  1.0
  H  H30  1  0.53169000  0.80415000  0.26108000  1.0
  H  H31  1  0.38835000  0.90578000  0.26043000  1.0
  H  H32  1  0.50227000  0.88917000  0.17730000  1.0
  H  H33  1  0.48568000  0.33612000  0.85223000  1.0
  H  H34  1  0.52286000  0.23816000  0.92606000  1.0
  H  H35  1  0.69323000  0.26152000  0.77814000  1.0
  H  H36  1  0.73573000  0.16490000  0.85137000  1.0
  H  H37  1  0.53812000  0.12044000  0.80904000  1.0
  H  H38  1  0.65064000  0.11427000  0.72624000  1.0
  H  H39  1  0.50661000  0.21451000  0.73256000  1.0
  H  H40  1  0.58439000  0.13507000  0.34446000  1.0
  H  H41  1  0.54094000  0.04360000  0.29470000  1.0
  H  H42  1  0.42019000  0.14950000  0.32825000  1.0
  H  H43  1  0.39168000  0.87513000  0.66425000  1.0
  H  H44  1  0.55678000  0.85664000  0.68111000  1.0
  H  H45  1  0.43945000  0.96421000  0.71459000  1.0
  C  C46  1  0.50432000  0.50899000  0.34172000  1.0
  C  C47  1  0.49725000  0.49435000  0.66602000  1.0
  C  C48  1  0.49412000  0.95586000  0.43132000  1.0
  C  C49  1  0.48781000  0.05133000  0.57815000  1.0
  C  C50  1  0.48056000  0.91285000  0.50822000  1.0
  C  C51  1  0.50179000  0.09421000  0.50120000  1.0
  C  C52  1  0.47686000  0.95946000  0.58368000  1.0
  C  C53  1  0.50406000  0.04799000  0.42571000  1.0
  C  C54  1  0.46898000  0.81935000  0.50869000  1.0
  C  C55  1  0.51611000  0.18689000  0.50043000  1.0
  C  C56  1  0.74305000  0.46705000  0.50741000  1.0
  C  C57  1  0.24805000  0.53749000  0.50706000  1.0
  C  C58  1  0.88365000  0.45704000  0.50889000  1.0
  C  C59  1  0.10728000  0.54766000  0.50707000  1.0
  C  C60  1  0.92682000  0.49900000  0.56991000  1.0
  C  C61  1  0.05742000  0.50696000  0.57004000  1.0
  C  C62  1  0.45664000  0.58236000  0.95685000  1.0
  C  C63  1  0.58021000  0.41756000  0.05008000  1.0
  C  C64  1  0.51343000  0.49471000  0.91668000  1.0
  C  C65  1  0.52214000  0.50501000  0.09035000  1.0
  C  C66  1  0.57616000  0.41108000  0.96491000  1.0
  C  C67  1  0.46059000  0.58882000  0.04190000  1.0
  C  C68  1  0.50941000  0.49278000  0.82987000  1.0
  C  C69  1  0.51928000  0.50718000  0.17741000  1.0
  C  C70  1  0.51321000  0.50830000  0.25257000  1.0
  C  C71  1  0.50395000  0.49359000  0.75491000  1.0
  C  C72  1  0.12741000  0.38872000  0.67934000  1.0
  C  C73  1  0.21962000  0.36757000  0.75090000  1.0
  C  C74  1  0.21837000  0.27695000  0.79941000  1.0
  C  C75  1  0.84895000  0.61749000  0.67441000  1.0
  C  C76  1  0.74244000  0.64393000  0.74003000  1.0
  C  C77  1  0.74615000  0.73032000  0.78869000  1.0
  C  C78  1  0.03219000  0.60457000  0.43622000  1.0
  C  C79  1  0.96605000  0.39870000  0.44161000  1.0
  C  C80  1  0.47390000  0.72065000  0.12068000  1.0
  C  C81  1  0.38451000  0.79366000  0.17762000  1.0
  C  C82  1  0.45595000  0.85140000  0.22155000  1.0
  C  C83  1  0.56490000  0.28037000  0.88277000  1.0
  C  C84  1  0.65370000  0.21646000  0.81937000  1.0
  C  C85  1  0.58305000  0.16335000  0.76902000  1.0
  C  C86  1  0.51376000  0.09616000  0.34395000  1.0
  C  C87  1  0.46483000  0.91176000  0.66523000  1.0
  N  N88  1  0.53056000  0.26177000  0.50080000  1.0
  N  N89  1  0.45801000  0.74339000  0.50782000  1.0
  O  O90  1  0.47632000  0.59088000  0.37475000  1.0
  O  O91  1  0.51586000  0.41326000  0.63319000  1.0
  O  O92  1  0.52513000  0.42744000  0.37805000  1.0
  O  O93  1  0.47340000  0.57621000  0.62985000  1.0
  O  O94  1  0.66552000  0.55269000  0.50186000  1.0
  O  O95  1  0.32584000  0.45181000  0.50574000  1.0
  O  O96  1  0.71232000  0.39040000  0.50763000  1.0
  O  O97  1  0.27914000  0.61404000  0.50407000  1.0
  O  O98  1  0.13013000  0.47746000  0.64001000  1.0
  O  O99  1  0.84665000  0.53002000  0.63771000  1.0
  O  O100  1  0.39639000  0.67547000  0.07671000  1.0
  O  O101  1  0.64025000  0.32435000  0.93027000  1.0
