# generated using pymatgen
data_AlH2C10SO5F3
_symmetry_space_group_name_H-M   'P 1'
_cell_length_a   6.63855000
_cell_length_b   11.16640000
_cell_length_c   12.72160000
_cell_angle_alpha   83.82920000
_cell_angle_beta   75.07710000
_cell_angle_gamma   73.49790000
_symmetry_Int_Tables_number   1
_chemical_formula_structural   AlH2C10SO5F3
_chemical_formula_sum   'Al2 H4 C20 S2 O10 F6'
_cell_volume   873.09547976
_cell_formula_units_Z   2
loop_
 _symmetry_equiv_pos_site_id
 _symmetry_equiv_pos_as_xyz
  1  'x, y, z'
loop_
 _atom_site_type_symbol
 _atom_site_label
 _atom_site_symmetry_multiplicity
 _atom_site_fract_x
 _atom_site_fract_y
 _atom_site_fract_z
 _atom_site_occupancy
  Al  Al0  1  0.50316000  0.49499000  0.51528000  1.0
  Al  Al1  1  0.00213000  0.49965000  0.51317000  1.0
  H  H2  1  0.28193000  0.35213000  0.58429000  1.0
  H  H3  1  0.76728000  0.58448000  0.39101000  1.0
  H  H4  1  0.28368000  0.47171000  0.86136000  1.0
  H  H5  1  0.71584000  0.54364000  0.16238000  1.0
  C  C6  1  0.86138000  0.27047000  0.50324000  1.0
  C  C7  1  0.66079000  0.50629000  0.70797000  1.0
  C  C8  1  0.15741000  0.72195000  0.51492000  1.0
  C  C9  1  0.34477000  0.49756000  0.31671000  1.0
  C  C10  1  0.40736000  0.49127000  0.89350000  1.0
  C  C11  1  0.58997000  0.52637000  0.13060000  1.0
  C  C12  1  0.59631000  0.51143000  0.82686000  1.0
  C  C13  1  0.40342000  0.50312000  0.19740000  1.0
  C  C14  1  0.59058000  0.52387000  0.01992000  1.0
  C  C15  1  0.40361000  0.49849000  0.00397000  1.0
  C  C16  1  0.93952000  0.13019000  0.49453000  1.0
  C  C17  1  0.12064000  0.06832000  0.41296000  1.0
  C  C18  1  0.83921000  0.05818000  0.57399000  1.0
  C  C19  1  0.21874000  0.13554000  0.32295000  1.0
  C  C20  1  0.40208000  0.07893000  0.24709000  1.0
  C  C21  1  0.09420000  0.86314000  0.50359000  1.0
  C  C22  1  0.91424000  0.92664000  0.57764000  1.0
  C  C23  1  0.20342000  0.93384000  0.41896000  1.0
  C  C24  1  0.38659000  0.87882000  0.33661000  1.0
  C  C25  1  0.48775000  0.94872000  0.25494000  1.0
  S  S26  1  0.76895000  0.54024000  0.89750000  1.0
  S  S27  1  0.22748000  0.47922000  0.12620000  1.0
  O  O28  1  0.66880000  0.32068000  0.49547000  1.0
  O  O29  1  0.84552000  0.52332000  0.66073000  1.0
  O  O30  1  0.01940000  0.67043000  0.50095000  1.0
  O  O31  1  0.48629000  0.50535000  0.36522000  1.0
  O  O32  1  0.33714000  0.66782000  0.53714000  1.0
  O  O33  1  0.15491000  0.48664000  0.36233000  1.0
  O  O34  1  0.99303000  0.32378000  0.52232000  1.0
  O  O35  1  0.52884000  0.48246000  0.66129000  1.0
  O  O36  1  0.25596000  0.43935000  0.56010000  1.0
  O  O37  1  0.75028000  0.54999000  0.46501000  1.0
  F  F38  1  0.80667000  0.86433000  0.65942000  1.0
  F  F39  1  0.66907000  0.11175000  0.65419000  1.0
  F  F40  1  0.46753000  0.75337000  0.33245000  1.0
  F  F41  1  0.66340000  0.89248000  0.17937000  1.0
  F  F42  1  0.49487000  0.14525000  0.16346000  1.0
  F  F43  1  0.12815000  0.25840000  0.30687000  1.0
