# generated using pymatgen
data_ZnH5C6N3Cl2O
_symmetry_space_group_name_H-M   'P 1'
_cell_length_a   6.88394000
_cell_length_b   13.30770000
_cell_length_c   19.27680000
_cell_angle_alpha   90.00000000
_cell_angle_beta   89.99990000
_cell_angle_gamma   90.00000000
_symmetry_Int_Tables_number   1
_chemical_formula_structural   ZnH5C6N3Cl2O
_chemical_formula_sum   'Zn8 H40 C48 N24 Cl16 O8'
_cell_volume   1765.93624265
_cell_formula_units_Z   8
loop_
 _symmetry_equiv_pos_site_id
 _symmetry_equiv_pos_as_xyz
  1  'x, y, z'
loop_
 _atom_site_type_symbol
 _atom_site_label
 _atom_site_symmetry_multiplicity
 _atom_site_fract_x
 _atom_site_fract_y
 _atom_site_fract_z
 _atom_site_occupancy
  Zn  Zn0  1  0.50998000  0.84090000  0.40781000  1.0
  Zn  Zn1  1  0.99002000  0.15910000  0.90781000  1.0
  Zn  Zn2  1  0.49002000  0.34090000  0.09219000  1.0
  Zn  Zn3  1  0.00998000  0.65910000  0.59219000  1.0
  Zn  Zn4  1  0.49002000  0.15910000  0.59219000  1.0
  Zn  Zn5  1  0.00998000  0.84090000  0.09219000  1.0
  Zn  Zn6  1  0.50998000  0.65910000  0.90781000  1.0
  Zn  Zn7  1  0.99002000  0.34090000  0.40781000  1.0
  H  H8  1  0.62529000  0.65365000  0.48500000  1.0
  H  H9  1  0.87471000  0.34635000  0.98500000  1.0
  H  H10  1  0.37472000  0.15365000  0.01500000  1.0
  H  H11  1  0.12529000  0.84635000  0.51500000  1.0
  H  H12  1  0.37472000  0.34635000  0.51500000  1.0
  H  H13  1  0.12529000  0.65365000  0.01500000  1.0
  H  H14  1  0.62529000  0.84635000  0.98500000  1.0
  H  H15  1  0.87472000  0.15365000  0.48500000  1.0
  H  H16  1  0.60634000  0.66235000  0.14305000  1.0
  H  H17  1  0.89366000  0.33765000  0.64304000  1.0
  H  H18  1  0.39366000  0.16235000  0.35695000  1.0
  H  H19  1  0.10634000  0.83765000  0.85696000  1.0
  H  H20  1  0.39366000  0.33765000  0.85696000  1.0
  H  H21  1  0.10634000  0.66235000  0.35695000  1.0
  H  H22  1  0.60634000  0.83764000  0.64305000  1.0
  H  H23  1  0.89366000  0.16235000  0.14304000  1.0
  H  H24  1  0.50715000  0.79398000  0.24484000  1.0
  H  H25  1  0.99285000  0.20602000  0.74484000  1.0
  H  H26  1  0.49285000  0.29398000  0.25516000  1.0
  H  H27  1  0.00714000  0.70602000  0.75516000  1.0
  H  H28  1  0.49285000  0.20602000  0.75516000  1.0
  H  H29  1  0.00715000  0.79398000  0.25516000  1.0
  H  H30  1  0.50715000  0.70602000  0.74484000  1.0
  H  H31  1  0.99285000  0.29398000  0.24484000  1.0
  H  H32  1  0.75149000  0.49598000  0.45653000  1.0
  H  H33  1  0.74851000  0.50402000  0.95653000  1.0
  H  H34  1  0.24851000  0.99598000  0.04347000  1.0
  H  H35  1  0.25149000  0.00402000  0.54347000  1.0
  H  H36  1  0.24851000  0.50402000  0.54347000  1.0
  H  H37  1  0.25149000  0.49598000  0.04347000  1.0
  H  H38  1  0.75149000  0.00402000  0.95653000  1.0
  H  H39  1  0.74851000  0.99598000  0.45653000  1.0
  H  H40  1  0.72370000  0.50287000  0.19775000  1.0
  H  H41  1  0.77630000  0.49713000  0.69775000  1.0
  H  H42  1  0.27630000  0.00287000  0.30225000  1.0
  H  H43  1  0.22370000  0.99713000  0.80225000  1.0
  H  H44  1  0.27630000  0.49713000  0.80225000  1.0
  H  H45  1  0.22370000  0.50288000  0.30225000  1.0
  H  H46  1  0.72370000  0.99712000  0.69775000  1.0
  H  H47  1  0.77630000  0.00287000  0.19775000  1.0
  C  C48  1  0.63610000  0.63364000  0.43026000  1.0
  C  C49  1  0.86390000  0.36636000  0.93026000  1.0
  C  C50  1  0.36391000  0.13364000  0.06974000  1.0
  C  C51  1  0.13610000  0.86636000  0.56974000  1.0
  C  C52  1  0.36390000  0.36636000  0.56974000  1.0
  C  C53  1  0.13610000  0.63364000  0.06974000  1.0
  C  C54  1  0.63610000  0.86636000  0.93026000  1.0
  C  C55  1  0.86390000  0.13364000  0.43026000  1.0
  C  C56  1  0.60082000  0.66745000  0.31423000  1.0
  C  C57  1  0.89918000  0.33255000  0.81423000  1.0
  C  C58  1  0.39918000  0.16745000  0.18577000  1.0
  C  C59  1  0.10082000  0.83255000  0.68577000  1.0
  C  C60  1  0.39918000  0.33255000  0.68577000  1.0
  C  C61  1  0.10082000  0.66745000  0.18577000  1.0
  C  C62  1  0.60082000  0.83255000  0.81423000  1.0
  C  C63  1  0.89918000  0.16745000  0.31423000  1.0
  C  C64  1  0.67451000  0.57082000  0.29735000  1.0
  C  C65  1  0.82549000  0.42918000  0.79735000  1.0
  C  C66  1  0.32549000  0.07082000  0.20265000  1.0
  C  C67  1  0.17451000  0.92918000  0.70265000  1.0
  C  C68  1  0.32549000  0.42918000  0.70265000  1.0
  C  C69  1  0.17451000  0.57082000  0.20265000  1.0
  C  C70  1  0.67451000  0.92918000  0.79735000  1.0
  C  C71  1  0.82549000  0.07082000  0.29735000  1.0
  C  C72  1  0.73939000  0.50406000  0.34921000  1.0
  C  C73  1  0.76060000  0.49594000  0.84921000  1.0
  C  C74  1  0.26060000  0.00406000  0.15079000  1.0
  C  C75  1  0.23939000  0.99594000  0.65079000  1.0
  C  C76  1  0.26060000  0.49594000  0.65079000  1.0
  C  C77  1  0.23939000  0.50406000  0.15079000  1.0
  C  C78  1  0.73939000  0.99594000  0.84921000  1.0
  C  C79  1  0.76061000  0.00406000  0.34921000  1.0
  C  C80  1  0.61223000  0.65206000  0.19887000  1.0
  C  C81  1  0.88777000  0.34793000  0.69887000  1.0
  C  C82  1  0.38777000  0.15207000  0.30113000  1.0
  C  C83  1  0.11223000  0.84793000  0.80113000  1.0
  C  C84  1  0.38777000  0.34793000  0.80113000  1.0
  C  C85  1  0.11223000  0.65207000  0.30113000  1.0
  C  C86  1  0.61223000  0.84793000  0.69887000  1.0
  C  C87  1  0.88777000  0.15207000  0.19887000  1.0
  C  C88  1  0.56219000  0.71841000  0.25155000  1.0
  C  C89  1  0.93781000  0.28160000  0.75155000  1.0
  C  C90  1  0.43781000  0.21841000  0.24845000  1.0
  C  C91  1  0.06219000  0.78159000  0.74845000  1.0
  C  C92  1  0.43781000  0.28160000  0.74845000  1.0
  C  C93  1  0.06220000  0.71841000  0.24845000  1.0
  C  C94  1  0.56219000  0.78159000  0.75155000  1.0
  C  C95  1  0.93781000  0.21840000  0.25155000  1.0
  N  N96  1  0.70825000  0.54162000  0.41569000  1.0
  N  N97  1  0.79175000  0.45838000  0.91569000  1.0
  N  N98  1  0.29175000  0.04162000  0.08431000  1.0
  N  N99  1  0.20826000  0.95838000  0.58431000  1.0
  N  N100  1  0.29175000  0.45838000  0.58432000  1.0
  N  N101  1  0.20825000  0.54162000  0.08431000  1.0
  N  N102  1  0.70825000  0.95838000  0.91569000  1.0
  N  N103  1  0.79175000  0.04162000  0.41569000  1.0
  N  N104  1  0.58308000  0.69820000  0.38206000  1.0
  N  N105  1  0.91692000  0.30180000  0.88206000  1.0
  N  N106  1  0.41692000  0.19820000  0.11794000  1.0
  N  N107  1  0.08308000  0.80180000  0.61794000  1.0
  N  N108  1  0.41692000  0.30180000  0.61794000  1.0
  N  N109  1  0.08309000  0.69820000  0.11794000  1.0
  N  N110  1  0.58308000  0.80180000  0.88206000  1.0
  N  N111  1  0.91692000  0.19819000  0.38206000  1.0
  N  N112  1  0.67973000  0.56392000  0.22657000  1.0
  N  N113  1  0.82027000  0.43608000  0.72657000  1.0
  N  N114  1  0.32027000  0.06392000  0.27343000  1.0
  N  N115  1  0.17973000  0.93608000  0.77343000  1.0
  N  N116  1  0.32027000  0.43608000  0.77343000  1.0
  N  N117  1  0.17974000  0.56392000  0.27343000  1.0
  N  N118  1  0.67973000  0.93607000  0.72657000  1.0
  N  N119  1  0.82027000  0.06392000  0.22657000  1.0
  Cl  Cl120  1  0.20783000  0.89190000  0.38518000  1.0
  Cl  Cl121  1  0.29217000  0.10810000  0.88518000  1.0
  Cl  Cl122  1  0.79217000  0.39191000  0.11482000  1.0
  Cl  Cl123  1  0.70783000  0.60810000  0.61482000  1.0
  Cl  Cl124  1  0.79217000  0.10810000  0.61482000  1.0
  Cl  Cl125  1  0.70783000  0.89190000  0.11482000  1.0
  Cl  Cl126  1  0.20783000  0.60810000  0.88518000  1.0
  Cl  Cl127  1  0.29217000  0.39190000  0.38518000  1.0
  Cl  Cl128  1  0.63744000  0.86794000  0.51373000  1.0
  Cl  Cl129  1  0.86256000  0.13206000  0.01373000  1.0
  Cl  Cl130  1  0.36256000  0.36794000  0.98627000  1.0
  Cl  Cl131  1  0.13744000  0.63206000  0.48627000  1.0
  Cl  Cl132  1  0.36256000  0.13206000  0.48627000  1.0
  Cl  Cl133  1  0.13744000  0.86794000  0.98626000  1.0
  Cl  Cl134  1  0.63743000  0.63206000  0.01374000  1.0
  Cl  Cl135  1  0.86256000  0.36794000  0.51373000  1.0
  O  O136  1  0.82127000  0.41992000  0.33934000  1.0
  O  O137  1  0.67872000  0.58008000  0.83934000  1.0
  O  O138  1  0.17872000  0.91992000  0.16066000  1.0
  O  O139  1  0.32127000  0.08008000  0.66066000  1.0
  O  O140  1  0.17872000  0.58008000  0.66066000  1.0
  O  O141  1  0.32128000  0.41992000  0.16066000  1.0
  O  O142  1  0.82127000  0.08008000  0.83934000  1.0
  O  O143  1  0.67872000  0.91991000  0.33934000  1.0
