# generated using pymatgen
data_HoPH6C2O7
_symmetry_space_group_name_H-M   'P 1'
_cell_length_a   6.83263000
_cell_length_b   7.61845000
_cell_length_c   12.85760000
_cell_angle_alpha   90.00030000
_cell_angle_beta   89.99910000
_cell_angle_gamma   89.99900000
_symmetry_Int_Tables_number   1
_chemical_formula_structural   HoPH6C2O7
_chemical_formula_sum   'Ho4 P4 H24 C8 O28'
_cell_volume   669.29015339
_cell_formula_units_Z   4
loop_
 _symmetry_equiv_pos_site_id
 _symmetry_equiv_pos_as_xyz
  1  'x, y, z'
loop_
 _atom_site_type_symbol
 _atom_site_label
 _atom_site_symmetry_multiplicity
 _atom_site_fract_x
 _atom_site_fract_y
 _atom_site_fract_z
 _atom_site_occupancy
  Ho  Ho0  1  0.74997000  0.63706000  0.66392000  1.0
  Ho  Ho1  1  0.24999000  0.13706000  0.83608000  1.0
  Ho  Ho2  1  0.24999000  0.36294000  0.33607000  1.0
  Ho  Ho3  1  0.75001000  0.86295000  0.16392000  1.0
  P  P4  1  0.75002000  0.18730000  0.36437000  1.0
  P  P5  1  0.25004000  0.68731000  0.13562000  1.0
  P  P6  1  0.25000000  0.81269000  0.63563000  1.0
  P  P7  1  0.75001000  0.31269000  0.86437000  1.0
  H  H8  1  0.87995000  0.06061000  0.52121000  1.0
  H  H9  1  0.12053000  0.56047000  0.97877000  1.0
  H  H10  1  0.37989000  0.93940000  0.47881000  1.0
  H  H11  1  0.62048000  0.43951000  0.02123000  1.0
  H  H12  1  0.12049000  0.93951000  0.47877000  1.0
  H  H13  1  0.87988000  0.43941000  0.02120000  1.0
  H  H14  1  0.62053000  0.06048000  0.52124000  1.0
  H  H15  1  0.37993000  0.56059000  0.97879000  1.0
  H  H16  1  0.87044000  0.68243000  0.44928000  1.0
  H  H17  1  0.12964000  0.18237000  0.05076000  1.0
  H  H18  1  0.37045000  0.31757000  0.55073000  1.0
  H  H19  1  0.62965000  0.81763000  0.94924000  1.0
  H  H20  1  0.12964000  0.31764000  0.55077000  1.0
  H  H21  1  0.87046000  0.81757000  0.94926000  1.0
  H  H22  1  0.62964000  0.68237000  0.44924000  1.0
  H  H23  1  0.37045000  0.18243000  0.05073000  1.0
  H  H24  1  0.86174000  0.98269000  0.76592000  1.0
  H  H25  1  0.13744000  0.48200000  0.73419000  1.0
  H  H26  1  0.36175000  0.01731000  0.23407000  1.0
  H  H27  1  0.63742000  0.51805000  0.26580000  1.0
  H  H28  1  0.13747000  0.01798000  0.23419000  1.0
  H  H29  1  0.86169000  0.51726000  0.26594000  1.0
  H  H30  1  0.63746000  0.98202000  0.76582000  1.0
  H  H31  1  0.36171000  0.48270000  0.73408000  1.0
  C  C32  1  0.75011000  0.30103000  0.57130000  1.0
  C  C33  1  0.25013000  0.80100000  0.92870000  1.0
  C  C34  1  0.25009000  0.69899000  0.42871000  1.0
  C  C35  1  0.75010000  0.19900000  0.07130000  1.0
  C  C36  1  0.75019000  0.14015000  0.50443000  1.0
  C  C37  1  0.25018000  0.64015000  0.99557000  1.0
  C  C38  1  0.25014000  0.85983000  0.49558000  1.0
  C  C39  1  0.75014000  0.35985000  0.00442000  1.0
  O  O40  1  0.91143000  0.37231000  0.59908000  1.0
  O  O41  1  0.08876000  0.87227000  0.90095000  1.0
  O  O42  1  0.41143000  0.62769000  0.40093000  1.0
  O  O43  1  0.58875000  0.12776000  0.09905000  1.0
  O  O44  1  0.08874000  0.62774000  0.40094000  1.0
  O  O45  1  0.91143000  0.12771000  0.09906000  1.0
  O  O46  1  0.58876000  0.37225000  0.59905000  1.0
  O  O47  1  0.41146000  0.87231000  0.90093000  1.0
  O  O48  1  0.75022000  0.00687000  0.31166000  1.0
  O  O49  1  0.25023000  0.50687000  0.18834000  1.0
  O  O50  1  0.25017000  0.99312000  0.68834000  1.0
  O  O51  1  0.75018000  0.49313000  0.81165000  1.0
  O  O52  1  0.93447000  0.29484000  0.33951000  1.0
  O  O53  1  0.06533000  0.79447000  0.16037000  1.0
  O  O54  1  0.43444000  0.70516000  0.66048000  1.0
  O  O55  1  0.56531000  0.20552000  0.83962000  1.0
  O  O56  1  0.06529000  0.70554000  0.66038000  1.0
  O  O57  1  0.93447000  0.20518000  0.83953000  1.0
  O  O58  1  0.56529000  0.29445000  0.33963000  1.0
  O  O59  1  0.43449000  0.79483000  0.16047000  1.0
  O  O60  1  0.75001000  0.70596000  0.49144000  1.0
  O  O61  1  0.25001000  0.20596000  0.00856000  1.0
  O  O62  1  0.25002000  0.29404000  0.50855000  1.0
  O  O63  1  0.75004000  0.79404000  0.99144000  1.0
  O  O64  1  0.74983000  0.91635000  0.73835000  1.0
  O  O65  1  0.24986000  0.41635000  0.76165000  1.0
  O  O66  1  0.24987000  0.08365000  0.26165000  1.0
  O  O67  1  0.74987000  0.58366000  0.23835000  1.0
