# generated using pymatgen
data_HoH17C25N4O9
_symmetry_space_group_name_H-M   'P 1'
_cell_length_a   9.71261000
_cell_length_b   13.10630000
_cell_length_c   22.07670000
_cell_angle_alpha   89.99940000
_cell_angle_beta   89.99990000
_cell_angle_gamma   104.29800000
_symmetry_Int_Tables_number   1
_chemical_formula_structural   HoH17C25N4O9
_chemical_formula_sum   'Ho4 H68 C100 N16 O36'
_cell_volume   2723.23363591
_cell_formula_units_Z   4
loop_
 _symmetry_equiv_pos_site_id
 _symmetry_equiv_pos_as_xyz
  1  'x, y, z'
loop_
 _atom_site_type_symbol
 _atom_site_label
 _atom_site_symmetry_multiplicity
 _atom_site_fract_x
 _atom_site_fract_y
 _atom_site_fract_z
 _atom_site_occupancy
  Ho  Ho0  1  0.35316000  0.62444000  0.34319000  1.0
  Ho  Ho1  1  0.64683000  0.87555000  0.84319000  1.0
  Ho  Ho2  1  0.64683000  0.37555000  0.65681000  1.0
  Ho  Ho3  1  0.35317000  0.12445000  0.15681000  1.0
  H  H4  1  0.71625000  0.42913000  0.09769000  1.0
  H  H5  1  0.28375000  0.07088000  0.59768000  1.0
  H  H6  1  0.28374000  0.57089000  0.90231000  1.0
  H  H7  1  0.71626000  0.92911000  0.40231000  1.0
  H  H8  1  0.88116000  0.60811000  0.10996000  1.0
  H  H9  1  0.11885000  0.89189000  0.60996000  1.0
  H  H10  1  0.11884000  0.39191000  0.89004000  1.0
  H  H11  1  0.88116000  0.10809000  0.39004000  1.0
  H  H12  1  0.69316000  0.63820000  0.28377000  1.0
  H  H13  1  0.30684000  0.86178000  0.78376000  1.0
  H  H14  1  0.30683000  0.36179000  0.71624000  1.0
  H  H15  1  0.69317000  0.13821000  0.21624000  1.0
  H  H16  1  0.06770000  0.66817000  0.19426000  1.0
  H  H17  1  0.93230000  0.83182000  0.69426000  1.0
  H  H18  1  0.93231000  0.33184000  0.80575000  1.0
  H  H19  1  0.06769000  0.16816000  0.30575000  1.0
  H  H20  1  0.24731000  0.84011000  0.20465000  1.0
  H  H21  1  0.75269000  0.65988000  0.70465000  1.0
  H  H22  1  0.75269000  0.15990000  0.79536000  1.0
  H  H23  1  0.24731000  0.34010000  0.29535000  1.0
  H  H24  1  0.89651000  0.98487000  0.23537000  1.0
  H  H25  1  0.10351000  0.51512000  0.73535000  1.0
  H  H26  1  0.10349000  0.01514000  0.76464000  1.0
  H  H27  1  0.89651000  0.48486000  0.26463000  1.0
  H  H28  1  0.73040000  0.80847000  0.22046000  1.0
  H  H29  1  0.26961000  0.69152000  0.72045000  1.0
  H  H30  1  0.26961000  0.19153000  0.77955000  1.0
  H  H31  1  0.73040000  0.30847000  0.27954000  1.0
  H  H32  1  0.36455000  0.40427000  0.42221000  1.0
  H  H33  1  0.63544000  0.09573000  0.92220000  1.0
  H  H34  1  0.63544000  0.59574000  0.57779000  1.0
  H  H35  1  0.36457000  0.90428000  0.07780000  1.0
  H  H36  1  0.20850000  0.24759000  0.47112000  1.0
  H  H37  1  0.79147000  0.25241000  0.97112000  1.0
  H  H38  1  0.79148000  0.75242000  0.52888000  1.0
  H  H39  1  0.20854000  0.74759000  0.02888000  1.0
  H  H40  1  0.94548000  0.23741000  0.48137000  1.0
  H  H41  1  0.05449000  0.26259000  0.98137000  1.0
  H  H42  1  0.05449000  0.76259000  0.51862000  1.0
  H  H43  1  0.94551000  0.73741000  0.01863000  1.0
  H  H44  1  0.74434000  0.32125000  0.46222000  1.0
  H  H45  1  0.25563000  0.17876000  0.96224000  1.0
  H  H46  1  0.25564000  0.67876000  0.53776000  1.0
  H  H47  1  0.74437000  0.82124000  0.03777000  1.0
  H  H48  1  0.66198000  0.47843000  0.43095000  1.0
  H  H49  1  0.33802000  0.02159000  0.93096000  1.0
  H  H50  1  0.33801000  0.52159000  0.56904000  1.0
  H  H51  1  0.66199000  0.97842000  0.06904000  1.0
  H  H52  1  0.71992000  0.66440000  0.39407000  1.0
  H  H53  1  0.28008000  0.83562000  0.89407000  1.0
  H  H54  1  0.28008000  0.33562000  0.60594000  1.0
  H  H55  1  0.71993000  0.16439000  0.10593000  1.0
  H  H56  1  0.90202000  0.81997000  0.35448000  1.0
  H  H57  1  0.09799000  0.68005000  0.85447000  1.0
  H  H58  1  0.09798000  0.18005000  0.64553000  1.0
  H  H59  1  0.90202000  0.31995000  0.14552000  1.0
  H  H60  1  0.15400000  0.80457000  0.34051000  1.0
  H  H61  1  0.84601000  0.69544000  0.84051000  1.0
  H  H62  1  0.84600000  0.19544000  0.65949000  1.0
  H  H63  1  0.15399000  0.30457000  0.15949000  1.0
  H  H64  1  0.32274000  0.61225000  0.21396000  1.0
  H  H65  1  0.67729000  0.88775000  0.71396000  1.0
  H  H66  1  0.67728000  0.38774000  0.78603000  1.0
  H  H67  1  0.32273000  0.11225000  0.28604000  1.0
  H  H68  1  0.43753000  0.72511000  0.21822000  1.0
  H  H69  1  0.56249000  0.77488000  0.71822000  1.0
  H  H70  1  0.56248000  0.27488000  0.78178000  1.0
  H  H71  1  0.43753000  0.22511000  0.28178000  1.0
  C  C72  1  0.52308000  0.44029000  0.29125000  1.0
  C  C73  1  0.47691000  0.05970000  0.79125000  1.0
  C  C74  1  0.47691000  0.55970000  0.70875000  1.0
  C  C75  1  0.52309000  0.94029000  0.20875000  1.0
  C  C76  1  0.61133000  0.49036000  0.23769000  1.0
  C  C77  1  0.38866000  0.00963000  0.73769000  1.0
  C  C78  1  0.38867000  0.50964000  0.76231000  1.0
  C  C79  1  0.61133000  0.99036000  0.26231000  1.0
  C  C80  1  0.61676000  0.43245000  0.18457000  1.0
  C  C81  1  0.38324000  0.06755000  0.68457000  1.0
  C  C82  1  0.38324000  0.56755000  0.81543000  1.0
  C  C83  1  0.61676000  0.93244000  0.31544000  1.0
  C  C84  1  0.71363000  0.47491000  0.13874000  1.0
  C  C85  1  0.28637000  0.02509000  0.63873000  1.0
  C  C86  1  0.28637000  0.52510000  0.86126000  1.0
  C  C87  1  0.71363000  0.97490000  0.36126000  1.0
  C  C88  1  0.80511000  0.57438000  0.14530000  1.0
  C  C89  1  0.19490000  0.92562000  0.64530000  1.0
  C  C90  1  0.19489000  0.42563000  0.85470000  1.0
  C  C91  1  0.80511000  0.07437000  0.35470000  1.0
  C  C92  1  0.79682000  0.63207000  0.19783000  1.0
  C  C93  1  0.20318000  0.86793000  0.69782000  1.0
  C  C94  1  0.20318000  0.36794000  0.80218000  1.0
  C  C95  1  0.79682000  0.13206000  0.30218000  1.0
  C  C96  1  0.69923000  0.59185000  0.24337000  1.0
  C  C97  1  0.30077000  0.90814000  0.74337000  1.0
  C  C98  1  0.30077000  0.40815000  0.75663000  1.0
  C  C99  1  0.69922000  0.09185000  0.25663000  1.0
  C  C100  1  0.52004000  0.32549000  0.17510000  1.0
  C  C101  1  0.47996000  0.17451000  0.67510000  1.0
  C  C102  1  0.47997000  0.67451000  0.82490000  1.0
  C  C103  1  0.52004000  0.82548000  0.32490000  1.0
  C  C104  1  0.03748000  0.74184000  0.20166000  1.0
  C  C105  1  0.96252000  0.75815000  0.70166000  1.0
  C  C106  1  0.96252000  0.25816000  0.79835000  1.0
  C  C107  1  0.03748000  0.24184000  0.29835000  1.0
  C  C108  1  0.13446000  0.83634000  0.20823000  1.0
  C  C109  1  0.86554000  0.66365000  0.70823000  1.0
  C  C110  1  0.86554000  0.16366000  0.79177000  1.0
  C  C111  1  0.13446000  0.33634000  0.29177000  1.0
  C  C112  1  0.08864000  0.93061000  0.21970000  1.0
  C  C113  1  0.91136000  0.56938000  0.71970000  1.0
  C  C114  1  0.91136000  0.06939000  0.78030000  1.0
  C  C115  1  0.08864000  0.43060000  0.28030000  1.0
  C  C116  1  0.93847000  0.91669000  0.22644000  1.0
  C  C117  1  0.06153000  0.58330000  0.72642000  1.0
  C  C118  1  0.06153000  0.08331000  0.77357000  1.0
  C  C119  1  0.93848000  0.41668000  0.27357000  1.0
  C  C120  1  0.84556000  0.82024000  0.21873000  1.0
  C  C121  1  0.15445000  0.67974000  0.71871000  1.0
  C  C122  1  0.15445000  0.17976000  0.78128000  1.0
  C  C123  1  0.84555000  0.32024000  0.28128000  1.0
  C  C124  1  0.06525000  0.47860000  0.41530000  1.0
  C  C125  1  0.93474000  0.02140000  0.91531000  1.0
  C  C126  1  0.93474000  0.52140000  0.58470000  1.0
  C  C127  1  0.06526000  0.97861000  0.08470000  1.0
  C  C128  1  0.25189000  0.39946000  0.42811000  1.0
  C  C129  1  0.74809000  0.10054000  0.92811000  1.0
  C  C130  1  0.74809000  0.60054000  0.57188000  1.0
  C  C131  1  0.25192000  0.89947000  0.07189000  1.0
  C  C132  1  0.16195000  0.31005000  0.45494000  1.0
  C  C133  1  0.83803000  0.18995000  0.95494000  1.0
  C  C134  1  0.83803000  0.68995000  0.54505000  1.0
  C  C135  1  0.16197000  0.81005000  0.04506000  1.0
  C  C136  1  0.01881000  0.30497000  0.46043000  1.0
  C  C137  1  0.98117000  0.19503000  0.96043000  1.0
  C  C138  1  0.98117000  0.69503000  0.53956000  1.0
  C  C139  1  0.01884000  0.80498000  0.03957000  1.0
  C  C140  1  0.96583000  0.39029000  0.44020000  1.0
  C  C141  1  0.03416000  0.10971000  0.94020000  1.0
  C  C142  1  0.03415000  0.60971000  0.55980000  1.0
  C  C143  1  0.96585000  0.89029000  0.05980000  1.0
  C  C144  1  0.81901000  0.39079000  0.44422000  1.0
  C  C145  1  0.18097000  0.10922000  0.94423000  1.0
  C  C146  1  0.18097000  0.60922000  0.55577000  1.0
  C  C147  1  0.81903000  0.89078000  0.05578000  1.0
  C  C148  1  0.77341000  0.47712000  0.42704000  1.0
  C  C149  1  0.22659000  0.02289000  0.92704000  1.0
  C  C150  1  0.22659000  0.52289000  0.57296000  1.0
  C  C151  1  0.77342000  0.97711000  0.07297000  1.0
  C  C152  1  0.87171000  0.56896000  0.40404000  1.0
  C  C153  1  0.12828000  0.93105000  0.90404000  1.0
  C  C154  1  0.12828000  0.43106000  0.59596000  1.0
  C  C155  1  0.87172000  0.06895000  0.09596000  1.0
  C  C156  1  0.83043000  0.66168000  0.38849000  1.0
  C  C157  1  0.16958000  0.83834000  0.88849000  1.0
  C  C158  1  0.16957000  0.33834000  0.61151000  1.0
  C  C159  1  0.83043000  0.16167000  0.11150000  1.0
  C  C160  1  0.93111000  0.74749000  0.36674000  1.0
  C  C161  1  0.06889000  0.75252000  0.86674000  1.0
  C  C162  1  0.06888000  0.25252000  0.63327000  1.0
  C  C163  1  0.93112000  0.24749000  0.13326000  1.0
  C  C164  1  0.07182000  0.73953000  0.35879000  1.0
  C  C165  1  0.92819000  0.76048000  0.85879000  1.0
  C  C166  1  0.92818000  0.26048000  0.64121000  1.0
  C  C167  1  0.07182000  0.23953000  0.14121000  1.0
  C  C168  1  0.01706000  0.56918000  0.39645000  1.0
  C  C169  1  0.98294000  0.93082000  0.89646000  1.0
  C  C170  1  0.98294000  0.43083000  0.60355000  1.0
  C  C171  1  0.01707000  0.06918000  0.10355000  1.0
  N  N172  1  0.89431000  0.73332000  0.20581000  1.0
  N  N173  1  0.10569000  0.76667000  0.70580000  1.0
  N  N174  1  0.10569000  0.26669000  0.79420000  1.0
  N  N175  1  0.89431000  0.23331000  0.29420000  1.0
  N  N176  1  0.20531000  0.48122000  0.40864000  1.0
  N  N177  1  0.79467000  0.01878000  0.90864000  1.0
  N  N178  1  0.79468000  0.51878000  0.59136000  1.0
  N  N179  1  0.20532000  0.98122000  0.09136000  1.0
  N  N180  1  0.11370000  0.65277000  0.37245000  1.0
  N  N181  1  0.88630000  0.84723000  0.87246000  1.0
  N  N182  1  0.88629000  0.34723000  0.62754000  1.0
  N  N183  1  0.11371000  0.15277000  0.12754000  1.0
  N  N184  1  0.46566000  0.67835000  0.46409000  1.0
  N  N185  1  0.53434000  0.82164000  0.96410000  1.0
  N  N186  1  0.53433000  0.32166000  0.53590000  1.0
  N  N187  1  0.46567000  0.17836000  0.03591000  1.0
  O  O188  1  0.46579000  0.49874000  0.32371000  1.0
  O  O189  1  0.53419000  0.00124000  0.82371000  1.0
  O  O190  1  0.53419000  0.50125000  0.67629000  1.0
  O  O191  1  0.46581000  0.99875000  0.17629000  1.0
  O  O192  1  0.51684000  0.34494000  0.30235000  1.0
  O  O193  1  0.48317000  0.15505000  0.80235000  1.0
  O  O194  1  0.48317000  0.65505000  0.69765000  1.0
  O  O195  1  0.51683000  0.84494000  0.19765000  1.0
  O  O196  1  0.38607000  0.31201000  0.17839000  1.0
  O  O197  1  0.61394000  0.18799000  0.67838000  1.0
  O  O198  1  0.61394000  0.68799000  0.82162000  1.0
  O  O199  1  0.38607000  0.81201000  0.32161000  1.0
  O  O200  1  0.57729000  0.25009000  0.16213000  1.0
  O  O201  1  0.42271000  0.24991000  0.66213000  1.0
  O  O202  1  0.42272000  0.74991000  0.83787000  1.0
  O  O203  1  0.57728000  0.75008000  0.33787000  1.0
  O  O204  1  0.17552000  0.02193000  0.22291000  1.0
  O  O205  1  0.82448000  0.47806000  0.72290000  1.0
  O  O206  1  0.82448000  0.97808000  0.77709000  1.0
  O  O207  1  0.17553000  0.52192000  0.27709000  1.0
  O  O208  1  0.49812000  0.60383000  0.43393000  1.0
  O  O209  1  0.50187000  0.89617000  0.93394000  1.0
  O  O210  1  0.50186000  0.39618000  0.56607000  1.0
  O  O211  1  0.49814000  0.10384000  0.06607000  1.0
  O  O212  1  0.37281000  0.72020000  0.43954000  1.0
  O  O213  1  0.62720000  0.77980000  0.93954000  1.0
  O  O214  1  0.62718000  0.27981000  0.56045000  1.0
  O  O215  1  0.37282000  0.22020000  0.06046000  1.0
  O  O216  1  0.51967000  0.70836000  0.51385000  1.0
  O  O217  1  0.48035000  0.79164000  0.01386000  1.0
  O  O218  1  0.48034000  0.29167000  0.48614000  1.0
  O  O219  1  0.51967000  0.20836000  0.98615000  1.0
  O  O220  1  0.40161000  0.65432000  0.23709000  1.0
  O  O221  1  0.59841000  0.84568000  0.73709000  1.0
  O  O222  1  0.59839000  0.34567000  0.76290000  1.0
  O  O223  1  0.40161000  0.15432000  0.26290000  1.0
