# generated using pymatgen
data_ZnH20C32N4(OF)8
_symmetry_space_group_name_H-M   'P 1'
_cell_length_a   6.24864000
_cell_length_b   9.54504000
_cell_length_c   13.64860000
_cell_angle_alpha   104.46100000
_cell_angle_beta   94.39430000
_cell_angle_gamma   94.84850000
_symmetry_Int_Tables_number   1
_chemical_formula_structural   ZnH20C32N4(OF)8
_chemical_formula_sum   'Zn1 H20 C32 N4 O8 F8'
_cell_volume   781.39972224
_cell_formula_units_Z   1
loop_
 _symmetry_equiv_pos_site_id
 _symmetry_equiv_pos_as_xyz
  1  'x, y, z'
loop_
 _atom_site_type_symbol
 _atom_site_label
 _atom_site_symmetry_multiplicity
 _atom_site_fract_x
 _atom_site_fract_y
 _atom_site_fract_z
 _atom_site_occupancy
  Zn  Zn0  1  0.00000000  0.50000000  0.50000000  1.0
  H  H1  1  0.98729000  0.90431000  0.40724000  1.0
  H  H2  1  0.01271000  0.09569000  0.59276000  1.0
  H  H3  1  0.83471000  0.99422000  0.32970000  1.0
  H  H4  1  0.16529000  0.00579000  0.67030000  1.0
  H  H5  1  0.10190000  0.85723000  0.23142000  1.0
  H  H6  1  0.89809000  0.14277000  0.76857000  1.0
  H  H7  1  0.83755000  0.78071000  0.17872000  1.0
  H  H8  1  0.16245000  0.21929000  0.82128000  1.0
  H  H9  1  0.99376000  0.69181000  0.25593000  1.0
  H  H10  1  0.00624000  0.30819000  0.74406000  1.0
  H  H11  1  0.57542000  0.08811000  0.97447000  1.0
  H  H12  1  0.42458000  0.91189000  0.02553000  1.0
  H  H13  1  0.84813000  0.12738000  0.95167000  1.0
  H  H14  1  0.15186000  0.87262000  0.04833000  1.0
  H  H15  1  0.58459000  0.23328000  0.84472000  1.0
  H  H16  1  0.41541000  0.76672000  0.15528000  1.0
  H  H17  1  0.76196000  0.37377000  0.93079000  1.0
  H  H18  1  0.23804000  0.62623000  0.06921000  1.0
  H  H19  1  0.49167000  0.33554000  0.95794000  1.0
  H  H20  1  0.50833000  0.66446000  0.04206000  1.0
  C  C21  1  0.25415000  0.73662000  0.67649000  1.0
  C  C22  1  0.74585000  0.26338000  0.32351000  1.0
  C  C23  1  0.44879000  0.83752000  0.69931000  1.0
  C  C24  1  0.55121000  0.16248000  0.30069000  1.0
  C  C25  1  0.54662000  0.82201000  0.61208000  1.0
  C  C26  1  0.45337000  0.17799000  0.38792000  1.0
  C  C27  1  0.41879000  0.70808000  0.53456000  1.0
  C  C28  1  0.58121000  0.29192000  0.46544000  1.0
  C  C29  1  0.47015000  0.65517000  0.43458000  1.0
  C  C30  1  0.52985000  0.34483000  0.56542000  1.0
  C  C31  1  0.34988000  0.54382000  0.35856000  1.0
  C  C32  1  0.65012000  0.45618000  0.64144000  1.0
  C  C33  1  0.40372000  0.49126000  0.25542000  1.0
  C  C34  1  0.59628000  0.50874000  0.74458000  1.0
  C  C35  1  0.24223000  0.38754000  0.20478000  1.0
  C  C36  1  0.75777000  0.61246000  0.79522000  1.0
  C  C37  1  0.08792000  0.37271000  0.27656000  1.0
  C  C38  1  0.91208000  0.62729000  0.72344000  1.0
  C  C39  1  0.89684000  0.27776000  0.25484000  1.0
  C  C40  1  0.10316000  0.72224000  0.74516000  1.0
  C  C41  1  0.68263000  0.71869000  0.41050000  1.0
  C  C42  1  0.31738000  0.28131000  0.58950000  1.0
  C  C43  1  0.87252000  0.88854000  0.33955000  1.0
  C  C44  1  0.12748000  0.11146000  0.66045000  1.0
  C  C45  1  0.95475000  0.79740000  0.24565000  1.0
  C  C46  1  0.04525000  0.20260000  0.75434000  1.0
  C  C47  1  0.84973000  0.18086000  0.14780000  1.0
  C  C48  1  0.15027000  0.81913000  0.85220000  1.0
  C  C49  1  0.70407000  0.17610000  0.97950000  1.0
  C  C50  1  0.29594000  0.82390000  0.02050000  1.0
  C  C51  1  0.63161000  0.28662000  0.92542000  1.0
  C  C52  1  0.36840000  0.71338000  0.07458000  1.0
  N  N53  1  0.24291000  0.65970000  0.57624000  1.0
  N  N54  1  0.75709000  0.34030000  0.42376000  1.0
  N  N55  1  0.16041000  0.46748000  0.36899000  1.0
  N  N56  1  0.83959000  0.53252000  0.63101000  1.0
  O  O57  1  0.85606000  0.68005000  0.43633000  1.0
  O  O58  1  0.14394000  0.31995000  0.56367000  1.0
  O  O59  1  0.66526000  0.82240000  0.36150000  1.0
  O  O60  1  0.33474000  0.17761000  0.63850000  1.0
  O  O61  1  0.89261000  0.05520000  0.12284000  1.0
  O  O62  1  0.10740000  0.94480000  0.87716000  1.0
  O  O63  1  0.75525000  0.25320000  0.08704000  1.0
  O  O64  1  0.24475000  0.74679000  0.91296000  1.0
  F  F65  1  0.52001000  0.93118000  0.78936000  1.0
  F  F66  1  0.47999000  0.06882000  0.21064000  1.0
  F  F67  1  0.72869000  0.89943000  0.60056000  1.0
  F  F68  1  0.27131000  0.10056000  0.39944000  1.0
  F  F69  1  0.58186000  0.53592000  0.21771000  1.0
  F  F70  1  0.41814000  0.46408000  0.78229000  1.0
  F  F71  1  0.22928000  0.31216000  0.10674000  1.0
  F  F72  1  0.77072000  0.68784000  0.89326000  1.0
