# generated using pymatgen
data_MnH16C8(NO5)2
_symmetry_space_group_name_H-M   'P 1'
_cell_length_a   8.08190000
_cell_length_b   8.08191000
_cell_length_c   9.47273000
_cell_angle_alpha   90.00000000
_cell_angle_beta   90.00000000
_cell_angle_gamma   90.00000000
_symmetry_Int_Tables_number   1
_chemical_formula_structural   MnH16C8(NO5)2
_chemical_formula_sum   'Mn2 H32 C16 N4 O20'
_cell_volume   618.73209035
_cell_formula_units_Z   2
loop_
 _symmetry_equiv_pos_site_id
 _symmetry_equiv_pos_as_xyz
  1  'x, y, z'
loop_
 _atom_site_type_symbol
 _atom_site_label
 _atom_site_symmetry_multiplicity
 _atom_site_fract_x
 _atom_site_fract_y
 _atom_site_fract_z
 _atom_site_occupancy
  Mn  Mn0  1  0.50000000  0.50000000  0.00000000  1.0
  Mn  Mn1  1  0.00000000  0.00000000  0.50000000  1.0
  H  H2  1  0.01939000  0.28992000  0.80612000  1.0
  H  H3  1  0.98061000  0.71008000  0.80612000  1.0
  H  H4  1  0.28992000  0.98061000  0.19388000  1.0
  H  H5  1  0.71008000  0.01939000  0.19388000  1.0
  H  H6  1  0.48061000  0.78992000  0.69388000  1.0
  H  H7  1  0.51939000  0.21008000  0.69388000  1.0
  H  H8  1  0.21008000  0.48061000  0.30612000  1.0
  H  H9  1  0.78992000  0.51939000  0.30612000  1.0
  H  H10  1  0.85855000  0.42909000  0.75897000  1.0
  H  H11  1  0.14145000  0.57091000  0.75897000  1.0
  H  H12  1  0.42909000  0.14145000  0.24103000  1.0
  H  H13  1  0.57091000  0.85855000  0.24103000  1.0
  H  H14  1  0.64144000  0.92909000  0.74103000  1.0
  H  H15  1  0.35855000  0.07091000  0.74103000  1.0
  H  H16  1  0.07091000  0.64144000  0.25897000  1.0
  H  H17  1  0.92909000  0.35855000  0.25897000  1.0
  H  H18  1  0.08595000  0.44192000  0.00146000  1.0
  H  H19  1  0.91405000  0.55808000  0.00146000  1.0
  H  H20  1  0.44192000  0.91405000  0.99854000  1.0
  H  H21  1  0.55808000  0.08595000  0.99854000  1.0
  H  H22  1  0.41405000  0.94192000  0.49854000  1.0
  H  H23  1  0.58595000  0.05808000  0.49854000  1.0
  H  H24  1  0.05808000  0.41405000  0.50146000  1.0
  H  H25  1  0.94192000  0.58595000  0.50146000  1.0
  H  H26  1  0.45317000  0.58999000  0.28572000  1.0
  H  H27  1  0.54683000  0.41001000  0.28572000  1.0
  H  H28  1  0.58999000  0.54683000  0.71428000  1.0
  H  H29  1  0.41001000  0.45317000  0.71428000  1.0
  H  H30  1  0.04683000  0.08999000  0.21428000  1.0
  H  H31  1  0.95317000  0.91001000  0.21428000  1.0
  H  H32  1  0.91001000  0.04683000  0.78572000  1.0
  H  H33  1  0.08999000  0.95317000  0.78572000  1.0
  C  C34  1  0.79187000  0.27084000  0.92903000  1.0
  C  C35  1  0.20814000  0.72916000  0.92903000  1.0
  C  C36  1  0.27084000  0.20814000  0.07097000  1.0
  C  C37  1  0.72916000  0.79187000  0.07098000  1.0
  C  C38  1  0.70813000  0.77084000  0.57098000  1.0
  C  C39  1  0.29186000  0.22916000  0.57097000  1.0
  C  C40  1  0.22916000  0.70813000  0.42903000  1.0
  C  C41  1  0.77084000  0.29186000  0.42903000  1.0
  C  C42  1  0.92138000  0.36920000  0.84818000  1.0
  C  C43  1  0.07862000  0.63080000  0.84818000  1.0
  C  C44  1  0.36920000  0.07862000  0.15182000  1.0
  C  C45  1  0.63080000  0.92138000  0.15182000  1.0
  C  C46  1  0.57862000  0.86920000  0.65182000  1.0
  C  C47  1  0.42138000  0.13080000  0.65182000  1.0
  C  C48  1  0.13080000  0.57862000  0.34818000  1.0
  C  C49  1  0.86920000  0.42138000  0.34818000  1.0
  N  N50  1  0.00000000  0.50000000  0.93576000  1.0
  N  N51  1  0.50000000  0.00000000  0.06424000  1.0
  N  N52  1  0.50000000  0.00000000  0.56424000  1.0
  N  N53  1  0.00000000  0.50000000  0.43576000  1.0
  O  O54  1  0.71574000  0.34327000  0.02904000  1.0
  O  O55  1  0.28426000  0.65673000  0.02904000  1.0
  O  O56  1  0.34327000  0.28426000  0.97096000  1.0
  O  O57  1  0.65673000  0.71574000  0.97096000  1.0
  O  O58  1  0.78426000  0.84327000  0.47096000  1.0
  O  O59  1  0.21574000  0.15673000  0.47096000  1.0
  O  O60  1  0.15673000  0.78426000  0.52904000  1.0
  O  O61  1  0.84327000  0.21574000  0.52904000  1.0
  O  O62  1  0.76138000  0.12487000  0.88706000  1.0
  O  O63  1  0.23862000  0.87513000  0.88706000  1.0
  O  O64  1  0.12487000  0.23862000  0.11294000  1.0
  O  O65  1  0.87513000  0.76139000  0.11294000  1.0
  O  O66  1  0.73861000  0.62487000  0.61294000  1.0
  O  O67  1  0.26138000  0.37513000  0.61294000  1.0
  O  O68  1  0.37513000  0.73861000  0.38706000  1.0
  O  O69  1  0.62487000  0.26138000  0.38706000  1.0
  O  O70  1  0.50000000  0.50000000  0.22456000  1.0
  O  O71  1  0.50000000  0.50000000  0.77544000  1.0
  O  O72  1  0.00000000  0.00000000  0.27544000  1.0
  O  O73  1  0.00000000  0.00000000  0.72456000  1.0
