# generated using pymatgen
data_SrZrCdH8(C2O5)4
_symmetry_space_group_name_H-M   'P 1'
_cell_length_a   8.56626000
_cell_length_b   9.12107735
_cell_length_c   9.12107735
_cell_angle_alpha   77.28776654
_cell_angle_beta   62.01918820
_cell_angle_gamma   62.01918820
_symmetry_Int_Tables_number   1
_chemical_formula_structural   SrZrCdH8(C2O5)4
_chemical_formula_sum   'Sr1 Zr1 Cd1 H8 C8 O20'
_cell_volume   555.78649146
_cell_formula_units_Z   1
loop_
 _symmetry_equiv_pos_site_id
 _symmetry_equiv_pos_as_xyz
  1  'x, y, z'
loop_
 _atom_site_type_symbol
 _atom_site_label
 _atom_site_symmetry_multiplicity
 _atom_site_fract_x
 _atom_site_fract_y
 _atom_site_fract_z
 _atom_site_occupancy
  Sr  Sr0  1  0.49999000  0.00002000  0.00002000  1.0
  Zr  Zr1  1  0.24998000  0.50000000  0.50000000  1.0
  Cd  Cd2  1  0.99993000  0.00013000  0.00013000  1.0
  H  H3  1  0.54733000  0.27854000  0.72145000  1.0
  H  H4  1  0.73101000  0.72147000  0.72147000  1.0
  H  H5  1  0.54733000  0.72145000  0.27854000  1.0
  H  H6  1  0.17409000  0.27851000  0.27851000  1.0
  H  H7  1  0.72245000  0.22908000  0.77092000  1.0
  H  H8  1  0.50644000  0.77094000  0.77094000  1.0
  H  H9  1  0.72246000  0.77092000  0.22908000  1.0
  H  H10  1  0.04841000  0.22904000  0.22904000  1.0
  C  C11  1  0.67896000  0.27776000  0.27776000  1.0
  C  C12  1  0.04356000  0.27749000  0.72226000  1.0
  C  C13  1  0.23395000  0.72256000  0.72256000  1.0
  C  C14  1  0.04356000  0.72226000  0.27749000  1.0
  C  C15  1  0.55527000  0.23213000  0.23213000  1.0
  C  C16  1  0.21294000  0.23199000  0.76774000  1.0
  C  C17  1  0.01923000  0.76796000  0.76796000  1.0
  C  C18  1  0.21293000  0.76774000  0.23199000  1.0
  O  O19  1  0.63619000  0.12471000  0.12470000  1.0
  O  O20  1  0.23945000  0.12466000  0.87518000  1.0
  O  O21  1  0.88529000  0.87535000  0.87535000  1.0
  O  O22  1  0.23945000  0.87518000  0.12466000  1.0
  O  O23  1  0.36957000  0.31424000  0.31424000  1.0
  O  O24  1  0.31641000  0.31423000  0.68557000  1.0
  O  O25  1  0.99795000  0.68571000  0.68570000  1.0
  O  O26  1  0.31641000  0.68556000  0.31423000  1.0
  O  O27  1  0.86183000  0.20556000  0.20556000  1.0
  O  O28  1  0.93275000  0.20535000  0.79464000  1.0
  O  O29  1  0.27241000  0.79483000  0.79483000  1.0
  O  O30  1  0.93274000  0.79464000  0.20536000  1.0
  O  O31  1  0.57849000  0.38924000  0.38924000  1.0
  O  O32  1  0.03249000  0.38894000  0.61078000  1.0
  O  O33  1  0.35648000  0.61108000  0.61108000  1.0
  O  O34  1  0.03249000  0.61078000  0.38894000  1.0
  O  O35  1  0.61111000  0.20764000  0.79233000  1.0
  O  O36  1  0.59639000  0.79236000  0.79236000  1.0
  O  O37  1  0.61113000  0.79232000  0.20764000  1.0
  O  O38  1  0.18118000  0.20760000  0.20761000  1.0
