# generated using pymatgen
data_ZnH9C10(NO2)3
_symmetry_space_group_name_H-M   'P 1'
_cell_length_a   7.14544000
_cell_length_b   7.42948000
_cell_length_c   12.59130000
_cell_angle_alpha   104.96500000
_cell_angle_beta   93.64820000
_cell_angle_gamma   113.71600000
_symmetry_Int_Tables_number   1
_chemical_formula_structural   ZnH9C10(NO2)3
_chemical_formula_sum   'Zn2 H18 C20 N6 O12'
_cell_volume   580.53102989
_cell_formula_units_Z   2
loop_
 _symmetry_equiv_pos_site_id
 _symmetry_equiv_pos_as_xyz
  1  'x, y, z'
loop_
 _atom_site_type_symbol
 _atom_site_label
 _atom_site_symmetry_multiplicity
 _atom_site_fract_x
 _atom_site_fract_y
 _atom_site_fract_z
 _atom_site_occupancy
  Zn  Zn0  1  0.28052000  0.26839000  0.96091000  1.0
  Zn  Zn1  1  0.71948000  0.73160000  0.03909000  1.0
  H  H2  1  0.62340000  0.32858000  0.05327000  1.0
  H  H3  1  0.37660000  0.67141000  0.94673000  1.0
  H  H4  1  0.66562000  0.32427000  0.92268000  1.0
  H  H5  1  0.33438000  0.67573000  0.07732000  1.0
  H  H6  1  0.15743000  0.88156000  0.97408000  1.0
  H  H7  1  0.84257000  0.11844000  0.02591000  1.0
  H  H8  1  0.30714000  0.89811000  0.88456000  1.0
  H  H9  1  0.69286000  0.10189000  0.11544000  1.0
  H  H10  1  0.07812000  0.31064000  0.27129000  1.0
  H  H11  1  0.92189000  0.68936000  0.72871000  1.0
  H  H12  1  0.99520000  0.30897000  0.46266000  1.0
  H  H13  1  0.00480000  0.69103000  0.53734000  1.0
  H  H14  1  0.49080000  0.25905000  0.70741000  1.0
  H  H15  1  0.50920000  0.74095000  0.29259000  1.0
  H  H16  1  0.52345000  0.18873000  0.53811000  1.0
  H  H17  1  0.47654000  0.81127000  0.46189000  1.0
  H  H18  1  0.60566000  0.19809000  0.35041000  1.0
  H  H19  1  0.39434000  0.80191000  0.64959000  1.0
  C  C20  1  0.40135000  0.26597000  0.18800000  1.0
  C  C21  1  0.59865000  0.73403000  0.81200000  1.0
  C  C22  1  0.34798000  0.25679000  0.30039000  1.0
  C  C23  1  0.65202000  0.74321000  0.69961000  1.0
  C  C24  1  0.17429000  0.28562000  0.33131000  1.0
  C  C25  1  0.82571000  0.71438000  0.66869000  1.0
  C  C26  1  0.12717000  0.28319000  0.43669000  1.0
  C  C27  1  0.87283000  0.71682000  0.56331000  1.0
  C  C28  1  0.25420000  0.24966000  0.51102000  1.0
  C  C29  1  0.74580000  0.75034000  0.48898000  1.0
  C  C30  1  0.05393000  0.25043000  0.75555000  1.0
  C  C31  1  0.94606000  0.74957000  0.24445000  1.0
  C  C32  1  0.33617000  0.25302000  0.70695000  1.0
  C  C33  1  0.66383000  0.74698000  0.29305000  1.0
  C  C34  1  0.90526000  0.24557000  0.83468000  1.0
  C  C35  1  0.09474000  0.75442000  0.16532000  1.0
  C  C36  1  0.42582000  0.21688000  0.48064000  1.0
  C  C37  1  0.57418000  0.78312000  0.51936000  1.0
  C  C38  1  0.47226000  0.22198000  0.37575000  1.0
  C  C39  1  0.52773000  0.77802000  0.62425000  1.0
  N  N40  1  0.21147000  0.25056000  0.61973000  1.0
  N  N41  1  0.78853000  0.74944000  0.38027000  1.0
  N  N42  1  0.03113000  0.25032000  0.64991000  1.0
  N  N43  1  0.96887000  0.74968000  0.35009000  1.0
  N  N44  1  0.23913000  0.25243000  0.79289000  1.0
  N  N45  1  0.76086000  0.74757000  0.20711000  1.0
  O  O46  1  0.61181000  0.38379000  0.98915000  1.0
  O  O47  1  0.38819000  0.61621000  0.01085000  1.0
  O  O48  1  0.27696000  0.29400000  0.12421000  1.0
  O  O49  1  0.72304000  0.70600000  0.87579000  1.0
  O  O50  1  0.56764000  0.25261000  0.16515000  1.0
  O  O51  1  0.43236000  0.74740000  0.83485000  1.0
  O  O52  1  0.96727000  0.23402000  0.92960000  1.0
  O  O53  1  0.03272000  0.76598000  0.07040000  1.0
  O  O54  1  0.73785000  0.25366000  0.80646000  1.0
  O  O55  1  0.26214000  0.74634000  0.19354000  1.0
  O  O56  1  0.21290000  0.95362000  0.91878000  1.0
  O  O57  1  0.78710000  0.04638000  0.08122000  1.0
