# generated using pymatgen
data_MnH36C52S(N4O3)2
_symmetry_space_group_name_H-M   'P 1'
_cell_length_a   12.30540000
_cell_length_b   14.16420000
_cell_length_c   14.41630000
_cell_angle_alpha   89.86050000
_cell_angle_beta   72.86400000
_cell_angle_gamma   81.00940000
_symmetry_Int_Tables_number   1
_chemical_formula_structural   MnH36C52S(N4O3)2
_chemical_formula_sum   'Mn2 H72 C104 S2 N16 O12'
_cell_volume   2369.12824793
_cell_formula_units_Z   2
loop_
 _symmetry_equiv_pos_site_id
 _symmetry_equiv_pos_as_xyz
  1  'x, y, z'
loop_
 _atom_site_type_symbol
 _atom_site_label
 _atom_site_symmetry_multiplicity
 _atom_site_fract_x
 _atom_site_fract_y
 _atom_site_fract_z
 _atom_site_occupancy
  Mn  Mn0  1  0.76126000  0.70961000  0.85998000  1.0
  Mn  Mn1  1  0.23873000  0.29039000  0.14002000  1.0
  H  H2  1  0.52801000  0.89765000  0.94002000  1.0
  H  H3  1  0.47200000  0.10237000  0.05999000  1.0
  H  H4  1  0.76074000  0.83651000  0.66012000  1.0
  H  H5  1  0.23925000  0.16350000  0.33989000  1.0
  H  H6  1  0.75763000  0.60746000  0.06921000  1.0
  H  H7  1  0.24237000  0.39254000  0.93078000  1.0
  H  H8  1  0.65296000  0.50669000  0.15821000  1.0
  H  H9  1  0.34705000  0.49332000  0.84179000  1.0
  H  H10  1  0.97070000  0.56625000  0.46642000  1.0
  H  H11  1  0.02934000  0.43374000  0.53358000  1.0
  H  H12  1  0.75950000  0.80765000  0.07139000  1.0
  H  H13  1  0.24051000  0.19234000  0.92861000  1.0
  H  H14  1  0.72327000  0.61818000  0.65104000  1.0
  H  H15  1  0.27674000  0.38183000  0.34896000  1.0
  H  H16  1  0.84759000  0.88722000  0.18857000  1.0
  H  H17  1  0.15239000  0.11277000  0.81143000  1.0
  H  H18  1  0.83755000  0.38929000  0.40160000  1.0
  H  H19  1  0.16246000  0.61070000  0.59839000  1.0
  H  H20  1  0.63693000  0.21869000  0.20308000  1.0
  H  H21  1  0.36307000  0.78131000  0.79692000  1.0
  H  H22  1  0.79112000  0.98574000  0.34037000  1.0
  H  H23  1  0.20886000  0.01426000  0.65964000  1.0
  H  H24  1  0.91587000  0.89123000  0.78823000  1.0
  H  H25  1  0.08414000  0.10877000  0.21177000  1.0
  H  H26  1  0.95866000  0.35226000  0.91443000  1.0
  H  H27  1  0.04134000  0.64774000  0.08557000  1.0
  H  H28  1  0.95752000  0.83553000  0.61072000  1.0
  H  H29  1  0.04247000  0.16446000  0.38928000  1.0
  H  H30  1  0.24338000  0.80999000  0.34515000  1.0
  H  H31  1  0.75662000  0.19001000  0.65487000  1.0
  H  H32  1  0.85143000  0.09171000  0.45423000  1.0
  H  H33  1  0.14856000  0.90828000  0.54577000  1.0
  H  H34  1  0.48686000  0.13356000  0.49361000  1.0
  H  H35  1  0.51314000  0.86644000  0.50639000  1.0
  H  H36  1  0.81379000  0.48497000  0.55049000  1.0
  H  H37  1  0.18623000  0.51503000  0.44950000  1.0
  H  H38  1  0.02300000  0.63922000  0.30694000  1.0
  H  H39  1  0.97703000  0.36078000  0.69306000  1.0
  H  H40  1  0.48526000  0.39458000  0.68154000  1.0
  H  H41  1  0.51475000  0.60542000  0.31845000  1.0
  H  H42  1  0.91123000  0.22582000  0.22389000  1.0
  H  H43  1  0.08875000  0.77416000  0.77609000  1.0
  H  H44  1  0.45784000  0.04002000  0.64236000  1.0
  H  H45  1  0.54216000  0.95999000  0.35764000  1.0
  H  H46  1  0.45740000  0.77706000  0.27042000  1.0
  H  H47  1  0.54260000  0.22294000  0.72957000  1.0
  H  H48  1  0.95413000  0.50166000  0.78722000  1.0
  H  H49  1  0.04587000  0.49834000  0.21278000  1.0
  H  H50  1  0.51452000  0.29238000  0.53560000  1.0
  H  H51  1  0.48548000  0.70762000  0.46440000  1.0
  H  H52  1  0.57946000  0.55518000  0.94252000  1.0
  H  H53  1  0.42054000  0.44481000  0.05747000  1.0
  H  H54  1  0.82281000  0.99728000  0.60336000  1.0
  H  H55  1  0.17718000  0.00272000  0.39664000  1.0
  H  H56  1  0.88735000  0.04346000  0.91839000  1.0
  H  H57  1  0.11265000  0.95655000  0.08161000  1.0
  H  H58  1  0.01057000  0.91060000  0.44763000  1.0
  H  H59  1  0.98942000  0.08941000  0.55238000  1.0
  H  H60  1  0.41562000  0.73268000  0.98992000  1.0
  H  H61  1  0.58439000  0.26734000  0.01007000  1.0
  H  H62  1  0.54876000  0.41367000  0.82264000  1.0
  H  H63  1  0.45126000  0.58633000  0.17735000  1.0
  H  H64  1  0.69394000  0.11872000  0.05099000  1.0
  H  H65  1  0.30605000  0.88129000  0.94901000  1.0
  H  H66  1  0.59168000  0.42353000  0.31143000  1.0
  H  H67  1  0.40834000  0.57648000  0.68858000  1.0
  H  H68  1  0.97697000  0.31288000  0.07517000  1.0
  H  H69  1  0.02301000  0.68709000  0.92482000  1.0
  H  H70  1  0.19919000  0.76601000  0.06317000  1.0
  H  H71  1  0.80081000  0.23401000  0.93683000  1.0
  H  H72  1  0.48319000  0.04521000  0.82049000  1.0
  H  H73  1  0.51680000  0.95480000  0.17952000  1.0
  C  C74  1  0.74576000  0.31732000  0.27786000  1.0
  C  C75  1  0.25423000  0.68268000  0.72214000  1.0
  C  C76  1  0.56961000  0.90709000  0.86386000  1.0
  C  C77  1  0.43039000  0.09292000  0.13615000  1.0
  C  C78  1  0.81799000  0.41453000  0.10585000  1.0
  C  C79  1  0.18200000  0.58546000  0.89414000  1.0
  C  C80  1  0.69317000  0.17302000  0.37173000  1.0
  C  C81  1  0.30683000  0.82698000  0.62827000  1.0
  C  C82  1  0.70402000  0.26767000  0.36984000  1.0
  C  C83  1  0.29597000  0.73232000  0.63016000  1.0
  C  C84  1  0.44787000  0.75526000  0.12601000  1.0
  C  C85  1  0.55213000  0.24475000  0.87399000  1.0
  C  C86  1  0.69181000  0.87198000  0.72104000  1.0
  C  C87  1  0.30818000  0.12803000  0.27896000  1.0
  C  C88  1  0.68061000  0.32955000  0.45867000  1.0
  C  C89  1  0.31939000  0.67045000  0.54132000  1.0
  C  C90  1  0.67127000  0.12068000  0.46412000  1.0
  C  C91  1  0.32872000  0.87932000  0.53589000  1.0
  C  C92  1  0.01950000  0.77901000  0.36953000  1.0
  C  C93  1  0.98050000  0.22098000  0.63048000  1.0
  C  C94  1  0.57760000  0.73244000  0.08353000  1.0
  C  C95  1  0.42241000  0.26757000  0.91647000  1.0
  C  C96  1  0.81096000  0.55845000  0.00917000  1.0
  C  C97  1  0.18903000  0.44154000  0.99083000  1.0
  C  C98  1  0.71463000  0.11199000  0.28272000  1.0
  C  C99  1  0.28536000  0.88800000  0.71728000  1.0
  C  C100  1  0.95936000  0.69709000  0.54903000  1.0
  C  C101  1  0.04065000  0.30291000  0.45097000  1.0
  C  C102  1  0.71019000  0.44599000  0.17344000  1.0
  C  C103  1  0.28982000  0.55402000  0.82656000  1.0
  C  C104  1  0.77786000  0.99838000  0.10972000  1.0
  C  C105  1  0.22214000  0.00162000  0.89028000  1.0
  C  C106  1  0.64813000  0.44597000  0.62557000  1.0
  C  C107  1  0.35188000  0.55402000  0.37443000  1.0
  C  C108  1  0.63903000  0.01213000  0.63088000  1.0
  C  C109  1  0.36097000  0.98787000  0.36913000  1.0
  C  C110  1  0.21054000  0.79275000  0.20719000  1.0
  C  C111  1  0.78946000  0.20725000  0.79282000  1.0
  C  C112  1  0.97732000  0.64205000  0.46351000  1.0
  C  C113  1  0.02269000  0.35795000  0.53650000  1.0
  C  C114  1  0.93046000  0.65098000  0.64653000  1.0
  C  C115  1  0.06954000  0.34903000  0.35348000  1.0
  C  C116  1  0.80097000  0.84914000  0.01125000  1.0
  C  C117  1  0.19904000  0.15086000  0.98875000  1.0
  C  C118  1  0.67996000  0.58351000  0.71527000  1.0
  C  C119  1  0.32005000  0.41649000  0.28473000  1.0
  C  C120  1  0.80041000  0.95953000  0.19230000  1.0
  C  C121  1  0.19959000  0.04047000  0.80771000  1.0
  C  C122  1  0.76086000  0.38881000  0.46314000  1.0
  C  C123  1  0.23915000  0.61119000  0.53686000  1.0
  C  C124  1  0.68561000  0.14707000  0.20002000  1.0
  C  C125  1  0.31439000  0.85292000  0.79998000  1.0
  C  C126  1  0.76838000  0.01598000  0.27777000  1.0
  C  C127  1  0.23161000  0.98401000  0.72224000  1.0
  C  C128  1  0.87991000  0.89596000  0.86652000  1.0
  C  C129  1  0.12009000  0.10404000  0.13348000  1.0
  C  C130  1  0.91869000  0.42674000  0.92735000  1.0
  C  C131  1  0.08130000  0.57325000  0.07264000  1.0
  C  C132  1  0.97108000  0.79398000  0.54352000  1.0
  C  C133  1  0.02891000  0.20601000  0.45649000  1.0
  C  C134  1  0.28084000  0.79462000  0.26730000  1.0
  C  C135  1  0.71916000  0.20537000  0.73271000  1.0
  C  C136  1  0.76528000  0.07998000  0.49530000  1.0
  C  C137  1  0.23472000  0.92003000  0.50471000  1.0
  C  C138  1  0.56097000  0.10476000  0.51778000  1.0
  C  C139  1  0.43902000  0.89524000  0.48223000  1.0
  C  C140  1  0.74660000  0.44484000  0.54609000  1.0
  C  C141  1  0.25342000  0.55515000  0.45390000  1.0
  C  C142  1  0.00765000  0.68246000  0.37329000  1.0
  C  C143  1  0.99236000  0.31753000  0.62671000  1.0
  C  C144  1  0.56377000  0.39200000  0.62092000  1.0
  C  C145  1  0.43624000  0.60800000  0.37907000  1.0
  C  C146  1  0.85400000  0.28731000  0.20993000  1.0
  C  C147  1  0.14599000  0.71268000  0.79004000  1.0
  C  C148  1  0.54405000  0.05186000  0.60121000  1.0
  C  C149  1  0.45595000  0.94815000  0.39880000  1.0
  C  C150  1  0.39971000  0.77627000  0.22600000  1.0
  C  C151  1  0.60029000  0.22373000  0.77400000  1.0
  C  C152  1  0.91587000  0.50018000  0.86536000  1.0
  C  C153  1  0.08412000  0.49982000  0.13464000  1.0
  C  C154  1  0.58090000  0.33385000  0.53838000  1.0
  C  C155  1  0.41911000  0.66615000  0.46162000  1.0
  C  C156  1  0.60351000  0.54757000  0.86402000  1.0
  C  C157  1  0.39650000  0.45243000  0.13597000  1.0
  C  C158  1  0.74992000  0.02594000  0.57765000  1.0
  C  C159  1  0.25008000  0.97407000  0.42235000  1.0
  C  C160  1  0.86449000  0.97273000  0.92938000  1.0
  C  C161  1  0.13550000  0.02727000  0.07063000  1.0
  C  C162  1  0.00128000  0.83545000  0.45383000  1.0
  C  C163  1  0.99871000  0.16455000  0.54617000  1.0
  C  C164  1  0.37590000  0.75120000  0.06723000  1.0
  C  C165  1  0.62410000  0.24881000  0.93277000  1.0
  C  C166  1  0.58645000  0.47805000  0.80627000  1.0
  C  C167  1  0.41357000  0.52195000  0.19373000  1.0
  C  C168  1  0.71773000  0.09142000  0.11421000  1.0
  C  C169  1  0.28228000  0.90858000  0.88579000  1.0
  C  C170  1  0.67573000  0.39870000  0.25910000  1.0
  C  C171  1  0.32427000  0.60130000  0.74090000  1.0
  C  C172  1  0.89079000  0.33555000  0.12477000  1.0
  C  C173  1  0.10920000  0.66444000  0.87521000  1.0
  C  C174  1  0.25650000  0.76942000  0.10761000  1.0
  C  C175  1  0.74350000  0.23058000  0.89240000  1.0
  C  C176  1  0.54599000  0.98013000  0.80621000  1.0
  C  C177  1  0.45401000  0.01988000  0.19380000  1.0
  S  S178  1  0.05987000  0.83195000  0.25583000  1.0
  S  S179  1  0.94013000  0.16805000  0.74417000  1.0
  N  N180  1  0.83935000  0.81962000  0.91808000  1.0
  N  N181  1  0.16065000  0.18038000  0.08191000  1.0
  N  N182  1  0.81394000  0.94224000  0.02134000  1.0
  N  N183  1  0.18606000  0.05776000  0.97866000  1.0
  N  N184  1  0.84842000  0.58180000  0.91723000  1.0
  N  N185  1  0.15156000  0.41819000  0.08276000  1.0
  N  N186  1  0.85075000  0.46433000  0.01893000  1.0
  N  N187  1  0.14924000  0.53566000  0.98106000  1.0
  N  N188  1  0.66187000  0.61294000  0.80649000  1.0
  N  N189  1  0.33813000  0.38707000  0.19350000  1.0
  N  N190  1  0.63593000  0.50126000  0.71109000  1.0
  N  N191  1  0.36409000  0.49874000  0.28891000  1.0
  N  N192  1  0.66007000  0.84011000  0.80986000  1.0
  N  N193  1  0.33991000  0.15990000  0.19014000  1.0
  N  N194  1  0.62480000  0.95717000  0.71505000  1.0
  N  N195  1  0.37519000  0.04283000  0.28496000  1.0
  O  O196  1  0.95143000  0.56139000  0.64670000  1.0
  O  O197  1  0.04857000  0.43862000  0.35331000  1.0
  O  O198  1  0.88584000  0.70954000  0.72091000  1.0
  O  O199  1  0.11415000  0.29046000  0.27910000  1.0
  O  O200  1  0.00479000  0.79340000  0.19111000  1.0
  O  O201  1  0.99522000  0.20659000  0.80890000  1.0
  O  O202  1  0.04157000  0.93495000  0.27546000  1.0
  O  O203  1  0.95844000  0.06505000  0.72455000  1.0
  O  O204  1  0.61523000  0.72488000  0.99076000  1.0
  O  O205  1  0.38477000  0.27514000  0.00924000  1.0
  O  O206  1  0.63691000  0.72183000  0.14205000  1.0
  O  O207  1  0.36309000  0.27817000  0.85796000  1.0
