# generated using pymatgen
data_MnP2H30C36(NO2)2
_symmetry_space_group_name_H-M   'P 1'
_cell_length_a   5.44515000
_cell_length_b   13.74230000
_cell_length_c   20.87100000
_cell_angle_alpha   94.63590000
_cell_angle_beta   90.00000000
_cell_angle_gamma   90.00000000
_symmetry_Int_Tables_number   1
_chemical_formula_structural   MnP2H30C36(NO2)2
_chemical_formula_sum   'Mn2 P4 H60 C72 N4 O8'
_cell_volume   1556.64427278
_cell_formula_units_Z   2
loop_
 _symmetry_equiv_pos_site_id
 _symmetry_equiv_pos_as_xyz
  1  'x, y, z'
loop_
 _atom_site_type_symbol
 _atom_site_label
 _atom_site_symmetry_multiplicity
 _atom_site_fract_x
 _atom_site_fract_y
 _atom_site_fract_z
 _atom_site_occupancy
  Mn  Mn0  1  0.50000000  0.50000000  0.00000000  1.0
  Mn  Mn1  1  0.00001000  0.00000000  0.50000000  1.0
  P  P2  1  0.00382000  0.44669000  0.89330000  1.0
  P  P3  1  0.50382000  0.05330000  0.60670000  1.0
  P  P4  1  0.99619000  0.55330000  0.10670000  1.0
  P  P5  1  0.49620000  0.94670000  0.39330000  1.0
  H  H6  1  0.68230000  0.27772000  0.90130000  1.0
  H  H7  1  0.18230000  0.22227000  0.59870000  1.0
  H  H8  1  0.31772000  0.72227000  0.09870000  1.0
  H  H9  1  0.81771000  0.77773000  0.40130000  1.0
  H  H10  1  0.72914000  0.10188000  0.86436000  1.0
  H  H11  1  0.22914000  0.39811000  0.63564000  1.0
  H  H12  1  0.27089000  0.89811000  0.13564000  1.0
  H  H13  1  0.77087000  0.60189000  0.36435000  1.0
  H  H14  1  0.10233000  0.04546000  0.80171000  1.0
  H  H15  1  0.60233000  0.45454000  0.69829000  1.0
  H  H16  1  0.89769000  0.95454000  0.19829000  1.0
  H  H17  1  0.39767000  0.54547000  0.30170000  1.0
  H  H18  1  0.42246000  0.16537000  0.77669000  1.0
  H  H19  1  0.92246000  0.33463000  0.72332000  1.0
  H  H20  1  0.57754000  0.83463000  0.22331000  1.0
  H  H21  1  0.07754000  0.66538000  0.27669000  1.0
  H  H22  1  0.38194000  0.33892000  0.81681000  1.0
  H  H23  1  0.88193000  0.16107000  0.68320000  1.0
  H  H24  1  0.61807000  0.66108000  0.18319000  1.0
  H  H25  1  0.11808000  0.83894000  0.31681000  1.0
  H  H26  1  0.57674000  0.56514000  0.86584000  1.0
  H  H27  1  0.07672000  0.93486000  0.63417000  1.0
  H  H28  1  0.42327000  0.43485000  0.13417000  1.0
  H  H29  1  0.92328000  0.06515000  0.36583000  1.0
  H  H30  1  0.48181000  0.67171000  0.77798000  1.0
  H  H31  1  0.98180000  0.82829000  0.72203000  1.0
  H  H32  1  0.51819000  0.32828000  0.22202000  1.0
  H  H33  1  0.01821000  0.17171000  0.27797000  1.0
  H  H34  1  0.76995000  0.67956000  0.68603000  1.0
  H  H35  1  0.26996000  0.82044000  0.81397000  1.0
  H  H36  1  0.23004000  0.32043000  0.31397000  1.0
  H  H37  1  0.73005000  0.17955000  0.18602000  1.0
  H  H38  1  0.15694000  0.58243000  0.68300000  1.0
  H  H39  1  0.65695000  0.91757000  0.81700000  1.0
  H  H40  1  0.84306000  0.41757000  0.31700000  1.0
  H  H41  1  0.34307000  0.08242000  0.18300000  1.0
  H  H42  1  0.25923000  0.48187000  0.77265000  1.0
  H  H43  1  0.75922000  0.01812000  0.72735000  1.0
  H  H44  1  0.74079000  0.51813000  0.22735000  1.0
  H  H45  1  0.24078000  0.98188000  0.27265000  1.0
  H  H46  1  0.85497000  0.67970000  0.01836000  1.0
  H  H47  1  0.35503000  0.82031000  0.48164000  1.0
  H  H48  1  0.14499000  0.32032000  0.98163000  1.0
  H  H49  1  0.64498000  0.17970000  0.51836000  1.0
  H  H50  1  0.81783000  0.85838000  0.03197000  1.0
  H  H51  1  0.31790000  0.64163000  0.46803000  1.0
  H  H52  1  0.18210000  0.14164000  0.96802000  1.0
  H  H53  1  0.68212000  0.35838000  0.53197000  1.0
  H  H54  1  0.11651000  0.82758000  0.93392000  1.0
  H  H55  1  0.61658000  0.67242000  0.56608000  1.0
  H  H56  1  0.88342000  0.17241000  0.06607000  1.0
  H  H57  1  0.38344000  0.32758000  0.43392000  1.0
  H  H58  1  0.17894000  0.64706000  0.92933000  1.0
  H  H59  1  0.67900000  0.85294000  0.57067000  1.0
  H  H60  1  0.82103000  0.35293000  0.07066000  1.0
  H  H61  1  0.32103000  0.14706000  0.42934000  1.0
  H  H62  1  0.24959000  0.98838000  0.96563000  1.0
  H  H63  1  0.74967000  0.51163000  0.53437000  1.0
  H  H64  1  0.75031000  0.01163000  0.03436000  1.0
  H  H65  1  0.25035000  0.48837000  0.46562000  1.0
  C  C66  1  0.02649000  0.32006000  0.86088000  1.0
  C  C67  1  0.52649000  0.17993000  0.63913000  1.0
  C  C68  1  0.97351000  0.67993000  0.13912000  1.0
  C  C69  1  0.47352000  0.82007000  0.36088000  1.0
  C  C70  1  0.84399000  0.25252000  0.87403000  1.0
  C  C71  1  0.34400000  0.24748000  0.62597000  1.0
  C  C72  1  0.15601000  0.74748000  0.12597000  1.0
  C  C73  1  0.65601000  0.75252000  0.37403000  1.0
  C  C74  1  0.87144000  0.15388000  0.85329000  1.0
  C  C75  1  0.37145000  0.34612000  0.64671000  1.0
  C  C76  1  0.12857000  0.84612000  0.14671000  1.0
  C  C77  1  0.62855000  0.65388000  0.35328000  1.0
  C  C78  1  0.07927000  0.12231000  0.81816000  1.0
  C  C79  1  0.57927000  0.37769000  0.68184000  1.0
  C  C80  1  0.92074000  0.87769000  0.18184000  1.0
  C  C81  1  0.42073000  0.62232000  0.31816000  1.0
  C  C82  1  0.26031000  0.18959000  0.80408000  1.0
  C  C83  1  0.76031000  0.31041000  0.69592000  1.0
  C  C84  1  0.73970000  0.81041000  0.19592000  1.0
  C  C85  1  0.23970000  0.68960000  0.30408000  1.0
  C  C86  1  0.23548000  0.28769000  0.82590000  1.0
  C  C87  1  0.73548000  0.21231000  0.67411000  1.0
  C  C88  1  0.76452000  0.71231000  0.17410000  1.0
  C  C89  1  0.26453000  0.78770000  0.32589000  1.0
  C  C90  1  0.92642000  0.51816000  0.82607000  1.0
  C  C91  1  0.42642000  0.98183000  0.67393000  1.0
  C  C92  1  0.07358000  0.48183000  0.17393000  1.0
  C  C93  1  0.57359000  0.01817000  0.32607000  1.0
  C  C94  1  0.70627000  0.57121000  0.82664000  1.0
  C  C95  1  0.20625000  0.92879000  0.67337000  1.0
  C  C96  1  0.29375000  0.42878000  0.17337000  1.0
  C  C97  1  0.79375000  0.07122000  0.32663000  1.0
  C  C98  1  0.65236000  0.63011000  0.77689000  1.0
  C  C99  1  0.15235000  0.86989000  0.72312000  1.0
  C  C100  1  0.34765000  0.36989000  0.22312000  1.0
  C  C101  1  0.84766000  0.13010000  0.27688000  1.0
  C  C102  1  0.81374000  0.63436000  0.72517000  1.0
  C  C103  1  0.31374000  0.86564000  0.77483000  1.0
  C  C104  1  0.18626000  0.36564000  0.27483000  1.0
  C  C105  1  0.68627000  0.13435000  0.22517000  1.0
  C  C106  1  0.03096000  0.57981000  0.72350000  1.0
  C  C107  1  0.53096000  0.92019000  0.77650000  1.0
  C  C108  1  0.96905000  0.42019000  0.27650000  1.0
  C  C109  1  0.46906000  0.07980000  0.22349000  1.0
  C  C110  1  0.08778000  0.52281000  0.77387000  1.0
  C  C111  1  0.58778000  0.97719000  0.72613000  1.0
  C  C112  1  0.91222000  0.47719000  0.22613000  1.0
  C  C113  1  0.41223000  0.02281000  0.27387000  1.0
  C  C114  1  0.69185000  0.71528000  0.00124000  1.0
  C  C115  1  0.19191000  0.78472000  0.49876000  1.0
  C  C116  1  0.30810000  0.28473000  0.99876000  1.0
  C  C117  1  0.80811000  0.21528000  0.50124000  1.0
  C  C118  1  0.67078000  0.81609000  0.00773000  1.0
  C  C119  1  0.17084000  0.68391000  0.49227000  1.0
  C  C120  1  0.32916000  0.18392000  0.99227000  1.0
  C  C121  1  0.82918000  0.31609000  0.50773000  1.0
  C  C122  1  0.46121000  0.86087000  0.98340000  1.0
  C  C123  1  0.96129000  0.63913000  0.51659000  1.0
  C  C124  1  0.53871000  0.13913000  0.01659000  1.0
  C  C125  1  0.03874000  0.36087000  0.48341000  1.0
  C  C126  1  0.28261000  0.79775000  0.95405000  1.0
  C  C127  1  0.78268000  0.70225000  0.54595000  1.0
  C  C128  1  0.71732000  0.20225000  0.04595000  1.0
  C  C129  1  0.21734000  0.29775000  0.45405000  1.0
  C  C130  1  0.31546000  0.69745000  0.95113000  1.0
  C  C131  1  0.81553000  0.80256000  0.54887000  1.0
  C  C132  1  0.68449000  0.30255000  0.04887000  1.0
  C  C133  1  0.18450000  0.19745000  0.45113000  1.0
  C  C134  1  0.42197000  0.96545000  0.98679000  1.0
  C  C135  1  0.92202000  0.53456000  0.51321000  1.0
  C  C136  1  0.57795000  0.03455000  0.01321000  1.0
  C  C137  1  0.07801000  0.46545000  0.48679000  1.0
  N  N138  1  0.51775000  0.65549000  0.97409000  1.0
  N  N139  1  0.01780000  0.84451000  0.52590000  1.0
  N  N140  1  0.48221000  0.34451000  0.02590000  1.0
  N  N141  1  0.98221000  0.15549000  0.47410000  1.0
  O  O142  1  0.79449000  0.45433000  0.94132000  1.0
  O  O143  1  0.29448000  0.04568000  0.55869000  1.0
  O  O144  1  0.20552000  0.54567000  0.05868000  1.0
  O  O145  1  0.70554000  0.95433000  0.44131000  1.0
  O  O146  1  0.25954000  0.47724000  0.91672000  1.0
  O  O147  1  0.75952000  0.02275000  0.58328000  1.0
  O  O148  1  0.74047000  0.52275000  0.08328000  1.0
  O  O149  1  0.24049000  0.97725000  0.41673000  1.0
