# generated using pymatgen
data_CdH26C26N4O5
_symmetry_space_group_name_H-M   'P 1'
_cell_length_a   9.53759000
_cell_length_b   11.65190000
_cell_length_c   27.25730000
_cell_angle_alpha   90.00000000
_cell_angle_beta   90.00010000
_cell_angle_gamma   114.14200000
_symmetry_Int_Tables_number   1
_chemical_formula_structural   CdH26C26N4O5
_chemical_formula_sum   'Cd4 H104 C104 N16 O20'
_cell_volume   2764.18799924
_cell_formula_units_Z   4
loop_
 _symmetry_equiv_pos_site_id
 _symmetry_equiv_pos_as_xyz
  1  'x, y, z'
loop_
 _atom_site_type_symbol
 _atom_site_label
 _atom_site_symmetry_multiplicity
 _atom_site_fract_x
 _atom_site_fract_y
 _atom_site_fract_z
 _atom_site_occupancy
  Cd  Cd0  1  0.36171000  0.00019000  0.50001000  1.0
  Cd  Cd1  1  0.63829000  0.99981000  0.00001000  1.0
  Cd  Cd2  1  0.25183000  0.50391000  0.75001000  1.0
  Cd  Cd3  1  0.74817000  0.49610000  0.25001000  1.0
  H  H4  1  0.27442000  0.38789000  0.48579000  1.0
  H  H5  1  0.72558000  0.61210000  0.98580000  1.0
  H  H6  1  0.88737000  0.61240000  0.51405000  1.0
  H  H7  1  0.11263000  0.38760000  0.01406000  1.0
  H  H8  1  0.10222000  0.50044000  0.49834000  1.0
  H  H9  1  0.89778000  0.49957000  0.99834000  1.0
  H  H10  1  0.60261000  0.49988000  0.50155000  1.0
  H  H11  1  0.39739000  0.50013000  0.00155000  1.0
  H  H12  1  0.86120000  0.23770000  0.61226000  1.0
  H  H13  1  0.13879000  0.76229000  0.11226000  1.0
  H  H14  1  0.62396000  0.76310000  0.38784000  1.0
  H  H15  1  0.37604000  0.23691000  0.88785000  1.0
  H  H16  1  0.03330000  0.12622000  0.59911000  1.0
  H  H17  1  0.96668000  0.87377000  0.09911000  1.0
  H  H18  1  0.90740000  0.87472000  0.40106000  1.0
  H  H19  1  0.09261000  0.12528000  0.90106000  1.0
  H  H20  1  0.57491000  0.33557000  0.54625000  1.0
  H  H21  1  0.42508000  0.66442000  0.04625000  1.0
  H  H22  1  0.23967000  0.66459000  0.45383000  1.0
  H  H23  1  0.76032000  0.33541000  0.95383000  1.0
  H  H24  1  0.39009000  0.33714000  0.61128000  1.0
  H  H25  1  0.60990000  0.66286000  0.11128000  1.0
  H  H26  1  0.05290000  0.66266000  0.38890000  1.0
  H  H27  1  0.94710000  0.33735000  0.88890000  1.0
  H  H28  1  0.76431000  0.48872000  0.71412000  1.0
  H  H29  1  0.23569000  0.51128000  0.21412000  1.0
  H  H30  1  0.27585000  0.51152000  0.28597000  1.0
  H  H31  1  0.72415000  0.48849000  0.78597000  1.0
  H  H32  1  0.94680000  0.48514000  0.65046000  1.0
  H  H33  1  0.05319000  0.51485000  0.15046000  1.0
  H  H34  1  0.46224000  0.51540000  0.34956000  1.0
  H  H35  1  0.53777000  0.48461000  0.84955000  1.0
  H  H36  1  0.51650000  0.76516000  0.73798000  1.0
  H  H37  1  0.48350000  0.23484000  0.23798000  1.0
  H  H38  1  0.75124000  0.23453000  0.26196000  1.0
  H  H39  1  0.24876000  0.76547000  0.76196000  1.0
  H  H40  1  0.68748000  0.75691000  0.75913000  1.0
  H  H41  1  0.31252000  0.24308000  0.25913000  1.0
  H  H42  1  0.93059000  0.24305000  0.24082000  1.0
  H  H43  1  0.06943000  0.75696000  0.74082000  1.0
  H  H44  1  0.65161000  0.89244000  0.77299000  1.0
  H  H45  1  0.34839000  0.10755000  0.27299000  1.0
  H  H46  1  0.75947000  0.10744000  0.22689000  1.0
  H  H47  1  0.24054000  0.89257000  0.72689000  1.0
  H  H48  1  0.23243000  0.52853000  0.87562000  1.0
  H  H49  1  0.76758000  0.47146000  0.37561000  1.0
  H  H50  1  0.70351000  0.47135000  0.12438000  1.0
  H  H51  1  0.29650000  0.52865000  0.62437000  1.0
  H  H52  1  0.48936000  0.68113000  0.93158000  1.0
  H  H53  1  0.51064000  0.31887000  0.43158000  1.0
  H  H54  1  0.80743000  0.31852000  0.06836000  1.0
  H  H55  1  0.19258000  0.68149000  0.56835000  1.0
  H  H56  1  0.72949000  0.86982000  0.91090000  1.0
  H  H57  1  0.27052000  0.13018000  0.41090000  1.0
  H  H58  1  0.85915000  0.13012000  0.08891000  1.0
  H  H59  1  0.14085000  0.86988000  0.58891000  1.0
  H  H60  1  0.76356000  0.92407000  0.84984000  1.0
  H  H61  1  0.23644000  0.07593000  0.34985000  1.0
  H  H62  1  0.83853000  0.07533000  0.14989000  1.0
  H  H63  1  0.16147000  0.92467000  0.64989000  1.0
  H  H64  1  0.83678000  0.74168000  0.82918000  1.0
  H  H65  1  0.16322000  0.25832000  0.32918000  1.0
  H  H66  1  0.09423000  0.25746000  0.17077000  1.0
  H  H67  1  0.90577000  0.74254000  0.67077000  1.0
  H  H68  1  0.80530000  0.69413000  0.89096000  1.0
  H  H69  1  0.19470000  0.30587000  0.39096000  1.0
  H  H70  1  0.11069000  0.30514000  0.10900000  1.0
  H  H71  1  0.88931000  0.69486000  0.60901000  1.0
  H  H72  1  0.01308000  0.89814000  0.91774000  1.0
  H  H73  1  0.98692000  0.10186000  0.41774000  1.0
  H  H74  1  0.11441000  0.10102000  0.08222000  1.0
  H  H75  1  0.88560000  0.89898000  0.58222000  1.0
  H  H76  1  0.04457000  0.95115000  0.85640000  1.0
  H  H77  1  0.95542000  0.04885000  0.35640000  1.0
  H  H78  1  0.09276000  0.04803000  0.14358000  1.0
  H  H79  1  0.90724000  0.95197000  0.64358000  1.0
  H  H80  1  0.08153000  0.71558000  0.89347000  1.0
  H  H81  1  0.91847000  0.28441000  0.39346000  1.0
  H  H82  1  0.36501000  0.28385000  0.10662000  1.0
  H  H83  1  0.63499000  0.71615000  0.60662000  1.0
  H  H84  1  0.12197000  0.77710000  0.83364000  1.0
  H  H85  1  0.87802000  0.22289000  0.33364000  1.0
  H  H86  1  0.34390000  0.22214000  0.16641000  1.0
  H  H87  1  0.65610000  0.77786000  0.66642000  1.0
  H  H88  1  0.36756000  0.98881000  0.82093000  1.0
  H  H89  1  0.63243000  0.01118000  0.32093000  1.0
  H  H90  1  0.37865000  0.01089000  0.17911000  1.0
  H  H91  1  0.62135000  0.98912000  0.67910000  1.0
  H  H92  1  0.62371000  0.10439000  0.88123000  1.0
  H  H93  1  0.37628000  0.89561000  0.38123000  1.0
  H  H94  1  0.51947000  0.89544000  0.11879000  1.0
  H  H95  1  0.48053000  0.10455000  0.61879000  1.0
  H  H96  1  0.30874000  0.83973000  0.00877000  1.0
  H  H97  1  0.69127000  0.16027000  0.50877000  1.0
  H  H98  1  0.46846000  0.15999000  0.99126000  1.0
  H  H99  1  0.53155000  0.84000000  0.49126000  1.0
  H  H100  1  0.23610000  0.70847000  0.96849000  1.0
  H  H101  1  0.76390000  0.29152000  0.46849000  1.0
  H  H102  1  0.52699000  0.29119000  0.03155000  1.0
  H  H103  1  0.47301000  0.70881000  0.53155000  1.0
  H  H104  1  0.13116000  0.80192000  0.97833000  1.0
  H  H105  1  0.86884000  0.19807000  0.47833000  1.0
  H  H106  1  0.32867000  0.19775000  0.02172000  1.0
  H  H107  1  0.67133000  0.80224000  0.52172000  1.0
  C  C108  1  0.25200000  0.17249000  0.53040000  1.0
  C  C109  1  0.74799000  0.82751000  0.03040000  1.0
  C  C110  1  0.08005000  0.82788000  0.46953000  1.0
  C  C111  1  0.91995000  0.17212000  0.96953000  1.0
  C  C112  1  0.16202000  0.24827000  0.54111000  1.0
  C  C113  1  0.83796000  0.75172000  0.04111000  1.0
  C  C114  1  0.91434000  0.75223000  0.45884000  1.0
  C  C115  1  0.08566000  0.24778000  0.95884000  1.0
  C  C116  1  0.18394000  0.35566000  0.51333000  1.0
  C  C117  1  0.81605000  0.64434000  0.01333000  1.0
  C  C118  1  0.82906000  0.64473000  0.48656000  1.0
  C  C119  1  0.17095000  0.35527000  0.98656000  1.0
  C  C120  1  0.09004000  0.41911000  0.52049000  1.0
  C  C121  1  0.90996000  0.58089000  0.02049000  1.0
  C  C122  1  0.67171000  0.58132000  0.47943000  1.0
  C  C123  1  0.32829000  0.41869000  0.97943000  1.0
  C  C124  1  0.97254000  0.37461000  0.55550000  1.0
  C  C125  1  0.02745000  0.62538000  0.05550000  1.0
  C  C126  1  0.59856000  0.62592000  0.44449000  1.0
  C  C127  1  0.40144000  0.37408000  0.94449000  1.0
  C  C128  1  0.95264000  0.27095000  0.58501000  1.0
  C  C129  1  0.04734000  0.72904000  0.08501000  1.0
  C  C130  1  0.68222000  0.72973000  0.41504000  1.0
  C  C131  1  0.31778000  0.27027000  0.91504000  1.0
  C  C132  1  0.04791000  0.20869000  0.57743000  1.0
  C  C133  1  0.95208000  0.79131000  0.07744000  1.0
  C  C134  1  0.83967000  0.79207000  0.42264000  1.0
  C  C135  1  0.16033000  0.20793000  0.92264000  1.0
  C  C136  1  0.77125000  0.41513000  0.59453000  1.0
  C  C137  1  0.22874000  0.58487000  0.09453000  1.0
  C  C138  1  0.35656000  0.58522000  0.40554000  1.0
  C  C139  1  0.64344000  0.41479000  0.90554000  1.0
  C  C140  1  0.61525000  0.36976000  0.58310000  1.0
  C  C141  1  0.38475000  0.63024000  0.08310000  1.0
  C  C142  1  0.24570000  0.63035000  0.41700000  1.0
  C  C143  1  0.75429000  0.36966000  0.91700000  1.0
  C  C144  1  0.51229000  0.36997000  0.61936000  1.0
  C  C145  1  0.48771000  0.63003000  0.11937000  1.0
  C  C146  1  0.14234000  0.62994000  0.38078000  1.0
  C  C147  1  0.85766000  0.37007000  0.88078000  1.0
  C  C148  1  0.56509000  0.41590000  0.66643000  1.0
  C  C149  1  0.43491000  0.58410000  0.16643000  1.0
  C  C150  1  0.14926000  0.58413000  0.33370000  1.0
  C  C151  1  0.85075000  0.41588000  0.83370000  1.0
  C  C152  1  0.72131000  0.45442000  0.67764000  1.0
  C  C153  1  0.27869000  0.54558000  0.17764000  1.0
  C  C154  1  0.26712000  0.54578000  0.32247000  1.0
  C  C155  1  0.73289000  0.45423000  0.82247000  1.0
  C  C156  1  0.82500000  0.45299000  0.64203000  1.0
  C  C157  1  0.17500000  0.54701000  0.14203000  1.0
  C  C158  1  0.37242000  0.54737000  0.35804000  1.0
  C  C159  1  0.62758000  0.45263000  0.85803000  1.0
  C  C160  1  0.45812000  0.43459000  0.70259000  1.0
  C  C161  1  0.54187000  0.56542000  0.20259000  1.0
  C  C162  1  0.02358000  0.56539000  0.29751000  1.0
  C  C163  1  0.97642000  0.43462000  0.79751000  1.0
  C  C164  1  0.59780000  0.78960000  0.76868000  1.0
  C  C165  1  0.40220000  0.21040000  0.26868000  1.0
  C  C166  1  0.80825000  0.21026000  0.23126000  1.0
  C  C167  1  0.19176000  0.78974000  0.73125000  1.0
  C  C168  1  0.51451000  0.72691000  0.81383000  1.0
  C  C169  1  0.48549000  0.27309000  0.31383000  1.0
  C  C170  1  0.78755000  0.27299000  0.18611000  1.0
  C  C171  1  0.21246000  0.72702000  0.68611000  1.0
  C  C172  1  0.34035000  0.60337000  0.86463000  1.0
  C  C173  1  0.65966000  0.39663000  0.36463000  1.0
  C  C174  1  0.73667000  0.39652000  0.13535000  1.0
  C  C175  1  0.26333000  0.60349000  0.63534000  1.0
  C  C176  1  0.46494000  0.67606000  0.89258000  1.0
  C  C177  1  0.53506000  0.32394000  0.39258000  1.0
  C  C178  1  0.78830000  0.32368000  0.10736000  1.0
  C  C179  1  0.21171000  0.67633000  0.60736000  1.0
  C  C180  1  0.73035000  0.83968000  0.87292000  1.0
  C  C181  1  0.26965000  0.16032000  0.37292000  1.0
  C  C182  1  0.89001000  0.15989000  0.12693000  1.0
  C  C183  1  0.10999000  0.84011000  0.62693000  1.0
  C  C184  1  0.84250000  0.77717000  0.86693000  1.0
  C  C185  1  0.15750000  0.22283000  0.36693000  1.0
  C  C186  1  0.06459000  0.22202000  0.13300000  1.0
  C  C187  1  0.93541000  0.77797000  0.63300000  1.0
  C  C188  1  0.00722000  0.86614000  0.87948000  1.0
  C  C189  1  0.99278000  0.13386000  0.37948000  1.0
  C  C190  1  0.14039000  0.13302000  0.12049000  1.0
  C  C191  1  0.85961000  0.86698000  0.62049000  1.0
  C  C192  1  0.11834000  0.80311000  0.87217000  1.0
  C  C193  1  0.88166000  0.19688000  0.37217000  1.0
  C  C194  1  0.31445000  0.19622000  0.12786000  1.0
  C  C195  1  0.68555000  0.80378000  0.62786000  1.0
  C  C196  1  0.38709000  0.97384000  0.85908000  1.0
  C  C197  1  0.61291000  0.02615000  0.35907000  1.0
  C  C198  1  0.41313000  0.02588000  0.14096000  1.0
  C  C199  1  0.58687000  0.97412000  0.64095000  1.0
  C  C200  1  0.51206000  0.03015000  0.88915000  1.0
  C  C201  1  0.48793000  0.96985000  0.38915000  1.0
  C  C202  1  0.48189000  0.96962000  0.11087000  1.0
  C  C203  1  0.51812000  0.03038000  0.61087000  1.0
  C  C204  1  0.33217000  0.88856000  0.93340000  1.0
  C  C205  1  0.66783000  0.11143000  0.43340000  1.0
  C  C206  1  0.44321000  0.11108000  0.06662000  1.0
  C  C207  1  0.55679000  0.88891000  0.56662000  1.0
  C  C208  1  0.24728000  0.80534000  0.97420000  1.0
  C  C209  1  0.75272000  0.19466000  0.47420000  1.0
  C  C210  1  0.44137000  0.19433000  0.02584000  1.0
  C  C211  1  0.55863000  0.80567000  0.52584000  1.0
  N  N212  1  0.37217000  0.63611000  0.81573000  1.0
  N  N213  1  0.62784000  0.36388000  0.31573000  1.0
  N  N214  1  0.73608000  0.36388000  0.18425000  1.0
  N  N215  1  0.26392000  0.63612000  0.68424000  1.0
  N  N216  1  0.57379000  0.75372000  0.86004000  1.0
  N  N217  1  0.42621000  0.24628000  0.36004000  1.0
  N  N218  1  0.81970000  0.24606000  0.13988000  1.0
  N  N219  1  0.18031000  0.75394000  0.63988000  1.0
  N  N220  1  0.27465000  0.88422000  0.88738000  1.0
  N  N221  1  0.72535000  0.11578000  0.38738000  1.0
  N  N222  1  0.39003000  0.11538000  0.11264000  1.0
  N  N223  1  0.60997000  0.88462000  0.61264000  1.0
  N  N224  1  0.47628000  0.97640000  0.93524000  1.0
  N  N225  1  0.52372000  0.02359000  0.43524000  1.0
  N  N226  1  0.49974000  0.02337000  0.06478000  1.0
  N  N227  1  0.50027000  0.97662000  0.56478000  1.0
  O  O228  1  0.35599000  0.20917000  0.49703000  1.0
  O  O229  1  0.64401000  0.79084000  0.99703000  1.0
  O  O230  1  0.14751000  0.79096000  0.50277000  1.0
  O  O231  1  0.85248000  0.20904000  0.00277000  1.0
  O  O232  1  0.21820000  0.06998000  0.55406000  1.0
  O  O233  1  0.78178000  0.93002000  0.05406000  1.0
  O  O234  1  0.14864000  0.93054000  0.44597000  1.0
  O  O235  1  0.85136000  0.06946000  0.94598000  1.0
  O  O236  1  0.87313000  0.43293000  0.55581000  1.0
  O  O237  1  0.12687000  0.56707000  0.05581000  1.0
  O  O238  1  0.44086000  0.56759000  0.44423000  1.0
  O  O239  1  0.55914000  0.43242000  0.94423000  1.0
  O  O240  1  0.31318000  0.38196000  0.69393000  1.0
  O  O241  1  0.68681000  0.61804000  0.19393000  1.0
  O  O242  1  0.93127000  0.61804000  0.30616000  1.0
  O  O243  1  0.06874000  0.38196000  0.80615000  1.0
  O  O244  1  0.51516000  0.50821000  0.73869000  1.0
  O  O245  1  0.48484000  0.49179000  0.23869000  1.0
  O  O246  1  0.00709000  0.49178000  0.26140000  1.0
  O  O247  1  0.99292000  0.50825000  0.76141000  1.0
