# generated using pymatgen
data_Zn8H45C75NO28
_symmetry_space_group_name_H-M   'P 1'
_cell_length_a   18.53540000
_cell_length_b   20.30620000
_cell_length_c   20.94420000
_cell_angle_alpha   70.61330000
_cell_angle_beta   69.38920000
_cell_angle_gamma   68.35320000
_symmetry_Int_Tables_number   1
_chemical_formula_structural   Zn8H45C75NO28
_chemical_formula_sum   'Zn16 H90 C150 N2 O56'
_cell_volume   6670.52601212
_cell_formula_units_Z   2
loop_
 _symmetry_equiv_pos_site_id
 _symmetry_equiv_pos_as_xyz
  1  'x, y, z'
loop_
 _atom_site_type_symbol
 _atom_site_label
 _atom_site_symmetry_multiplicity
 _atom_site_fract_x
 _atom_site_fract_y
 _atom_site_fract_z
 _atom_site_occupancy
  Zn  Zn0  1  0.36288000  0.21050000  0.53037000  1.0
  Zn  Zn1  1  0.38406000  0.35843000  0.53482000  1.0
  Zn  Zn2  1  0.21439000  0.35144000  0.53623000  1.0
  Zn  Zn3  1  0.36058000  0.34261000  0.39642000  1.0
  Zn  Zn4  1  0.80117000  0.79414000  0.10237000  1.0
  Zn  Zn5  1  0.80891000  0.92112000  0.96627000  1.0
  Zn  Zn6  1  0.94687000  0.77600000  0.96586000  1.0
  Zn  Zn7  1  0.77650000  0.77036000  0.96244000  1.0
  Zn  Zn8  1  0.63712000  0.78950000  0.46963000  1.0
  Zn  Zn9  1  0.61595000  0.64157000  0.46518000  1.0
  Zn  Zn10  1  0.78560000  0.64856000  0.46377000  1.0
  Zn  Zn11  1  0.63942000  0.65739000  0.60358000  1.0
  Zn  Zn12  1  0.19883000  0.20586000  0.89763000  1.0
  Zn  Zn13  1  0.19109000  0.07888000  0.03374000  1.0
  Zn  Zn14  1  0.05312000  0.22400000  0.03413000  1.0
  Zn  Zn15  1  0.22351000  0.22963000  0.03755000  1.0
  H  H16  1  0.45239000  0.39917000  0.24483000  1.0
  H  H17  1  0.44669000  0.32255000  0.25842000  1.0
  H  H18  1  0.24407000  0.06298000  0.67128000  1.0
  H  H19  1  0.46451000  0.54394000  0.43183000  1.0
  H  H20  1  0.93487000  0.05920000  0.83794000  1.0
  H  H21  1  0.62993000  0.68434000  0.24959000  1.0
  H  H22  1  0.54173000  0.44731000  0.25554000  1.0
  H  H23  1  0.53835000  0.63621000  0.36067000  1.0
  H  H24  1  0.87337000  0.61659000  0.83897000  1.0
  H  H25  1  0.93439000  0.68202000  0.24979000  1.0
  H  H26  1  0.07410000  0.46723000  0.68591000  1.0
  H  H27  1  0.59577000  0.95500000  0.36510000  1.0
  H  H28  1  0.50074000  0.04764000  0.43278000  1.0
  H  H29  1  0.04347000  0.52045000  0.44179000  1.0
  H  H30  1  0.13990000  0.86993000  0.83968000  1.0
  H  H31  1  0.95730000  0.61776000  0.36818000  1.0
  H  H32  1  0.68246000  0.09318000  0.06053000  1.0
  H  H33  1  0.59459000  0.18726000  0.12924000  1.0
  H  H34  1  0.67330000  0.92367000  0.24921000  1.0
  H  H35  1  0.22899000  0.94405000  0.75161000  1.0
  H  H36  1  0.51135000  0.21696000  0.24299000  1.0
  H  H37  1  0.12569000  0.64401000  0.06514000  1.0
  H  H38  1  0.09693000  0.63836000  0.83443000  1.0
  H  H39  1  0.21711000  0.55519000  0.13895000  1.0
  H  H40  1  0.23521000  0.48154000  0.25720000  1.0
  H  H41  1  0.22592000  0.57476000  0.75940000  1.0
  H  H42  1  0.94597000  0.53067000  0.75978000  1.0
  H  H43  1  0.29725000  0.49553000  0.67418000  1.0
  H  H44  1  0.95014000  0.17827000  0.75745000  1.0
  H  H45  1  0.71502000  0.58260000  0.07660000  1.0
  H  H46  1  0.56275000  0.95082000  0.73489000  1.0
  H  H47  1  0.03748000  0.25107000  0.66554000  1.0
  H  H48  1  0.50591000  0.06905000  0.65918000  1.0
  H  H49  1  0.63480000  0.49427000  0.14475000  1.0
  H  H50  1  0.56276000  0.26131000  0.64548000  1.0
  H  H51  1  0.70233000  0.07177000  0.80712000  1.0
  H  H52  1  0.64601000  0.87994000  0.82068000  1.0
  H  H53  1  0.64851000  0.18977000  0.72771000  1.0
  H  H54  1  0.75354000  0.63962000  0.94445000  1.0
  H  H55  1  0.63573000  0.56784000  0.91628000  1.0
  H  H56  1  0.68900000  0.60609000  0.83135000  1.0
  H  H57  1  0.73817000  0.56473000  0.90089000  1.0
  H  H58  1  0.59675000  0.74741000  0.83213000  1.0
  H  H59  1  0.53723000  0.69384000  0.89979000  1.0
  H  H60  1  0.56143000  0.76240000  0.91883000  1.0
  H  H61  1  0.54760000  0.60082000  0.75517000  1.0
  H  H62  1  0.55331000  0.67745000  0.74158000  1.0
  H  H63  1  0.75593000  0.93702000  0.32873000  1.0
  H  H64  1  0.53548000  0.45607000  0.56817000  1.0
  H  H65  1  0.06513000  0.94079000  0.16207000  1.0
  H  H66  1  0.37007000  0.31566000  0.75041000  1.0
  H  H67  1  0.45826000  0.55269000  0.74446000  1.0
  H  H68  1  0.46165000  0.36379000  0.63933000  1.0
  H  H69  1  0.12663000  0.38341000  0.16103000  1.0
  H  H70  1  0.06560000  0.31798000  0.75021000  1.0
  H  H71  1  0.92590000  0.53276000  0.31410000  1.0
  H  H72  1  0.40423000  0.04499000  0.63489000  1.0
  H  H73  1  0.49926000  0.95235000  0.56722000  1.0
  H  H74  1  0.95652000  0.47955000  0.55821000  1.0
  H  H75  1  0.86009000  0.13007000  0.16032000  1.0
  H  H76  1  0.04269000  0.38224000  0.63182000  1.0
  H  H77  1  0.31755000  0.90682000  0.93947000  1.0
  H  H78  1  0.40542000  0.81274000  0.87076000  1.0
  H  H79  1  0.32670000  0.07632000  0.75078000  1.0
  H  H80  1  0.77101000  0.05595000  0.24839000  1.0
  H  H81  1  0.48865000  0.78303000  0.75701000  1.0
  H  H82  1  0.87430000  0.35600000  0.93486000  1.0
  H  H83  1  0.90307000  0.36164000  0.16556000  1.0
  H  H84  1  0.78289000  0.44482000  0.86105000  1.0
  H  H85  1  0.76479000  0.51846000  0.74280000  1.0
  H  H86  1  0.77408000  0.42523000  0.24060000  1.0
  H  H87  1  0.05403000  0.46933000  0.24021000  1.0
  H  H88  1  0.70275000  0.50447000  0.32582000  1.0
  H  H89  1  0.04986000  0.82173000  0.24255000  1.0
  H  H90  1  0.28498000  0.41740000  0.92340000  1.0
  H  H91  1  0.43725000  0.04918000  0.26511000  1.0
  H  H92  1  0.96253000  0.74893000  0.33446000  1.0
  H  H93  1  0.49409000  0.93095000  0.34082000  1.0
  H  H94  1  0.36520000  0.50574000  0.85524000  1.0
  H  H95  1  0.43724000  0.73869000  0.35453000  1.0
  H  H96  1  0.29767000  0.92823000  0.19288000  1.0
  H  H97  1  0.35399000  0.12005000  0.17932000  1.0
  H  H98  1  0.35149000  0.81023000  0.27230000  1.0
  H  H99  1  0.24646000  0.36038000  0.05555000  1.0
  H  H100  1  0.36427000  0.43216000  0.08372000  1.0
  H  H101  1  0.31100000  0.39391000  0.16865000  1.0
  H  H102  1  0.26183000  0.43526000  0.09911000  1.0
  H  H103  1  0.40325000  0.25259000  0.16787000  1.0
  H  H104  1  0.46277000  0.30615000  0.10021000  1.0
  H  H105  1  0.43857000  0.23760000  0.08117000  1.0
  C  C106  1  0.45308000  0.43647000  0.38998000  1.0
  C  C107  1  0.93790000  0.68412000  0.88783000  1.0
  C  C108  1  0.97815000  0.91709000  0.89472000  1.0
  C  C109  1  0.19859000  0.20457000  0.61014000  1.0
  C  C110  1  0.17983000  0.08746000  0.69068000  1.0
  C  C111  1  0.49776000  0.54413000  0.37731000  1.0
  C  C112  1  0.49808000  0.49092000  0.34695000  1.0
  C  C113  1  0.99917000  0.03492000  0.81836000  1.0
  C  C114  1  0.62982000  0.64307000  0.22708000  1.0
  C  C115  1  0.54084000  0.48904000  0.27805000  1.0
  C  C116  1  0.98191000  0.63170000  0.84131000  1.0
  C  C117  1  0.13190000  0.04443000  0.74244000  1.0
  C  C118  1  0.58392000  0.59372000  0.26740000  1.0
  C  C119  1  0.14617000  0.16059000  0.66373000  1.0
  C  C120  1  0.53871000  0.59493000  0.33792000  1.0
  C  C121  1  0.04733000  0.07804000  0.76706000  1.0
  C  C122  1  0.93868000  0.60130000  0.82011000  1.0
  C  C123  1  0.03228000  0.96128000  0.84348000  1.0
  C  C124  1  0.04643000  0.60436000  0.26972000  1.0
  C  C125  1  0.99649000  0.65446000  0.22637000  1.0
  C  C126  1  0.10652000  0.49074000  0.70268000  1.0
  C  C127  1  0.57666000  0.01227000  0.33859000  1.0
  C  C128  1  0.52432000  0.06313000  0.37617000  1.0
  C  C129  1  0.49932000  0.13770000  0.34149000  1.0
  C  C130  1  0.60579000  0.03301000  0.26444000  1.0
  C  C131  1  0.14391000  0.49474000  0.35283000  1.0
  C  C132  1  0.06395000  0.53657000  0.75004000  1.0
  C  C133  1  0.06534000  0.53407000  0.38487000  1.0
  C  C134  1  0.44201000  0.19124000  0.38378000  1.0
  C  C135  1  0.11584000  0.92801000  0.81899000  1.0
  C  C136  1  0.01802000  0.58786000  0.34412000  1.0
  C  C137  1  0.66015000  0.07824000  0.11734000  1.0
  C  C138  1  0.67597000  0.63887000  0.15948000  1.0
  C  C139  1  0.61165000  0.12964000  0.15543000  1.0
  C  C140  1  0.23186000  0.42846000  0.62553000  1.0
  C  C141  1  0.02470000  0.66705000  0.15408000  1.0
  C  C142  1  0.72439000  0.69131000  0.11736000  1.0
  C  C143  1  0.19428000  0.43464000  0.39654000  1.0
  C  C144  1  0.65578000  0.98140000  0.22386000  1.0
  C  C145  1  0.68171000  0.00336000  0.15168000  1.0
  C  C146  1  0.16456000  0.96900000  0.77019000  1.0
  C  C147  1  0.18918000  0.47612000  0.67624000  1.0
  C  C148  1  0.58214000  0.10857000  0.22945000  1.0
  C  C149  1  0.73085000  0.94810000  0.10870000  1.0
  C  C150  1  0.52893000  0.15969000  0.26961000  1.0
  C  C151  1  0.96914000  0.71548000  0.10907000  1.0
  C  C152  1  0.10539000  0.63194000  0.12220000  1.0
  C  C153  1  0.06497000  0.61424000  0.81766000  1.0
  C  C154  1  0.15528000  0.58300000  0.16307000  1.0
  C  C155  1  0.10791000  0.56732000  0.77120000  1.0
  C  C156  1  0.12696000  0.56647000  0.23743000  1.0
  C  C157  1  0.58558000  0.53909000  0.23708000  1.0
  C  C158  1  0.17436000  0.51182000  0.28061000  1.0
  C  C159  1  0.19275000  0.55115000  0.74338000  1.0
  C  C160  1  0.97886000  0.55431000  0.77609000  1.0
  C  C161  1  0.23257000  0.50715000  0.69655000  1.0
  C  C162  1  0.01447000  0.15318000  0.73857000  1.0
  C  C163  1  0.67746000  0.58479000  0.12964000  1.0
  C  C164  1  0.59371000  0.97702000  0.75046000  1.0
  C  C165  1  0.58522000  0.05272000  0.72167000  1.0
  C  C166  1  0.47401000  0.21192000  0.60163000  1.0
  C  C167  1  0.06245000  0.19366000  0.68791000  1.0
  C  C168  1  0.52849000  0.16891000  0.64824000  1.0
  C  C169  1  0.72513000  0.93035000  0.87179000  1.0
  C  C170  1  0.53721000  0.09490000  0.67457000  1.0
  C  C171  1  0.67836000  0.97274000  0.81827000  1.0
  C  C172  1  0.63331000  0.53618000  0.16746000  1.0
  C  C173  1  0.56951000  0.20335000  0.66731000  1.0
  C  C174  1  0.67187000  0.04614000  0.79042000  1.0
  C  C175  1  0.62564000  0.08787000  0.74174000  1.0
  C  C176  1  0.63933000  0.93780000  0.79760000  1.0
  C  C177  1  0.61703000  0.16352000  0.71279000  1.0
  C  C178  1  0.69927000  0.68376000  0.93448000  1.0
  C  C179  1  0.68105000  0.59758000  0.88777000  1.0
  C  C180  1  0.58319000  0.72101000  0.88842000  1.0
  C  C181  1  0.54692000  0.56353000  0.61002000  1.0
  C  C182  1  0.06210000  0.31589000  0.11216000  1.0
  C  C183  1  0.02185000  0.08292000  0.10529000  1.0
  C  C184  1  0.80142000  0.79543000  0.38987000  1.0
  C  C185  1  0.82017000  0.91254000  0.30932000  1.0
  C  C186  1  0.50223000  0.45587000  0.62269000  1.0
  C  C187  1  0.50191000  0.50908000  0.65305000  1.0
  C  C188  1  0.00083000  0.96508000  0.18165000  1.0
  C  C189  1  0.37018000  0.35693000  0.77292000  1.0
  C  C190  1  0.45915000  0.51097000  0.72195000  1.0
  C  C191  1  0.01809000  0.36831000  0.15867000  1.0
  C  C192  1  0.86811000  0.95556000  0.25757000  1.0
  C  C193  1  0.41608000  0.40628000  0.73259000  1.0
  C  C194  1  0.85383000  0.83941000  0.33628000  1.0
  C  C195  1  0.46128000  0.40508000  0.66208000  1.0
  C  C196  1  0.95267000  0.92196000  0.23294000  1.0
  C  C197  1  0.06132000  0.39870000  0.17989000  1.0
  C  C198  1  0.96772000  0.03872000  0.15652000  1.0
  C  C199  1  0.95357000  0.39564000  0.73028000  1.0
  C  C200  1  0.00351000  0.34555000  0.77364000  1.0
  C  C201  1  0.89348000  0.50926000  0.29731000  1.0
  C  C202  1  0.42334000  0.98773000  0.66141000  1.0
  C  C203  1  0.47568000  0.93686000  0.62383000  1.0
  C  C204  1  0.50068000  0.86230000  0.65851000  1.0
  C  C205  1  0.39421000  0.96699000  0.73556000  1.0
  C  C206  1  0.85609000  0.50526000  0.64717000  1.0
  C  C207  1  0.93605000  0.46343000  0.24996000  1.0
  C  C208  1  0.93466000  0.46593000  0.61513000  1.0
  C  C209  1  0.55799000  0.80876000  0.61622000  1.0
  C  C210  1  0.88416000  0.07199000  0.18101000  1.0
  C  C211  1  0.98197000  0.41213000  0.65589000  1.0
  C  C212  1  0.33986000  0.92176000  0.88266000  1.0
  C  C213  1  0.32404000  0.36113000  0.84051000  1.0
  C  C214  1  0.38835000  0.87035000  0.84458000  1.0
  C  C215  1  0.76813000  0.57154000  0.37447000  1.0
  C  C216  1  0.97530000  0.33295000  0.84593000  1.0
  C  C217  1  0.27562000  0.30868000  0.88264000  1.0
  C  C218  1  0.80571000  0.56536000  0.60346000  1.0
  C  C219  1  0.34422000  0.01860000  0.77614000  1.0
  C  C220  1  0.31830000  0.99665000  0.84832000  1.0
  C  C221  1  0.83544000  0.03100000  0.22982000  1.0
  C  C222  1  0.81082000  0.52388000  0.32375000  1.0
  C  C223  1  0.41786000  0.89142000  0.77055000  1.0
  C  C224  1  0.26916000  0.05190000  0.89130000  1.0
  C  C225  1  0.47107000  0.84031000  0.73039000  1.0
  C  C226  1  0.03086000  0.28453000  0.89094000  1.0
  C  C227  1  0.89460000  0.36807000  0.87780000  1.0
  C  C228  1  0.93503000  0.38576000  0.18233000  1.0
  C  C229  1  0.84471000  0.41700000  0.83693000  1.0
  C  C230  1  0.89209000  0.43268000  0.22879000  1.0
  C  C231  1  0.87304000  0.43354000  0.76257000  1.0
  C  C232  1  0.41442000  0.46092000  0.76292000  1.0
  C  C233  1  0.82564000  0.48819000  0.71939000  1.0
  C  C234  1  0.80725000  0.44885000  0.25662000  1.0
  C  C235  1  0.02114000  0.44569000  0.22390000  1.0
  C  C236  1  0.76743000  0.49285000  0.30345000  1.0
  C  C237  1  0.98554000  0.84682000  0.26143000  1.0
  C  C238  1  0.32254000  0.41521000  0.87036000  1.0
  C  C239  1  0.40629000  0.02297000  0.24954000  1.0
  C  C240  1  0.41478000  0.94727000  0.27833000  1.0
  C  C241  1  0.52599000  0.78807000  0.39837000  1.0
  C  C242  1  0.93755000  0.80634000  0.31210000  1.0
  C  C243  1  0.47151000  0.83108000  0.35176000  1.0
  C  C244  1  0.27488000  0.06964000  0.12820000  1.0
  C  C245  1  0.46279000  0.90509000  0.32543000  1.0
  C  C246  1  0.32165000  0.02725000  0.18172000  1.0
  C  C247  1  0.36669000  0.46382000  0.83254000  1.0
  C  C248  1  0.43048000  0.79664000  0.33270000  1.0
  C  C249  1  0.32813000  0.95385000  0.20958000  1.0
  C  C250  1  0.37436000  0.91213000  0.25826000  1.0
  C  C251  1  0.36068000  0.06220000  0.20240000  1.0
  C  C252  1  0.38297000  0.83648000  0.28722000  1.0
  C  C253  1  0.30074000  0.31624000  0.06551000  1.0
  C  C254  1  0.31894000  0.40242000  0.11223000  1.0
  C  C255  1  0.41681000  0.27899000  0.11158000  1.0
  N  N256  1  0.65513000  0.66717000  0.90651000  1.0
  N  N257  1  0.34487000  0.33283000  0.09349000  1.0
  O  O258  1  0.33111000  0.31634000  0.49839000  1.0
  O  O259  1  0.82981000  0.81546000  0.99948000  1.0
  O  O260  1  0.00579000  0.84786000  0.90439000  1.0
  O  O261  1  0.16384000  0.42125000  0.46289000  1.0
  O  O262  1  0.41688000  0.16596000  0.44922000  1.0
  O  O263  1  0.18889000  0.40313000  0.60898000  1.0
  O  O264  1  0.27382000  0.17197000  0.59211000  1.0
  O  O265  1  0.90788000  0.95214000  0.92420000  1.0
  O  O266  1  0.30821000  0.41648000  0.60215000  1.0
  O  O267  1  0.43574000  0.42645000  0.45643000  1.0
  O  O268  1  0.98079000  0.70397000  0.91000000  1.0
  O  O269  1  0.72447000  0.73601000  0.14858000  1.0
  O  O270  1  0.46260000  0.28108000  0.58253000  1.0
  O  O271  1  0.74796000  0.97259000  0.04238000  1.0
  O  O272  1  0.99975000  0.72564000  0.04292000  1.0
  O  O273  1  0.75082000  0.96714000  0.89385000  1.0
  O  O274  1  0.43501000  0.40393000  0.35717000  1.0
  O  O275  1  0.89599000  0.74150000  0.14038000  1.0
  O  O276  1  0.75051000  0.88164000  0.14146000  1.0
  O  O277  1  0.44188000  0.17657000  0.58457000  1.0
  O  O278  1  0.16504000  0.27172000  0.58619000  1.0
  O  O279  1  0.86146000  0.70528000  0.90112000  1.0
  O  O280  1  0.26390000  0.40081000  0.36413000  1.0
  O  O281  1  0.42161000  0.25880000  0.35201000  1.0
  O  O282  1  0.45128000  0.36614000  0.22057000  1.0
  O  O283  1  0.76188000  0.68819000  0.05418000  1.0
  O  O284  1  0.73492000  0.86226000  0.89142000  1.0
  O  O285  1  0.68197000  0.74417000  0.94810000  1.0
  O  O286  1  0.66889000  0.68366000  0.50161000  1.0
  O  O287  1  0.17019000  0.18455000  0.00052000  1.0
  O  O288  1  0.99421000  0.15214000  0.09562000  1.0
  O  O289  1  0.83615000  0.57874000  0.53711000  1.0
  O  O290  1  0.58312000  0.83404000  0.55078000  1.0
  O  O291  1  0.81110000  0.59688000  0.39101000  1.0
  O  O292  1  0.72618000  0.82803000  0.40790000  1.0
  O  O293  1  0.09212000  0.04786000  0.07580000  1.0
  O  O294  1  0.69178000  0.58353000  0.39784000  1.0
  O  O295  1  0.56425000  0.57356000  0.54357000  1.0
  O  O296  1  0.01921000  0.29604000  0.08999000  1.0
  O  O297  1  0.27554000  0.26398000  0.85143000  1.0
  O  O298  1  0.53740000  0.71891000  0.41746000  1.0
  O  O299  1  0.25204000  0.02741000  0.95762000  1.0
  O  O300  1  0.00024000  0.27437000  0.95709000  1.0
  O  O301  1  0.24918000  0.03286000  0.10614000  1.0
  O  O302  1  0.56499000  0.59607000  0.64283000  1.0
  O  O303  1  0.10401000  0.25851000  0.85963000  1.0
  O  O304  1  0.24950000  0.11836000  0.85853000  1.0
  O  O305  1  0.55813000  0.82343000  0.41542000  1.0
  O  O306  1  0.83497000  0.72828000  0.41382000  1.0
  O  O307  1  0.13854000  0.29473000  0.09887000  1.0
  O  O308  1  0.73609000  0.59918000  0.63587000  1.0
  O  O309  1  0.57840000  0.74120000  0.64799000  1.0
  O  O310  1  0.54871000  0.63386000  0.77943000  1.0
  O  O311  1  0.23813000  0.31180000  0.94582000  1.0
  O  O312  1  0.26510000  0.13773000  0.10857000  1.0
  O  O313  1  0.31804000  0.25583000  0.05190000  1.0
