# generated using pymatgen
data_CdP2H18C12(NO4)2
_symmetry_space_group_name_H-M   'P 1'
_cell_length_a   8.66640000
_cell_length_b   9.70623281
_cell_length_c   11.63840000
_cell_angle_alpha   87.59478276
_cell_angle_beta   68.15930000
_cell_angle_gamma   63.51680087
_symmetry_Int_Tables_number   1
_chemical_formula_structural   CdP2H18C12(NO4)2
_chemical_formula_sum   'Cd2 P4 H36 C24 N4 O16'
_cell_volume   804.27143907
_cell_formula_units_Z   2
loop_
 _symmetry_equiv_pos_site_id
 _symmetry_equiv_pos_as_xyz
  1  'x, y, z'
loop_
 _atom_site_type_symbol
 _atom_site_label
 _atom_site_symmetry_multiplicity
 _atom_site_fract_x
 _atom_site_fract_y
 _atom_site_fract_z
 _atom_site_occupancy
  Cd  Cd0  1  0.50000000  0.50000000  0.00000000  1.0
  Cd  Cd1  1  0.50000000  0.00000000  0.50000000  1.0
  P  P2  1  0.32341000  0.82303000  0.20853000  1.0
  P  P3  1  0.85491000  0.67703000  0.29149000  1.0
  P  P4  1  0.67659000  0.17697000  0.79147000  1.0
  P  P5  1  0.14509000  0.32297000  0.70851000  1.0
  H  H6  1  0.77563000  0.53889000  0.08653000  1.0
  H  H7  1  0.90069000  0.96129000  0.41345000  1.0
  H  H8  1  0.22437000  0.46111000  0.91347000  1.0
  H  H9  1  0.09931000  0.03871000  0.58655000  1.0
  H  H10  1  0.89188000  0.46566000  0.94275000  1.0
  H  H11  1  0.80020000  0.03451000  0.55728000  1.0
  H  H12  1  0.10812000  0.53434000  0.05726000  1.0
  H  H13  1  0.19979000  0.96550000  0.44272000  1.0
  H  H14  1  0.53971000  0.73956000  0.29523000  1.0
  H  H15  1  0.07450000  0.76050000  0.20478000  1.0
  H  H16  1  0.46029000  0.26044000  0.70477000  1.0
  H  H17  1  0.92550000  0.23950000  0.79522000  1.0
  H  H18  1  0.04572000  0.16444000  0.01689000  1.0
  H  H19  1  0.72712000  0.33525000  0.48316000  1.0
  H  H20  1  0.95428000  0.83556000  0.98311000  1.0
  H  H21  1  0.27289000  0.66474000  0.51683000  1.0
  H  H22  1  0.02516000  0.13329000  0.17330000  1.0
  H  H23  1  0.83168000  0.36640000  0.32676000  1.0
  H  H24  1  0.97485000  0.86671000  0.82670000  1.0
  H  H25  1  0.16833000  0.63359000  0.67324000  1.0
  H  H26  1  0.08439000  0.97867000  0.06502000  1.0
  H  H27  1  0.62811000  0.52094000  0.43497000  1.0
  H  H28  1  0.91561000  0.02133000  0.93498000  1.0
  H  H29  1  0.37189000  0.47906000  0.56503000  1.0
  H  H30  1  0.69518000  0.80606000  0.09754000  1.0
  H  H31  1  0.09846000  0.69417000  0.40259000  1.0
  H  H32  1  0.30482000  0.19394000  0.90247000  1.0
  H  H33  1  0.90154000  0.30583000  0.59741000  1.0
  H  H34  1  0.71677000  0.33773000  0.16497000  1.0
  H  H35  1  0.71922000  0.16311000  0.33495000  1.0
  H  H36  1  0.28322000  0.66228000  0.83504000  1.0
  H  H37  1  0.28078000  0.83689000  0.66505000  1.0
  H  H38  1  0.23544000  0.33973000  0.16760000  1.0
  H  H39  1  0.24302000  0.16022000  0.33223000  1.0
  H  H40  1  0.76456000  0.66027000  0.83240000  1.0
  H  H41  1  0.75698000  0.83978000  0.66778000  1.0
  C  C42  1  0.10473000  0.08088000  0.07419000  1.0
  C  C43  1  0.75979000  0.41888000  0.42587000  1.0
  C  C44  1  0.89526000  0.91912000  0.92581000  1.0
  C  C45  1  0.24022000  0.58111000  0.57413000  1.0
  C  C46  1  0.30851000  0.03593000  0.03659000  1.0
  C  C47  1  0.88095000  0.46401000  0.46345000  1.0
  C  C48  1  0.69150000  0.96406000  0.96341000  1.0
  C  C49  1  0.11905000  0.53599000  0.53655000  1.0
  C  C50  1  0.42046000  0.92513000  0.09235000  1.0
  C  C51  1  0.93771000  0.57494000  0.40774000  1.0
  C  C52  1  0.57954000  0.07487000  0.90765000  1.0
  C  C53  1  0.06229000  0.42506000  0.59226000  1.0
  C  C54  1  0.60856000  0.89191000  0.05489000  1.0
  C  C55  1  0.05517000  0.60820000  0.44518000  1.0
  C  C56  1  0.39144000  0.10809000  0.94511000  1.0
  C  C57  1  0.94483000  0.39180000  0.55482000  1.0
  C  C58  1  0.61065000  0.29847000  0.20414000  1.0
  C  C59  1  0.61307000  0.20217000  0.29576000  1.0
  C  C60  1  0.38936000  0.70153000  0.79586000  1.0
  C  C61  1  0.38694000  0.79783000  0.70424000  1.0
  C  C62  1  0.34446000  0.29923000  0.20439000  1.0
  C  C63  1  0.34815000  0.20095000  0.29548000  1.0
  C  C64  1  0.65554000  0.70077000  0.79561000  1.0
  C  C65  1  0.65186000  0.79905000  0.70452000  1.0
  N  N66  1  0.47624000  0.34666000  0.15899000  1.0
  N  N67  1  0.48190000  0.15373000  0.34091000  1.0
  N  N68  1  0.52376000  0.65334000  0.84101000  1.0
  N  N69  1  0.51811000  0.84627000  0.65909000  1.0
  O  O70  1  0.77188000  0.48912000  0.01635000  1.0
  O  O71  1  0.77713000  0.01123000  0.48364000  1.0
  O  O72  1  0.22812000  0.51088000  0.98365000  1.0
  O  O73  1  0.22288000  0.98877000  0.51636000  1.0
  O  O74  1  0.27330000  0.72467000  0.14189000  1.0
  O  O75  1  0.63994000  0.77545000  0.35801000  1.0
  O  O76  1  0.72670000  0.27533000  0.85811000  1.0
  O  O77  1  0.36006000  0.22455000  0.64199000  1.0
  O  O78  1  0.15820000  0.93821000  0.32060000  1.0
  O  O79  1  0.91688000  0.56183000  0.17939000  1.0
  O  O80  1  0.84180000  0.06179000  0.67940000  1.0
  O  O81  1  0.08312000  0.43817000  0.82061000  1.0
  O  O82  1  0.48591000  0.70070000  0.24501000  1.0
  O  O83  1  0.93171000  0.79931000  0.25509000  1.0
  O  O84  1  0.51409000  0.29930000  0.75499000  1.0
  O  O85  1  0.06828000  0.20069000  0.74491000  1.0
