# generated using pymatgen
data_ZnH12C14S2(NO2)2
_symmetry_space_group_name_H-M   'P 1'
_cell_length_a   8.90306000
_cell_length_b   13.19790000
_cell_length_c   16.09050000
_cell_angle_alpha   90.00040000
_cell_angle_beta   90.00100000
_cell_angle_gamma   106.06700000
_symmetry_Int_Tables_number   1
_chemical_formula_structural   ZnH12C14S2(NO2)2
_chemical_formula_sum   'Zn4 H48 C56 S8 N8 O16'
_cell_volume   1816.80938574
_cell_formula_units_Z   4
loop_
 _symmetry_equiv_pos_site_id
 _symmetry_equiv_pos_as_xyz
  1  'x, y, z'
loop_
 _atom_site_type_symbol
 _atom_site_label
 _atom_site_symmetry_multiplicity
 _atom_site_fract_x
 _atom_site_fract_y
 _atom_site_fract_z
 _atom_site_occupancy
  Zn  Zn0  1  0.63865000  0.72777000  0.48983000  1.0
  Zn  Zn1  1  0.13865000  0.72777000  0.01017000  1.0
  Zn  Zn2  1  0.36136000  0.27222000  0.51017000  1.0
  Zn  Zn3  1  0.86136000  0.27224000  0.98982000  1.0
  H  H4  1  0.50039000  0.14065000  0.61171000  1.0
  H  H5  1  0.00037000  0.14066000  0.88827000  1.0
  H  H6  1  0.49961000  0.85935000  0.38829000  1.0
  H  H7  1  0.99960000  0.85935000  0.11171000  1.0
  H  H8  1  0.45437000  0.95181000  0.64733000  1.0
  H  H9  1  0.95436000  0.95182000  0.85266000  1.0
  H  H10  1  0.54563000  0.04819000  0.35267000  1.0
  H  H11  1  0.04562000  0.04819000  0.14733000  1.0
  H  H12  1  0.10190000  0.88043000  0.45312000  1.0
  H  H13  1  0.60191000  0.88044000  0.04687000  1.0
  H  H14  1  0.89811000  0.11956000  0.54688000  1.0
  H  H15  1  0.39809000  0.11956000  0.95312000  1.0
  H  H16  1  0.15955000  0.07274000  0.42872000  1.0
  H  H17  1  0.65955000  0.07275000  0.07127000  1.0
  H  H18  1  0.84047000  0.92725000  0.57127000  1.0
  H  H19  1  0.34045000  0.92725000  0.92872000  1.0
  H  H20  1  0.07253000  0.61253000  0.53806000  1.0
  H  H21  1  0.57253000  0.61254000  0.96194000  1.0
  H  H22  1  0.92749000  0.38747000  0.46194000  1.0
  H  H23  1  0.42748000  0.38746000  0.03806000  1.0
  H  H24  1  0.12378000  0.70112000  0.45395000  1.0
  H  H25  1  0.62380000  0.70113000  0.04605000  1.0
  H  H26  1  0.87623000  0.29888000  0.54605000  1.0
  H  H27  1  0.37621000  0.29887000  0.95395000  1.0
  H  H28  1  0.11437000  0.46009000  0.01660000  1.0
  H  H29  1  0.61439000  0.46009000  0.48340000  1.0
  H  H30  1  0.88562000  0.53991000  0.98340000  1.0
  H  H31  1  0.38563000  0.53992000  0.51660000  1.0
  H  H32  1  0.27435000  0.55772000  0.12963000  1.0
  H  H33  1  0.77436000  0.55771000  0.37037000  1.0
  H  H34  1  0.72563000  0.44228000  0.87037000  1.0
  H  H35  1  0.22566000  0.44229000  0.62963000  1.0
  H  H36  1  0.00959000  0.31563000  0.29858000  1.0
  H  H37  1  0.50959000  0.31563000  0.20142000  1.0
  H  H38  1  0.99040000  0.68435000  0.70142000  1.0
  H  H39  1  0.49043000  0.68437000  0.79859000  1.0
  H  H40  1  0.84718000  0.23641000  0.17753000  1.0
  H  H41  1  0.34720000  0.23640000  0.32246000  1.0
  H  H42  1  0.15281000  0.76358000  0.82246000  1.0
  H  H43  1  0.65283000  0.76360000  0.67754000  1.0
  H  H44  1  0.46491000  0.58860000  0.21710000  1.0
  H  H45  1  0.96491000  0.58860000  0.28290000  1.0
  H  H46  1  0.53506000  0.41138000  0.78291000  1.0
  H  H47  1  0.03510000  0.41141000  0.71711000  1.0
  H  H48  1  0.34243000  0.67310000  0.23771000  1.0
  H  H49  1  0.84242000  0.67310000  0.26228000  1.0
  H  H50  1  0.65755000  0.32689000  0.76229000  1.0
  H  H51  1  0.15758000  0.32691000  0.73772000  1.0
  C  C52  1  0.41274000  0.08012000  0.57864000  1.0
  C  C53  1  0.91273000  0.08013000  0.92135000  1.0
  C  C54  1  0.58727000  0.91988000  0.42136000  1.0
  C  C55  1  0.08725000  0.91988000  0.07864000  1.0
  C  C56  1  0.38656000  0.97481000  0.59800000  1.0
  C  C57  1  0.88656000  0.97483000  0.90198000  1.0
  C  C58  1  0.61344000  0.02518000  0.40199000  1.0
  C  C59  1  0.11343000  0.02518000  0.09801000  1.0
  C  C60  1  0.27108000  0.89842000  0.55451000  1.0
  C  C61  1  0.77109000  0.89843000  0.94548000  1.0
  C  C62  1  0.72892000  0.10158000  0.44549000  1.0
  C  C63  1  0.22891000  0.10157000  0.05451000  1.0
  C  C64  1  0.19081000  0.93425000  0.49057000  1.0
  C  C65  1  0.69082000  0.93426000  0.00942000  1.0
  C  C66  1  0.80920000  0.06575000  0.50942000  1.0
  C  C67  1  0.30918000  0.06574000  0.99058000  1.0
  C  C68  1  0.22337000  0.04172000  0.47567000  1.0
  C  C69  1  0.72337000  0.04174000  0.02432000  1.0
  C  C70  1  0.77664000  0.95827000  0.52432000  1.0
  C  C71  1  0.27663000  0.95827000  0.97568000  1.0
  C  C72  1  0.08756000  0.69503000  0.51944000  1.0
  C  C73  1  0.58757000  0.69506000  0.98056000  1.0
  C  C74  1  0.91245000  0.30496000  0.48056000  1.0
  C  C75  1  0.41244000  0.30495000  0.01944000  1.0
  C  C76  1  0.93041000  0.72040000  0.52989000  1.0
  C  C77  1  0.43042000  0.72043000  0.97011000  1.0
  C  C78  1  0.06959000  0.27959000  0.47011000  1.0
  C  C79  1  0.56958000  0.27958000  0.02988000  1.0
  C  C80  1  0.09244000  0.43235000  0.08046000  1.0
  C  C81  1  0.59246000  0.43236000  0.41953000  1.0
  C  C82  1  0.90754000  0.56764000  0.91954000  1.0
  C  C83  1  0.40756000  0.56765000  0.58046000  1.0
  C  C84  1  0.18470000  0.48558000  0.14470000  1.0
  C  C85  1  0.68470000  0.48557000  0.35530000  1.0
  C  C86  1  0.81530000  0.51442000  0.85531000  1.0
  C  C87  1  0.31531000  0.51442000  0.64470000  1.0
  C  C88  1  0.15545000  0.44679000  0.22633000  1.0
  C  C89  1  0.65546000  0.44679000  0.27367000  1.0
  C  C90  1  0.84452000  0.55320000  0.77367000  1.0
  C  C91  1  0.34456000  0.55322000  0.72633000  1.0
  C  C92  1  0.03412000  0.35291000  0.23770000  1.0
  C  C93  1  0.53412000  0.35290000  0.26229000  1.0
  C  C94  1  0.96586000  0.64708000  0.76229000  1.0
  C  C95  1  0.46590000  0.64710000  0.73770000  1.0
  C  C96  1  0.94559000  0.30646000  0.17009000  1.0
  C  C97  1  0.44559000  0.30645000  0.32991000  1.0
  C  C98  1  0.05441000  0.69354000  0.82991000  1.0
  C  C99  1  0.55442000  0.69354000  0.67009000  1.0
  C  C100  1  0.40139000  0.61811000  0.26568000  1.0
  C  C101  1  0.90139000  0.61811000  0.23432000  1.0
  C  C102  1  0.59859000  0.38188000  0.73432000  1.0
  C  C103  1  0.09862000  0.38190000  0.76569000  1.0
  C  C104  1  0.51924000  0.67686000  0.32970000  1.0
  C  C105  1  0.01924000  0.67686000  0.17031000  1.0
  C  C106  1  0.48073000  0.32312000  0.67032000  1.0
  C  C107  1  0.98077000  0.32316000  0.82970000  1.0
  S  S108  1  0.24233000  0.76882000  0.58531000  1.0
  S  S109  1  0.74234000  0.76883000  0.91469000  1.0
  S  S110  1  0.75767000  0.23118000  0.41470000  1.0
  S  S111  1  0.25767000  0.23118000  0.08531000  1.0
  S  S112  1  0.25636000  0.50903000  0.31301000  1.0
  S  S113  1  0.75635000  0.50902000  0.18699000  1.0
  S  S114  1  0.74362000  0.49096000  0.68699000  1.0
  S  S115  1  0.24366000  0.49098000  0.81302000  1.0
  N  N116  1  0.33131000  0.11451000  0.51909000  1.0
  N  N117  1  0.83130000  0.11452000  0.98090000  1.0
  N  N118  1  0.66870000  0.88549000  0.48090000  1.0
  N  N119  1  0.16868000  0.88549000  0.01909000  1.0
  N  N120  1  0.97319000  0.34478000  0.09197000  1.0
  N  N121  1  0.47320000  0.34478000  0.40802000  1.0
  N  N122  1  0.02680000  0.65521000  0.90803000  1.0
  N  N123  1  0.52681000  0.65523000  0.59197000  1.0
  O  O124  1  0.90331000  0.77019000  0.59138000  1.0
  O  O125  1  0.40332000  0.77021000  0.90863000  1.0
  O  O126  1  0.09668000  0.22979000  0.40863000  1.0
  O  O127  1  0.59669000  0.22979000  0.09137000  1.0
  O  O128  1  0.83426000  0.68559000  0.46949000  1.0
  O  O129  1  0.33428000  0.68561000  0.03051000  1.0
  O  O130  1  0.16576000  0.31441000  0.53050000  1.0
  O  O131  1  0.66573000  0.31441000  0.96949000  1.0
  O  O132  1  0.47488000  0.66207000  0.40686000  1.0
  O  O133  1  0.97489000  0.66208000  0.09315000  1.0
  O  O134  1  0.52511000  0.33790000  0.59315000  1.0
  O  O135  1  0.02514000  0.33794000  0.90687000  1.0
  O  O136  1  0.64614000  0.73559000  0.30526000  1.0
  O  O137  1  0.14614000  0.73558000  0.19475000  1.0
  O  O138  1  0.35383000  0.26440000  0.69474000  1.0
  O  O139  1  0.85387000  0.26445000  0.80526000  1.0
