# generated using pymatgen
data_Cu2H8C14N2O9
_symmetry_space_group_name_H-M   'P 1'
_cell_length_a   6.86156000
_cell_length_b   10.74070000
_cell_length_c   11.08830000
_cell_angle_alpha   86.34560000
_cell_angle_beta   87.28360000
_cell_angle_gamma   87.85480000
_symmetry_Int_Tables_number   1
_chemical_formula_structural   Cu2H8C14N2O9
_chemical_formula_sum   'Cu4 H16 C28 N4 O18'
_cell_volume   814.12157855
_cell_formula_units_Z   2
loop_
 _symmetry_equiv_pos_site_id
 _symmetry_equiv_pos_as_xyz
  1  'x, y, z'
loop_
 _atom_site_type_symbol
 _atom_site_label
 _atom_site_symmetry_multiplicity
 _atom_site_fract_x
 _atom_site_fract_y
 _atom_site_fract_z
 _atom_site_occupancy
  Cu  Cu0  1  0.80670000  0.00603000  0.31298000  1.0
  Cu  Cu1  1  0.19330000  0.99396000  0.68701000  1.0
  Cu  Cu2  1  0.49803000  0.86073000  0.48352000  1.0
  Cu  Cu3  1  0.50195000  0.13927000  0.51647000  1.0
  H  H4  1  0.84190000  0.83604000  0.89246000  1.0
  H  H5  1  0.15809000  0.16396000  0.10753000  1.0
  H  H6  1  0.16403000  0.29007000  0.26900000  1.0
  H  H7  1  0.83599000  0.70989000  0.73101000  1.0
  H  H8  1  0.69253000  0.50896000  0.42883000  1.0
  H  H9  1  0.30747000  0.49103000  0.57115000  1.0
  H  H10  1  0.61085000  0.21338000  0.91166000  1.0
  H  H11  1  0.38915000  0.78663000  0.08834000  1.0
  H  H12  1  0.66872000  0.19544000  0.13346000  1.0
  H  H13  1  0.33127000  0.80456000  0.86654000  1.0
  H  H14  1  0.87286000  0.82877000  0.11777000  1.0
  H  H15  1  0.12712000  0.17123000  0.88223000  1.0
  H  H16  1  0.20310000  0.69070000  0.27224000  1.0
  H  H17  1  0.79689000  0.30927000  0.72776000  1.0
  H  H18  1  0.76110000  0.98438000  0.55432000  1.0
  H  H19  1  0.23888000  0.01563000  0.44567000  1.0
  C  C20  1  0.80108000  0.27249000  0.37637000  1.0
  C  C21  1  0.19894000  0.72752000  0.62361000  1.0
  C  C22  1  0.79862000  0.91659000  0.94347000  1.0
  C  C23  1  0.20137000  0.08341000  0.05653000  1.0
  C  C24  1  0.09932000  0.38024000  0.29140000  1.0
  C  C25  1  0.90068000  0.61976000  0.70861000  1.0
  C  C26  1  0.72566000  0.02629000  0.88448000  1.0
  C  C27  1  0.27433000  0.97371000  0.11552000  1.0
  C  C28  1  0.91480000  0.38806000  0.34973000  1.0
  C  C29  1  0.08518000  0.61192000  0.65028000  1.0
  C  C30  1  0.83509000  0.50347000  0.38171000  1.0
  C  C31  1  0.16492000  0.49652000  0.61828000  1.0
  C  C32  1  0.67292000  0.12737000  0.95379000  1.0
  C  C33  1  0.32708000  0.87263000  0.04621000  1.0
  C  C34  1  0.70295000  0.03727000  0.74959000  1.0
  C  C35  1  0.29704000  0.96274000  0.25040000  1.0
  C  C36  1  0.70211000  0.11740000  0.07718000  1.0
  C  C37  1  0.29788000  0.88261000  0.92282000  1.0
  C  C38  1  0.19953000  0.48998000  0.26547000  1.0
  C  C39  1  0.80049000  0.51005000  0.73454000  1.0
  C  C40  1  0.81805000  0.91215000  0.06767000  1.0
  C  C41  1  0.18193000  0.08785000  0.93233000  1.0
  C  C42  1  0.12071000  0.60688000  0.29314000  1.0
  C  C43  1  0.87932000  0.39312000  0.70686000  1.0
  C  C44  1  0.83824000  0.73553000  0.37937000  1.0
  C  C45  1  0.16176000  0.26448000  0.62064000  1.0
  C  C46  1  0.93568000  0.61276000  0.35150000  1.0
  C  C47  1  0.06436000  0.38722000  0.64850000  1.0
  N  N48  1  0.77438000  0.01174000  0.13324000  1.0
  N  N49  1  0.22561000  0.98826000  0.86676000  1.0
  N  N50  1  0.39565000  0.48157000  0.20575000  1.0
  N  N51  1  0.60435000  0.51843000  0.79427000  1.0
  O  O52  1  0.68387000  0.27152000  0.46867000  1.0
  O  O53  1  0.31613000  0.72849000  0.53131000  1.0
  O  O54  1  0.83220000  0.18785000  0.30195000  1.0
  O  O55  1  0.16780000  0.81216000  0.69805000  1.0
  O  O56  1  0.68543000  0.99942000  0.47477000  1.0
  O  O57  1  0.31455000  0.00057000  0.52523000  1.0
  O  O58  1  0.81387000  0.96625000  0.68565000  1.0
  O  O59  1  0.18613000  0.03375000  0.31435000  1.0
  O  O60  1  0.57503000  0.11592000  0.71118000  1.0
  O  O61  1  0.42495000  0.88408000  0.28882000  1.0
  O  O62  1  0.47890000  0.58013000  0.17584000  1.0
  O  O63  1  0.52111000  0.41988000  0.82419000  1.0
  O  O64  1  0.46714000  0.37575000  0.18873000  1.0
  O  O65  1  0.53289000  0.62427000  0.81127000  1.0
  O  O66  1  0.90058000  0.83118000  0.31746000  1.0
  O  O67  1  0.09945000  0.16883000  0.68255000  1.0
  O  O68  1  0.70050000  0.73146000  0.46020000  1.0
  O  O69  1  0.29949000  0.26854000  0.53981000  1.0
