# generated using pymatgen
data_NaH15Pb(C4O3)2
_symmetry_space_group_name_H-M   'P 1'
_cell_length_a   11.00810000
_cell_length_b   11.01070000
_cell_length_c   11.08450000
_cell_angle_alpha   90.00000000
_cell_angle_beta   90.00000000
_cell_angle_gamma   90.00000000
_symmetry_Int_Tables_number   1
_chemical_formula_structural   NaH15Pb(C4O3)2
_chemical_formula_sum   'Na4 H60 Pb4 C32 O24'
_cell_volume   1343.51773529
_cell_formula_units_Z   4
loop_
 _symmetry_equiv_pos_site_id
 _symmetry_equiv_pos_as_xyz
  1  'x, y, z'
loop_
 _atom_site_type_symbol
 _atom_site_label
 _atom_site_symmetry_multiplicity
 _atom_site_fract_x
 _atom_site_fract_y
 _atom_site_fract_z
 _atom_site_occupancy
  Na  Na0  1  0.34706000  0.15385000  0.65342000  1.0
  Na  Na1  1  0.65294000  0.34615000  0.15342000  1.0
  Na  Na2  1  0.15294000  0.65385000  0.34658000  1.0
  Na  Na3  1  0.84706000  0.84614000  0.84658000  1.0
  H  H4  1  0.39482000  0.01437000  0.99119000  1.0
  H  H5  1  0.60519000  0.48563000  0.49119000  1.0
  H  H6  1  0.10517000  0.51436000  0.00881000  1.0
  H  H7  1  0.89481000  0.98563000  0.50879000  1.0
  H  H8  1  0.01429000  0.99134000  0.39561000  1.0
  H  H9  1  0.99134000  0.39471000  0.01432000  1.0
  H  H10  1  0.98571000  0.50864000  0.89560000  1.0
  H  H11  1  0.49134000  0.60528000  0.48567000  1.0
  H  H12  1  0.48571000  0.49135000  0.60439000  1.0
  H  H13  1  0.00867000  0.10527000  0.51432000  1.0
  H  H14  1  0.51429000  0.00864000  0.10439000  1.0
  H  H15  1  0.50866000  0.89472000  0.98568000  1.0
  H  H16  1  0.79877000  0.16298000  0.76650000  1.0
  H  H17  1  0.20124000  0.33702000  0.26649000  1.0
  H  H18  1  0.70122000  0.66295000  0.23349000  1.0
  H  H19  1  0.29878000  0.83704000  0.73350000  1.0
  H  H20  1  0.16322000  0.76649000  0.79800000  1.0
  H  H21  1  0.76610000  0.79866000  0.16360000  1.0
  H  H22  1  0.83677000  0.73350000  0.29799000  1.0
  H  H23  1  0.26611000  0.20132000  0.33640000  1.0
  H  H24  1  0.33679000  0.26648000  0.20200000  1.0
  H  H25  1  0.23390000  0.70133000  0.66361000  1.0
  H  H26  1  0.66321000  0.23352000  0.70202000  1.0
  H  H27  1  0.73388000  0.29868000  0.83641000  1.0
  H  H28  1  0.33393000  0.43857000  0.03711000  1.0
  H  H29  1  0.66606000  0.06142000  0.53709000  1.0
  H  H30  1  0.16605000  0.93858000  0.96291000  1.0
  H  H31  1  0.83393000  0.56143000  0.46289000  1.0
  H  H32  1  0.43835000  0.03770000  0.33419000  1.0
  H  H33  1  0.03746000  0.33489000  0.43747000  1.0
  H  H34  1  0.56165000  0.46230000  0.83420000  1.0
  H  H35  1  0.53745000  0.66512000  0.06252000  1.0
  H  H36  1  0.06168000  0.53771000  0.66582000  1.0
  H  H37  1  0.96254000  0.16511000  0.93746000  1.0
  H  H38  1  0.93837000  0.96231000  0.16582000  1.0
  H  H39  1  0.46256000  0.83490000  0.56253000  1.0
  H  H40  1  0.23597000  0.35004000  0.94325000  1.0
  H  H41  1  0.76401000  0.14996000  0.44324000  1.0
  H  H42  1  0.26400000  0.85004000  0.05677000  1.0
  H  H43  1  0.73598000  0.64996000  0.55676000  1.0
  H  H44  1  0.34933000  0.94310000  0.23751000  1.0
  H  H45  1  0.94338000  0.23649000  0.34962000  1.0
  H  H46  1  0.65067000  0.55690000  0.73751000  1.0
  H  H47  1  0.44337000  0.76349000  0.15037000  1.0
  H  H48  1  0.15069000  0.44311000  0.76249000  1.0
  H  H49  1  0.05662000  0.26349000  0.84961000  1.0
  H  H50  1  0.84934000  0.05692000  0.26249000  1.0
  H  H51  1  0.55663000  0.73652000  0.65040000  1.0
  H  H52  1  0.33254000  0.45913000  0.87644000  1.0
  H  H53  1  0.66746000  0.04087000  0.37642000  1.0
  H  H54  1  0.16745000  0.95913000  0.12358000  1.0
  H  H55  1  0.83255000  0.54087000  0.62356000  1.0
  H  H56  1  0.45855000  0.87585000  0.33325000  1.0
  H  H57  1  0.87556000  0.33333333  0.45730000  1.0
  H  H58  1  0.54144000  0.62415000  0.83326000  1.0
  H  H59  1  0.37555000  0.66666667  0.04269000  1.0
  H  H60  1  0.04145000  0.37586000  0.66675000  1.0
  H  H61  1  0.12443000  0.16665000  0.95730000  1.0
  H  H62  1  0.95857000  0.12416000  0.16674000  1.0
  H  H63  1  0.62445000  0.83335000  0.54271000  1.0
  Pb  Pb64  1  0.60234000  0.10224000  0.89794000  1.0
  Pb  Pb65  1  0.39766000  0.39777000  0.39792000  1.0
  Pb  Pb66  1  0.89765000  0.60223000  0.10207000  1.0
  Pb  Pb67  1  0.10233000  0.89776000  0.60207000  1.0
  C  C68  1  0.48828000  0.98822000  0.01150000  1.0
  C  C69  1  0.51171000  0.51179000  0.51151000  1.0
  C  C70  1  0.01171000  0.48821000  0.98850000  1.0
  C  C71  1  0.98829000  0.01178000  0.48850000  1.0
  C  C72  1  0.71678000  0.21656000  0.78348000  1.0
  C  C73  1  0.28321000  0.28345000  0.28347000  1.0
  C  C74  1  0.78321000  0.71654000  0.21652000  1.0
  C  C75  1  0.21678000  0.78345000  0.71654000  1.0
  C  C76  1  0.42234000  0.29637000  0.93426000  1.0
  C  C77  1  0.57765000  0.20362000  0.43424000  1.0
  C  C78  1  0.07764000  0.79637000  0.06575000  1.0
  C  C79  1  0.92235000  0.70362000  0.56574000  1.0
  C  C80  1  0.29627000  0.93447000  0.42291000  1.0
  C  C81  1  0.93428000  0.42260000  0.29541000  1.0
  C  C82  1  0.70373000  0.56553000  0.92291000  1.0
  C  C83  1  0.43428000  0.57739000  0.20457000  1.0
  C  C84  1  0.20373000  0.43449000  0.57708000  1.0
  C  C85  1  0.06573000  0.07739000  0.79541000  1.0
  C  C86  1  0.79629000  0.06552000  0.07709000  1.0
  C  C87  1  0.56573000  0.92261000  0.70460000  1.0
  C  C88  1  0.32578000  0.39270000  0.95003000  1.0
  C  C89  1  0.67422000  0.10731000  0.45001000  1.0
  C  C90  1  0.17421000  0.89270000  0.04999000  1.0
  C  C91  1  0.82577000  0.60731000  0.54998000  1.0
  C  C92  1  0.39226000  0.95010000  0.32656000  1.0
  C  C93  1  0.94995000  0.32647000  0.39161000  1.0
  C  C94  1  0.60774000  0.54990000  0.82656000  1.0
  C  C95  1  0.44994000  0.67353000  0.10838000  1.0
  C  C96  1  0.10775000  0.45011000  0.67345000  1.0
  C  C97  1  0.05004000  0.17353000  0.89160000  1.0
  C  C98  1  0.89227000  0.04992000  0.17344000  1.0
  C  C99  1  0.55006000  0.82648000  0.60840000  1.0
  O  O100  1  0.42518000  0.23745000  0.83509000  1.0
  O  O101  1  0.57482000  0.26255000  0.33508000  1.0
  O  O102  1  0.07481000  0.73745000  0.16492000  1.0
  O  O103  1  0.92518000  0.76255000  0.66491000  1.0
  O  O104  1  0.23669000  0.83501000  0.42557000  1.0
  O  O105  1  0.83496000  0.42458000  0.23600000  1.0
  O  O106  1  0.76330000  0.66498000  0.92558000  1.0
  O  O107  1  0.33496000  0.57542000  0.26399000  1.0
  O  O108  1  0.26332000  0.33501000  0.57442000  1.0
  O  O109  1  0.16504000  0.07543000  0.73599000  1.0
  O  O110  1  0.73669000  0.16500000  0.07444000  1.0
  O  O111  1  0.66506000  0.92457000  0.76402000  1.0
  O  O112  1  0.49733000  0.27562000  0.01915000  1.0
  O  O113  1  0.50264000  0.22436000  0.51912000  1.0
  O  O114  1  0.00266000  0.77561000  0.98086000  1.0
  O  O115  1  0.99733000  0.72437000  0.48085000  1.0
  O  O116  1  0.27658000  0.01961000  0.49799000  1.0
  O  O117  1  0.01948000  0.49804000  0.27530000  1.0
  O  O118  1  0.72343000  0.48038000  0.99798000  1.0
  O  O119  1  0.51947000  0.50196000  0.22469000  1.0
  O  O120  1  0.22343000  0.51961000  0.50201000  1.0
  O  O121  1  0.98054000  0.00194000  0.77530000  1.0
  O  O122  1  0.77659000  0.98040000  0.00203000  1.0
  O  O123  1  0.48056000  0.99806000  0.72471000  1.0
