# generated using pymatgen
data_CdH3C7NO4
_symmetry_space_group_name_H-M   'P 1'
_cell_length_a   7.91970000
_cell_length_b   8.73534000
_cell_length_c   10.78750000
_cell_angle_alpha   67.21200000
_cell_angle_beta   89.99940000
_cell_angle_gamma   89.99910000
_symmetry_Int_Tables_number   1
_chemical_formula_structural   CdH3C7NO4
_chemical_formula_sum   'Cd4 H12 C28 N4 O16'
_cell_volume   688.04054763
_cell_formula_units_Z   4
loop_
 _symmetry_equiv_pos_site_id
 _symmetry_equiv_pos_as_xyz
  1  'x, y, z'
loop_
 _atom_site_type_symbol
 _atom_site_label
 _atom_site_symmetry_multiplicity
 _atom_site_fract_x
 _atom_site_fract_y
 _atom_site_fract_z
 _atom_site_occupancy
  Cd  Cd0  1  0.86590000  0.03467000  0.63856000  1.0
  Cd  Cd1  1  0.36590000  0.46533000  0.36144000  1.0
  Cd  Cd2  1  0.13410000  0.96532000  0.36144000  1.0
  Cd  Cd3  1  0.63410000  0.53468000  0.63856000  1.0
  H  H4  1  0.43114000  0.16639000  0.97707000  1.0
  H  H5  1  0.93115000  0.33360000  0.02293000  1.0
  H  H6  1  0.56886000  0.83361000  0.02293000  1.0
  H  H7  1  0.06885000  0.66639000  0.97707000  1.0
  H  H8  1  0.13307000  0.19066000  0.03657000  1.0
  H  H9  1  0.63308000  0.30934000  0.96343000  1.0
  H  H10  1  0.86692000  0.80933000  0.96343000  1.0
  H  H11  1  0.36692000  0.69066000  0.03657000  1.0
  H  H12  1  0.90288000  0.16540000  0.87958000  1.0
  H  H13  1  0.40290000  0.33461000  0.12042000  1.0
  H  H14  1  0.09711000  0.83460000  0.12042000  1.0
  H  H15  1  0.59711000  0.66540000  0.87958000  1.0
  C  C16  1  0.25982000  0.09789000  0.58356000  1.0
  C  C17  1  0.75984000  0.40211000  0.41645000  1.0
  C  C18  1  0.74018000  0.90211000  0.41644000  1.0
  C  C19  1  0.24018000  0.59788000  0.58356000  1.0
  C  C20  1  0.23515000  0.11463000  0.71701000  1.0
  C  C21  1  0.73516000  0.38537000  0.28299000  1.0
  C  C22  1  0.76485000  0.88537000  0.28300000  1.0
  C  C23  1  0.26485000  0.61464000  0.71701000  1.0
  C  C24  1  0.36945000  0.13535000  0.79375000  1.0
  C  C25  1  0.86945000  0.36465000  0.20625000  1.0
  C  C26  1  0.63056000  0.86465000  0.20625000  1.0
  C  C27  1  0.13055000  0.63535000  0.79375000  1.0
  C  C28  1  0.55310000  0.13357000  0.75816000  1.0
  C  C29  1  0.05310000  0.36643000  0.24183000  1.0
  C  C30  1  0.44690000  0.86643000  0.24184000  1.0
  C  C31  1  0.94690000  0.63358000  0.75817000  1.0
  C  C32  1  0.32999000  0.15797000  0.91187000  1.0
  C  C33  1  0.83000000  0.34203000  0.08813000  1.0
  C  C34  1  0.67001000  0.84203000  0.08813000  1.0
  C  C35  1  0.17000000  0.65797000  0.91187000  1.0
  C  C36  1  0.16301000  0.17010000  0.94560000  1.0
  C  C37  1  0.66302000  0.32989000  0.05440000  1.0
  C  C38  1  0.83699000  0.82989000  0.05440000  1.0
  C  C39  1  0.33698000  0.67011000  0.94560000  1.0
  C  C40  1  0.03676000  0.15277000  0.86205000  1.0
  C  C41  1  0.53677000  0.34723000  0.13795000  1.0
  C  C42  1  0.96324000  0.84722000  0.13795000  1.0
  C  C43  1  0.46323000  0.65277000  0.86205000  1.0
  N  N44  1  0.07289000  0.11848000  0.75412000  1.0
  N  N45  1  0.57289000  0.38152000  0.24588000  1.0
  N  N46  1  0.92712000  0.88152000  0.24588000  1.0
  N  N47  1  0.42711000  0.61848000  0.75412000  1.0
  O  O48  1  0.37319000  0.18092000  0.50568000  1.0
  O  O49  1  0.87319000  0.31908000  0.49431000  1.0
  O  O50  1  0.62681000  0.81908000  0.49432000  1.0
  O  O51  1  0.12680000  0.68093000  0.50568000  1.0
  O  O52  1  0.15493000  0.00002000  0.56046000  1.0
  O  O53  1  0.65494000  0.49998000  0.43954000  1.0
  O  O54  1  0.84506000  0.99998000  0.43953000  1.0
  O  O55  1  0.34506000  0.50002000  0.56046000  1.0
  O  O56  1  0.60557000  0.01334000  0.73035000  1.0
  O  O57  1  0.10557000  0.48667000  0.26965000  1.0
  O  O58  1  0.39443000  0.98667000  0.26965000  1.0
  O  O59  1  0.89443000  0.51333000  0.73036000  1.0
  O  O60  1  0.64562000  0.24786000  0.76706000  1.0
  O  O61  1  0.14563000  0.25214000  0.23293000  1.0
  O  O62  1  0.35438000  0.75215000  0.23294000  1.0
  O  O63  1  0.85437000  0.74786000  0.76707000  1.0
