# generated using pymatgen
data_ZnH13C12(NO)4
_symmetry_space_group_name_H-M   'P 1'
_cell_length_a   9.79227000
_cell_length_b   12.08380000
_cell_length_c   14.42820000
_cell_angle_alpha   66.91300000
_cell_angle_beta   89.23470000
_cell_angle_gamma   75.66500000
_symmetry_Int_Tables_number   1
_chemical_formula_structural   ZnH13C12(NO)4
_chemical_formula_sum   'Zn4 H52 C48 N16 O16'
_cell_volume   1514.89576208
_cell_formula_units_Z   4
loop_
 _symmetry_equiv_pos_site_id
 _symmetry_equiv_pos_as_xyz
  1  'x, y, z'
loop_
 _atom_site_type_symbol
 _atom_site_label
 _atom_site_symmetry_multiplicity
 _atom_site_fract_x
 _atom_site_fract_y
 _atom_site_fract_z
 _atom_site_occupancy
  Zn  Zn0  1  0.37293000  0.33224000  0.63515000  1.0
  Zn  Zn1  1  0.62708000  0.66776000  0.36484000  1.0
  Zn  Zn2  1  0.86833000  0.33583000  0.97488000  1.0
  Zn  Zn3  1  0.13168000  0.66417000  0.02513000  1.0
  H  H4  1  0.78213000  0.18626000  0.88499000  1.0
  H  H5  1  0.21787000  0.81374000  0.11501000  1.0
  H  H6  1  0.69468000  0.06719000  0.93089000  1.0
  H  H7  1  0.30531000  0.93281000  0.06911000  1.0
  H  H8  1  0.48013000  0.21721000  0.95285000  1.0
  H  H9  1  0.51986000  0.78279000  0.04716000  1.0
  H  H10  1  0.66333000  0.05194000  0.30138000  1.0
  H  H11  1  0.33668000  0.94806000  0.69863000  1.0
  H  H12  1  0.88660000  0.15842000  0.22342000  1.0
  H  H13  1  0.11341000  0.84156000  0.77659000  1.0
  H  H14  1  0.37381000  0.16060000  0.11359000  1.0
  H  H15  1  0.62620000  0.83941000  0.88642000  1.0
  H  H16  1  0.45549000  0.02654000  0.22591000  1.0
  H  H17  1  0.54452000  0.97346000  0.77410000  1.0
  H  H18  1  0.47633000  0.02167000  0.10523000  1.0
  H  H19  1  0.52367000  0.97833000  0.89478000  1.0
  H  H20  1  0.38213000  0.66292000  0.80491000  1.0
  H  H21  1  0.61789000  0.33708000  0.19508000  1.0
  H  H22  1  0.67373000  0.62113000  0.84629000  1.0
  H  H23  1  0.32628000  0.37887000  0.15372000  1.0
  H  H24  1  0.30100000  0.39181000  0.81237000  1.0
  H  H25  1  0.69902000  0.60819000  0.18763000  1.0
  H  H26  1  0.22189000  0.53023000  0.83224000  1.0
  H  H27  1  0.77812000  0.46977000  0.16776000  1.0
  H  H28  1  0.27598000  0.38315000  0.93719000  1.0
  H  H29  1  0.72402000  0.61685000  0.06281000  1.0
  H  H30  1  0.17093000  0.06725000  0.84444000  1.0
  H  H31  1  0.82904000  0.93276000  0.15556000  1.0
  H  H32  1  0.27673000  0.17379000  0.81531000  1.0
  H  H33  1  0.72325000  0.82621000  0.18469000  1.0
  H  H34  1  0.97266000  0.22551000  0.72518000  1.0
  H  H35  1  0.02733000  0.77451000  0.27480000  1.0
  H  H36  1  0.16953000  0.05464000  0.48642000  1.0
  H  H37  1  0.83046000  0.94535000  0.51358000  1.0
  H  H38  1  0.39765000  0.14857000  0.50244000  1.0
  H  H39  1  0.60234000  0.85143000  0.49755000  1.0
  H  H40  1  0.95692000  0.03132000  0.68640000  1.0
  H  H41  1  0.04309000  0.96867000  0.31360000  1.0
  H  H42  1  0.93363000  0.06947000  0.55346000  1.0
  H  H43  1  0.06636000  0.93053000  0.44655000  1.0
  H  H44  1  0.87121000  0.18554000  0.60241000  1.0
  H  H45  1  0.12879000  0.81445000  0.39760000  1.0
  H  H46  1  0.89453000  0.66869000  0.59837000  1.0
  H  H47  1  0.10548000  0.33131000  0.40164000  1.0
  H  H48  1  0.18816000  0.61841000  0.58477000  1.0
  H  H49  1  0.81184000  0.38159000  0.41523000  1.0
  H  H50  1  0.77905000  0.38934000  0.64501000  1.0
  H  H51  1  0.22095000  0.61067000  0.35499000  1.0
  H  H52  1  0.72474000  0.54308000  0.64126000  1.0
  H  H53  1  0.27526000  0.45694000  0.35874000  1.0
  H  H54  1  0.79411000  0.41272000  0.75835000  1.0
  H  H55  1  0.20589000  0.58730000  0.24165000  1.0
  C  C56  1  0.61179000  0.20561000  0.78293000  1.0
  C  C57  1  0.38821000  0.79439000  0.21708000  1.0
  C  C58  1  0.67687000  0.16896000  0.88983000  1.0
  C  C59  1  0.32312000  0.83104000  0.11017000  1.0
  C  C60  1  0.58500000  0.23513000  0.95102000  1.0
  C  C61  1  0.41500000  0.76487000  0.04899000  1.0
  C  C62  1  0.65247000  0.18594000  0.05709000  1.0
  C  C63  1  0.34754000  0.81406000  0.94291000  1.0
  C  C64  1  0.68614000  0.10092000  0.22455000  1.0
  C  C65  1  0.31387000  0.89907000  0.77546000  1.0
  C  C66  1  0.79597000  0.15192000  0.18548000  1.0
  C  C67  1  0.20404000  0.84807000  0.81452000  1.0
  C  C68  1  0.46747000  0.08153000  0.14686000  1.0
  C  C69  1  0.53254000  0.91847000  0.85315000  1.0
  C  C70  1  0.56501000  0.37418000  0.90575000  1.0
  C  C71  1  0.43499000  0.62582000  0.09426000  1.0
  C  C72  1  0.46629000  0.57777000  0.83847000  1.0
  C  C73  1  0.53371000  0.42222000  0.16152000  1.0
  C  C74  1  0.60905000  0.55646000  0.85937000  1.0
  C  C75  1  0.39097000  0.44353000  0.14063000  1.0
  C  C76  1  0.30137000  0.44040000  0.86214000  1.0
  C  C77  1  0.69863000  0.55960000  0.13785000  1.0
  C  C78  1  0.10706000  0.20401000  0.90574000  1.0
  C  C79  1  0.89291000  0.79601000  0.09425000  1.0
  C  C80  1  0.16721000  0.16637000  0.82105000  1.0
  C  C81  1  0.83277000  0.83364000  0.17895000  1.0
  C  C82  1  0.07932000  0.23992000  0.71654000  1.0
  C  C83  1  0.92067000  0.76009000  0.28345000  1.0
  C  C84  1  0.14872000  0.19184000  0.64145000  1.0
  C  C85  1  0.85128000  0.80816000  0.35854000  1.0
  C  C86  1  0.18968000  0.10290000  0.53198000  1.0
  C  C87  1  0.81032000  0.89709000  0.46801000  1.0
  C  C88  1  0.30208000  0.14857000  0.54125000  1.0
  C  C89  1  0.69791000  0.85142000  0.45874000  1.0
  C  C90  1  0.95601000  0.10299000  0.61042000  1.0
  C  C91  1  0.04399000  0.89700000  0.38959000  1.0
  C  C92  1  0.06560000  0.37775000  0.67543000  1.0
  C  C93  1  0.93439000  0.62226000  0.32456000  1.0
  C  C94  1  0.97586000  0.58217000  0.61697000  1.0
  C  C95  1  0.02414000  0.41784000  0.38304000  1.0
  C  C96  1  0.11940000  0.55665000  0.61055000  1.0
  C  C97  1  0.88061000  0.44335000  0.38945000  1.0
  C  C98  1  0.80185000  0.45233000  0.67685000  1.0
  C  C99  1  0.19815000  0.54768000  0.32315000  1.0
  C  C100  1  0.49502000  0.53887000  0.53286000  1.0
  C  C101  1  0.50497000  0.46111000  0.46713000  1.0
  C  C102  1  0.99230000  0.54141000  0.94197000  1.0
  C  C103  1  0.00769000  0.45858000  0.05803000  1.0
  N  N104  1  0.59622000  0.12305000  0.14254000  1.0
  N  N105  1  0.40378000  0.87695000  0.85746000  1.0
  N  N106  1  0.77398000  0.20403000  0.08148000  1.0
  N  N107  1  0.22603000  0.79596000  0.91853000  1.0
  N  N108  1  0.43992000  0.46225000  0.86869000  1.0
  N  N109  1  0.56009000  0.53775000  0.13131000  1.0
  N  N110  1  0.66903000  0.42946000  0.90161000  1.0
  N  N111  1  0.33097000  0.57054000  0.09840000  1.0
  N  N112  1  0.09284000  0.13177000  0.59528000  1.0
  N  N113  1  0.90716000  0.86822000  0.40471000  1.0
  N  N114  1  0.27539000  0.20324000  0.60962000  1.0
  N  N115  1  0.72460000  0.79676000  0.39037000  1.0
  N  N116  1  0.94328000  0.46882000  0.65706000  1.0
  N  N117  1  0.05672000  0.53120000  0.34293000  1.0
  N  N118  1  0.17385000  0.42906000  0.64670000  1.0
  N  N119  1  0.82615000  0.57095000  0.35329000  1.0
  O  O120  1  0.47410000  0.24058000  0.77159000  1.0
  O  O121  1  0.52590000  0.75942000  0.22840000  1.0
  O  O122  1  0.69011000  0.19787000  0.71567000  1.0
  O  O123  1  0.30989000  0.80213000  0.28434000  1.0
  O  O124  1  0.97127000  0.25245000  0.89235000  1.0
  O  O125  1  0.02871000  0.74757000  0.10764000  1.0
  O  O126  1  0.18801000  0.18436000  0.97966000  1.0
  O  O127  1  0.81197000  0.81566000  0.02034000  1.0
  O  O128  1  0.44009000  0.50227000  0.61504000  1.0
  O  O129  1  0.55992000  0.49772000  0.38494000  1.0
  O  O130  1  0.54456000  0.63420000  0.49893000  1.0
  O  O131  1  0.45546000  0.36579000  0.50105000  1.0
  O  O132  1  0.93081000  0.50999000  0.88408000  1.0
  O  O133  1  0.06918000  0.49001000  0.11593000  1.0
  O  O134  1  0.04470000  0.63505000  0.91362000  1.0
  O  O135  1  0.95531000  0.36495000  0.08639000  1.0
