# generated using pymatgen
data_CuH8C8(NO3)2
_symmetry_space_group_name_H-M   'P 1'
_cell_length_a   6.38318000
_cell_length_b   8.48876000
_cell_length_c   9.89930000
_cell_angle_alpha   89.99980000
_cell_angle_beta   107.28100000
_cell_angle_gamma   89.99980000
_symmetry_Int_Tables_number   1
_chemical_formula_structural   CuH8C8(NO3)2
_chemical_formula_sum   'Cu2 H16 C16 N4 O12'
_cell_volume   512.18309714
_cell_formula_units_Z   2
loop_
 _symmetry_equiv_pos_site_id
 _symmetry_equiv_pos_as_xyz
  1  'x, y, z'
loop_
 _atom_site_type_symbol
 _atom_site_label
 _atom_site_symmetry_multiplicity
 _atom_site_fract_x
 _atom_site_fract_y
 _atom_site_fract_z
 _atom_site_occupancy
  Cu  Cu0  1  0.49997000  0.00002000  0.00001000  1.0
  Cu  Cu1  1  0.49999000  0.50000000  0.50000000  1.0
  H  H2  1  0.67443000  0.10580000  0.25704000  1.0
  H  H3  1  0.32557000  0.60581000  0.24296000  1.0
  H  H4  1  0.32558000  0.89420000  0.74297000  1.0
  H  H5  1  0.67444000  0.39420000  0.75704000  1.0
  H  H6  1  0.62434000  0.35643000  0.17052000  1.0
  H  H7  1  0.37566000  0.85643000  0.32950000  1.0
  H  H8  1  0.37567000  0.64357000  0.82948000  1.0
  H  H9  1  0.62433000  0.14357000  0.67051000  1.0
  H  H10  1  0.98264000  0.45271000  0.14782000  1.0
  H  H11  1  0.01737000  0.95271000  0.35220000  1.0
  H  H12  1  0.01737000  0.54729000  0.85219000  1.0
  H  H13  1  0.98262000  0.04729000  0.64781000  1.0
  H  H14  1  0.02459000  0.32530000  0.29565000  1.0
  H  H15  1  0.97541000  0.82532000  0.20435000  1.0
  H  H16  1  0.97542000  0.67469000  0.70435000  1.0
  H  H17  1  0.02459000  0.17469000  0.79565000  1.0
  C  C18  1  0.72348000  0.27989000  0.12355000  1.0
  C  C19  1  0.27652000  0.77988000  0.37645000  1.0
  C  C20  1  0.27653000  0.72011000  0.87644000  1.0
  C  C21  1  0.72348000  0.22012000  0.62355000  1.0
  C  C22  1  0.63976000  0.29710000  0.96253000  1.0
  C  C23  1  0.36025000  0.79709000  0.53747000  1.0
  C  C24  1  0.36026000  0.70291000  0.03746000  1.0
  C  C25  1  0.63975000  0.20291000  0.46254000  1.0
  C  C26  1  0.96573000  0.33042000  0.17941000  1.0
  C  C27  1  0.03427000  0.83043000  0.32060000  1.0
  C  C28  1  0.03429000  0.66957000  0.82059000  1.0
  C  C29  1  0.96572000  0.16957000  0.67941000  1.0
  C  C30  1  0.10023000  0.23041000  0.11964000  1.0
  C  C31  1  0.89976000  0.73042000  0.38035000  1.0
  C  C32  1  0.89978000  0.76957000  0.88035000  1.0
  C  C33  1  0.10023000  0.26958000  0.61965000  1.0
  N  N34  1  0.19550000  0.14698000  0.06532000  1.0
  N  N35  1  0.80447000  0.64699000  0.43466000  1.0
  N  N36  1  0.80450000  0.85300000  0.93466000  1.0
  N  N37  1  0.19552000  0.35301000  0.56533000  1.0
  O  O38  1  0.70083000  0.11857000  0.15859000  1.0
  O  O39  1  0.29915000  0.61856000  0.34141000  1.0
  O  O40  1  0.29915000  0.88144000  0.84141000  1.0
  O  O41  1  0.70085000  0.38144000  0.65859000  1.0
  O  O42  1  0.53294000  0.18209000  0.89008000  1.0
  O  O43  1  0.46704000  0.68207000  0.60993000  1.0
  O  O44  1  0.46703000  0.81793000  0.10993000  1.0
  O  O45  1  0.53296000  0.31792000  0.39007000  1.0
  O  O46  1  0.68390000  0.42201000  0.90759000  1.0
  O  O47  1  0.31610000  0.92200000  0.59241000  1.0
  O  O48  1  0.31614000  0.57799000  0.09241000  1.0
  O  O49  1  0.68390000  0.07800000  0.40759000  1.0
