# generated using pymatgen
data_ZnH23C32N5O6
_symmetry_space_group_name_H-M   'P 1'
_cell_length_a   16.54750000
_cell_length_b   16.54750000
_cell_length_c   25.59390000
_cell_angle_alpha   90.00010000
_cell_angle_beta   90.00000000
_cell_angle_gamma   60.00000000
_symmetry_Int_Tables_number   1
_chemical_formula_structural   ZnH23C32N5O6
_chemical_formula_sum   'Zn6 H138 C192 N30 O36'
_cell_volume   6069.20602056
_cell_formula_units_Z   6
loop_
 _symmetry_equiv_pos_site_id
 _symmetry_equiv_pos_as_xyz
  1  'x, y, z'
loop_
 _atom_site_type_symbol
 _atom_site_label
 _atom_site_symmetry_multiplicity
 _atom_site_fract_x
 _atom_site_fract_y
 _atom_site_fract_z
 _atom_site_occupancy
  Zn  Zn0  1  0.42812000  0.28595000  0.99998000  1.0
  Zn  Zn1  1  0.28595000  0.28593000  0.66666667  1.0
  Zn  Zn2  1  0.28593000  0.42812000  0.33333333  1.0
  Zn  Zn3  1  0.57188000  0.71405000  0.99999000  1.0
  Zn  Zn4  1  0.71405000  0.71407000  0.66666667  1.0
  Zn  Zn5  1  0.71407000  0.57188000  0.33333333  1.0
  H  H6  1  0.32611000  0.34466000  0.83342000  1.0
  H  H7  1  0.34466000  0.32922000  0.50008000  1.0
  H  H8  1  0.32923000  0.32611000  0.16675000  1.0
  H  H9  1  0.67389000  0.65534000  0.83342000  1.0
  H  H10  1  0.65534000  0.67077000  0.50008000  1.0
  H  H11  1  0.67077000  0.67389000  0.16675000  1.0
  H  H12  1  0.22231000  0.60424000  0.91627000  1.0
  H  H13  1  0.60424000  0.17345000  0.58294000  1.0
  H  H14  1  0.17345000  0.22231000  0.24960000  1.0
  H  H15  1  0.77769000  0.39577000  0.91627000  1.0
  H  H16  1  0.39576000  0.82655000  0.58294000  1.0
  H  H17  1  0.82655000  0.77769000  0.24960000  1.0
  H  H18  1  0.82128000  0.39574000  0.74970000  1.0
  H  H19  1  0.78298000  0.82129000  0.08303000  1.0
  H  H20  1  0.39573000  0.78298000  0.41637000  1.0
  H  H21  1  0.17872000  0.60426000  0.74970000  1.0
  H  H22  1  0.21702000  0.17871000  0.08303000  1.0
  H  H23  1  0.60427000  0.21702000  0.41637000  1.0
  H  H24  1  0.53136000  0.10021000  0.05865000  1.0
  H  H25  1  0.10020000  0.36844000  0.72532000  1.0
  H  H26  1  0.36844000  0.53136000  0.39199000  1.0
  H  H27  1  0.46864000  0.89980000  0.05866000  1.0
  H  H28  1  0.89980000  0.63156000  0.72532000  1.0
  H  H29  1  0.63156000  0.46864000  0.39199000  1.0
  H  H30  1  0.63143000  0.90002000  0.60792000  1.0
  H  H31  1  0.46854000  0.63144000  0.94125000  1.0
  H  H32  1  0.90002000  0.46854000  0.27459000  1.0
  H  H33  1  0.36857000  0.09998000  0.60792000  1.0
  H  H34  1  0.53146000  0.36856000  0.94125000  1.0
  H  H35  1  0.09998000  0.53145000  0.27459000  1.0
  H  H36  1  0.64089000  0.93342000  0.03550000  1.0
  H  H37  1  0.93342000  0.42569000  0.70217000  1.0
  H  H38  1  0.42570000  0.64088000  0.36884000  1.0
  H  H39  1  0.35911000  0.06659000  0.03550000  1.0
  H  H40  1  0.06658000  0.57430000  0.70217000  1.0
  H  H41  1  0.57430000  0.35912000  0.36883000  1.0
  H  H42  1  0.57428000  0.06661000  0.63113000  1.0
  H  H43  1  0.35911000  0.57429000  0.96447000  1.0
  H  H44  1  0.06660000  0.35911000  0.29780000  1.0
  H  H45  1  0.42572000  0.93339000  0.63113000  1.0
  H  H46  1  0.64089000  0.42571000  0.96447000  1.0
  H  H47  1  0.93340000  0.64088000  0.29780000  1.0
  H  H48  1  0.61657000  0.02153000  0.87435000  1.0
  H  H49  1  0.02153000  0.36190000  0.54102000  1.0
  H  H50  1  0.36190000  0.61657000  0.20768000  1.0
  H  H51  1  0.38343000  0.97847000  0.87435000  1.0
  H  H52  1  0.97847000  0.63810000  0.54102000  1.0
  H  H53  1  0.63809000  0.38343000  0.20768000  1.0
  H  H54  1  0.63810000  0.97844000  0.79228000  1.0
  H  H55  1  0.38347000  0.63809000  0.12561000  1.0
  H  H56  1  0.97844000  0.38347000  0.45894000  1.0
  H  H57  1  0.36190000  0.02156000  0.79228000  1.0
  H  H58  1  0.61653000  0.36191000  0.12561000  1.0
  H  H59  1  0.02156000  0.61653000  0.45894000  1.0
  H  H60  1  0.50670000  0.18159000  0.90349000  1.0
  H  H61  1  0.18159000  0.31171000  0.57016000  1.0
  H  H62  1  0.31171000  0.50670000  0.23682000  1.0
  H  H63  1  0.49330000  0.81841000  0.90349000  1.0
  H  H64  1  0.81841000  0.68829000  0.57016000  1.0
  H  H65  1  0.68829000  0.49330000  0.23682000  1.0
  H  H66  1  0.68804000  0.81841000  0.76308000  1.0
  H  H67  1  0.49355000  0.68804000  0.09641000  1.0
  H  H68  1  0.81841000  0.49356000  0.42975000  1.0
  H  H69  1  0.31196000  0.18159000  0.76308000  1.0
  H  H70  1  0.50644000  0.31197000  0.09641000  1.0
  H  H71  1  0.18159000  0.50644000  0.42975000  1.0
  H  H72  1  0.78388000  0.69165000  0.96417000  1.0
  H  H73  1  0.69166000  0.52447000  0.63084000  1.0
  H  H74  1  0.52447000  0.78387000  0.29750000  1.0
  H  H75  1  0.21612000  0.30835000  0.96417000  1.0
  H  H76  1  0.30834000  0.47554000  0.63084000  1.0
  H  H77  1  0.47553000  0.21613000  0.29750000  1.0
  H  H78  1  0.47520000  0.30846000  0.70269000  1.0
  H  H79  1  0.21635000  0.47520000  0.03602000  1.0
  H  H80  1  0.30846000  0.21634000  0.36936000  1.0
  H  H81  1  0.52480000  0.69154000  0.70269000  1.0
  H  H82  1  0.78366000  0.52479000  0.03602000  1.0
  H  H83  1  0.69154000  0.78366000  0.36936000  1.0
  H  H84  1  0.90984000  0.52883000  0.95627000  1.0
  H  H85  1  0.52883000  0.56133000  0.62294000  1.0
  H  H86  1  0.56133000  0.90984000  0.28961000  1.0
  H  H87  1  0.09016000  0.47117000  0.95627000  1.0
  H  H88  1  0.47117000  0.43867000  0.62294000  1.0
  H  H89  1  0.43867000  0.09016000  0.28961000  1.0
  H  H90  1  0.43848000  0.47127000  0.71056000  1.0
  H  H91  1  0.09025000  0.43848000  0.04389000  1.0
  H  H92  1  0.47127000  0.09025000  0.37722000  1.0
  H  H93  1  0.56152000  0.52873000  0.71055000  1.0
  H  H94  1  0.90975000  0.56152000  0.04389000  1.0
  H  H95  1  0.52873000  0.90975000  0.37723000  1.0
  H  H96  1  0.99383000  0.58881000  0.80902000  1.0
  H  H97  1  0.58881000  0.41736000  0.47569000  1.0
  H  H98  1  0.41736000  0.99383000  0.14235000  1.0
  H  H99  1  0.00617000  0.41119000  0.80902000  1.0
  H  H100  1  0.41119000  0.58264000  0.47569000  1.0
  H  H101  1  0.58264000  0.00617000  0.14235000  1.0
  H  H102  1  0.58326000  0.41093000  0.85754000  1.0
  H  H103  1  0.00581000  0.58327000  0.19087000  1.0
  H  H104  1  0.41092000  0.00582000  0.52421000  1.0
  H  H105  1  0.41674000  0.58908000  0.85754000  1.0
  H  H106  1  0.99419000  0.41674000  0.19087000  1.0
  H  H107  1  0.58908000  0.99418000  0.52421000  1.0
  H  H108  1  0.86464000  0.75532000  0.81647000  1.0
  H  H109  1  0.75532000  0.38004000  0.48314000  1.0
  H  H110  1  0.38004000  0.86464000  0.14980000  1.0
  H  H111  1  0.13536000  0.24468000  0.81647000  1.0
  H  H112  1  0.24468000  0.61996000  0.48314000  1.0
  H  H113  1  0.61996000  0.13536000  0.14980000  1.0
  H  H114  1  0.62073000  0.24458000  0.85009000  1.0
  H  H115  1  0.13469000  0.62073000  0.18342000  1.0
  H  H116  1  0.24458000  0.13469000  0.51675000  1.0
  H  H117  1  0.37927000  0.75542000  0.85008000  1.0
  H  H118  1  0.86531000  0.37927000  0.18342000  1.0
  H  H119  1  0.75542000  0.86531000  0.51675000  1.0
  H  H120  1  0.71417000  0.82428000  0.97056000  1.0
  H  H121  1  0.82429000  0.46154000  0.63723000  1.0
  H  H122  1  0.46155000  0.71417000  0.30389000  1.0
  H  H123  1  0.28583000  0.17572000  0.97056000  1.0
  H  H124  1  0.17571000  0.53846000  0.63723000  1.0
  H  H125  1  0.53845000  0.28583000  0.30389000  1.0
  H  H126  1  0.53890000  0.17573000  0.69608000  1.0
  H  H127  1  0.28537000  0.53890000  0.02941000  1.0
  H  H128  1  0.17573000  0.28537000  0.36274000  1.0
  H  H129  1  0.46110000  0.82428000  0.69608000  1.0
  H  H130  1  0.71463000  0.46110000  0.02941000  1.0
  H  H131  1  0.82427000  0.71463000  0.36274000  1.0
  H  H132  1  0.10925000  0.74824000  0.80164000  1.0
  H  H133  1  0.74823000  0.14251000  0.46831000  1.0
  H  H134  1  0.14251000  0.10925000  0.13497000  1.0
  H  H135  1  0.89075000  0.25176000  0.80164000  1.0
  H  H136  1  0.25177000  0.85749000  0.46831000  1.0
  H  H137  1  0.85749000  0.89075000  0.13497000  1.0
  H  H138  1  0.87395000  0.25205000  0.86694000  1.0
  H  H139  1  0.87400000  0.87395000  0.20027000  1.0
  H  H140  1  0.25205000  0.87401000  0.53361000  1.0
  H  H141  1  0.12605000  0.74795000  0.86694000  1.0
  H  H142  1  0.12600000  0.12605000  0.20027000  1.0
  H  H143  1  0.74795000  0.12599000  0.53360000  1.0
  C  C144  1  0.31914000  0.42119000  0.93030000  1.0
  C  C145  1  0.42119000  0.25967000  0.59697000  1.0
  C  C146  1  0.25967000  0.31914000  0.26363000  1.0
  C  C147  1  0.68086000  0.57881000  0.93030000  1.0
  C  C148  1  0.57881000  0.74033000  0.59697000  1.0
  C  C149  1  0.74033000  0.68086000  0.26363000  1.0
  C  C150  1  0.74106000  0.57871000  0.73640000  1.0
  C  C151  1  0.68023000  0.74106000  0.06973000  1.0
  C  C152  1  0.57870000  0.68024000  0.40306000  1.0
  C  C153  1  0.25894000  0.42129000  0.73640000  1.0
  C  C154  1  0.31977000  0.25894000  0.06973000  1.0
  C  C155  1  0.42129000  0.31977000  0.40306000  1.0
  C  C156  1  0.27906000  0.47010000  0.87952000  1.0
  C  C157  1  0.47010000  0.25084000  0.54619000  1.0
  C  C158  1  0.25084000  0.27906000  0.21285000  1.0
  C  C159  1  0.72094000  0.52990000  0.87952000  1.0
  C  C160  1  0.52990000  0.74916000  0.54619000  1.0
  C  C161  1  0.74916000  0.72094000  0.21285000  1.0
  C  C162  1  0.74872000  0.52978000  0.78700000  1.0
  C  C163  1  0.72150000  0.74872000  0.12033000  1.0
  C  C164  1  0.52978000  0.72150000  0.45367000  1.0
  C  C165  1  0.25128000  0.47022000  0.78700000  1.0
  C  C166  1  0.27850000  0.25128000  0.12033000  1.0
  C  C167  1  0.47022000  0.27850000  0.45367000  1.0
  C  C168  1  0.28924000  0.42049000  0.83334000  1.0
  C  C169  1  0.42050000  0.29026000  0.50000000  1.0
  C  C170  1  0.29027000  0.28923000  0.16667000  1.0
  C  C171  1  0.71076000  0.57951000  0.83334000  1.0
  C  C172  1  0.57950000  0.70973000  0.50000000  1.0
  C  C173  1  0.70973000  0.71077000  0.16667000  1.0
  C  C174  1  0.23093000  0.56779000  0.87934000  1.0
  C  C175  1  0.56779000  0.20128000  0.54601000  1.0
  C  C176  1  0.20128000  0.23093000  0.21268000  1.0
  C  C177  1  0.76908000  0.43221000  0.87934000  1.0
  C  C178  1  0.43221000  0.79872000  0.54601000  1.0
  C  C179  1  0.79872000  0.76907000  0.21267000  1.0
  C  C180  1  0.79481000  0.43213000  0.78678000  1.0
  C  C181  1  0.77306000  0.79482000  0.12011000  1.0
  C  C182  1  0.43212000  0.77307000  0.45344000  1.0
  C  C183  1  0.20519000  0.56787000  0.78678000  1.0
  C  C184  1  0.22694000  0.20518000  0.12011000  1.0
  C  C185  1  0.56787000  0.22694000  0.45344000  1.0
  C  C186  1  0.19400000  0.61826000  0.83294000  1.0
  C  C187  1  0.61826000  0.18773000  0.49961000  1.0
  C  C188  1  0.18774000  0.19400000  0.16627000  1.0
  C  C189  1  0.80600000  0.38174000  0.83294000  1.0
  C  C190  1  0.38174000  0.81226000  0.49961000  1.0
  C  C191  1  0.81226000  0.80600000  0.16627000  1.0
  C  C192  1  0.55218000  0.07927000  0.01819000  1.0
  C  C193  1  0.07927000  0.36855000  0.68486000  1.0
  C  C194  1  0.36855000  0.55218000  0.35152000  1.0
  C  C195  1  0.44782000  0.92073000  0.01819000  1.0
  C  C196  1  0.92073000  0.63145000  0.68486000  1.0
  C  C197  1  0.63145000  0.44782000  0.35152000  1.0
  C  C198  1  0.63127000  0.92083000  0.64842000  1.0
  C  C199  1  0.44789000  0.63128000  0.98175000  1.0
  C  C200  1  0.92083000  0.44790000  0.31508000  1.0
  C  C201  1  0.36873000  0.07917000  0.64842000  1.0
  C  C202  1  0.55211000  0.36873000  0.98175000  1.0
  C  C203  1  0.07916000  0.55211000  0.31508000  1.0
  C  C204  1  0.61307000  0.98705000  0.00533000  1.0
  C  C205  1  0.98705000  0.39988000  0.67200000  1.0
  C  C206  1  0.39988000  0.61307000  0.33866000  1.0
  C  C207  1  0.38693000  0.01295000  0.00533000  1.0
  C  C208  1  0.01295000  0.60012000  0.67200000  1.0
  C  C209  1  0.60012000  0.38693000  0.33866000  1.0
  C  C210  1  0.60000000  0.01303000  0.66133000  1.0
  C  C211  1  0.38697000  0.60001000  0.99466000  1.0
  C  C212  1  0.01303000  0.38697000  0.32799000  1.0
  C  C213  1  0.40000000  0.98697000  0.66133000  1.0
  C  C214  1  0.61303000  0.40000000  0.99466000  1.0
  C  C215  1  0.98697000  0.61303000  0.32799000  1.0
  C  C216  1  0.63862000  0.96267000  0.95256000  1.0
  C  C217  1  0.96267000  0.39871000  0.61922000  1.0
  C  C218  1  0.39871000  0.63862000  0.28589000  1.0
  C  C219  1  0.36138000  0.03733000  0.95256000  1.0
  C  C220  1  0.03733000  0.60129000  0.61922000  1.0
  C  C221  1  0.60128000  0.36138000  0.28589000  1.0
  C  C222  1  0.60122000  0.03740000  0.71411000  1.0
  C  C223  1  0.36138000  0.60122000  0.04744000  1.0
  C  C224  1  0.03741000  0.36138000  0.38077000  1.0
  C  C225  1  0.39878000  0.96260000  0.71411000  1.0
  C  C226  1  0.63862000  0.39878000  0.04744000  1.0
  C  C227  1  0.96259000  0.63862000  0.38077000  1.0
  C  C228  1  0.59904000  0.03470000  0.91532000  1.0
  C  C229  1  0.03470000  0.36626000  0.58199000  1.0
  C  C230  1  0.36626000  0.59904000  0.24866000  1.0
  C  C231  1  0.40096000  0.96530000  0.91532000  1.0
  C  C232  1  0.96530000  0.63374000  0.58199000  1.0
  C  C233  1  0.63374000  0.40096000  0.24866000  1.0
  C  C234  1  0.63368000  0.96528000  0.75131000  1.0
  C  C235  1  0.40104000  0.63368000  0.08464000  1.0
  C  C236  1  0.96528000  0.40105000  0.41797000  1.0
  C  C237  1  0.36632000  0.03472000  0.75130000  1.0
  C  C238  1  0.59896000  0.36632000  0.08464000  1.0
  C  C239  1  0.03472000  0.59896000  0.41797000  1.0
  C  C240  1  0.53840000  0.12485000  0.93180000  1.0
  C  C241  1  0.12485000  0.33675000  0.59846000  1.0
  C  C242  1  0.33675000  0.53840000  0.26513000  1.0
  C  C243  1  0.46160000  0.87515000  0.93180000  1.0
  C  C244  1  0.87515000  0.66325000  0.59846000  1.0
  C  C245  1  0.66325000  0.46160000  0.26513000  1.0
  C  C246  1  0.66307000  0.87518000  0.73479000  1.0
  C  C247  1  0.46175000  0.66308000  0.06813000  1.0
  C  C248  1  0.87517000  0.46176000  0.40146000  1.0
  C  C249  1  0.33692000  0.12483000  0.73479000  1.0
  C  C250  1  0.53825000  0.33692000  0.06813000  1.0
  C  C251  1  0.12483000  0.53824000  0.40146000  1.0
  C  C252  1  0.74710000  0.83688000  0.89321000  1.0
  C  C253  1  0.83688000  0.41602000  0.55988000  1.0
  C  C254  1  0.41602000  0.74710000  0.22654000  1.0
  C  C255  1  0.25290000  0.16312000  0.89321000  1.0
  C  C256  1  0.16312000  0.58398000  0.55988000  1.0
  C  C257  1  0.58398000  0.25290000  0.22654000  1.0
  C  C258  1  0.58357000  0.16323000  0.77360000  1.0
  C  C259  1  0.25320000  0.58357000  0.10693000  1.0
  C  C260  1  0.16323000  0.25320000  0.44026000  1.0
  C  C261  1  0.41643000  0.83678000  0.77360000  1.0
  C  C262  1  0.74680000  0.41643000  0.10693000  1.0
  C  C263  1  0.83677000  0.74680000  0.44026000  1.0
  C  C264  1  0.81736000  0.73524000  0.89084000  1.0
  C  C265  1  0.73524000  0.44740000  0.55751000  1.0
  C  C266  1  0.44740000  0.81736000  0.22418000  1.0
  C  C267  1  0.18264000  0.26476000  0.89084000  1.0
  C  C268  1  0.26476000  0.55260000  0.55751000  1.0
  C  C269  1  0.55260000  0.18263000  0.22418000  1.0
  C  C270  1  0.55246000  0.26479000  0.77595000  1.0
  C  C271  1  0.18275000  0.55246000  0.10928000  1.0
  C  C272  1  0.26479000  0.18275000  0.44262000  1.0
  C  C273  1  0.44754000  0.73521000  0.77595000  1.0
  C  C274  1  0.81725000  0.44754000  0.10928000  1.0
  C  C275  1  0.73521000  0.81725000  0.44262000  1.0
  C  C276  1  0.82948000  0.67113000  0.93013000  1.0
  C  C277  1  0.67114000  0.49939000  0.59680000  1.0
  C  C278  1  0.49939000  0.82947000  0.26347000  1.0
  C  C279  1  0.17052000  0.32887000  0.93013000  1.0
  C  C280  1  0.32886000  0.50062000  0.59680000  1.0
  C  C281  1  0.50061000  0.17052000  0.26347000  1.0
  C  C282  1  0.50042000  0.32894000  0.73667000  1.0
  C  C283  1  0.17064000  0.50043000  0.07001000  1.0
  C  C284  1  0.32893000  0.17065000  0.40334000  1.0
  C  C285  1  0.49958000  0.67106000  0.73667000  1.0
  C  C286  1  0.82936000  0.49957000  0.07001000  1.0
  C  C287  1  0.67106000  0.82936000  0.40334000  1.0
  C  C288  1  0.90063000  0.57895000  0.92591000  1.0
  C  C289  1  0.57896000  0.52041000  0.59258000  1.0
  C  C290  1  0.52041000  0.90063000  0.25924000  1.0
  C  C291  1  0.09937000  0.42104000  0.92591000  1.0
  C  C292  1  0.42104000  0.47959000  0.59258000  1.0
  C  C293  1  0.47958000  0.09938000  0.25924000  1.0
  C  C294  1  0.47947000  0.42108000  0.74088000  1.0
  C  C295  1  0.09945000  0.47947000  0.07421000  1.0
  C  C296  1  0.42108000  0.09945000  0.40755000  1.0
  C  C297  1  0.52053000  0.57892000  0.74088000  1.0
  C  C298  1  0.90055000  0.52053000  0.07421000  1.0
  C  C299  1  0.57892000  0.90055000  0.40755000  1.0
  C  C300  1  0.96077000  0.54835000  0.88264000  1.0
  C  C301  1  0.54836000  0.49087000  0.54932000  1.0
  C  C302  1  0.49087000  0.96077000  0.21598000  1.0
  C  C303  1  0.03923000  0.45165000  0.88264000  1.0
  C  C304  1  0.45164000  0.50913000  0.54931000  1.0
  C  C305  1  0.50913000  0.03923000  0.21598000  1.0
  C  C306  1  0.50911000  0.45165000  0.78412000  1.0
  C  C307  1  0.03924000  0.50911000  0.11745000  1.0
  C  C308  1  0.45165000  0.03924000  0.45079000  1.0
  C  C309  1  0.49089000  0.54835000  0.78412000  1.0
  C  C310  1  0.96076000  0.49089000  0.11745000  1.0
  C  C311  1  0.54835000  0.96076000  0.45079000  1.0
  C  C312  1  0.94628000  0.61177000  0.84236000  1.0
  C  C313  1  0.61177000  0.44195000  0.50903000  1.0
  C  C314  1  0.44195000  0.94628000  0.17569000  1.0
  C  C315  1  0.05372000  0.38823000  0.84236000  1.0
  C  C316  1  0.38823000  0.55805000  0.50903000  1.0
  C  C317  1  0.55805000  0.05372000  0.17569000  1.0
  C  C318  1  0.55822000  0.38816000  0.82433000  1.0
  C  C319  1  0.05362000  0.55823000  0.15766000  1.0
  C  C320  1  0.38815000  0.05362000  0.49100000  1.0
  C  C321  1  0.44178000  0.61184000  0.82433000  1.0
  C  C322  1  0.94638000  0.44178000  0.15766000  1.0
  C  C323  1  0.61185000  0.94637000  0.49100000  1.0
  C  C324  1  0.87545000  0.70426000  0.84659000  1.0
  C  C325  1  0.70427000  0.42028000  0.51326000  1.0
  C  C326  1  0.42029000  0.87545000  0.17993000  1.0
  C  C327  1  0.12455000  0.29574000  0.84659000  1.0
  C  C328  1  0.29574000  0.57971000  0.51326000  1.0
  C  C329  1  0.57971000  0.12455000  0.17993000  1.0
  C  C330  1  0.57989000  0.29567000  0.82011000  1.0
  C  C331  1  0.12444000  0.57990000  0.15344000  1.0
  C  C332  1  0.29566000  0.12445000  0.48677000  1.0
  C  C333  1  0.42011000  0.70433000  0.82011000  1.0
  C  C334  1  0.87556000  0.42010000  0.15344000  1.0
  C  C335  1  0.70434000  0.87556000  0.48677000  1.0
  N  N336  1  0.51477000  0.14822000  0.98229000  1.0
  N  N337  1  0.14823000  0.33700000  0.64895000  1.0
  N  N338  1  0.33701000  0.51476000  0.31562000  1.0
  N  N339  1  0.48523000  0.85178000  0.98229000  1.0
  N  N340  1  0.85177000  0.66300000  0.64895000  1.0
  N  N341  1  0.66299000  0.48524000  0.31562000  1.0
  N  N342  1  0.66277000  0.85182000  0.68429000  1.0
  N  N343  1  0.48541000  0.66277000  0.01762000  1.0
  N  N344  1  0.85182000  0.48541000  0.35096000  1.0
  N  N345  1  0.33723000  0.14818000  0.68429000  1.0
  N  N346  1  0.51459000  0.33723000  0.01762000  1.0
  N  N347  1  0.14818000  0.51459000  0.35096000  1.0
  N  N348  1  0.70092000  0.87024000  0.94038000  1.0
  N  N349  1  0.87024000  0.42884000  0.60705000  1.0
  N  N350  1  0.42884000  0.70092000  0.27371000  1.0
  N  N351  1  0.29908000  0.12976000  0.94038000  1.0
  N  N352  1  0.12976000  0.57116000  0.60705000  1.0
  N  N353  1  0.57116000  0.29908000  0.27371000  1.0
  N  N354  1  0.57122000  0.12977000  0.72629000  1.0
  N  N355  1  0.29901000  0.57122000  0.05962000  1.0
  N  N356  1  0.12977000  0.29901000  0.39295000  1.0
  N  N357  1  0.42878000  0.87023000  0.72629000  1.0
  N  N358  1  0.70099000  0.42878000  0.05962000  1.0
  N  N359  1  0.87023000  0.70099000  0.39296000  1.0
  N  N360  1  0.15145000  0.71490000  0.83240000  1.0
  N  N361  1  0.71490000  0.13364000  0.49907000  1.0
  N  N362  1  0.13366000  0.15144000  0.16574000  1.0
  N  N363  1  0.84856000  0.28509000  0.83240000  1.0
  N  N364  1  0.28510000  0.86636000  0.49907000  1.0
  N  N365  1  0.86634000  0.84856000  0.16574000  1.0
  O  O366  1  0.37452000  0.33187000  0.92917000  1.0
  O  O367  1  0.33187000  0.29362000  0.59584000  1.0
  O  O368  1  0.29361000  0.37452000  0.26250000  1.0
  O  O369  1  0.62548000  0.66814000  0.92917000  1.0
  O  O370  1  0.66813000  0.70638000  0.59584000  1.0
  O  O371  1  0.70639000  0.62548000  0.26251000  1.0
  O  O372  1  0.70761000  0.66795000  0.73766000  1.0
  O  O373  1  0.62444000  0.70762000  0.07099000  1.0
  O  O374  1  0.66794000  0.62444000  0.40432000  1.0
  O  O375  1  0.29239000  0.33205000  0.73766000  1.0
  O  O376  1  0.37556000  0.29238000  0.07099000  1.0
  O  O377  1  0.33206000  0.37556000  0.40432000  1.0
  O  O378  1  0.29923000  0.46795000  0.97199000  1.0
  O  O379  1  0.46796000  0.23282000  0.63865000  1.0
  O  O380  1  0.23282000  0.29922000  0.30532000  1.0
  O  O381  1  0.70078000  0.53204000  0.97199000  1.0
  O  O382  1  0.53204000  0.76718000  0.63865000  1.0
  O  O383  1  0.76718000  0.70078000  0.30532000  1.0
  O  O384  1  0.76794000  0.53208000  0.69465000  1.0
  O  O385  1  0.69998000  0.76793000  0.02798000  1.0
  O  O386  1  0.53208000  0.69998000  0.36131000  1.0
  O  O387  1  0.23207000  0.46791000  0.69465000  1.0
  O  O388  1  0.30002000  0.23207000  0.02798000  1.0
  O  O389  1  0.46791000  0.30003000  0.36131000  1.0
  O  O390  1  0.73439000  0.88802000  0.85519000  1.0
  O  O391  1  0.88802000  0.37760000  0.52186000  1.0
  O  O392  1  0.37759000  0.73438000  0.18852000  1.0
  O  O393  1  0.26562000  0.11197000  0.85519000  1.0
  O  O394  1  0.11198000  0.62240000  0.52186000  1.0
  O  O395  1  0.62241000  0.26562000  0.18852000  1.0
  O  O396  1  0.62129000  0.11208000  0.81170000  1.0
  O  O397  1  0.26663000  0.62129000  0.14503000  1.0
  O  O398  1  0.11208000  0.26663000  0.47837000  1.0
  O  O399  1  0.37872000  0.88791000  0.81170000  1.0
  O  O400  1  0.73338000  0.37871000  0.14503000  1.0
  O  O401  1  0.88792000  0.73338000  0.47837000  1.0
