# generated using pymatgen
data_ZnH8(C3O2)3
_symmetry_space_group_name_H-M   'P 1'
_cell_length_a   6.78662000
_cell_length_b   8.02045000
_cell_length_c   17.52470000
_cell_angle_alpha   85.94130000
_cell_angle_beta   89.99990000
_cell_angle_gamma   89.99990000
_symmetry_Int_Tables_number   1
_chemical_formula_structural   ZnH8(C3O2)3
_chemical_formula_sum   'Zn4 H32 C36 O24'
_cell_volume   951.50770236
_cell_formula_units_Z   4
loop_
 _symmetry_equiv_pos_site_id
 _symmetry_equiv_pos_as_xyz
  1  'x, y, z'
loop_
 _atom_site_type_symbol
 _atom_site_label
 _atom_site_symmetry_multiplicity
 _atom_site_fract_x
 _atom_site_fract_y
 _atom_site_fract_z
 _atom_site_occupancy
  Zn  Zn0  1  0.43524000  0.44265000  0.77070000  1.0
  Zn  Zn1  1  0.93524000  0.05735000  0.72930000  1.0
  Zn  Zn2  1  0.56476000  0.55735000  0.22930000  1.0
  Zn  Zn3  1  0.06476000  0.94265000  0.27070000  1.0
  H  H4  1  0.63687000  0.73874000  0.74229000  1.0
  H  H5  1  0.13687000  0.76126000  0.75771000  1.0
  H  H6  1  0.36313000  0.26126000  0.25771000  1.0
  H  H7  1  0.86313000  0.23874000  0.24229000  1.0
  H  H8  1  0.75565000  0.60836000  0.80049000  1.0
  H  H9  1  0.25565000  0.89164000  0.69951000  1.0
  H  H10  1  0.24435000  0.39164000  0.19951000  1.0
  H  H11  1  0.74435000  0.10836000  0.30049000  1.0
  H  H12  1  0.30242000  0.33544000  0.04986000  1.0
  H  H13  1  0.80242000  0.16456000  0.45014000  1.0
  H  H14  1  0.69758000  0.66456000  0.95014000  1.0
  H  H15  1  0.19758000  0.83544000  0.54986000  1.0
  H  H16  1  0.51519000  0.18819000  0.14475000  1.0
  H  H17  1  0.01519000  0.31181000  0.35525000  1.0
  H  H18  1  0.48481000  0.81181000  0.85525000  1.0
  H  H19  1  0.98481000  0.68819000  0.64475000  1.0
  H  H20  1  0.82477000  0.04965000  0.10511000  1.0
  H  H21  1  0.32477000  0.45035000  0.39489000  1.0
  H  H22  1  0.17523000  0.95035000  0.89489000  1.0
  H  H23  1  0.67523000  0.54965000  0.60511000  1.0
  H  H24  1  0.90432000  0.05611000  0.96504000  1.0
  H  H25  1  0.40432000  0.44389000  0.53496000  1.0
  H  H26  1  0.09568000  0.94389000  0.03496000  1.0
  H  H27  1  0.59568000  0.55611000  0.46504000  1.0
  H  H28  1  0.20468000  0.51403000  0.96864000  1.0
  H  H29  1  0.70468000  0.98597000  0.53136000  1.0
  H  H30  1  0.79532000  0.48597000  0.03136000  1.0
  H  H31  1  0.29532000  0.01403000  0.46864000  1.0
  H  H32  1  0.08619000  0.32519000  0.94438000  1.0
  H  H33  1  0.58619000  0.17481000  0.55562000  1.0
  H  H34  1  0.91381000  0.67481000  0.05562000  1.0
  H  H35  1  0.41381000  0.82519000  0.44438000  1.0
  C  C36  1  0.48607000  0.28360000  0.95281000  1.0
  C  C37  1  0.98607000  0.21639000  0.54719000  1.0
  C  C38  1  0.51393000  0.71640000  0.04719000  1.0
  C  C39  1  0.01393000  0.78361000  0.45281000  1.0
  C  C40  1  0.43655000  0.27754000  0.03050000  1.0
  C  C41  1  0.93655000  0.22246000  0.46950000  1.0
  C  C42  1  0.56345000  0.72246000  0.96950000  1.0
  C  C43  1  0.06345000  0.77754000  0.53050000  1.0
  C  C44  1  0.55765000  0.19341000  0.08475000  1.0
  C  C45  1  0.05765000  0.30660000  0.41525000  1.0
  C  C46  1  0.44235000  0.80659000  0.91525000  1.0
  C  C47  1  0.94235000  0.69341000  0.58475000  1.0
  C  C48  1  0.73013000  0.11546000  0.06271000  1.0
  C  C49  1  0.23013000  0.38454000  0.43729000  1.0
  C  C50  1  0.26987000  0.88454000  0.93729000  1.0
  C  C51  1  0.76987000  0.61546000  0.56271000  1.0
  C  C52  1  0.77611000  0.12069000  0.98537000  1.0
  C  C53  1  0.27611000  0.37931000  0.51463000  1.0
  C  C54  1  0.22389000  0.87931000  0.01463000  1.0
  C  C55  1  0.72389000  0.62069000  0.48537000  1.0
  C  C56  1  0.65777000  0.20281000  0.92869000  1.0
  C  C57  1  0.15777000  0.29718000  0.57131000  1.0
  C  C58  1  0.34223000  0.79719000  0.07131000  1.0
  C  C59  1  0.84223000  0.70281000  0.42869000  1.0
  C  C60  1  0.71746000  0.18740000  0.84763000  1.0
  C  C61  1  0.21746000  0.31260000  0.65237000  1.0
  C  C62  1  0.28254000  0.81260000  0.15237000  1.0
  C  C63  1  0.78254000  0.68740000  0.34763000  1.0
  C  C64  1  0.18246000  0.42835000  0.92296000  1.0
  C  C65  1  0.68246000  0.07165000  0.57704000  1.0
  C  C66  1  0.81754000  0.57165000  0.07704000  1.0
  C  C67  1  0.31754000  0.92835000  0.42296000  1.0
  C  C68  1  0.08348000  0.52746000  0.85694000  1.0
  C  C69  1  0.58349000  0.97255000  0.64306000  1.0
  C  C70  1  0.91652000  0.47254000  0.14306000  1.0
  C  C71  1  0.41651000  0.02745000  0.35694000  1.0
  O  O72  1  0.64499000  0.61952000  0.76194000  1.0
  O  O73  1  0.14500000  0.88048000  0.73806000  1.0
  O  O74  1  0.35501000  0.38048000  0.23806000  1.0
  O  O75  1  0.85500000  0.11952000  0.26194000  1.0
  O  O76  1  0.18169000  0.56313000  0.79517000  1.0
  O  O77  1  0.68169000  0.93687000  0.70483000  1.0
  O  O78  1  0.81830000  0.43687000  0.20483000  1.0
  O  O79  1  0.31831000  0.06313000  0.29517000  1.0
  O  O80  1  0.91047000  0.57382000  0.86844000  1.0
  O  O81  1  0.41047000  0.92618000  0.63156000  1.0
  O  O82  1  0.08952000  0.42618000  0.13156000  1.0
  O  O83  1  0.58953000  0.07382000  0.36844000  1.0
  O  O84  1  0.62513000  0.25703000  0.79061000  1.0
  O  O85  1  0.12513000  0.24297000  0.70939000  1.0
  O  O86  1  0.37487000  0.74297000  0.20939000  1.0
  O  O87  1  0.87487000  0.75703000  0.29061000  1.0
  O  O88  1  0.86820000  0.09512000  0.83747000  1.0
  O  O89  1  0.36820000  0.40488000  0.66253000  1.0
  O  O90  1  0.13180000  0.90487000  0.16253000  1.0
  O  O91  1  0.63180000  0.59512000  0.33747000  1.0
  O  O92  1  0.36721000  0.36447000  0.89819000  1.0
  O  O93  1  0.86721000  0.13552000  0.60181000  1.0
  O  O94  1  0.63279000  0.63552000  0.10181000  1.0
  O  O95  1  0.13279000  0.86447000  0.39819000  1.0
