# generated using pymatgen
data_MnH22C32S(N2O3)2
_symmetry_space_group_name_H-M   'P 1'
_cell_length_a   10.07160000
_cell_length_b   12.30780000
_cell_length_c   13.79850341
_cell_angle_alpha   89.60187686
_cell_angle_beta   68.59592319
_cell_angle_gamma   65.85210000
_symmetry_Int_Tables_number   1
_chemical_formula_structural   MnH22C32S(N2O3)2
_chemical_formula_sum   'Mn2 H44 C64 S2 N8 O12'
_cell_volume   1432.58456527
_cell_formula_units_Z   2
loop_
 _symmetry_equiv_pos_site_id
 _symmetry_equiv_pos_as_xyz
  1  'x, y, z'
loop_
 _atom_site_type_symbol
 _atom_site_label
 _atom_site_symmetry_multiplicity
 _atom_site_fract_x
 _atom_site_fract_y
 _atom_site_fract_z
 _atom_site_occupancy
  Mn  Mn0  1  0.56644000  0.60372000  0.38712000  1.0
  Mn  Mn1  1  0.94281000  0.10378000  0.88700000  1.0
  H  H2  1  0.21946000  0.66017000  0.30898000  1.0
  H  H3  1  0.31145000  0.15987000  0.80912000  1.0
  H  H4  1  0.32237000  0.55573000  0.93336000  1.0
  H  H5  1  0.68850000  0.05601000  0.43354000  1.0
  H  H6  1  0.92864000  0.91437000  0.14373000  1.0
  H  H7  1  0.51279000  0.41452000  0.64386000  1.0
  H  H8  1  0.78524000  0.45688000  0.84701000  1.0
  H  H9  1  0.41086000  0.95678000  0.34707000  1.0
  H  H10  1  0.71429000  0.85252000  0.76299000  1.0
  H  H11  1  0.17028000  0.35258000  0.26298000  1.0
  H  H12  1  0.38331000  0.44945000  0.21834000  1.0
  H  H13  1  0.44921000  0.94923000  0.71827000  1.0
  H  H14  1  0.97269000  0.86345000  0.66891000  1.0
  H  H15  1  0.99498000  0.36370000  0.16887000  1.0
  H  H16  1  0.44492000  0.82922000  0.12035000  1.0
  H  H17  1  0.10566000  0.32941000  0.62011000  1.0
  H  H18  1  0.15673000  0.76759000  0.02429000  1.0
  H  H19  1  0.55098000  0.26784000  0.52457000  1.0
  H  H20  1  0.75038000  0.31815000  0.26172000  1.0
  H  H21  1  0.16948000  0.81813000  0.76164000  1.0
  H  H22  1  0.91878000  0.20938000  0.50421000  1.0
  H  H23  1  0.86728000  0.70972000  0.00451000  1.0
  H  H24  1  0.79567000  0.12759000  0.22376000  1.0
  H  H25  1  0.35249000  0.62772000  0.72388000  1.0
  H  H26  1  0.77637000  0.45396000  0.03114000  1.0
  H  H27  1  0.23849000  0.95406000  0.53129000  1.0
  H  H28  1  0.35642000  0.34654000  0.91404000  1.0
  H  H29  1  0.88320000  0.84656000  0.41391000  1.0
  H  H30  1  0.09005000  0.04948000  0.40109000  1.0
  H  H31  1  0.95891000  0.54954000  0.90127000  1.0
  H  H32  1  0.65267000  0.32856000  0.07350000  1.0
  H  H33  1  0.44543000  0.82866000  0.57339000  1.0
  H  H34  1  0.22899000  0.83715000  0.31688000  1.0
  H  H35  1  0.11666000  0.33718000  0.81712000  1.0
  H  H36  1  0.73927000  0.45685000  0.54530000  1.0
  H  H37  1  0.75865000  0.95714000  0.04539000  1.0
  H  H38  1  0.17197000  0.51049000  0.49121000  1.0
  H  H39  1  0.32631000  0.01081000  0.99103000  1.0
  H  H40  1  0.63736000  0.13610000  0.82902000  1.0
  H  H41  1  0.89756000  0.63625000  0.32877000  1.0
  H  H42  1  0.45609000  0.83454000  0.93439000  1.0
  H  H43  1  0.27510000  0.33451000  0.43403000  1.0
  H  H44  1  0.91577000  0.49473000  0.58750000  1.0
  H  H45  1  0.50203000  0.99483000  0.08732000  1.0
  C  C46  1  0.61175000  0.64236000  0.08505000  1.0
  C  C47  1  0.16099000  0.14249000  0.58503000  1.0
  C  C48  1  0.08734000  0.68583000  0.57647000  1.0
  C  C49  1  0.15046000  0.18613000  0.07628000  1.0
  C  C50  1  0.80268000  0.67174000  0.68091000  1.0
  C  C51  1  0.34469000  0.17182000  0.18083000  1.0
  C  C52  1  0.23862000  0.63867000  0.22704000  1.0
  C  C53  1  0.39573000  0.13853000  0.72721000  1.0
  C  C54  1  0.36098000  0.48978000  0.07063000  1.0
  C  C55  1  0.57871000  0.98983000  0.57067000  1.0
  C  C56  1  0.08900000  0.85848000  0.22404000  1.0
  C  C57  1  0.32816000  0.35850000  0.72435000  1.0
  C  C58  1  0.29416000  0.57872000  0.01682000  1.0
  C  C59  1  0.61024000  0.07889000  0.51697000  1.0
  C  C60  1  0.96764000  0.94348000  0.19836000  1.0
  C  C61  1  0.39005000  0.44356000  0.69856000  1.0
  C  C62  1  0.71301000  0.53876000  0.90633000  1.0
  C  C63  1  0.34193000  0.03871000  0.40634000  1.0
  C  C64  1  0.81478000  0.77720000  0.70397000  1.0
  C  C65  1  0.20410000  0.27731000  0.20393000  1.0
  C  C66  1  0.17379000  0.73045000  0.17371000  1.0
  C  C67  1  0.42189000  0.23046000  0.67399000  1.0
  C  C68  1  0.33176000  0.51916000  0.17644000  1.0
  C  C69  1  0.47281000  0.01905000  0.67649000  1.0
  C  C70  1  0.95794000  0.78374000  0.65154000  1.0
  C  C71  1  0.10683000  0.28398000  0.15146000  1.0
  C  C72  1  0.52137000  0.74993000  0.05883000  1.0
  C  C73  1  0.17001000  0.25003000  0.55868000  1.0
  C  C74  1  0.20114000  0.69767000  0.06839000  1.0
  C  C75  1  0.53262000  0.19781000  0.56865000  1.0
  C  C76  1  0.93412000  0.10327000  0.31816000  1.0
  C  C77  1  0.14392000  0.60340000  0.81829000  1.0
  C  C78  1  0.24654000  0.68704000  0.52592000  1.0
  C  C79  1  0.04053000  0.18735000  0.02576000  1.0
  C  C80  1  0.62332000  0.64775000  0.88171000  1.0
  C  C81  1  0.34738000  0.14765000  0.38160000  1.0
  C  C82  1  0.76693000  0.32331000  0.33473000  1.0
  C  C83  1  0.07478000  0.82337000  0.83472000  1.0
  C  C84  1  0.85829000  0.26860000  0.46034000  1.0
  C  C85  1  0.91255000  0.76883000  0.96050000  1.0
  C  C86  1  0.89068000  0.06475000  0.24429000  1.0
  C  C87  1  0.29974000  0.56486000  0.74440000  1.0
  C  C88  1  0.59947000  0.63946000  0.19639000  1.0
  C  C89  1  0.06482000  0.13966000  0.69635000  1.0
  C  C90  1  0.70741000  0.53702000  0.00884000  1.0
  C  C91  1  0.24674000  0.03709000  0.50888000  1.0
  C  C92  1  0.45953000  0.31084000  0.93346000  1.0
  C  C93  1  0.79629000  0.81089000  0.43336000  1.0
  C  C94  1  0.05378000  0.02009000  0.34511000  1.0
  C  C95  1  0.08054000  0.52018000  0.84532000  1.0
  C  C96  1  0.61069000  0.30303000  0.01960000  1.0
  C  C97  1  0.56682000  0.80309000  0.51948000  1.0
  C  C98  1  0.13079000  0.89936000  0.29841000  1.0
  C  C99  1  0.17108000  0.39940000  0.79868000  1.0
  C  C100  1  0.76936000  0.39114000  0.47961000  1.0
  C  C101  1  0.85984000  0.89135000  0.97968000  1.0
  C  C102  1  0.07052000  0.58354000  0.55151000  1.0
  C  C103  1  0.29453000  0.08385000  0.05130000  1.0
  C  C104  1  0.59856000  0.20720000  0.89292000  1.0
  C  C105  1  0.80142000  0.70730000  0.39277000  1.0
  C  C106  1  0.52766000  0.75317000  0.95664000  1.0
  C  C107  1  0.26265000  0.25317000  0.45643000  1.0
  C  C108  1  0.92903000  0.57509000  0.60428000  1.0
  C  C109  1  0.39166000  0.07524000  0.10412000  1.0
  S  S110  1  0.62697000  0.65499000  0.75250000  1.0
  S  S111  1  0.46561000  0.15488000  0.25241000  1.0
  N  N112  1  0.85597000  0.22589000  0.36820000  1.0
  N  N113  1  0.04955000  0.72603000  0.86830000  1.0
  N  N114  1  0.71328000  0.42410000  0.40094000  1.0
  N  N115  1  0.96158000  0.92422000  0.90093000  1.0
  N  N116  1  0.46852000  0.37089000  0.01398000  1.0
  N  N117  1  0.64676000  0.87094000  0.51391000  1.0
  N  N118  1  0.69254000  0.20362000  0.94673000  1.0
  N  N119  1  0.65718000  0.70373000  0.44656000  1.0
  O  O120  1  0.64904000  0.53898000  0.70858000  1.0
  O  O121  1  0.60337000  0.03884000  0.20846000  1.0
  O  O122  1  0.48934000  0.76384000  0.75883000  1.0
  O  O123  1  0.48818000  0.26369000  0.25869000  1.0
  O  O124  1  0.67979000  0.53902000  0.21936000  1.0
  O  O125  1  0.06234000  0.03910000  0.71933000  1.0
  O  O126  1  0.50795000  0.73395000  0.26610000  1.0
  O  O127  1  0.99171000  0.23423000  0.76600000  1.0
  O  O128  1  0.27476000  0.76204000  0.56590000  1.0
  O  O129  1  0.89732000  0.26228000  0.06589000  1.0
  O  O130  1  0.34801000  0.60552000  0.44328000  1.0
  O  O131  1  0.10317000  0.10591000  0.94307000  1.0
