# generated using pymatgen
data_HoAgH8C18(NO2)4
_symmetry_space_group_name_H-M   'P 1'
_cell_length_a   8.49700000
_cell_length_b   17.64210000
_cell_length_c   24.93870000
_cell_angle_alpha   89.99970000
_cell_angle_beta   90.00020000
_cell_angle_gamma   89.99960000
_symmetry_Int_Tables_number   1
_chemical_formula_structural   HoAgH8C18(NO2)4
_chemical_formula_sum   'Ho8 Ag8 H64 C144 N32 O64'
_cell_volume   3738.43392051
_cell_formula_units_Z   8
loop_
 _symmetry_equiv_pos_site_id
 _symmetry_equiv_pos_as_xyz
  1  'x, y, z'
loop_
 _atom_site_type_symbol
 _atom_site_label
 _atom_site_symmetry_multiplicity
 _atom_site_fract_x
 _atom_site_fract_y
 _atom_site_fract_z
 _atom_site_occupancy
  Ho  Ho0  1  0.83424000  0.21696000  0.97510000  1.0
  Ho  Ho1  1  0.33424000  0.28304000  0.02489000  1.0
  Ho  Ho2  1  0.33425000  0.78304000  0.47510000  1.0
  Ho  Ho3  1  0.83424000  0.71696000  0.52490000  1.0
  Ho  Ho4  1  0.66576000  0.21696000  0.52490000  1.0
  Ho  Ho5  1  0.16576000  0.28304000  0.47510000  1.0
  Ho  Ho6  1  0.16576000  0.78304000  0.02490000  1.0
  Ho  Ho7  1  0.66576000  0.71696000  0.97510000  1.0
  Ag  Ag8  1  0.53841000  0.04464000  0.27266000  1.0
  Ag  Ag9  1  0.03844000  0.45537000  0.72734000  1.0
  Ag  Ag10  1  0.03845000  0.95536000  0.77266000  1.0
  Ag  Ag11  1  0.53842000  0.54463000  0.22735000  1.0
  Ag  Ag12  1  0.96154000  0.04463000  0.22736000  1.0
  Ag  Ag13  1  0.46155000  0.45537000  0.77265000  1.0
  Ag  Ag14  1  0.46157000  0.95536000  0.72734000  1.0
  Ag  Ag15  1  0.96156000  0.54462000  0.27266000  1.0
  H  H16  1  0.93625000  0.65376000  0.08918000  1.0
  H  H17  1  0.27871000  0.87742000  0.12823000  1.0
  H  H18  1  0.04953000  0.51242000  0.04266000  1.0
  H  H19  1  0.74066000  0.68666000  0.16454000  1.0
  H  H20  1  0.58571000  0.41364000  0.14566000  1.0
  H  H21  1  0.10934000  0.99699000  0.06098000  1.0
  H  H22  1  0.45127000  0.88495000  0.20679000  1.0
  H  H23  1  0.32773000  0.16356000  0.20775000  1.0
  H  H24  1  0.43627000  0.84624000  0.91082000  1.0
  H  H25  1  0.77869000  0.62258000  0.87177000  1.0
  H  H26  1  0.54954000  0.98758000  0.95734000  1.0
  H  H27  1  0.24068000  0.81334000  0.83546000  1.0
  H  H28  1  0.08571000  0.08636000  0.85434000  1.0
  H  H29  1  0.60933000  0.50301000  0.93902000  1.0
  H  H30  1  0.95126000  0.61506000  0.79322000  1.0
  H  H31  1  0.82773000  0.33644000  0.79225000  1.0
  H  H32  1  0.43626000  0.34624000  0.58918000  1.0
  H  H33  1  0.77869000  0.12258000  0.62823000  1.0
  H  H34  1  0.54955000  0.48758000  0.54266000  1.0
  H  H35  1  0.24067000  0.31334000  0.66454000  1.0
  H  H36  1  0.08572000  0.58636000  0.64566000  1.0
  H  H37  1  0.60934000  0.00301000  0.56098000  1.0
  H  H38  1  0.95126000  0.11505000  0.70679000  1.0
  H  H39  1  0.82774000  0.83643000  0.70775000  1.0
  H  H40  1  0.93626000  0.15376000  0.41082000  1.0
  H  H41  1  0.27870000  0.37742000  0.37178000  1.0
  H  H42  1  0.04954000  0.01242000  0.45734000  1.0
  H  H43  1  0.74067000  0.18667000  0.33546000  1.0
  H  H44  1  0.58572000  0.91364000  0.35434000  1.0
  H  H45  1  0.10934000  0.49699000  0.43902000  1.0
  H  H46  1  0.45125000  0.38495000  0.29322000  1.0
  H  H47  1  0.32774000  0.66356000  0.29225000  1.0
  H  H48  1  0.56374000  0.65376000  0.41082000  1.0
  H  H49  1  0.22131000  0.87742000  0.37178000  1.0
  H  H50  1  0.45046000  0.51242000  0.45734000  1.0
  H  H51  1  0.75932000  0.68666000  0.33546000  1.0
  H  H52  1  0.91428000  0.41364000  0.35434000  1.0
  H  H53  1  0.39067000  0.99699000  0.43902000  1.0
  H  H54  1  0.04875000  0.88495000  0.29322000  1.0
  H  H55  1  0.17227000  0.16357000  0.29225000  1.0
  H  H56  1  0.06374000  0.84624000  0.58918000  1.0
  H  H57  1  0.72131000  0.62258000  0.62822000  1.0
  H  H58  1  0.95046000  0.98758000  0.54266000  1.0
  H  H59  1  0.25933000  0.81333000  0.66454000  1.0
  H  H60  1  0.41429000  0.08636000  0.64566000  1.0
  H  H61  1  0.89066000  0.50301000  0.56098000  1.0
  H  H62  1  0.54874000  0.61505000  0.70678000  1.0
  H  H63  1  0.67225000  0.33643000  0.70775000  1.0
  H  H64  1  0.06374000  0.34624000  0.91082000  1.0
  H  H65  1  0.72129000  0.12258000  0.87177000  1.0
  H  H66  1  0.95046000  0.48758000  0.95734000  1.0
  H  H67  1  0.25932000  0.31334000  0.83546000  1.0
  H  H68  1  0.41429000  0.58636000  0.85434000  1.0
  H  H69  1  0.89066000  0.00302000  0.93902000  1.0
  H  H70  1  0.54873000  0.11505000  0.79321000  1.0
  H  H71  1  0.67226000  0.83644000  0.79226000  1.0
  H  H72  1  0.56374000  0.15376000  0.08918000  1.0
  H  H73  1  0.22131000  0.37742000  0.12822000  1.0
  H  H74  1  0.45046000  0.01242000  0.04266000  1.0
  H  H75  1  0.75933000  0.18667000  0.16454000  1.0
  H  H76  1  0.91429000  0.91364000  0.14566000  1.0
  H  H77  1  0.39067000  0.49699000  0.06098000  1.0
  H  H78  1  0.04874000  0.38494000  0.20678000  1.0
  H  H79  1  0.17227000  0.66356000  0.20775000  1.0
  C  C80  1  0.98989000  0.37184000  0.01775000  1.0
  C  C81  1  0.89441000  0.41783000  0.05686000  1.0
  C  C82  1  0.94540000  0.49248000  0.06353000  1.0
  C  C83  1  0.86082000  0.53903000  0.09798000  1.0
  C  C84  1  0.76300000  0.63033000  0.14884000  1.0
  C  C85  1  0.73810000  0.51004000  0.13009000  1.0
  C  C86  1  0.68552000  0.43595000  0.12322000  1.0
  C  C87  1  0.76012000  0.39034000  0.08503000  1.0
  C  C88  1  0.69031000  0.31360000  0.07483000  1.0
  C  C89  1  0.04821000  0.14529000  0.04646000  1.0
  C  C90  1  0.13349000  0.11062000  0.09256000  1.0
  C  C91  1  0.15666000  0.03202000  0.09319000  1.0
  C  C92  1  0.24615000  0.00225000  0.13516000  1.0
  C  C93  1  0.39300000  0.93482000  0.19070000  1.0
  C  C94  1  0.31245000  0.04989000  0.17513000  1.0
  C  C95  1  0.28138000  0.12749000  0.17592000  1.0
  C  C96  1  0.19128000  0.15777000  0.13446000  1.0
  C  C97  1  0.15422000  0.24147000  0.13921000  1.0
  C  C98  1  0.48989000  0.12816000  0.98225000  1.0
  C  C99  1  0.39441000  0.08217000  0.94314000  1.0
  C  C100  1  0.44540000  0.00752000  0.93647000  1.0
  C  C101  1  0.36082000  0.96097000  0.90202000  1.0
  C  C102  1  0.26300000  0.86967000  0.85116000  1.0
  C  C103  1  0.23809000  0.98996000  0.86991000  1.0
  C  C104  1  0.18552000  0.06405000  0.87678000  1.0
  C  C105  1  0.26011000  0.10966000  0.91497000  1.0
  C  C106  1  0.19031000  0.18640000  0.92516000  1.0
  C  C107  1  0.54820000  0.35470000  0.95353000  1.0
  C  C108  1  0.63349000  0.38938000  0.90744000  1.0
  C  C109  1  0.65665000  0.46798000  0.90680000  1.0
  C  C110  1  0.74614000  0.49775000  0.86484000  1.0
  C  C111  1  0.89299000  0.56519000  0.80930000  1.0
  C  C112  1  0.81244000  0.45011000  0.82487000  1.0
  C  C113  1  0.78137000  0.37251000  0.82408000  1.0
  C  C114  1  0.69128000  0.34223000  0.86554000  1.0
  C  C115  1  0.65421000  0.25853000  0.86079000  1.0
  C  C116  1  0.48990000  0.62816000  0.51775000  1.0
  C  C117  1  0.39442000  0.58216000  0.55686000  1.0
  C  C118  1  0.44541000  0.50751000  0.56353000  1.0
  C  C119  1  0.36082000  0.46097000  0.59798000  1.0
  C  C120  1  0.26300000  0.36967000  0.64884000  1.0
  C  C121  1  0.23810000  0.48996000  0.63009000  1.0
  C  C122  1  0.18553000  0.56405000  0.62322000  1.0
  C  C123  1  0.26013000  0.60966000  0.58503000  1.0
  C  C124  1  0.19032000  0.68640000  0.57483000  1.0
  C  C125  1  0.54822000  0.85471000  0.54646000  1.0
  C  C126  1  0.63350000  0.88938000  0.59256000  1.0
  C  C127  1  0.65666000  0.96798000  0.59319000  1.0
  C  C128  1  0.74615000  0.99775000  0.63516000  1.0
  C  C129  1  0.89299000  0.06518000  0.69070000  1.0
  C  C130  1  0.81246000  0.95011000  0.67513000  1.0
  C  C131  1  0.78139000  0.87251000  0.67592000  1.0
  C  C132  1  0.69130000  0.84223000  0.63446000  1.0
  C  C133  1  0.65424000  0.75853000  0.63921000  1.0
  C  C134  1  0.98990000  0.87184000  0.48225000  1.0
  C  C135  1  0.89442000  0.91784000  0.44314000  1.0
  C  C136  1  0.94540000  0.99249000  0.43647000  1.0
  C  C137  1  0.86082000  0.03903000  0.40202000  1.0
  C  C138  1  0.76300000  0.13033000  0.35116000  1.0
  C  C139  1  0.73810000  0.01005000  0.36991000  1.0
  C  C140  1  0.68553000  0.93595000  0.37678000  1.0
  C  C141  1  0.76012000  0.89034000  0.41497000  1.0
  C  C142  1  0.69032000  0.81360000  0.42516000  1.0
  C  C143  1  0.04821000  0.64530000  0.45354000  1.0
  C  C144  1  0.13350000  0.61062000  0.40744000  1.0
  C  C145  1  0.15667000  0.53202000  0.40681000  1.0
  C  C146  1  0.24615000  0.50225000  0.36484000  1.0
  C  C147  1  0.39299000  0.43482000  0.30930000  1.0
  C  C148  1  0.31246000  0.54989000  0.32488000  1.0
  C  C149  1  0.28139000  0.62749000  0.32408000  1.0
  C  C150  1  0.19130000  0.65777000  0.36554000  1.0
  C  C151  1  0.15424000  0.74147000  0.36079000  1.0
  C  C152  1  0.51011000  0.37184000  0.48225000  1.0
  C  C153  1  0.60559000  0.41783000  0.44314000  1.0
  C  C154  1  0.55460000  0.49248000  0.43647000  1.0
  C  C155  1  0.63918000  0.53903000  0.40202000  1.0
  C  C156  1  0.73700000  0.63032000  0.35116000  1.0
  C  C157  1  0.76190000  0.51004000  0.36991000  1.0
  C  C158  1  0.81447000  0.43594000  0.37678000  1.0
  C  C159  1  0.73988000  0.39034000  0.41497000  1.0
  C  C160  1  0.80969000  0.31360000  0.42516000  1.0
  C  C161  1  0.45179000  0.14529000  0.45354000  1.0
  C  C162  1  0.36650000  0.11062000  0.40744000  1.0
  C  C163  1  0.34334000  0.03202000  0.40681000  1.0
  C  C164  1  0.25385000  0.00225000  0.36484000  1.0
  C  C165  1  0.10701000  0.93482000  0.30930000  1.0
  C  C166  1  0.18754000  0.04989000  0.32487000  1.0
  C  C167  1  0.21862000  0.12749000  0.32408000  1.0
  C  C168  1  0.30870000  0.15777000  0.36554000  1.0
  C  C169  1  0.34577000  0.24147000  0.36079000  1.0
  C  C170  1  0.01011000  0.12816000  0.51775000  1.0
  C  C171  1  0.10559000  0.08217000  0.55686000  1.0
  C  C172  1  0.05460000  0.00752000  0.56353000  1.0
  C  C173  1  0.13918000  0.96097000  0.59798000  1.0
  C  C174  1  0.23700000  0.86967000  0.64884000  1.0
  C  C175  1  0.26191000  0.98995000  0.63009000  1.0
  C  C176  1  0.31448000  0.06405000  0.62322000  1.0
  C  C177  1  0.23988000  0.10966000  0.58503000  1.0
  C  C178  1  0.30969000  0.18640000  0.57483000  1.0
  C  C179  1  0.95179000  0.35470000  0.54646000  1.0
  C  C180  1  0.86650000  0.38938000  0.59256000  1.0
  C  C181  1  0.84333000  0.46798000  0.59319000  1.0
  C  C182  1  0.75384000  0.49775000  0.63516000  1.0
  C  C183  1  0.60700000  0.56518000  0.69070000  1.0
  C  C184  1  0.68754000  0.45011000  0.67513000  1.0
  C  C185  1  0.71861000  0.37251000  0.67592000  1.0
  C  C186  1  0.80871000  0.34223000  0.63446000  1.0
  C  C187  1  0.84578000  0.25853000  0.63921000  1.0
  C  C188  1  0.01011000  0.62816000  0.98225000  1.0
  C  C189  1  0.10558000  0.58217000  0.94314000  1.0
  C  C190  1  0.05459000  0.50752000  0.93647000  1.0
  C  C191  1  0.13917000  0.46097000  0.90202000  1.0
  C  C192  1  0.23699000  0.36968000  0.85116000  1.0
  C  C193  1  0.26189000  0.48996000  0.86991000  1.0
  C  C194  1  0.31447000  0.56405000  0.87678000  1.0
  C  C195  1  0.23988000  0.60966000  0.91497000  1.0
  C  C196  1  0.30969000  0.68640000  0.92517000  1.0
  C  C197  1  0.95179000  0.85471000  0.95354000  1.0
  C  C198  1  0.86651000  0.88938000  0.90744000  1.0
  C  C199  1  0.84333000  0.96798000  0.90681000  1.0
  C  C200  1  0.75384000  0.99775000  0.86484000  1.0
  C  C201  1  0.60700000  0.06518000  0.80930000  1.0
  C  C202  1  0.68754000  0.95011000  0.82488000  1.0
  C  C203  1  0.71861000  0.87251000  0.82408000  1.0
  C  C204  1  0.80871000  0.84223000  0.86554000  1.0
  C  C205  1  0.84578000  0.75854000  0.86079000  1.0
  C  C206  1  0.51012000  0.87184000  0.01775000  1.0
  C  C207  1  0.60559000  0.91784000  0.05686000  1.0
  C  C208  1  0.55460000  0.99249000  0.06353000  1.0
  C  C209  1  0.63918000  0.03903000  0.09798000  1.0
  C  C210  1  0.73700000  0.13033000  0.14884000  1.0
  C  C211  1  0.76190000  0.01004000  0.13009000  1.0
  C  C212  1  0.81448000  0.93595000  0.12322000  1.0
  C  C213  1  0.73988000  0.89035000  0.08503000  1.0
  C  C214  1  0.80969000  0.81360000  0.07483000  1.0
  C  C215  1  0.45180000  0.64529000  0.04647000  1.0
  C  C216  1  0.36652000  0.61062000  0.09256000  1.0
  C  C217  1  0.34335000  0.53202000  0.09320000  1.0
  C  C218  1  0.25385000  0.50225000  0.13516000  1.0
  C  C219  1  0.10701000  0.43481000  0.19070000  1.0
  C  C220  1  0.18755000  0.54989000  0.17513000  1.0
  C  C221  1  0.21862000  0.62749000  0.17592000  1.0
  C  C222  1  0.30871000  0.65777000  0.13446000  1.0
  C  C223  1  0.34578000  0.74147000  0.13921000  1.0
  N  N224  1  0.87158000  0.61507000  0.11060000  1.0
  N  N225  1  0.68281000  0.56829000  0.16272000  1.0
  N  N226  1  0.40491000  0.00605000  0.20888000  1.0
  N  N227  1  0.29897000  0.92992000  0.14736000  1.0
  N  N228  1  0.37159000  0.88493000  0.88940000  1.0
  N  N229  1  0.18281000  0.93170000  0.83729000  1.0
  N  N230  1  0.90491000  0.49396000  0.79112000  1.0
  N  N231  1  0.79896000  0.57008000  0.85264000  1.0
  N  N232  1  0.37159000  0.38493000  0.61060000  1.0
  N  N233  1  0.18281000  0.43171000  0.66272000  1.0
  N  N234  1  0.90492000  0.99395000  0.70887000  1.0
  N  N235  1  0.79896000  0.07008000  0.64736000  1.0
  N  N236  1  0.87159000  0.11507000  0.38940000  1.0
  N  N237  1  0.68280000  0.06830000  0.33729000  1.0
  N  N238  1  0.40491000  0.50605000  0.29113000  1.0
  N  N239  1  0.29896000  0.42992000  0.35264000  1.0
  N  N240  1  0.62841000  0.61507000  0.38940000  1.0
  N  N241  1  0.81719000  0.56829000  0.33728000  1.0
  N  N242  1  0.09508000  0.00605000  0.29113000  1.0
  N  N243  1  0.20104000  0.92992000  0.35264000  1.0
  N  N244  1  0.12842000  0.88493000  0.61060000  1.0
  N  N245  1  0.31720000  0.93170000  0.66271000  1.0
  N  N246  1  0.59508000  0.49395000  0.70887000  1.0
  N  N247  1  0.70103000  0.57008000  0.64736000  1.0
  N  N248  1  0.12841000  0.38493000  0.88940000  1.0
  N  N249  1  0.31718000  0.43171000  0.83728000  1.0
  N  N250  1  0.59508000  0.99395000  0.79113000  1.0
  N  N251  1  0.70102000  0.07008000  0.85264000  1.0
  N  N252  1  0.62841000  0.11507000  0.11060000  1.0
  N  N253  1  0.81719000  0.06830000  0.16272000  1.0
  N  N254  1  0.09509000  0.50604000  0.20887000  1.0
  N  N255  1  0.20104000  0.42992000  0.14736000  1.0
  O  O256  1  0.92189000  0.33941000  0.97804000  1.0
  O  O257  1  0.13740000  0.37258000  0.02439000  1.0
  O  O258  1  0.77813000  0.25911000  0.06013000  1.0
  O  O259  1  0.54204000  0.30744000  0.08157000  1.0
  O  O260  1  0.93541000  0.11058000  0.02366000  1.0
  O  O261  1  0.08842000  0.21186000  0.03029000  1.0
  O  O262  1  0.24481000  0.28670000  0.11212000  1.0
  O  O263  1  0.04979000  0.26165000  0.17114000  1.0
  O  O264  1  0.42189000  0.16059000  0.02196000  1.0
  O  O265  1  0.63740000  0.12742000  0.97561000  1.0
  O  O266  1  0.27812000  0.24089000  0.93987000  1.0
  O  O267  1  0.04203000  0.19256000  0.91843000  1.0
  O  O268  1  0.43540000  0.38942000  0.97634000  1.0
  O  O269  1  0.58841000  0.28814000  0.96970000  1.0
  O  O270  1  0.74481000  0.21330000  0.88788000  1.0
  O  O271  1  0.54978000  0.23835000  0.82885000  1.0
  O  O272  1  0.42190000  0.66059000  0.47804000  1.0
  O  O273  1  0.63742000  0.62742000  0.52439000  1.0
  O  O274  1  0.27814000  0.74089000  0.56013000  1.0
  O  O275  1  0.04205000  0.69256000  0.58157000  1.0
  O  O276  1  0.43542000  0.88942000  0.52366000  1.0
  O  O277  1  0.58842000  0.78814000  0.53029000  1.0
  O  O278  1  0.74483000  0.71330000  0.61212000  1.0
  O  O279  1  0.54981000  0.73835000  0.67114000  1.0
  O  O280  1  0.92190000  0.83941000  0.52196000  1.0
  O  O281  1  0.13741000  0.87258000  0.47561000  1.0
  O  O282  1  0.77814000  0.75911000  0.43987000  1.0
  O  O283  1  0.54205000  0.80744000  0.41843000  1.0
  O  O284  1  0.93542000  0.61058000  0.47634000  1.0
  O  O285  1  0.08843000  0.71186000  0.46971000  1.0
  O  O286  1  0.24483000  0.78670000  0.38788000  1.0
  O  O287  1  0.04981000  0.76166000  0.32886000  1.0
  O  O288  1  0.57811000  0.33941000  0.52196000  1.0
  O  O289  1  0.36260000  0.37258000  0.47561000  1.0
  O  O290  1  0.72187000  0.25910000  0.43987000  1.0
  O  O291  1  0.95796000  0.30743000  0.41843000  1.0
  O  O292  1  0.56459000  0.11058000  0.47634000  1.0
  O  O293  1  0.41158000  0.21186000  0.46971000  1.0
  O  O294  1  0.25518000  0.28670000  0.38788000  1.0
  O  O295  1  0.45020000  0.26165000  0.32886000  1.0
  O  O296  1  0.07811000  0.16059000  0.47804000  1.0
  O  O297  1  0.86259000  0.12742000  0.52439000  1.0
  O  O298  1  0.22188000  0.24089000  0.56013000  1.0
  O  O299  1  0.45797000  0.19256000  0.58157000  1.0
  O  O300  1  0.06458000  0.38942000  0.52366000  1.0
  O  O301  1  0.91158000  0.28813000  0.53029000  1.0
  O  O302  1  0.75518000  0.21330000  0.61212000  1.0
  O  O303  1  0.95021000  0.23835000  0.67114000  1.0
  O  O304  1  0.07811000  0.66059000  0.02196000  1.0
  O  O305  1  0.86259000  0.62742000  0.97560000  1.0
  O  O306  1  0.22187000  0.74089000  0.93987000  1.0
  O  O307  1  0.45796000  0.69256000  0.91843000  1.0
  O  O308  1  0.06458000  0.88942000  0.97634000  1.0
  O  O309  1  0.91158000  0.78814000  0.96971000  1.0
  O  O310  1  0.75518000  0.71330000  0.88788000  1.0
  O  O311  1  0.95022000  0.73835000  0.82886000  1.0
  O  O312  1  0.57811000  0.83941000  0.97804000  1.0
  O  O313  1  0.36260000  0.87258000  0.02439000  1.0
  O  O314  1  0.72187000  0.75911000  0.06013000  1.0
  O  O315  1  0.95796000  0.80744000  0.08157000  1.0
  O  O316  1  0.56460000  0.61058000  0.02366000  1.0
  O  O317  1  0.41158000  0.71186000  0.03030000  1.0
  O  O318  1  0.25519000  0.78670000  0.11212000  1.0
  O  O319  1  0.45022000  0.76165000  0.17114000  1.0
