# generated using pymatgen
data_CuH10C6(BrN4)2
_symmetry_space_group_name_H-M   'P 1'
_cell_length_a   6.83464000
_cell_length_b   7.79222000
_cell_length_c   11.07430000
_cell_angle_alpha   81.69040000
_cell_angle_beta   89.99980000
_cell_angle_gamma   89.99960000
_symmetry_Int_Tables_number   1
_chemical_formula_structural   CuH10C6(BrN4)2
_chemical_formula_sum   'Cu2 H20 C12 Br4 N16'
_cell_volume   583.59240248
_cell_formula_units_Z   2
loop_
 _symmetry_equiv_pos_site_id
 _symmetry_equiv_pos_as_xyz
  1  'x, y, z'
loop_
 _atom_site_type_symbol
 _atom_site_label
 _atom_site_symmetry_multiplicity
 _atom_site_fract_x
 _atom_site_fract_y
 _atom_site_fract_z
 _atom_site_occupancy
  Cu  Cu0  1  0.00000000  0.00000000  0.00000000  1.0
  Cu  Cu1  1  0.50000000  0.49998000  1.00000000  1.0
  H  H2  1  0.54850000  0.99934000  0.88554000  1.0
  H  H3  1  0.04850000  0.50066000  0.11446000  1.0
  H  H4  1  0.45151000  0.00066000  0.11445000  1.0
  H  H5  1  0.95152000  0.49931000  0.88555000  1.0
  H  H6  1  0.46693000  0.26740000  0.58131000  1.0
  H  H7  1  0.96691000  0.23261000  0.41869000  1.0
  H  H8  1  0.53307000  0.73261000  0.41869000  1.0
  H  H9  1  0.03307000  0.76739000  0.58131000  1.0
  H  H10  1  0.33790000  0.13572000  0.70024000  1.0
  H  H11  1  0.83789000  0.36430000  0.29975000  1.0
  H  H12  1  0.66211000  0.86428000  0.29976000  1.0
  H  H13  1  0.16212000  0.63571000  0.70024000  1.0
  H  H14  1  0.27885000  0.03466000  0.50629000  1.0
  H  H15  1  0.77883000  0.46534000  0.49371000  1.0
  H  H16  1  0.72116000  0.96534000  0.49371000  1.0
  H  H17  1  0.22115000  0.53466000  0.50628000  1.0
  H  H18  1  0.40586000  0.87352000  0.60392000  1.0
  H  H19  1  0.90584000  0.62650000  0.39609000  1.0
  H  H20  1  0.59415000  0.12649000  0.39608000  1.0
  H  H21  1  0.09415000  0.37351000  0.60392000  1.0
  C  C22  1  0.66478000  0.04484000  0.82211000  1.0
  C  C23  1  0.16479000  0.45517000  0.17789000  1.0
  C  C24  1  0.33521000  0.95516000  0.17789000  1.0
  C  C25  1  0.83519000  0.54483000  0.82210000  1.0
  C  C26  1  0.45674000  0.13678000  0.63354000  1.0
  C  C27  1  0.95673000  0.36323000  0.36646000  1.0
  C  C28  1  0.54327000  0.86322000  0.36646000  1.0
  C  C29  1  0.04327000  0.63677000  0.63354000  1.0
  C  C30  1  0.42168000  0.00188000  0.54900000  1.0
  C  C31  1  0.92166000  0.49813000  0.45100000  1.0
  C  C32  1  0.57833000  0.99812000  0.45099000  1.0
  C  C33  1  0.07832000  0.50187000  0.54900000  1.0
  Br  Br34  1  0.22453000  0.80337000  0.91052000  1.0
  Br  Br35  1  0.72454000  0.69664000  0.08944000  1.0
  Br  Br36  1  0.77544000  0.19664000  0.08946000  1.0
  Br  Br37  1  0.27546000  0.30336000  0.91054000  1.0
  N  N38  1  0.85651000  0.04732000  0.84338000  1.0
  N  N39  1  0.35652000  0.45268000  0.15662000  1.0
  N  N40  1  0.14350000  0.95268000  0.15662000  1.0
  N  N41  1  0.64351000  0.54729000  0.84339000  1.0
  N  N42  1  0.94589000  0.11224000  0.73692000  1.0
  N  N43  1  0.44588000  0.38776000  0.26309000  1.0
  N  N44  1  0.05412000  0.88776000  0.26308000  1.0
  N  N45  1  0.55412000  0.61222000  0.73692000  1.0
  N  N46  1  0.81504000  0.14989000  0.65244000  1.0
  N  N47  1  0.31502000  0.35012000  0.34757000  1.0
  N  N48  1  0.18497000  0.85011000  0.34755000  1.0
  N  N49  1  0.68499000  0.64989000  0.65245000  1.0
  N  N50  1  0.63793000  0.10796000  0.70409000  1.0
  N  N51  1  0.13792000  0.39205000  0.29591000  1.0
  N  N52  1  0.36208000  0.89205000  0.29590000  1.0
  N  N53  1  0.86208000  0.60794000  0.70412000  1.0
