# generated using pymatgen
data_Cu3H4C6I2N5
_symmetry_space_group_name_H-M   'P 1'
_cell_length_a   8.58194000
_cell_length_b   10.41320000
_cell_length_c   12.56250000
_cell_angle_alpha   89.99990000
_cell_angle_beta   89.99990000
_cell_angle_gamma   100.33900000
_symmetry_Int_Tables_number   1
_chemical_formula_structural   Cu3H4C6I2N5
_chemical_formula_sum   'Cu12 H16 C24 I8 N20'
_cell_volume   1104.42515119
_cell_formula_units_Z   4
loop_
 _symmetry_equiv_pos_site_id
 _symmetry_equiv_pos_as_xyz
  1  'x, y, z'
loop_
 _atom_site_type_symbol
 _atom_site_label
 _atom_site_symmetry_multiplicity
 _atom_site_fract_x
 _atom_site_fract_y
 _atom_site_fract_z
 _atom_site_occupancy
  Cu  Cu0  1  0.69521000  0.99801000  0.43321000  1.0
  Cu  Cu1  1  0.80479000  0.50199000  0.93321000  1.0
  Cu  Cu2  1  0.30479000  0.00199000  0.56679000  1.0
  Cu  Cu3  1  0.19521000  0.49800000  0.06679000  1.0
  Cu  Cu4  1  0.00686000  0.95850000  0.40063000  1.0
  Cu  Cu5  1  0.49314000  0.54150000  0.90063000  1.0
  Cu  Cu6  1  0.99314000  0.04150000  0.59938000  1.0
  Cu  Cu7  1  0.50686000  0.45850000  0.09938000  1.0
  Cu  Cu8  1  0.12698000  0.43832000  0.33036000  1.0
  Cu  Cu9  1  0.37302000  0.06168000  0.83036000  1.0
  Cu  Cu10  1  0.87302000  0.56168000  0.66964000  1.0
  Cu  Cu11  1  0.62698000  0.93832000  0.16964000  1.0
  H  H12  1  0.59010000  0.91864000  0.93836000  1.0
  H  H13  1  0.90990000  0.58136000  0.43836000  1.0
  H  H14  1  0.40990000  0.08136000  0.06164000  1.0
  H  H15  1  0.09010000  0.41864000  0.56164000  1.0
  H  H16  1  0.92123000  0.12242000  0.14701000  1.0
  H  H17  1  0.57877000  0.37758000  0.64701000  1.0
  H  H18  1  0.07876000  0.87757000  0.85299000  1.0
  H  H19  1  0.42124000  0.62242000  0.35299000  1.0
  H  H20  1  0.96788000  0.20733000  0.81114000  1.0
  H  H21  1  0.53212000  0.29267000  0.31115000  1.0
  H  H22  1  0.03211000  0.79267000  0.18886000  1.0
  H  H23  1  0.46788000  0.70733000  0.68885000  1.0
  H  H24  1  0.07091000  0.24526000  0.99801000  1.0
  H  H25  1  0.42909000  0.25474000  0.49801000  1.0
  H  H26  1  0.92908000  0.75474000  0.00200000  1.0
  H  H27  1  0.57092000  0.74526000  0.50199000  1.0
  C  C28  1  0.77183000  0.05908000  0.86046000  1.0
  C  C29  1  0.72817000  0.44092000  0.36046000  1.0
  C  C30  1  0.22817000  0.94092000  0.13954000  1.0
  C  C31  1  0.27183000  0.55908000  0.63954000  1.0
  C  C32  1  0.69597000  0.99298000  0.94855000  1.0
  C  C33  1  0.80403000  0.50702000  0.44855000  1.0
  C  C34  1  0.30403000  0.00702000  0.05145000  1.0
  C  C35  1  0.19597000  0.49298000  0.55145000  1.0
  C  C36  1  0.90840000  0.15202000  0.87752000  1.0
  C  C37  1  0.59160000  0.34798000  0.37752000  1.0
  C  C38  1  0.09159000  0.84798000  0.12248000  1.0
  C  C39  1  0.40841000  0.65202000  0.62248000  1.0
  C  C40  1  0.69924000  0.03393000  0.75568000  1.0
  C  C41  1  0.80077000  0.46607000  0.25568000  1.0
  C  C42  1  0.30076000  0.96606000  0.24432000  1.0
  C  C43  1  0.19924000  0.53394000  0.74432000  1.0
  C  C44  1  0.88172000  0.10625000  0.06474000  1.0
  C  C45  1  0.61828000  0.39375000  0.56474000  1.0
  C  C46  1  0.11827000  0.89375000  0.93526000  1.0
  C  C47  1  0.38173000  0.60625000  0.43526000  1.0
  C  C48  1  0.96442000  0.17409000  0.98118000  1.0
  C  C49  1  0.53558000  0.32591000  0.48118000  1.0
  C  C50  1  0.03558000  0.82590000  0.01882000  1.0
  C  C51  1  0.46442000  0.67409000  0.51882000  1.0
  I  I52  1  0.94425000  0.19353000  0.42492000  1.0
  I  I53  1  0.55575000  0.30647000  0.92492000  1.0
  I  I54  1  0.05575000  0.80647000  0.57508000  1.0
  I  I55  1  0.44425000  0.69353000  0.07508000  1.0
  I  I56  1  0.76701000  0.81002000  0.31093000  1.0
  I  I57  1  0.73299000  0.68998000  0.81093000  1.0
  I  I58  1  0.23300000  0.18998000  0.68908000  1.0
  I  I59  1  0.26700000  0.31002000  0.18907000  1.0
  N  N60  1  0.54096000  0.01652000  0.74088000  1.0
  N  N61  1  0.95904000  0.48348000  0.24088000  1.0
  N  N62  1  0.45904000  0.98348000  0.25912000  1.0
  N  N63  1  0.04096000  0.51652000  0.75912000  1.0
  N  N64  1  0.77196000  0.02379000  0.66168000  1.0
  N  N65  1  0.72804000  0.47622000  0.16168000  1.0
  N  N66  1  0.22804000  0.97621000  0.33832000  1.0
  N  N67  1  0.27196000  0.52378000  0.83832000  1.0
  N  N68  1  0.65475000  0.99620000  0.58923000  1.0
  N  N69  1  0.84525000  0.50380000  0.08923000  1.0
  N  N70  1  0.34525000  0.00380000  0.41077000  1.0
  N  N71  1  0.15475000  0.49620000  0.91077000  1.0
  N  N72  1  0.51602000  0.99243000  0.63655000  1.0
  N  N73  1  0.98398000  0.50757000  0.13655000  1.0
  N  N74  1  0.48398000  0.00757000  0.36345000  1.0
  N  N75  1  0.01602000  0.49243000  0.86345000  1.0
  N  N76  1  0.74799000  0.01651000  0.04900000  1.0
  N  N77  1  0.75201000  0.48349000  0.54900000  1.0
  N  N78  1  0.25201000  0.98349000  0.95100000  1.0
  N  N79  1  0.24799000  0.51651000  0.45100000  1.0
