# generated using pymatgen
data_RbUH15C10O11
_symmetry_space_group_name_H-M   'P 1'
_cell_length_a   8.18453000
_cell_length_b   10.31710000
_cell_length_c   10.54520000
_cell_angle_alpha   68.46690000
_cell_angle_beta   71.10170000
_cell_angle_gamma   80.51900000
_symmetry_Int_Tables_number   1
_chemical_formula_structural   RbUH15C10O11
_chemical_formula_sum   'Rb2 U2 H30 C20 O22'
_cell_volume   782.58221622
_cell_formula_units_Z   2
loop_
 _symmetry_equiv_pos_site_id
 _symmetry_equiv_pos_as_xyz
  1  'x, y, z'
loop_
 _atom_site_type_symbol
 _atom_site_label
 _atom_site_symmetry_multiplicity
 _atom_site_fract_x
 _atom_site_fract_y
 _atom_site_fract_z
 _atom_site_occupancy
  Rb  Rb0  1  0.34476000  0.52635000  0.21078000  1.0
  Rb  Rb1  1  0.65524000  0.47365000  0.78922000  1.0
  U  U2  1  0.81708000  0.35061000  0.38809000  1.0
  U  U3  1  0.18292000  0.64938000  0.61191000  1.0
  H  H4  1  0.88669000  0.15835000  0.71076000  1.0
  H  H5  1  0.11331000  0.84165000  0.28923000  1.0
  H  H6  1  0.36557000  0.78696000  0.92713000  1.0
  H  H7  1  0.63443000  0.21305000  0.07287000  1.0
  H  H8  1  0.32022000  0.70893000  0.84402000  1.0
  H  H9  1  0.67978000  0.29107000  0.15598000  1.0
  H  H10  1  0.20825000  0.28423000  0.63417000  1.0
  H  H11  1  0.79175000  0.71577000  0.36583000  1.0
  H  H12  1  0.30723000  0.17593000  0.76935000  1.0
  H  H13  1  0.69277000  0.82407000  0.23065000  1.0
  H  H14  1  0.16709000  0.02325000  0.71415000  1.0
  H  H15  1  0.83290000  0.97675000  0.28585000  1.0
  H  H16  1  0.39126000  0.99374000  0.65683000  1.0
  H  H17  1  0.60873000  0.00626000  0.34317000  1.0
  H  H18  1  0.38953000  0.14720000  0.40254000  1.0
  H  H19  1  0.61047000  0.85280000  0.59746000  1.0
  H  H20  1  0.26808000  0.99647000  0.47296000  1.0
  H  H21  1  0.73192000  0.00353000  0.52704000  1.0
  H  H22  1  0.99382000  0.71369000  0.93071000  1.0
  H  H23  1  0.00619000  0.28631000  0.06929000  1.0
  H  H24  1  0.93583000  0.79997000  0.05523000  1.0
  H  H25  1  0.06417000  0.20002000  0.94477000  1.0
  H  H26  1  0.68698000  0.72521000  0.92911000  1.0
  H  H27  1  0.31302000  0.27480000  0.07089000  1.0
  H  H28  1  0.61731000  0.80513000  0.06108000  1.0
  H  H29  1  0.38269000  0.19487000  0.93892000  1.0
  H  H30  1  0.87583000  0.93340000  0.76846000  1.0
  H  H31  1  0.12417000  0.06660000  0.23154000  1.0
  H  H32  1  0.65112000  0.96761000  0.80357000  1.0
  H  H33  1  0.34888000  0.03239000  0.19643000  1.0
  C  C34  1  0.48287000  0.26171000  0.56713000  1.0
  C  C35  1  0.51713000  0.73829000  0.43287000  1.0
  C  C36  1  0.31041000  0.20380000  0.65791000  1.0
  C  C37  1  0.68959000  0.79620000  0.34209000  1.0
  C  C38  1  0.28531000  0.07057000  0.63513000  1.0
  C  C39  1  0.71469000  0.92943000  0.36487000  1.0
  C  C40  1  0.27540000  0.09657000  0.48547000  1.0
  C  C41  1  0.72460000  0.90343000  0.51453000  1.0
  C  C42  1  0.11872000  0.18492000  0.45518000  1.0
  C  C43  1  0.88128000  0.81508000  0.54482000  1.0
  C  C44  1  0.86084000  0.59372000  0.13950000  1.0
  C  C45  1  0.13916000  0.40628000  0.86050000  1.0
  C  C46  1  0.88661000  0.73029000  0.01914000  1.0
  C  C47  1  0.11339000  0.26971000  0.98086000  1.0
  C  C48  1  0.72607000  0.79456000  0.97073000  1.0
  C  C49  1  0.27393000  0.20544000  0.02927000  1.0
  C  C50  1  0.75670000  0.93658000  0.85414000  1.0
  C  C51  1  0.24331000  0.06342000  0.14586000  1.0
  C  C52  1  0.75915000  0.05497000  0.90502000  1.0
  C  C53  1  0.24086000  0.94503000  0.09498000  1.0
  O  O54  1  0.80838000  0.24026000  0.28915000  1.0
  O  O55  1  0.19162000  0.75974000  0.71085000  1.0
  O  O56  1  0.82875000  0.45695000  0.48838000  1.0
  O  O57  1  0.17125000  0.54305000  0.51162000  1.0
  O  O58  1  0.49989000  0.36456000  0.45036000  1.0
  O  O59  1  0.50011000  0.63543000  0.54964000  1.0
  O  O60  1  0.61971000  0.20373000  0.60380000  1.0
  O  O61  1  0.38029000  0.79627000  0.39620000  1.0
  O  O62  1  0.13036000  0.28653000  0.33898000  1.0
  O  O63  1  0.86964000  0.71347000  0.66102000  1.0
  O  O64  1  0.96724000  0.15822000  0.54451000  1.0
  O  O65  1  0.03276000  0.84179000  0.45549000  1.0
  O  O66  1  0.70921000  0.54963000  0.21226000  1.0
  O  O67  1  0.29079000  0.45037000  0.78774000  1.0
  O  O68  1  0.99176000  0.51975000  0.17464000  1.0
  O  O69  1  0.00824000  0.48025000  0.82536000  1.0
  O  O70  1  0.68937000  0.05348000  0.02815000  1.0
  O  O71  1  0.31064000  0.94652000  0.97185000  1.0
  O  O72  1  0.83741000  0.16978000  0.80696000  1.0
  O  O73  1  0.16260000  0.83022000  0.19303000  1.0
  O  O74  1  0.39379000  0.69927000  0.90463000  1.0
  O  O75  1  0.60621000  0.30073000  0.09537000  1.0
