# generated using pymatgen
data_Zn2H18C37(NO3)6
_symmetry_space_group_name_H-M   'P 1'
_cell_length_a   9.72469000
_cell_length_b   11.12090000
_cell_length_c   23.84650000
_cell_angle_alpha   89.38240000
_cell_angle_beta   89.92990000
_cell_angle_gamma   88.23820000
_symmetry_Int_Tables_number   1
_chemical_formula_structural   Zn2H18C37(NO3)6
_chemical_formula_sum   'Zn2 H18 C37 N6 O18'
_cell_volume   2577.56481801
_cell_formula_units_Z   1
loop_
 _symmetry_equiv_pos_site_id
 _symmetry_equiv_pos_as_xyz
  1  'x, y, z'
loop_
 _atom_site_type_symbol
 _atom_site_label
 _atom_site_symmetry_multiplicity
 _atom_site_fract_x
 _atom_site_fract_y
 _atom_site_fract_z
 _atom_site_occupancy
  Zn  Zn0  1  0.36049000  0.50434000  0.49829000  1.0
  Zn  Zn1  1  0.64323000  0.49521000  0.49794000  1.0
  H  H2  1  0.62121000  0.21071000  0.94665000  1.0
  H  H3  1  0.61959000  0.20792000  0.05283000  1.0
  H  H4  1  0.39376000  0.78590000  0.05304000  1.0
  H  H5  1  0.39730000  0.78969000  0.94683000  1.0
  H  H6  1  0.71532000  0.52840000  0.21406000  1.0
  H  H7  1  0.71387000  0.52717000  0.31959000  1.0
  H  H8  1  0.28316000  0.45823000  0.31842000  1.0
  H  H9  1  0.35316000  0.36599000  0.78673000  1.0
  H  H10  1  0.66026000  0.63912000  0.78159000  1.0
  H  H11  1  0.71173000  0.88629000  0.51646000  1.0
  H  H12  1  0.40684000  0.90563000  0.48183000  1.0
  H  H13  1  0.71078000  0.10682000  0.49727000  1.0
  H  H14  1  0.39945000  0.10075000  0.52046000  1.0
  H  H15  1  0.12407000  0.58451000  0.57731000  1.0
  H  H16  1  0.09933000  0.49464000  0.46284000  1.0
  H  H17  1  0.86549000  0.63348000  0.55759000  1.0
  H  H18  1  0.90992000  0.42098000  0.48752000  1.0
  H  H19  1  0.05891000  0.42463000  0.21563000  1.0
  C  C20  1  0.50573000  0.26806000  0.50498000  1.0
  C  C21  1  0.49582000  0.49473000  0.38805000  1.0
  C  C22  1  0.51189000  0.73235000  0.49665000  1.0
  C  C23  1  0.49137000  0.50523000  0.60928000  1.0
  C  C24  1  0.46891000  0.61091000  0.87870000  1.0
  C  C25  1  0.55166000  0.39338000  0.87864000  1.0
  C  C26  1  0.55035000  0.39413000  0.94070000  1.0
  C  C27  1  0.50888000  0.49954000  0.96979000  1.0
  C  C28  1  0.46860000  0.60666000  0.94076000  1.0
  C  C29  1  0.58986000  0.29032000  0.97028000  1.0
  C  C30  1  0.58898000  0.28876000  0.02917000  1.0
  C  C31  1  0.54853000  0.39093000  0.05868000  1.0
  C  C32  1  0.50772000  0.49779000  0.02956000  1.0
  C  C33  1  0.46545000  0.60285000  0.05871000  1.0
  C  C34  1  0.42604000  0.70673000  0.02929000  1.0
  C  C35  1  0.42782000  0.70872000  0.97040000  1.0
  C  C36  1  0.54798000  0.38736000  0.12092000  1.0
  C  C37  1  0.46223000  0.60248000  0.12088000  1.0
  C  C38  1  0.62130000  0.51208000  0.23748000  1.0
  C  C39  1  0.62054000  0.51183000  0.29584000  1.0
  C  C40  1  0.49801000  0.49283000  0.32499000  1.0
  C  C41  1  0.37749000  0.47303000  0.29517000  1.0
  C  C42  1  0.37678000  0.47158000  0.23639000  1.0
  C  C43  1  0.50103000  0.49213000  0.20793000  1.0
  C  C44  1  0.41867000  0.42687000  0.76370000  1.0
  C  C45  1  0.41772000  0.42707000  0.70540000  1.0
  C  C46  1  0.49617000  0.50461000  0.67274000  1.0
  C  C47  1  0.58122000  0.58035000  0.70263000  1.0
  C  C48  1  0.59028000  0.57947000  0.76085000  1.0
  C  C49  1  0.50645000  0.50318000  0.79131000  1.0
  C  C50  1  0.61439000  0.93299000  0.50608000  1.0
  C  C51  1  0.50585000  0.86508000  0.49429000  1.0
  C  C52  1  0.61267000  0.06334000  0.50408000  1.0
  C  C53  1  0.50017000  0.13587000  0.51048000  1.0
  C  C54  1  0.07404000  0.55516000  0.53882000  1.0
  C  C55  1  0.92182000  0.56227000  0.53487000  1.0
  C  C56  1  0.24792000  0.44799000  0.20541000  1.0
  N  N57  1  0.50981000  0.50269000  0.85151000  1.0
  N  N58  1  0.50795000  0.49509000  0.14757000  1.0
  N  N59  1  0.15060000  0.51734000  0.49872000  1.0
  N  N60  1  0.85278000  0.48902000  0.50603000  1.0
  N  N61  1  0.33209000  0.33679000  0.67816000  1.0
  N  N62  1  0.66608000  0.66741000  0.67193000  1.0
  O  O63  1  0.39068000  0.32594000  0.50980000  1.0
  O  O64  1  0.62177000  0.31519000  0.49554000  1.0
  O  O65  1  0.37979000  0.48341000  0.41193000  1.0
  O  O66  1  0.61082000  0.50823000  0.41239000  1.0
  O  O67  1  0.39664000  0.68166000  0.49019000  1.0
  O  O68  1  0.62775000  0.67753000  0.50431000  1.0
  O  O69  1  0.37461000  0.52532000  0.58721000  1.0
  O  O70  1  0.60579000  0.48529000  0.58544000  1.0
  O  O71  1  0.43553000  0.70122000  0.85131000  1.0
  O  O72  1  0.58629000  0.30478000  0.85115000  1.0
  O  O73  1  0.58086000  0.29699000  0.14842000  1.0
  O  O74  1  0.42345000  0.68985000  0.14840000  1.0
  O  O75  1  0.38417000  0.28052000  0.63872000  1.0
  O  O76  1  0.21572000  0.32272000  0.69800000  1.0
  O  O77  1  0.60978000  0.72784000  0.63422000  1.0
  O  O78  1  0.78781000  0.67401000  0.68686000  1.0
  O  O79  1  0.23722000  0.43337000  0.15479000  1.0
  O  O80  1  0.13614000  0.44291000  0.24012000  1.0
