# generated using pymatgen
data_ThH12C6S2(NO6)2
_symmetry_space_group_name_H-M   'P 1'
_cell_length_a   6.88040000
_cell_length_b   10.57070000
_cell_length_c   10.68980000
_cell_angle_alpha   74.21520000
_cell_angle_beta   81.99130000
_cell_angle_gamma   76.64690000
_symmetry_Int_Tables_number   1
_chemical_formula_structural   ThH12C6S2(NO6)2
_chemical_formula_sum   'Th2 H24 C12 S4 N4 O24'
_cell_volume   725.49748734
_cell_formula_units_Z   2
loop_
 _symmetry_equiv_pos_site_id
 _symmetry_equiv_pos_as_xyz
  1  'x, y, z'
loop_
 _atom_site_type_symbol
 _atom_site_label
 _atom_site_symmetry_multiplicity
 _atom_site_fract_x
 _atom_site_fract_y
 _atom_site_fract_z
 _atom_site_occupancy
  Th  Th0  1  0.25179000  0.33608000  0.71157000  1.0
  Th  Th1  1  0.74821000  0.66392000  0.28843000  1.0
  H  H2  1  0.42481000  0.41938000  0.36449000  1.0
  H  H3  1  0.57519000  0.58062000  0.63550000  1.0
  H  H4  1  0.46423000  0.34224000  0.16161000  1.0
  H  H5  1  0.53578000  0.65775000  0.83839000  1.0
  H  H6  1  0.38788000  0.11669000  0.17321000  1.0
  H  H7  1  0.61211000  0.88331000  0.82679000  1.0
  H  H8  1  0.27056000  0.98194000  0.38754000  1.0
  H  H9  1  0.72943000  0.01806000  0.61246000  1.0
  H  H10  1  0.12796000  0.89133000  0.73701000  1.0
  H  H11  1  0.87204000  0.10868000  0.26299000  1.0
  H  H12  1  0.17374000  0.89343000  0.57256000  1.0
  H  H13  1  0.82626000  0.10656000  0.42743000  1.0
  H  H14  1  0.57337000  0.15995000  0.91598000  1.0
  H  H15  1  0.42663000  0.84005000  0.08402000  1.0
  H  H16  1  0.37340000  0.10332000  0.94749000  1.0
  H  H17  1  0.62660000  0.89667000  0.05251000  1.0
  H  H18  1  0.32408000  0.47351000  0.92169000  1.0
  H  H19  1  0.67592000  0.52649000  0.07831000  1.0
  H  H20  1  0.52940000  0.36954000  0.89914000  1.0
  H  H21  1  0.47061000  0.63046000  0.10086000  1.0
  H  H22  1  0.06623000  0.62187000  0.77550000  1.0
  H  H23  1  0.93378000  0.37813000  0.22450000  1.0
  H  H24  1  0.93360000  0.51478000  0.84303000  1.0
  H  H25  1  0.06640000  0.48522000  0.15697000  1.0
  C  C26  1  0.39050000  0.32354000  0.36659000  1.0
  C  C27  1  0.60950000  0.67646000  0.63341000  1.0
  C  C28  1  0.41301000  0.27933000  0.25295000  1.0
  C  C29  1  0.58699000  0.72067000  0.74705000  1.0
  C  C30  1  0.36927000  0.15565000  0.25937000  1.0
  C  C31  1  0.63073000  0.84435000  0.74063000  1.0
  C  C32  1  0.30450000  0.07974000  0.37971000  1.0
  C  C33  1  0.69550000  0.92027000  0.62029000  1.0
  C  C34  1  0.28520000  0.13147000  0.48877000  1.0
  C  C35  1  0.71480000  0.86854000  0.51123000  1.0
  C  C36  1  0.21716000  0.06030000  0.62268000  1.0
  C  C37  1  0.78282000  0.93969000  0.37732000  1.0
  S  S38  1  0.87279000  0.29793000  0.00354000  1.0
  S  S39  1  0.12720000  0.70207000  0.99646000  1.0
  S  S40  1  0.78115000  0.34350000  0.55759000  1.0
  S  S41  1  0.21885000  0.65651000  0.44241000  1.0
  N  N42  1  0.32769000  0.25169000  0.48304000  1.0
  N  N43  1  0.67231000  0.74831000  0.51695000  1.0
  N  N44  1  0.16538000  0.94358000  0.64349000  1.0
  N  N45  1  0.83462000  0.05644000  0.35651000  1.0
  O  O46  1  0.21318000  0.11487000  0.71563000  1.0
  O  O47  1  0.78681000  0.88514000  0.28437000  1.0
  O  O48  1  0.47056000  0.13409000  0.87664000  1.0
  O  O49  1  0.52944000  0.86591000  0.12336000  1.0
  O  O50  1  0.40680000  0.42474000  0.85760000  1.0
  O  O51  1  0.59320000  0.57526000  0.14240000  1.0
  O  O52  1  0.03148000  0.53951000  0.76602000  1.0
  O  O53  1  0.96853000  0.46049000  0.23398000  1.0
  O  O54  1  0.05484000  0.26589000  0.91281000  1.0
  O  O55  1  0.94517000  0.73411000  0.08719000  1.0
  O  O56  1  0.80165000  0.44767000  0.97066000  1.0
  O  O57  1  0.19835000  0.55233000  0.02935000  1.0
  O  O58  1  0.71091000  0.23621000  0.98332000  1.0
  O  O59  1  0.28909000  0.76379000  0.01668000  1.0
  O  O60  1  0.92894000  0.24925000  0.13915000  1.0
  O  O61  1  0.07106000  0.75074000  0.86085000  1.0
  O  O62  1  0.93361000  0.36557000  0.63124000  1.0
  O  O63  1  0.06638000  0.63443000  0.36876000  1.0
  O  O64  1  0.60521000  0.31375000  0.65116000  1.0
  O  O65  1  0.39479000  0.68625000  0.34884000  1.0
  O  O66  1  0.71378000  0.47266000  0.45965000  1.0
  O  O67  1  0.28621000  0.52734000  0.54035000  1.0
  O  O68  1  0.86095000  0.23450000  0.49435000  1.0
  O  O69  1  0.13905000  0.76549000  0.50565000  1.0
