# generated using pymatgen
data_TlH2C3S
_symmetry_space_group_name_H-M   'P 1'
_cell_length_a   6.51195000
_cell_length_b   6.87480000
_cell_length_c   9.68391000
_cell_angle_alpha   70.28450000
_cell_angle_beta   88.90570000
_cell_angle_gamma   89.82570000
_symmetry_Int_Tables_number   1
_chemical_formula_structural   TlH2C3S
_chemical_formula_sum   'Tl4 H8 C12 S4'
_cell_volume   408.04162902
_cell_formula_units_Z   4
loop_
 _symmetry_equiv_pos_site_id
 _symmetry_equiv_pos_as_xyz
  1  'x, y, z'
loop_
 _atom_site_type_symbol
 _atom_site_label
 _atom_site_symmetry_multiplicity
 _atom_site_fract_x
 _atom_site_fract_y
 _atom_site_fract_z
 _atom_site_occupancy
  Tl  Tl0  1  0.02931000  0.60242000  0.65454000  1.0
  Tl  Tl1  1  0.97069000  0.39758000  0.34547000  1.0
  Tl  Tl2  1  0.50960000  0.89826000  0.34342000  1.0
  Tl  Tl3  1  0.49039000  0.10175000  0.65657000  1.0
  H  H4  1  0.23471000  0.75132000  0.16973000  1.0
  H  H5  1  0.76527000  0.24871000  0.83027000  1.0
  H  H6  1  0.75815000  0.21235000  0.09026000  1.0
  H  H7  1  0.24184000  0.78764000  0.90975000  1.0
  H  H8  1  0.73519000  0.70907000  0.09334000  1.0
  H  H9  1  0.26487000  0.29094000  0.90665000  1.0
  H  H10  1  0.25305000  0.25310000  0.16691000  1.0
  H  H11  1  0.74697000  0.74690000  0.83307000  1.0
  C  C12  1  0.99432000  0.97645000  0.15258000  1.0
  C  C13  1  0.00563000  0.02356000  0.84745000  1.0
  C  C14  1  0.13062000  0.86109000  0.09599000  1.0
  C  C15  1  0.86933000  0.13891000  0.90404000  1.0
  C  C16  1  0.86378000  0.11665000  0.05253000  1.0
  C  C17  1  0.13616000  0.88334000  0.94750000  1.0
  C  C18  1  0.49460000  0.47565000  0.15278000  1.0
  C  C19  1  0.50543000  0.52432000  0.84725000  1.0
  C  C20  1  0.63216000  0.61511000  0.05410000  1.0
  C  C21  1  0.36785000  0.38490000  0.94588000  1.0
  C  C22  1  0.36254000  0.36201000  0.09450000  1.0
  C  C23  1  0.63752000  0.63800000  0.90548000  1.0
  S  S24  1  0.98963000  0.95044000  0.33998000  1.0
  S  S25  1  0.01033000  0.04957000  0.66001000  1.0
  S  S26  1  0.48397000  0.44930000  0.34019000  1.0
  S  S27  1  0.51609000  0.55070000  0.65973000  1.0
