# generated using pymatgen
data_CdH7C9NO7
_symmetry_space_group_name_H-M   'P 1'
_cell_length_a   7.23167000
_cell_length_b   11.58040000
_cell_length_c   12.97650000
_cell_angle_alpha   102.57600000
_cell_angle_beta   89.99880000
_cell_angle_gamma   89.99950000
_symmetry_Int_Tables_number   1
_chemical_formula_structural   CdH7C9NO7
_chemical_formula_sum   'Cd4 H28 C36 N4 O28'
_cell_volume   1060.65252965
_cell_formula_units_Z   4
loop_
 _symmetry_equiv_pos_site_id
 _symmetry_equiv_pos_as_xyz
  1  'x, y, z'
loop_
 _atom_site_type_symbol
 _atom_site_label
 _atom_site_symmetry_multiplicity
 _atom_site_fract_x
 _atom_site_fract_y
 _atom_site_fract_z
 _atom_site_occupancy
  Cd  Cd0  1  0.90976000  0.16389000  0.21383000  1.0
  Cd  Cd1  1  0.40976000  0.33610000  0.28617000  1.0
  Cd  Cd2  1  0.09023000  0.83611000  0.78617000  1.0
  Cd  Cd3  1  0.59025000  0.66390000  0.71383000  1.0
  H  H4  1  0.34707000  0.63256000  0.30000000  1.0
  H  H5  1  0.84707000  0.86744000  0.19999000  1.0
  H  H6  1  0.65293000  0.36744000  0.70000000  1.0
  H  H7  1  0.15292000  0.13257000  0.80001000  1.0
  H  H8  1  0.82728000  0.06202000  0.38307000  1.0
  H  H9  1  0.32729000  0.43797000  0.11693000  1.0
  H  H10  1  0.17272000  0.93798000  0.61693000  1.0
  H  H11  1  0.67271000  0.56203000  0.88307000  1.0
  H  H12  1  0.85750000  0.20152000  0.43200000  1.0
  H  H13  1  0.35751000  0.29848000  0.06800000  1.0
  H  H14  1  0.14250000  0.79848000  0.56800000  1.0
  H  H15  1  0.64250000  0.70152000  0.93200000  1.0
  H  H16  1  0.37559000  0.89576000  0.24033000  1.0
  H  H17  1  0.87558000  0.60424000  0.25966000  1.0
  H  H18  1  0.62439000  0.10425000  0.75968000  1.0
  H  H19  1  0.12441000  0.39576000  0.74034000  1.0
  H  H20  1  0.01684000  0.65758000  0.88018000  1.0
  H  H21  1  0.51684000  0.84240000  0.61982000  1.0
  H  H22  1  0.98319000  0.34240000  0.11982000  1.0
  H  H23  1  0.48316000  0.15759000  0.38018000  1.0
  H  H24  1  0.19859000  0.57694000  0.92591000  1.0
  H  H25  1  0.69858000  0.92306000  0.57408000  1.0
  H  H26  1  0.80145000  0.42306000  0.07409000  1.0
  H  H27  1  0.30141000  0.07694000  0.42592000  1.0
  H  H28  1  0.99482000  0.60815000  0.00062000  1.0
  H  H29  1  0.49483000  0.89184000  0.49937000  1.0
  H  H30  1  0.00520000  0.39184000  0.99937000  1.0
  H  H31  1  0.50518000  0.10815000  0.50062000  1.0
  C  C32  1  0.35835000  0.09787000  0.17372000  1.0
  C  C33  1  0.85834000  0.40212000  0.32627000  1.0
  C  C34  1  0.64165000  0.90213000  0.82628000  1.0
  C  C35  1  0.14166000  0.59788000  0.67373000  1.0
  C  C36  1  0.30291000  0.97834000  0.11224000  1.0
  C  C37  1  0.80290000  0.52166000  0.38776000  1.0
  C  C38  1  0.69709000  0.02166000  0.88777000  1.0
  C  C39  1  0.19710000  0.47834000  0.61224000  1.0
  C  C40  1  0.31659000  0.88309000  0.16145000  1.0
  C  C41  1  0.81658000  0.61690000  0.33854000  1.0
  C  C42  1  0.68341000  0.11692000  0.83855000  1.0
  C  C43  1  0.18342000  0.38310000  0.66146000  1.0
  C  C44  1  0.25333000  0.77147000  0.11093000  1.0
  C  C45  1  0.75332000  0.72852000  0.38906000  1.0
  C  C46  1  0.74667000  0.22853000  0.88907000  1.0
  C  C47  1  0.24668000  0.27147000  0.61094000  1.0
  C  C48  1  0.17395000  0.75703000  0.00906000  1.0
  C  C49  1  0.67395000  0.74297000  0.49093000  1.0
  C  C50  1  0.82605000  0.24297000  0.99093000  1.0
  C  C51  1  0.32605000  0.25703000  0.50907000  1.0
  C  C52  1  0.23338000  0.95719000  0.00944000  1.0
  C  C53  1  0.73339000  0.54281000  0.49056000  1.0
  C  C54  1  0.76661000  0.04281000  0.99056000  1.0
  C  C55  1  0.26662000  0.45720000  0.50945000  1.0
  C  C56  1  0.27079000  0.67136000  0.16611000  1.0
  C  C57  1  0.77079000  0.82863000  0.33387000  1.0
  C  C58  1  0.72921000  0.32864000  0.83390000  1.0
  C  C59  1  0.22920000  0.17136000  0.66612000  1.0
  C  C60  1  0.09055000  0.64407000  0.95028000  1.0
  C  C61  1  0.59055000  0.85593000  0.54972000  1.0
  C  C62  1  0.90948000  0.35592000  0.04972000  1.0
  C  C63  1  0.40945000  0.14407000  0.45028000  1.0
  C  C64  1  0.22644000  0.05646000  0.94966000  1.0
  C  C65  1  0.72645000  0.44354000  0.55034000  1.0
  C  C66  1  0.77354000  0.94354000  0.05034000  1.0
  C  C67  1  0.27355000  0.55646000  0.44967000  1.0
  N  N68  1  0.17036000  0.84949000  0.96154000  1.0
  N  N69  1  0.67036000  0.65051000  0.53846000  1.0
  N  N70  1  0.82964000  0.15050000  0.03846000  1.0
  N  N71  1  0.32964000  0.34949000  0.46154000  1.0
  O  O72  1  0.22777000  0.16880000  0.21623000  1.0
  O  O73  1  0.72777000  0.33120000  0.28377000  1.0
  O  O74  1  0.77222000  0.83121000  0.78377000  1.0
  O  O75  1  0.27223000  0.66881000  0.71622000  1.0
  O  O76  1  0.52533000  0.12302000  0.19085000  1.0
  O  O77  1  0.02533000  0.37697000  0.30914000  1.0
  O  O78  1  0.47466000  0.87698000  0.80915000  1.0
  O  O79  1  0.97467000  0.62303000  0.69086000  1.0
  O  O80  1  0.34557000  0.70273000  0.26104000  1.0
  O  O81  1  0.84559000  0.79727000  0.23894000  1.0
  O  O82  1  0.65442000  0.29728000  0.73896000  1.0
  O  O83  1  0.15440000  0.20273000  0.76105000  1.0
  O  O84  1  0.21984000  0.56928000  0.12548000  1.0
  O  O85  1  0.71982000  0.93071000  0.37451000  1.0
  O  O86  1  0.78016000  0.43072000  0.87453000  1.0
  O  O87  1  0.28018000  0.06928000  0.62549000  1.0
  O  O88  1  0.14158000  0.03525000  0.85983000  1.0
  O  O89  1  0.64158000  0.46476000  0.64018000  1.0
  O  O90  1  0.85842000  0.96475000  0.14017000  1.0
  O  O91  1  0.35841000  0.53525000  0.35982000  1.0
  O  O92  1  0.30075000  0.15248000  0.99124000  1.0
  O  O93  1  0.80075000  0.34752000  0.50876000  1.0
  O  O94  1  0.69924000  0.84752000  0.00876000  1.0
  O  O95  1  0.19925000  0.65249000  0.49124000  1.0
  O  O96  1  0.90654000  0.13186000  0.38153000  1.0
  O  O97  1  0.40654000  0.36812000  0.11847000  1.0
  O  O98  1  0.09346000  0.86814000  0.61847000  1.0
  O  O99  1  0.59347000  0.63188000  0.88153000  1.0
