# generated using pymatgen
data_ZnH10C14(SN6)2
_symmetry_space_group_name_H-M   'P 1'
_cell_length_a   6.39793000
_cell_length_b   11.07790000
_cell_length_c   14.17810000
_cell_angle_alpha   89.99960000
_cell_angle_beta   85.69430000
_cell_angle_gamma   89.99990000
_symmetry_Int_Tables_number   1
_chemical_formula_structural   ZnH10C14(SN6)2
_chemical_formula_sum   'Zn2 H20 C28 S4 N24'
_cell_volume   1002.04564342
_cell_formula_units_Z   2
loop_
 _symmetry_equiv_pos_site_id
 _symmetry_equiv_pos_as_xyz
  1  'x, y, z'
loop_
 _atom_site_type_symbol
 _atom_site_label
 _atom_site_symmetry_multiplicity
 _atom_site_fract_x
 _atom_site_fract_y
 _atom_site_fract_z
 _atom_site_occupancy
  Zn  Zn0  1  0.50002000  0.49999000  0.50000000  1.0
  Zn  Zn1  1  0.99999000  0.00000000  0.00000000  1.0
  H  H2  1  0.97590000  0.03037000  0.25507000  1.0
  H  H3  1  0.52410000  0.53036000  0.24493000  1.0
  H  H4  1  0.02408000  0.96964000  0.74493000  1.0
  H  H5  1  0.47590000  0.46963000  0.75507000  1.0
  H  H6  1  0.36539000  0.18636000  0.03625000  1.0
  H  H7  1  0.13463000  0.68637000  0.46375000  1.0
  H  H8  1  0.63462000  0.81362000  0.96375000  1.0
  H  H9  1  0.86539000  0.31363000  0.53625000  1.0
  H  H10  1  0.43355000  0.34623000  0.32026000  1.0
  H  H11  1  0.06644000  0.84623000  0.17973000  1.0
  H  H12  1  0.56645000  0.65377000  0.67974000  1.0
  H  H13  1  0.93354000  0.15377000  0.82027000  1.0
  H  H14  1  0.09421000  0.07894000  0.55722000  1.0
  H  H15  1  0.40580000  0.57894000  0.94278000  1.0
  H  H16  1  0.90581000  0.92106000  0.44278000  1.0
  H  H17  1  0.59419000  0.42107000  0.05722000  1.0
  H  H18  1  0.28121000  0.26747000  0.60474000  1.0
  H  H19  1  0.21880000  0.76748000  0.89526000  1.0
  H  H20  1  0.71882000  0.73253000  0.39526000  1.0
  H  H21  1  0.78119000  0.23253000  0.10474000  1.0
  C  C22  1  0.09562000  0.08199000  0.21443000  1.0
  C  C23  1  0.40437000  0.58200000  0.28557000  1.0
  C  C24  1  0.90435000  0.91801000  0.78557000  1.0
  C  C25  1  0.59563000  0.41800000  0.71443000  1.0
  C  C26  1  0.29594000  0.16566000  0.10637000  1.0
  C  C27  1  0.20408000  0.66566000  0.39363000  1.0
  C  C28  1  0.70406000  0.83433000  0.89363000  1.0
  C  C29  1  0.79595000  0.33433000  0.60637000  1.0
  C  C30  1  0.35559000  0.28879000  0.37410000  1.0
  C  C31  1  0.14441000  0.78879000  0.12590000  1.0
  C  C32  1  0.64441000  0.71121000  0.62590000  1.0
  C  C33  1  0.85559000  0.21121000  0.87411000  1.0
  C  C34  1  0.24535000  0.18593000  0.34959000  1.0
  C  C35  1  0.25465000  0.68593000  0.15041000  1.0
  C  C36  1  0.75464000  0.81408000  0.65041000  1.0
  C  C37  1  0.74535000  0.31407000  0.84959000  1.0
  C  C38  1  0.16805000  0.13981000  0.50404000  1.0
  C  C39  1  0.33195000  0.63980000  0.99596000  1.0
  C  C40  1  0.83197000  0.86020000  0.49596000  1.0
  C  C41  1  0.66803000  0.36020000  0.00404000  1.0
  C  C42  1  0.27320000  0.24351000  0.53058000  1.0
  C  C43  1  0.22681000  0.74352000  0.96942000  1.0
  C  C44  1  0.72683000  0.75648000  0.46942000  1.0
  C  C45  1  0.77317000  0.25649000  0.03058000  1.0
  C  C46  1  0.83972000  0.44121000  0.33552000  1.0
  C  C47  1  0.66029000  0.94120000  0.16447000  1.0
  C  C48  1  0.16030000  0.55879000  0.66447000  1.0
  C  C49  1  0.33968000  0.05880000  0.83553000  1.0
  S  S50  1  0.93660000  0.42043000  0.22819000  1.0
  S  S51  1  0.56341000  0.92043000  0.27180000  1.0
  S  S52  1  0.06341000  0.57957000  0.77179000  1.0
  S  S53  1  0.43656000  0.07957000  0.72820000  1.0
  N  N54  1  0.36492000  0.31790000  0.46503000  1.0
  N  N55  1  0.13508000  0.81791000  0.03496000  1.0
  N  N56  1  0.63510000  0.68209000  0.53496000  1.0
  N  N57  1  0.86490000  0.18210000  0.96504000  1.0
  N  N58  1  0.15056000  0.11140000  0.41292000  1.0
  N  N59  1  0.34943000  0.61140000  0.08708000  1.0
  N  N60  1  0.84944000  0.88861000  0.58708000  1.0
  N  N61  1  0.65055000  0.38861000  0.91292000  1.0
  N  N62  1  0.35772000  0.21367000  0.18485000  1.0
  N  N63  1  0.14229000  0.71368000  0.31516000  1.0
  N  N64  1  0.64227000  0.78632000  0.81515000  1.0
  N  N65  1  0.85772000  0.28632000  0.68485000  1.0
  N  N66  1  0.13515000  0.08458000  0.12089000  1.0
  N  N67  1  0.36487000  0.58459000  0.37911000  1.0
  N  N68  1  0.86485000  0.91541000  0.87911000  1.0
  N  N69  1  0.63516000  0.41541000  0.62089000  1.0
  N  N70  1  0.22914000  0.15900000  0.25337000  1.0
  N  N71  1  0.27086000  0.65900000  0.24663000  1.0
  N  N72  1  0.77084000  0.84101000  0.74663000  1.0
  N  N73  1  0.72915000  0.34100000  0.75337000  1.0
  N  N74  1  0.76694000  0.45726000  0.41434000  1.0
  N  N75  1  0.73307000  0.95726000  0.08565000  1.0
  N  N76  1  0.23310000  0.54273000  0.58565000  1.0
  N  N77  1  0.26691000  0.04274000  0.91435000  1.0
