# generated using pymatgen
data_MnH12C16N2(ClO2)2
_symmetry_space_group_name_H-M   'P 1'
_cell_length_a   7.40062000
_cell_length_b   11.26350000
_cell_length_c   11.26460000
_cell_angle_alpha   60.42180000
_cell_angle_beta   87.29120000
_cell_angle_gamma   87.28930000
_symmetry_Int_Tables_number   1
_chemical_formula_structural   MnH12C16N2(ClO2)2
_chemical_formula_sum   'Mn2 H24 C32 N4 Cl4 O8'
_cell_volume   815.39353966
_cell_formula_units_Z   2
loop_
 _symmetry_equiv_pos_site_id
 _symmetry_equiv_pos_as_xyz
  1  'x, y, z'
loop_
 _atom_site_type_symbol
 _atom_site_label
 _atom_site_symmetry_multiplicity
 _atom_site_fract_x
 _atom_site_fract_y
 _atom_site_fract_z
 _atom_site_occupancy
  Mn  Mn0  1  0.75000000  0.61444000  0.38556000  1.0
  Mn  Mn1  1  0.25000000  0.38556000  0.61443000  1.0
  H  H2  1  0.89623000  0.76591000  0.58962000  1.0
  H  H3  1  0.60374000  0.41037000  0.23411000  1.0
  H  H4  1  0.10377000  0.23408000  0.41039000  1.0
  H  H5  1  0.39625000  0.58961000  0.76591000  1.0
  H  H6  1  0.99552000  0.88040000  0.42721000  1.0
  H  H7  1  0.50446000  0.57279000  0.11964000  1.0
  H  H8  1  0.00447000  0.11960000  0.57280000  1.0
  H  H9  1  0.49555000  0.42719000  0.88037000  1.0
  H  H10  1  0.96761000  0.54325000  0.16898000  1.0
  H  H11  1  0.53240000  0.83104000  0.45673000  1.0
  H  H12  1  0.03240000  0.45675000  0.83103000  1.0
  H  H13  1  0.46758000  0.16898000  0.54327000  1.0
  H  H14  1  0.06912000  0.66520000  0.92123000  1.0
  H  H15  1  0.43088000  0.07882000  0.33476000  1.0
  H  H16  1  0.93090000  0.33479000  0.07878000  1.0
  H  H17  1  0.56912000  0.92119000  0.66523000  1.0
  H  H18  1  0.98669000  0.91225000  0.77728000  1.0
  H  H19  1  0.51331000  0.22276000  0.08774000  1.0
  H  H20  1  0.01332000  0.08774000  0.22272000  1.0
  H  H21  1  0.48671000  0.77724000  0.91226000  1.0
  H  H22  1  0.83932000  0.12812000  0.76260000  1.0
  H  H23  1  0.66064000  0.23742000  0.87190000  1.0
  H  H24  1  0.16069000  0.87188000  0.23740000  1.0
  H  H25  1  0.33937000  0.76258000  0.12809000  1.0
  C  C26  1  0.08268000  0.66763000  0.51318000  1.0
  C  C27  1  0.41728000  0.48679000  0.33238000  1.0
  C  C28  1  0.91731000  0.33236000  0.48682000  1.0
  C  C29  1  0.58270000  0.51319000  0.66762000  1.0
  C  C30  1  0.02203000  0.79174000  0.52716000  1.0
  C  C31  1  0.47797000  0.47284000  0.20827000  1.0
  C  C32  1  0.97797000  0.20826000  0.47285000  1.0
  C  C33  1  0.52203000  0.52715000  0.79173000  1.0
  C  C34  1  0.93547000  0.65145000  0.10279000  1.0
  C  C35  1  0.56457000  0.89725000  0.34850000  1.0
  C  C36  1  0.06455000  0.34854000  0.89722000  1.0
  C  C37  1  0.43543000  0.10276000  0.65149000  1.0
  C  C38  1  0.99098000  0.72007000  0.96433000  1.0
  C  C39  1  0.50902000  0.03571000  0.27993000  1.0
  C  C40  1  0.00903000  0.27995000  0.03567000  1.0
  C  C41  1  0.49098000  0.96430000  0.72008000  1.0
  C  C42  1  0.94580000  0.85715000  0.88502000  1.0
  C  C43  1  0.55423000  0.11503000  0.14281000  1.0
  C  C44  1  0.05422000  0.14284000  0.11499000  1.0
  C  C45  1  0.44579000  0.88499000  0.85717000  1.0
  C  C46  1  0.84817000  0.92624000  0.94443000  1.0
  C  C47  1  0.65184000  0.05561000  0.07376000  1.0
  C  C48  1  0.15185000  0.07376000  0.05556000  1.0
  C  C49  1  0.34817000  0.94440000  0.92624000  1.0
  C  C50  1  0.79899000  0.84848000  0.08529000  1.0
  C  C51  1  0.70104000  0.91473000  0.15152000  1.0
  C  C52  1  0.20103000  0.15152000  0.91470000  1.0
  C  C53  1  0.29896000  0.08528000  0.84848000  1.0
  C  C54  1  0.79820000  0.06837000  0.86986000  1.0
  C  C55  1  0.70178000  0.13017000  0.93166000  1.0
  C  C56  1  0.20182000  0.93162000  0.13014000  1.0
  C  C57  1  0.29823000  0.86984000  0.06834000  1.0
  N  N58  1  0.84128000  0.71346000  0.16125000  1.0
  N  N59  1  0.65873000  0.83877000  0.28654000  1.0
  N  N60  1  0.15871000  0.28655000  0.83876000  1.0
  N  N61  1  0.34126000  0.16123000  0.71347000  1.0
  Cl  Cl62  1  0.18209000  0.84149000  0.60829000  1.0
  Cl  Cl63  1  0.31788000  0.39170000  0.15853000  1.0
  Cl  Cl64  1  0.81791000  0.15849000  0.39171000  1.0
  Cl  Cl65  1  0.68211000  0.60829000  0.84148000  1.0
  O  O66  1  0.01928000  0.66323000  0.41297000  1.0
  O  O67  1  0.48069000  0.58703000  0.33679000  1.0
  O  O68  1  0.98068000  0.33679000  0.58700000  1.0
  O  O69  1  0.51930000  0.41296000  0.66321000  1.0
  O  O70  1  0.18442000  0.57756000  0.60304000  1.0
  O  O71  1  0.31556000  0.39694000  0.42243000  1.0
  O  O72  1  0.81555000  0.42244000  0.39693000  1.0
  O  O73  1  0.68442000  0.60306000  0.57756000  1.0
