# generated using pymatgen
data_CsH2C2(N3O)2
_symmetry_space_group_name_H-M   'P 1'
_cell_length_a   4.94515000
_cell_length_b   15.32410000
_cell_length_c   18.11810000
_cell_angle_alpha   89.99990000
_cell_angle_beta   90.00000000
_cell_angle_gamma   89.99960000
_symmetry_Int_Tables_number   1
_chemical_formula_structural   CsH2C2(N3O)2
_chemical_formula_sum   'Cs8 H16 C16 N48 O16'
_cell_volume   1372.98913086
_cell_formula_units_Z   8
loop_
 _symmetry_equiv_pos_site_id
 _symmetry_equiv_pos_as_xyz
  1  'x, y, z'
loop_
 _atom_site_type_symbol
 _atom_site_label
 _atom_site_symmetry_multiplicity
 _atom_site_fract_x
 _atom_site_fract_y
 _atom_site_fract_z
 _atom_site_occupancy
  Cs  Cs0  1  0.43797000  0.68150000  0.65761000  1.0
  Cs  Cs1  1  0.56202000  0.31850000  0.15761000  1.0
  Cs  Cs2  1  0.43799000  0.81850000  0.15761000  1.0
  Cs  Cs3  1  0.56202000  0.18150000  0.65761000  1.0
  Cs  Cs4  1  0.93794000  0.93097000  0.81624000  1.0
  Cs  Cs5  1  0.06204000  0.06903000  0.31623000  1.0
  Cs  Cs6  1  0.93792000  0.56903000  0.31623000  1.0
  Cs  Cs7  1  0.06205000  0.43097000  0.81623000  1.0
  H  H8  1  0.44913000  0.75408000  0.87751000  1.0
  H  H9  1  0.55086000  0.24592000  0.37751000  1.0
  H  H10  1  0.44912000  0.74591000  0.37751000  1.0
  H  H11  1  0.55087000  0.25408000  0.87751000  1.0
  H  H12  1  0.42640000  0.84687000  0.93290000  1.0
  H  H13  1  0.57359000  0.15313000  0.43291000  1.0
  H  H14  1  0.42641000  0.65312000  0.43291000  1.0
  H  H15  1  0.57359000  0.34688000  0.93290000  1.0
  H  H16  1  0.05691000  0.39771000  0.04100000  1.0
  H  H17  1  0.94309000  0.60229000  0.54100000  1.0
  H  H18  1  0.05692000  0.10229000  0.54100000  1.0
  H  H19  1  0.94309000  0.89771000  0.04100000  1.0
  H  H20  1  0.02219000  0.49393000  0.09297000  1.0
  H  H21  1  0.97782000  0.50607000  0.59297000  1.0
  H  H22  1  0.02219000  0.00607000  0.59297000  1.0
  H  H23  1  0.97782000  0.99393000  0.09297000  1.0
  C  C24  1  0.13566000  0.75521000  0.95030000  1.0
  C  C25  1  0.86434000  0.24480000  0.45030000  1.0
  C  C26  1  0.13565000  0.74478000  0.45030000  1.0
  C  C27  1  0.86435000  0.25521000  0.95030000  1.0
  C  C28  1  0.81842000  0.66271000  0.98448000  1.0
  C  C29  1  0.18158000  0.33729000  0.48448000  1.0
  C  C30  1  0.81842000  0.83728000  0.48449000  1.0
  C  C31  1  0.18159000  0.16272000  0.98448000  1.0
  C  C32  1  0.64761000  0.58652000  0.98604000  1.0
  C  C33  1  0.35239000  0.41348000  0.48604000  1.0
  C  C34  1  0.64761000  0.91347000  0.48604000  1.0
  C  C35  1  0.35239000  0.08653000  0.98604000  1.0
  C  C36  1  0.33730000  0.49212000  0.02109000  1.0
  C  C37  1  0.66271000  0.50788000  0.52109000  1.0
  C  C38  1  0.33731000  0.00788000  0.52110000  1.0
  C  C39  1  0.66271000  0.99212000  0.02109000  1.0
  N  N40  1  0.02319000  0.78516000  0.01229000  1.0
  N  N41  1  0.97680000  0.21485000  0.51229000  1.0
  N  N42  1  0.02320000  0.71484000  0.51230000  1.0
  N  N43  1  0.97680000  0.28516000  0.01229000  1.0
  N  N44  1  0.82403000  0.72677000  0.03338000  1.0
  N  N45  1  0.17597000  0.27324000  0.53338000  1.0
  N  N46  1  0.82403000  0.77323000  0.53339000  1.0
  N  N47  1  0.17597000  0.22677000  0.03339000  1.0
  N  N48  1  0.01211000  0.67846000  0.93047000  1.0
  N  N49  1  0.98790000  0.32155000  0.43046000  1.0
  N  N50  1  0.01209000  0.82154000  0.43047000  1.0
  N  N51  1  0.98792000  0.17846000  0.93047000  1.0
  N  N52  1  0.32994000  0.79370000  0.90932000  1.0
  N  N53  1  0.67006000  0.20630000  0.40932000  1.0
  N  N54  1  0.32992000  0.70629000  0.40932000  1.0
  N  N55  1  0.67007000  0.29370000  0.90932000  1.0
  N  N56  1  0.07321000  0.63069000  0.86734000  1.0
  N  N57  1  0.92679000  0.36931000  0.36735000  1.0
  N  N58  1  0.07321000  0.86930000  0.36735000  1.0
  N  N59  1  0.92681000  0.13070000  0.86735000  1.0
  N  N60  1  0.92050000  0.65827000  0.81111000  1.0
  N  N61  1  0.07950000  0.34174000  0.31111000  1.0
  N  N62  1  0.92051000  0.84173000  0.31111000  1.0
  N  N63  1  0.07951000  0.15827000  0.81111000  1.0
  N  N64  1  0.65275000  0.52031000  0.93913000  1.0
  N  N65  1  0.34726000  0.47969000  0.43913000  1.0
  N  N66  1  0.65276000  0.97968000  0.43914000  1.0
  N  N67  1  0.34725000  0.02032000  0.93914000  1.0
  N  N68  1  0.45861000  0.46037000  0.96094000  1.0
  N  N69  1  0.54139000  0.53963000  0.46094000  1.0
  N  N70  1  0.45863000  0.03963000  0.46095000  1.0
  N  N71  1  0.54138000  0.96037000  0.96095000  1.0
  N  N72  1  0.44981000  0.57123000  0.03888000  1.0
  N  N73  1  0.55019000  0.42877000  0.53888000  1.0
  N  N74  1  0.44981000  0.92877000  0.53889000  1.0
  N  N75  1  0.55020000  0.07123000  0.03889000  1.0
  N  N76  1  0.14417000  0.45384000  0.06263000  1.0
  N  N77  1  0.85583000  0.54616000  0.56263000  1.0
  N  N78  1  0.14418000  0.04617000  0.56263000  1.0
  N  N79  1  0.85583000  0.95384000  0.06263000  1.0
  N  N80  1  0.37358000  0.61986000  0.10023000  1.0
  N  N81  1  0.62641000  0.38014000  0.60023000  1.0
  N  N82  1  0.37358000  0.88014000  0.60023000  1.0
  N  N83  1  0.62643000  0.11987000  0.10023000  1.0
  N  N84  1  0.50171000  0.58939000  0.15987000  1.0
  N  N85  1  0.49826000  0.41061000  0.65987000  1.0
  N  N86  1  0.50172000  0.91060000  0.65988000  1.0
  N  N87  1  0.49828000  0.08940000  0.15987000  1.0
  O  O88  1  0.75323000  0.72109000  0.81526000  1.0
  O  O89  1  0.24676000  0.27892000  0.31525000  1.0
  O  O90  1  0.75324000  0.77891000  0.31526000  1.0
  O  O91  1  0.24677000  0.22109000  0.81525000  1.0
  O  O92  1  0.95294000  0.61715000  0.75083000  1.0
  O  O93  1  0.04705000  0.38285000  0.25083000  1.0
  O  O94  1  0.95297000  0.88284000  0.25083000  1.0
  O  O95  1  0.04706000  0.11715000  0.75083000  1.0
  O  O96  1  0.67494000  0.52809000  0.15827000  1.0
  O  O97  1  0.32503000  0.47190000  0.65826000  1.0
  O  O98  1  0.67495000  0.97190000  0.65827000  1.0
  O  O99  1  0.32505000  0.02810000  0.15827000  1.0
  O  O100  1  0.43986000  0.62666000  0.22025000  1.0
  O  O101  1  0.56010000  0.37334000  0.72025000  1.0
  O  O102  1  0.43988000  0.87333000  0.72026000  1.0
  O  O103  1  0.56012000  0.12667000  0.22026000  1.0
