# generated using pymatgen
data_Zn3H58C44(NO2)8
_symmetry_space_group_name_H-M   'P 1'
_cell_length_a   8.22271000
_cell_length_b   13.06020000
_cell_length_c   13.42530000
_cell_angle_alpha   71.64100000
_cell_angle_beta   79.63460000
_cell_angle_gamma   87.99330000
_symmetry_Int_Tables_number   1
_chemical_formula_structural   Zn3H58C44(NO2)8
_chemical_formula_sum   'Zn3 H58 C44 N8 O16'
_cell_volume   1345.67024061
_cell_formula_units_Z   1
loop_
 _symmetry_equiv_pos_site_id
 _symmetry_equiv_pos_as_xyz
  1  'x, y, z'
loop_
 _atom_site_type_symbol
 _atom_site_label
 _atom_site_symmetry_multiplicity
 _atom_site_fract_x
 _atom_site_fract_y
 _atom_site_fract_z
 _atom_site_occupancy
  Zn  Zn0  1  0.22235000  0.36717000  0.63357000  1.0
  Zn  Zn1  1  0.77765000  0.63283000  0.36643000  1.0
  Zn  Zn2  1  0.00000000  0.00000000  0.00000000  1.0
  H  H3  1  0.88779000  0.03622000  0.17150000  1.0
  H  H4  1  0.11221000  0.96378000  0.82850000  1.0
  H  H5  1  0.91732000  0.91126000  0.21470000  1.0
  H  H6  1  0.08268000  0.08874000  0.78530000  1.0
  H  H7  1  0.86966000  0.80288000  0.03393000  1.0
  H  H8  1  0.13033000  0.19712000  0.96607000  1.0
  H  H9  1  0.84180000  0.89193000  0.92337000  1.0
  H  H10  1  0.15821000  0.10807000  0.07663000  1.0
  H  H11  1  0.17428000  0.46555000  0.79564000  1.0
  H  H12  1  0.82571000  0.53445000  0.20436000  1.0
  H  H13  1  0.10752000  0.64709000  0.81848000  1.0
  H  H14  1  0.89247000  0.35291000  0.18151000  1.0
  H  H15  1  0.23577000  0.78597000  0.47696000  1.0
  H  H16  1  0.76424000  0.21403000  0.52304000  1.0
  H  H17  1  0.30341000  0.60061000  0.46766000  1.0
  H  H18  1  0.69659000  0.39939000  0.53234000  1.0
  H  H19  1  0.02878000  0.83350000  0.72941000  1.0
  H  H20  1  0.97122000  0.16650000  0.27059000  1.0
  H  H21  1  0.23944000  0.87188000  0.67974000  1.0
  H  H22  1  0.76056000  0.12811000  0.32025000  1.0
  H  H23  1  0.21869000  0.04737000  0.57917000  1.0
  H  H24  1  0.78131000  0.95263000  0.42082000  1.0
  H  H25  1  0.00230000  0.04118000  0.63024000  1.0
  H  H26  1  0.99771000  0.95882000  0.36976000  1.0
  H  H27  1  0.83281000  0.89916000  0.60566000  1.0
  H  H28  1  0.16720000  0.10084000  0.39433000  1.0
  H  H29  1  0.93413000  0.81093000  0.53691000  1.0
  H  H30  1  0.06588000  0.18907000  0.46309000  1.0
  H  H31  1  0.42239000  0.22390000  0.53570000  1.0
  H  H32  1  0.57762000  0.77610000  0.46430000  1.0
  H  H33  1  0.49060000  0.19331000  0.35733000  1.0
  H  H34  1  0.50941000  0.80669000  0.64267000  1.0
  H  H35  1  0.18945000  0.46528000  0.23628000  1.0
  H  H36  1  0.81055000  0.53472000  0.76372000  1.0
  H  H37  1  0.12727000  0.48263000  0.41706000  1.0
  H  H38  1  0.87273000  0.51736000  0.58295000  1.0
  H  H39  1  0.49267000  0.26123000  0.16797000  1.0
  H  H40  1  0.50733000  0.73876000  0.83203000  1.0
  H  H41  1  0.28066000  0.27282000  0.15838000  1.0
  H  H42  1  0.71933000  0.72717000  0.84162000  1.0
  H  H43  1  0.67073000  0.42953000  0.08344000  1.0
  H  H44  1  0.32927000  0.57047000  0.91656000  1.0
  H  H45  1  0.54493000  0.48278000  0.17778000  1.0
  H  H46  1  0.45506000  0.51721000  0.82223000  1.0
  H  H47  1  0.31066000  0.37182000  0.97881000  1.0
  H  H48  1  0.68933000  0.62818000  0.02119000  1.0
  H  H49  1  0.52964000  0.36276000  0.96392000  1.0
  H  H50  1  0.47036000  0.63723000  0.03609000  1.0
  H  H51  1  0.40702000  0.08141000  0.87559000  1.0
  H  H52  1  0.59298000  0.91859000  0.12441000  1.0
  H  H53  1  0.47204000  0.17094000  0.93606000  1.0
  H  H54  1  0.52796000  0.82907000  0.06394000  1.0
  H  H55  1  0.64276000  0.14178000  0.72362000  1.0
  H  H56  1  0.35724000  0.85822000  0.27638000  1.0
  H  H57  1  0.67126000  0.33184000  0.73430000  1.0
  H  H58  1  0.32874000  0.66817000  0.26570000  1.0
  H  H59  1  0.74875000  0.27534000  0.85395000  1.0
  H  H60  1  0.25126000  0.72467000  0.14605000  1.0
  C  C61  1  0.18837000  0.53942000  0.72771000  1.0
  C  C62  1  0.81162000  0.46058000  0.27229000  1.0
  C  C63  1  0.15092000  0.64000000  0.73922000  1.0
  C  C64  1  0.84907000  0.36000000  0.26078000  1.0
  C  C65  1  0.16749000  0.73131000  0.64886000  1.0
  C  C66  1  0.83251000  0.26869000  0.35114000  1.0
  C  C67  1  0.22264000  0.71683000  0.54937000  1.0
  C  C68  1  0.77736000  0.28317000  0.45062000  1.0
  C  C69  1  0.25901000  0.61381000  0.54412000  1.0
  C  C70  1  0.74099000  0.38618000  0.45588000  1.0
  C  C71  1  0.12981000  0.84144000  0.65963000  1.0
  C  C72  1  0.87020000  0.15856000  0.34036000  1.0
  C  C73  1  0.09678000  0.02912000  0.56505000  1.0
  C  C74  1  0.90322000  0.97088000  0.43495000  1.0
  C  C75  1  0.93408000  0.89370000  0.54055000  1.0
  C  C76  1  0.06592000  0.10630000  0.45944000  1.0
  C  C77  1  0.37213000  0.27398000  0.46699000  1.0
  C  C78  1  0.62788000  0.72601000  0.53301000  1.0
  C  C79  1  0.40912000  0.25812000  0.36787000  1.0
  C  C80  1  0.59089000  0.74188000  0.63213000  1.0
  C  C81  1  0.34414000  0.32648000  0.28200000  1.0
  C  C82  1  0.65585000  0.67352000  0.71800000  1.0
  C  C83  1  0.24101000  0.40856000  0.30075000  1.0
  C  C84  1  0.75899000  0.59143000  0.69925000  1.0
  C  C85  1  0.20769000  0.41906000  0.40199000  1.0
  C  C86  1  0.79231000  0.58094000  0.59802000  1.0
  C  C87  1  0.38480000  0.31458000  0.17228000  1.0
  C  C88  1  0.61519000  0.68542000  0.82772000  1.0
  C  C89  1  0.55740000  0.47590000  0.09736000  1.0
  C  C90  1  0.44259000  0.52409000  0.90265000  1.0
  C  C91  1  0.42287000  0.41194000  0.98368000  1.0
  C  C92  1  0.57713000  0.58805000  0.01632000  1.0
  C  C93  1  0.36268000  0.24398000  0.79812000  1.0
  C  C94  1  0.63732000  0.75601000  0.20188000  1.0
  C  C95  1  0.47111000  0.15944000  0.85849000  1.0
  C  C96  1  0.52889000  0.84056000  0.14151000  1.0
  C  C97  1  0.64850000  0.15686000  0.79894000  1.0
  C  C98  1  0.35150000  0.84314000  0.20106000  1.0
  C  C99  1  0.74010000  0.26343000  0.77731000  1.0
  C  C100  1  0.25990000  0.73657000  0.22269000  1.0
  C  C101  1  0.91595000  0.27237000  0.71671000  1.0
  C  C102  1  0.08405000  0.72763000  0.28329000  1.0
  C  C103  1  0.73755000  0.06163000  0.86548000  1.0
  C  C104  1  0.26245000  0.93838000  0.13452000  1.0
  N  N105  1  0.24163000  0.52595000  0.63157000  1.0
  N  N106  1  0.75837000  0.47404000  0.36843000  1.0
  N  N107  1  0.09402000  0.91821000  0.56220000  1.0
  N  N108  1  0.90598000  0.08178000  0.43780000  1.0
  N  N109  1  0.27335000  0.35360000  0.48391000  1.0
  N  N110  1  0.72666000  0.64640000  0.51609000  1.0
  N  N111  1  0.41115000  0.41961000  0.09078000  1.0
  N  N112  1  0.58885000  0.58039000  0.90922000  1.0
  O  O113  1  0.24097000  0.28046000  0.84727000  1.0
  O  O114  1  0.75903000  0.71954000  0.15273000  1.0
  O  O115  1  0.39823000  0.27507000  0.69467000  1.0
  O  O116  1  0.60177000  0.72493000  0.30533000  1.0
  O  O117  1  0.98063000  0.36922000  0.68191000  1.0
  O  O118  1  0.01938000  0.63078000  0.31809000  1.0
  O  O119  1  0.99435000  0.19260000  0.70209000  1.0
  O  O120  1  0.00565000  0.80740000  0.29791000  1.0
  O  O121  1  0.80565000  0.08057000  0.93686000  1.0
  O  O122  1  0.19436000  0.91944000  0.06314000  1.0
  O  O123  1  0.73555000  0.97227000  0.84713000  1.0
  O  O124  1  0.26446000  0.02773000  0.15287000  1.0
  O  O125  1  0.85753000  0.96711000  0.16571000  1.0
  O  O126  1  0.14247000  0.03289000  0.83429000  1.0
  O  O127  1  0.92945000  0.85611000  0.96769000  1.0
  O  O128  1  0.07055000  0.14390000  0.03231000  1.0
