# generated using pymatgen
data_CdH10C14N2O5
_symmetry_space_group_name_H-M   'P 1'
_cell_length_a   6.09908000
_cell_length_b   7.47661000
_cell_length_c   15.01600000
_cell_angle_alpha   87.68880000
_cell_angle_beta   87.13130000
_cell_angle_gamma   84.87160000
_symmetry_Int_Tables_number   1
_chemical_formula_structural   CdH10C14N2O5
_chemical_formula_sum   'Cd2 H20 C28 N4 O10'
_cell_volume   680.69794750
_cell_formula_units_Z   2
loop_
 _symmetry_equiv_pos_site_id
 _symmetry_equiv_pos_as_xyz
  1  'x, y, z'
loop_
 _atom_site_type_symbol
 _atom_site_label
 _atom_site_symmetry_multiplicity
 _atom_site_fract_x
 _atom_site_fract_y
 _atom_site_fract_z
 _atom_site_occupancy
  Cd  Cd0  1  0.81740000  0.24897000  0.00456000  1.0
  Cd  Cd1  1  0.18261000  0.75103000  0.99544000  1.0
  H  H2  1  0.87569000  0.39999000  0.70466000  1.0
  H  H3  1  0.87151000  0.09001000  0.29961000  1.0
  H  H4  1  0.12432000  0.59999000  0.29533000  1.0
  H  H5  1  0.12847000  0.91002000  0.70038000  1.0
  H  H6  1  0.45665000  0.58555000  0.81017000  1.0
  H  H7  1  0.50156000  0.90567000  0.17746000  1.0
  H  H8  1  0.54335000  0.41442000  0.18981000  1.0
  H  H9  1  0.49843000  0.09435000  0.82255000  1.0
  H  H10  1  0.36400000  0.62104000  0.52625000  1.0
  H  H11  1  0.40084000  0.88555000  0.46435000  1.0
  H  H12  1  0.63602000  0.37893000  0.47374000  1.0
  H  H13  1  0.59910000  0.11444000  0.53565000  1.0
  H  H14  1  0.59216000  0.66865000  0.65558000  1.0
  H  H15  1  0.64544000  0.83137000  0.32820000  1.0
  H  H16  1  0.40783000  0.33132000  0.34441000  1.0
  H  H17  1  0.35453000  0.16864000  0.67181000  1.0
  H  H18  1  0.36060000  0.35429000  0.98787000  1.0
  H  H19  1  0.37920000  0.17412000  0.04679000  1.0
  H  H20  1  0.63944000  0.64573000  0.01213000  1.0
  H  H21  1  0.62081000  0.82592000  0.95323000  1.0
  C  C22  1  0.03190000  0.45988000  0.69435000  1.0
  C  C23  1  0.04094000  0.03290000  0.30539000  1.0
  C  C24  1  0.96812000  0.54009000  0.30564000  1.0
  C  C25  1  0.95903000  0.96713000  0.69461000  1.0
  C  C26  1  0.15858000  0.48717000  0.76710000  1.0
  C  C27  1  0.17796000  0.00357000  0.22892000  1.0
  C  C28  1  0.84143000  0.51280000  0.23289000  1.0
  C  C29  1  0.82204000  0.99645000  0.77108000  1.0
  C  C30  1  0.36031000  0.56335000  0.75304000  1.0
  C  C31  1  0.39604000  0.93014000  0.23722000  1.0
  C  C32  1  0.63971000  0.43662000  0.24695000  1.0
  C  C33  1  0.60396000  0.06988000  0.76279000  1.0
  C  C34  1  0.10591000  0.50933000  0.60776000  1.0
  C  C35  1  0.12008000  0.98846000  0.38994000  1.0
  C  C36  1  0.89412000  0.49066000  0.39224000  1.0
  C  C37  1  0.87988000  0.01157000  0.61007000  1.0
  C  C38  1  0.08044000  0.43311000  0.85920000  1.0
  C  C39  1  0.08768000  0.04974000  0.13992000  1.0
  C  C40  1  0.91959000  0.56688000  0.14080000  1.0
  C  C41  1  0.91234000  0.95026000  0.86008000  1.0
  C  C42  1  0.30942000  0.58412000  0.59405000  1.0
  C  C43  1  0.34037000  0.91765000  0.39812000  1.0
  C  C44  1  0.69060000  0.41586000  0.40594000  1.0
  C  C45  1  0.65958000  0.08236000  0.60188000  1.0
  C  C46  1  0.43503000  0.61033000  0.66645000  1.0
  C  C47  1  0.47605000  0.88850000  0.32190000  1.0
  C  C48  1  0.56498000  0.38963000  0.33354000  1.0
  C  C49  1  0.52392000  0.11151000  0.67811000  1.0
  N  N50  1  0.96286000  0.48131000  0.53912000  1.0
  N  N51  1  0.96253000  0.01547000  0.46165000  1.0
  N  N52  1  0.03718000  0.51868000  0.46088000  1.0
  N  N53  1  0.03742000  0.98456000  0.53835000  1.0
  O  O54  1  0.45376000  0.28626000  0.03271000  1.0
  O  O55  1  0.54625000  0.71378000  0.96731000  1.0
  O  O56  1  0.18749000  0.47291000  0.92583000  1.0
  O  O57  1  0.21137000  0.02144000  0.06874000  1.0
  O  O58  1  0.81255000  0.52709000  0.07416000  1.0
  O  O59  1  0.78863000  0.97859000  0.93126000  1.0
  O  O60  1  0.90989000  0.34574000  0.86779000  1.0
  O  O61  1  0.89029000  0.11980000  0.13718000  1.0
  O  O62  1  0.09011000  0.65427000  0.13221000  1.0
  O  O63  1  0.10971000  0.88018000  0.86282000  1.0
