# generated using pymatgen
data_Mn3H28(C7O4)4
_symmetry_space_group_name_H-M   'P 1'
_cell_length_a   9.46120000
_cell_length_b   9.84167000
_cell_length_c   10.45560000
_cell_angle_alpha   102.16700000
_cell_angle_beta   109.17900000
_cell_angle_gamma   106.52700000
_symmetry_Int_Tables_number   1
_chemical_formula_structural   Mn3H28(C7O4)4
_chemical_formula_sum   'Mn3 H28 C28 O16'
_cell_volume   830.29523358
_cell_formula_units_Z   1
loop_
 _symmetry_equiv_pos_site_id
 _symmetry_equiv_pos_as_xyz
  1  'x, y, z'
loop_
 _atom_site_type_symbol
 _atom_site_label
 _atom_site_symmetry_multiplicity
 _atom_site_fract_x
 _atom_site_fract_y
 _atom_site_fract_z
 _atom_site_occupancy
  Mn  Mn0  1  0.00010000  0.00116000  0.00122000  1.0
  Mn  Mn1  1  0.91803000  0.11441000  0.30070000  1.0
  Mn  Mn2  1  0.08132000  0.88451000  0.69844000  1.0
  H  H3  1  0.42867000  0.95223000  0.23934000  1.0
  H  H4  1  0.57099000  0.04807000  0.76090000  1.0
  H  H5  1  0.33083000  0.08543000  0.61080000  1.0
  H  H6  1  0.66849000  0.91436000  0.38932000  1.0
  H  H7  1  0.84314000  0.22572000  0.88623000  1.0
  H  H8  1  0.15924000  0.77640000  0.11638000  1.0
  H  H9  1  0.15682000  0.60879000  0.26724000  1.0
  H  H10  1  0.84581000  0.39336000  0.73548000  1.0
  H  H11  1  0.69573000  0.55332000  0.88815000  1.0
  H  H12  1  0.30400000  0.44607000  0.10992000  1.0
  H  H13  1  0.51196000  0.70589000  0.19120000  1.0
  H  H14  1  0.48793000  0.29347000  0.80703000  1.0
  H  H15  1  0.09808000  0.34653000  0.73085000  1.0
  H  H16  1  0.90036000  0.65149000  0.26844000  1.0
  H  H17  1  0.09639000  0.41404000  0.58448000  1.0
  H  H18  1  0.90208000  0.58497000  0.41533000  1.0
  H  H19  1  0.20493000  0.29544000  0.62736000  1.0
  H  H20  1  0.79363000  0.70344000  0.37166000  1.0
  H  H21  1  0.49789000  0.21678000  0.17079000  1.0
  H  H22  1  0.50118000  0.78158000  0.82807000  1.0
  H  H23  1  0.60110000  0.15867000  0.06718000  1.0
  H  H24  1  0.39823000  0.84071000  0.93151000  1.0
  H  H25  1  0.67814000  0.35084000  0.17786000  1.0
  H  H26  1  0.32049000  0.64833000  0.82112000  1.0
  H  H27  1  0.72331000  0.24933000  0.37451000  1.0
  H  H28  1  0.27486000  0.74822000  0.62402000  1.0
  H  H29  1  0.93417000  0.10817000  0.56481000  1.0
  H  H30  1  0.06434000  0.89053000  0.43405000  1.0
  C  C31  1  0.21581000  0.03833000  0.32247000  1.0
  C  C32  1  0.78407000  0.96240000  0.67808000  1.0
  C  C33  1  0.36331000  0.02030000  0.41459000  1.0
  C  C34  1  0.63627000  0.97994000  0.58567000  1.0
  C  C35  1  0.45982000  0.97237000  0.35347000  1.0
  C  C36  1  0.53972000  0.02780000  0.64674000  1.0
  C  C37  1  0.40475000  0.04814000  0.56201000  1.0
  C  C38  1  0.59468000  0.95183000  0.43816000  1.0
  C  C39  1  0.99518000  0.30751000  0.17293000  1.0
  C  C40  1  0.00711000  0.69483000  0.82995000  1.0
  C  C41  1  0.99939000  0.40748000  0.08486000  1.0
  C  C42  1  0.00311000  0.59465000  0.91787000  1.0
  C  C43  1  0.91181000  0.34643000  0.93512000  1.0
  C  C44  1  0.09072000  0.65566000  0.06759000  1.0
  C  C45  1  0.08883000  0.56292000  0.15085000  1.0
  C  C46  1  0.91379000  0.43921000  0.85188000  1.0
  C  C47  1  0.74321000  0.80021000  0.09400000  1.0
  C  C48  1  0.25681000  0.19914000  0.90480000  1.0
  C  C49  1  0.61730000  0.64508000  0.04488000  1.0
  C  C50  1  0.38258000  0.35434000  0.95337000  1.0
  C  C51  1  0.60931000  0.52862000  0.93586000  1.0
  C  C52  1  0.39048000  0.47082000  0.06226000  1.0
  C  C53  1  0.50650000  0.61496000  0.10744000  1.0
  C  C54  1  0.49331000  0.38444000  0.89072000  1.0
  C  C55  1  0.09700000  0.31898000  0.62312000  1.0
  C  C56  1  0.90152000  0.67971000  0.37617000  1.0
  C  C57  1  0.61697000  0.23381000  0.16883000  1.0
  C  C58  1  0.38216000  0.76518000  0.82997000  1.0
  O  O59  1  0.10587000  0.03364000  0.37147000  1.0
  O  O60  1  0.89318000  0.96566000  0.62831000  1.0
  O  O61  1  0.20500000  0.05528000  0.20379000  1.0
  O  O62  1  0.79556000  0.94721000  0.79747000  1.0
  O  O63  1  0.92103000  0.16244000  0.10596000  1.0
  O  O64  1  0.08105000  0.83967000  0.89660000  1.0
  O  O65  1  0.05410000  0.35940000  0.30856000  1.0
  O  O66  1  0.94781000  0.64259000  0.69414000  1.0
  O  O67  1  0.84090000  0.82273000  0.03441000  1.0
  O  O68  1  0.15973000  0.17698000  0.96495000  1.0
  O  O69  1  0.74299000  0.89990000  0.19488000  1.0
  O  O70  1  0.25676000  0.09927000  0.80389000  1.0
  O  O71  1  0.71413000  0.19399000  0.28141000  1.0
  O  O72  1  0.28554000  0.80514000  0.71718000  1.0
  O  O73  1  0.95073000  0.19196000  0.52373000  1.0
  O  O74  1  0.04785000  0.80679000  0.47518000  1.0
