# generated using pymatgen
data_ZnH5C8NO4
_symmetry_space_group_name_H-M   'P 1'
_cell_length_a   8.52522000
_cell_length_b   8.52519000
_cell_length_c   14.92260000
_cell_angle_alpha   96.70010000
_cell_angle_beta   96.70000000
_cell_angle_gamma   116.81800000
_symmetry_Int_Tables_number   1
_chemical_formula_structural   ZnH5C8NO4
_chemical_formula_sum   'Zn4 H20 C32 N4 O16'
_cell_volume   943.59926463
_cell_formula_units_Z   4
loop_
 _symmetry_equiv_pos_site_id
 _symmetry_equiv_pos_as_xyz
  1  'x, y, z'
loop_
 _atom_site_type_symbol
 _atom_site_label
 _atom_site_symmetry_multiplicity
 _atom_site_fract_x
 _atom_site_fract_y
 _atom_site_fract_z
 _atom_site_occupancy
  Zn  Zn0  1  0.08312000  0.42953000  0.06587000  1.0
  Zn  Zn1  1  0.57047000  0.91688000  0.43413000  1.0
  Zn  Zn2  1  0.91688000  0.57047000  0.93413000  1.0
  Zn  Zn3  1  0.42953000  0.08313000  0.56587000  1.0
  H  H4  1  0.01312000  0.71405000  0.32359000  1.0
  H  H5  1  0.28596000  0.98688000  0.17641000  1.0
  H  H6  1  0.98688000  0.28595000  0.67640000  1.0
  H  H7  1  0.71404000  0.01312000  0.82360000  1.0
  H  H8  1  0.87570000  0.82256000  0.44032000  1.0
  H  H9  1  0.17744000  0.12431000  0.05968000  1.0
  H  H10  1  0.12431000  0.17744000  0.55968000  1.0
  H  H11  1  0.82256000  0.87569000  0.94032000  1.0
  H  H12  1  0.48978000  0.80412000  0.23560000  1.0
  H  H13  1  0.19588000  0.51022000  0.26440000  1.0
  H  H14  1  0.51022000  0.19588000  0.76440000  1.0
  H  H15  1  0.80412000  0.48978000  0.73560000  1.0
  H  H16  1  0.61202000  0.69696000  0.11223000  1.0
  H  H17  1  0.30304000  0.38798000  0.38777000  1.0
  H  H18  1  0.38798000  0.30304000  0.88777000  1.0
  H  H19  1  0.69696000  0.61202000  0.61223000  1.0
  H  H20  1  0.40865000  0.03758000  0.91600000  1.0
  H  H21  1  0.96243000  0.59135000  0.58400000  1.0
  H  H22  1  0.59135000  0.96243000  0.08400000  1.0
  H  H23  1  0.03757000  0.40865000  0.41600000  1.0
  C  C24  1  0.90028000  0.63627000  0.13499000  1.0
  C  C25  1  0.36373000  0.09972000  0.36501000  1.0
  C  C26  1  0.09972000  0.36373000  0.86501000  1.0
  C  C27  1  0.63627000  0.90028000  0.63499000  1.0
  C  C28  1  0.82413000  0.69978000  0.20881000  1.0
  C  C29  1  0.30021000  0.17587000  0.29119000  1.0
  C  C30  1  0.17587000  0.30021000  0.79119000  1.0
  C  C31  1  0.69979000  0.82413000  0.70881000  1.0
  C  C32  1  0.89766000  0.73343000  0.30217000  1.0
  C  C33  1  0.26657000  0.10234000  0.19783000  1.0
  C  C34  1  0.10234000  0.26657000  0.69783000  1.0
  C  C35  1  0.73343000  0.89766000  0.80217000  1.0
  C  C36  1  0.82194000  0.79324000  0.36684000  1.0
  C  C37  1  0.20676000  0.17806000  0.13316000  1.0
  C  C38  1  0.17806000  0.20676000  0.63316000  1.0
  C  C39  1  0.79323000  0.82194000  0.86684000  1.0
  C  C40  1  0.60561000  0.78280000  0.25234000  1.0
  C  C41  1  0.21720000  0.39439000  0.24766000  1.0
  C  C42  1  0.39439000  0.21720000  0.74766000  1.0
  C  C43  1  0.78280000  0.60561000  0.75234000  1.0
  C  C44  1  0.67485000  0.72440000  0.18394000  1.0
  C  C45  1  0.27560000  0.32516000  0.31606000  1.0
  C  C46  1  0.32515000  0.27560000  0.81606000  1.0
  C  C47  1  0.72440000  0.67484000  0.68394000  1.0
  C  C48  1  0.69415000  0.21406000  0.97794000  1.0
  C  C49  1  0.78594000  0.30586000  0.52206000  1.0
  C  C50  1  0.30585000  0.78594000  0.02206000  1.0
  C  C51  1  0.21406000  0.69415000  0.47794000  1.0
  C  C52  1  0.51600000  0.05652000  0.97053000  1.0
  C  C53  1  0.94348000  0.48400000  0.52947000  1.0
  C  C54  1  0.48400000  0.94348000  0.02947000  1.0
  C  C55  1  0.05652000  0.51600000  0.47053000  1.0
  N  N56  1  0.67829000  0.81763000  0.34222000  1.0
  N  N57  1  0.18237000  0.32171000  0.15778000  1.0
  N  N58  1  0.32171000  0.18237000  0.65778000  1.0
  N  N59  1  0.81763000  0.67829000  0.84222000  1.0
  O  O60  1  0.99508000  0.56303000  0.15887000  1.0
  O  O61  1  0.43697000  0.00492000  0.34113000  1.0
  O  O62  1  0.00492000  0.43697000  0.84113000  1.0
  O  O63  1  0.56303000  0.99508000  0.65887000  1.0
  O  O64  1  0.86028000  0.66112000  0.05497000  1.0
  O  O65  1  0.33889000  0.13973000  0.44503000  1.0
  O  O66  1  0.13972000  0.33888000  0.94503000  1.0
  O  O67  1  0.66112000  0.86028000  0.55497000  1.0
  O  O68  1  0.82603000  0.22413000  0.03243000  1.0
  O  O69  1  0.77586000  0.17397000  0.46757000  1.0
  O  O70  1  0.17397000  0.77586000  0.96757000  1.0
  O  O71  1  0.22414000  0.82603000  0.53243000  1.0
  O  O72  1  0.69795000  0.32745000  0.92821000  1.0
  O  O73  1  0.67255000  0.30205000  0.57179000  1.0
  O  O74  1  0.30205000  0.67255000  0.07179000  1.0
  O  O75  1  0.32745000  0.69795000  0.42821000  1.0
