# generated using pymatgen
data_TbH13C19O8
_symmetry_space_group_name_H-M   'P 1'
_cell_length_a   13.50940000
_cell_length_b   13.82250000
_cell_length_c   16.03570732
_cell_angle_alpha   64.46396845
_cell_angle_beta   81.59336186
_cell_angle_gamma   90.01770000
_symmetry_Int_Tables_number   1
_chemical_formula_structural   TbH13C19O8
_chemical_formula_sum   'Tb4 H52 C76 O32'
_cell_volume   2666.12936019
_cell_formula_units_Z   4
loop_
 _symmetry_equiv_pos_site_id
 _symmetry_equiv_pos_as_xyz
  1  'x, y, z'
loop_
 _atom_site_type_symbol
 _atom_site_label
 _atom_site_symmetry_multiplicity
 _atom_site_fract_x
 _atom_site_fract_y
 _atom_site_fract_z
 _atom_site_occupancy
  Tb  Tb0  1  0.54014000  0.61138000  0.37228000  1.0
  Tb  Tb1  1  0.95970000  0.98353000  0.62754000  1.0
  Tb  Tb2  1  0.45988000  0.38862000  0.62772000  1.0
  Tb  Tb3  1  0.04029000  0.01647000  0.37247000  1.0
  H  H4  1  0.29860000  0.81852000  0.46001000  1.0
  H  H5  1  0.20174000  0.27879000  0.54024000  1.0
  H  H6  1  0.70141000  0.18146000  0.53999000  1.0
  H  H7  1  0.79827000  0.72120000  0.45976000  1.0
  H  H8  1  0.42927000  0.60474000  0.69676000  1.0
  H  H9  1  0.07109000  0.30136000  0.30356000  1.0
  H  H10  1  0.57074000  0.39525000  0.30324000  1.0
  H  H11  1  0.92891000  0.69865000  0.69643000  1.0
  H  H12  1  0.21377000  0.82356000  0.72659000  1.0
  H  H13  1  0.28579000  0.55083000  0.27379000  1.0
  H  H14  1  0.78624000  0.17645000  0.27339000  1.0
  H  H15  1  0.71420000  0.44918000  0.72623000  1.0
  H  H16  1  0.35448000  0.50904000  0.85656000  1.0
  H  H17  1  0.14513000  0.36577000  0.14378000  1.0
  H  H18  1  0.64550000  0.49096000  0.14345000  1.0
  H  H19  1  0.85489000  0.63423000  0.85623000  1.0
  H  H20  1  0.39573000  0.46262000  0.01352000  1.0
  H  H21  1  0.10403000  0.47619000  0.98673000  1.0
  H  H22  1  0.60425000  0.53738000  0.98649000  1.0
  H  H23  1  0.89597000  0.52381000  0.01328000  1.0
  H  H24  1  0.44699000  0.52204000  0.12900000  1.0
  H  H25  1  0.05261000  0.65089000  0.87112000  1.0
  H  H26  1  0.55299000  0.47794000  0.87102000  1.0
  H  H27  1  0.94739000  0.34909000  0.12888000  1.0
  H  H28  1  0.43558000  0.85349000  0.07634000  1.0
  H  H29  1  0.06330000  0.92974000  0.92370000  1.0
  H  H30  1  0.56445000  0.14651000  0.92366000  1.0
  H  H31  1  0.93666000  0.07025000  0.07630000  1.0
  H  H32  1  0.37066000  0.89668000  0.92695000  1.0
  H  H33  1  0.12801000  0.82387000  0.07322000  1.0
  H  H34  1  0.62937000  0.10334000  0.07304000  1.0
  H  H35  1  0.87194000  0.17614000  0.92679000  1.0
  H  H36  1  0.33480000  0.84058000  0.80727000  1.0
  H  H37  1  0.16441000  0.64829000  0.19283000  1.0
  H  H38  1  0.66522000  0.15945000  0.19272000  1.0
  H  H39  1  0.83557000  0.35172000  0.80716000  1.0
  H  H40  1  0.71453000  0.78826000  0.27869000  1.0
  H  H41  1  0.78532000  0.06722000  0.72089000  1.0
  H  H42  1  0.28547000  0.21172000  0.72132000  1.0
  H  H43  1  0.21470000  0.93280000  0.27909000  1.0
  H  H44  1  0.61245000  0.81366000  0.23976000  1.0
  H  H45  1  0.88706000  0.05296000  0.76041000  1.0
  H  H46  1  0.38755000  0.18635000  0.76024000  1.0
  H  H47  1  0.11297000  0.94704000  0.23958000  1.0
  H  H48  1  0.73996000  0.56283000  0.35738000  1.0
  H  H49  1  0.75990000  0.92040000  0.64238000  1.0
  H  H50  1  0.26004000  0.43717000  0.64262000  1.0
  H  H51  1  0.24012000  0.07961000  0.35760000  1.0
  H  H52  1  0.70852000  0.51704000  0.29010000  1.0
  H  H53  1  0.79160000  0.80728000  0.70939000  1.0
  H  H54  1  0.29148000  0.48295000  0.70991000  1.0
  H  H55  1  0.20840000  0.19273000  0.29061000  1.0
  C  C56  1  0.24812000  0.82852000  0.58989000  1.0
  C  C57  1  0.25187000  0.41871000  0.41037000  1.0
  C  C58  1  0.75188000  0.17148000  0.41010000  1.0
  C  C59  1  0.74813000  0.58129000  0.58964000  1.0
  C  C60  1  0.30446000  0.78758000  0.53388000  1.0
  C  C61  1  0.19580000  0.32157000  0.46639000  1.0
  C  C62  1  0.69554000  0.21239000  0.46613000  1.0
  C  C63  1  0.80421000  0.67843000  0.53361000  1.0
  C  C64  1  0.36808000  0.70608000  0.57306000  1.0
  C  C65  1  0.13219000  0.27911000  0.42730000  1.0
  C  C66  1  0.63194000  0.29391000  0.42694000  1.0
  C  C67  1  0.86781000  0.72089000  0.57270000  1.0
  C  C68  1  0.37658000  0.66592000  0.66814000  1.0
  C  C69  1  0.12358000  0.33411000  0.33222000  1.0
  C  C70  1  0.62343000  0.33408000  0.33186000  1.0
  C  C71  1  0.87643000  0.66590000  0.66777000  1.0
  C  C72  1  0.32348000  0.71011000  0.72416000  1.0
  C  C73  1  0.17633000  0.43461000  0.27615000  1.0
  C  C74  1  0.67654000  0.28991000  0.27583000  1.0
  C  C75  1  0.82368000  0.56540000  0.72384000  1.0
  C  C76  1  0.25810000  0.79015000  0.68423000  1.0
  C  C77  1  0.24164000  0.47488000  0.31608000  1.0
  C  C78  1  0.74191000  0.20986000  0.31576000  1.0
  C  C79  1  0.75837000  0.52512000  0.68392000  1.0
  C  C80  1  0.17645000  0.91253000  0.54929000  1.0
  C  C81  1  0.32348000  0.46202000  0.45110000  1.0
  C  C82  1  0.82354000  0.08748000  0.45070000  1.0
  C  C83  1  0.67653000  0.53797000  0.54891000  1.0
  C  C84  1  0.43003000  0.66800000  0.51004000  1.0
  C  C85  1  0.07025000  0.17793000  0.49041000  1.0
  C  C86  1  0.56999000  0.33200000  0.48995000  1.0
  C  C87  1  0.92975000  0.82208000  0.50956000  1.0
  C  C88  1  0.34168000  0.67908000  0.82081000  1.0
  C  C89  1  0.15785000  0.50016000  0.17949000  1.0
  C  C90  1  0.65832000  0.32092000  0.17919000  1.0
  C  C91  1  0.84213000  0.49984000  0.82051000  1.0
  C  C92  1  0.35907000  0.57144000  0.88060000  1.0
  C  C93  1  0.14060000  0.45223000  0.11969000  1.0
  C  C94  1  0.64092000  0.42855000  0.11941000  1.0
  C  C95  1  0.85939000  0.54777000  0.88031000  1.0
  C  C96  1  0.38292000  0.54540000  0.96801000  1.0
  C  C97  1  0.11680000  0.51354000  0.03222000  1.0
  C  C98  1  0.61706000  0.45461000  0.03199000  1.0
  C  C99  1  0.88319000  0.48646000  0.96779000  1.0
  C  C100  1  0.39469000  0.62560000  0.99950000  1.0
  C  C101  1  0.10484000  0.62519000  0.00066000  1.0
  C  C102  1  0.60531000  0.37441000  0.00050000  1.0
  C  C103  1  0.89515000  0.37480000  0.99934000  1.0
  C  C104  1  0.43008000  0.60358000  0.08425000  1.0
  C  C105  1  0.06948000  0.68776000  0.91584000  1.0
  C  C106  1  0.56992000  0.39642000  0.91575000  1.0
  C  C107  1  0.93052000  0.31224000  0.08415000  1.0
  C  C108  1  0.44688000  0.68513000  0.10989000  1.0
  C  C109  1  0.05246000  0.79490000  0.89013000  1.0
  C  C110  1  0.55310000  0.31485000  0.89013000  1.0
  C  C111  1  0.94751000  0.20508000  0.10988000  1.0
  C  C112  1  0.42349000  0.79155000  0.05327000  1.0
  C  C113  1  0.07563000  0.84482000  0.94674000  1.0
  C  C114  1  0.57652000  0.20844000  0.94674000  1.0
  C  C115  1  0.92433000  0.15517000  0.05327000  1.0
  C  C116  1  0.38801000  0.81496000  0.97104000  1.0
  C  C117  1  0.11095000  0.78615000  0.02909000  1.0
  C  C118  1  0.61202000  0.18506000  0.02895000  1.0
  C  C119  1  0.88901000  0.21386000  0.97092000  1.0
  C  C120  1  0.37498000  0.73391000  0.94061000  1.0
  C  C121  1  0.12426000  0.67469000  0.05956000  1.0
  C  C122  1  0.62503000  0.26611000  0.05938000  1.0
  C  C123  1  0.87572000  0.32531000  0.94045000  1.0
  C  C124  1  0.34725000  0.75749000  0.85262000  1.0
  C  C125  1  0.15208000  0.61040000  0.14755000  1.0
  C  C126  1  0.65275000  0.24251000  0.14738000  1.0
  C  C127  1  0.84789000  0.38960000  0.85245000  1.0
  C  C128  1  0.49139000  0.66248000  0.19552000  1.0
  C  C129  1  0.00802000  0.85764000  0.80439000  1.0
  C  C130  1  0.50858000  0.33752000  0.80449000  1.0
  C  C131  1  0.99198000  0.14237000  0.19560000  1.0
  O  O132  1  0.12583000  0.94571000  0.60343000  1.0
  O  O133  1  0.37393000  0.54955000  0.39715000  1.0
  O  O134  1  0.87416000  0.05430000  0.39657000  1.0
  O  O135  1  0.62608000  0.45044000  0.60286000  1.0
  O  O136  1  0.64263000  0.78792000  0.29702000  1.0
  O  O137  1  0.85731000  0.08469000  0.70292000  1.0
  O  O138  1  0.35737000  0.21208000  0.70298000  1.0
  O  O139  1  0.14271000  0.91532000  0.29707000  1.0
  O  O140  1  0.17054000  0.94467000  0.46236000  1.0
  O  O141  1  0.32954000  0.40693000  0.53796000  1.0
  O  O142  1  0.82944000  0.05534000  0.53763000  1.0
  O  O143  1  0.67047000  0.59305000  0.46204000  1.0
  O  O144  1  0.71061000  0.58163000  0.30034000  1.0
  O  O145  1  0.78939000  0.88205000  0.69931000  1.0
  O  O146  1  0.28940000  0.41838000  0.69965000  1.0
  O  O147  1  0.21060000  0.11797000  0.30068000  1.0
  O  O148  1  0.45086000  0.72951000  0.42339000  1.0
  O  O149  1  0.04936000  0.15269000  0.57707000  1.0
  O  O150  1  0.54916000  0.27048000  0.57660000  1.0
  O  O151  1  0.95064000  0.84730000  0.42291000  1.0
  O  O152  1  0.46245000  0.57306000  0.54420000  1.0
  O  O153  1  0.03783000  0.11711000  0.45626000  1.0
  O  O154  1  0.53757000  0.42693000  0.45581000  1.0
  O  O155  1  0.96218000  0.88291000  0.54371000  1.0
  O  O156  1  0.49874000  0.73723000  0.22232000  1.0
  O  O157  1  0.00080000  0.95923000  0.77737000  1.0
  O  O158  1  0.50124000  0.26278000  0.77769000  1.0
  O  O159  1  0.99921000  0.04077000  0.22263000  1.0
  O  O160  1  0.52105000  0.56943000  0.24253000  1.0
  O  O161  1  0.97839000  0.81149000  0.75746000  1.0
  O  O162  1  0.47895000  0.43057000  0.75749000  1.0
  O  O163  1  0.02160000  0.18850000  0.24254000  1.0
