# generated using pymatgen
data_ZnH11C13(N2O)3
_symmetry_space_group_name_H-M   'P 1'
_cell_length_a   6.87588000
_cell_length_b   13.41420000
_cell_length_c   15.30790000
_cell_angle_alpha   90.00000000
_cell_angle_beta   90.00000000
_cell_angle_gamma   91.38420000
_symmetry_Int_Tables_number   1
_chemical_formula_structural   ZnH11C13(N2O)3
_chemical_formula_sum   'Zn4 H44 C52 N24 O12'
_cell_volume   1411.50341116
_cell_formula_units_Z   4
loop_
 _symmetry_equiv_pos_site_id
 _symmetry_equiv_pos_as_xyz
  1  'x, y, z'
loop_
 _atom_site_type_symbol
 _atom_site_label
 _atom_site_symmetry_multiplicity
 _atom_site_fract_x
 _atom_site_fract_y
 _atom_site_fract_z
 _atom_site_occupancy
  Zn  Zn0  1  0.58390000  0.75363000  0.02419000  1.0
  Zn  Zn1  1  0.91609000  0.74637000  0.52419000  1.0
  Zn  Zn2  1  0.41610000  0.24637000  0.97581000  1.0
  Zn  Zn3  1  0.08390000  0.25363000  0.47581000  1.0
  H  H4  1  0.25632000  0.83726000  0.97342000  1.0
  H  H5  1  0.24368000  0.66274000  0.47342000  1.0
  H  H6  1  0.74368000  0.16274000  0.02658000  1.0
  H  H7  1  0.75632000  0.33726000  0.52658000  1.0
  H  H8  1  0.18302000  0.73238000  0.01612000  1.0
  H  H9  1  0.31698000  0.76763000  0.51612000  1.0
  H  H10  1  0.81698000  0.26762000  0.98388000  1.0
  H  H11  1  0.68302000  0.23238000  0.48388000  1.0
  H  H12  1  0.47561000  0.54538000  0.06934000  1.0
  H  H13  1  0.02438000  0.95462000  0.56934000  1.0
  H  H14  1  0.52438000  0.45461000  0.93066000  1.0
  H  H15  1  0.97561000  0.04538000  0.43066000  1.0
  H  H16  1  0.35870000  0.44416000  0.19491000  1.0
  H  H17  1  0.14130000  0.05584000  0.69491000  1.0
  H  H18  1  0.64129000  0.55584000  0.80509000  1.0
  H  H19  1  0.85870000  0.94416000  0.30509000  1.0
  H  H20  1  0.40144000  0.71131000  0.35306000  1.0
  H  H21  1  0.09857000  0.78869000  0.85306000  1.0
  H  H22  1  0.59856000  0.28869000  0.64694000  1.0
  H  H23  1  0.90144000  0.21131000  0.14694000  1.0
  H  H24  1  0.52075000  0.80177000  0.22056000  1.0
  H  H25  1  0.97925000  0.69823000  0.72057000  1.0
  H  H26  1  0.47925000  0.19823000  0.77943000  1.0
  H  H27  1  0.02075000  0.30177000  0.27944000  1.0
  H  H28  1  0.25566000  0.59593000  0.62696000  1.0
  H  H29  1  0.24434000  0.90407000  0.12696000  1.0
  H  H30  1  0.74434000  0.40407000  0.37304000  1.0
  H  H31  1  0.75566000  0.09593000  0.87304000  1.0
  H  H32  1  0.07619000  0.39062000  0.81658000  1.0
  H  H33  1  0.42381000  0.10938000  0.31657000  1.0
  H  H34  1  0.92380000  0.60938000  0.18343000  1.0
  H  H35  1  0.57619000  0.89062000  0.68343000  1.0
  H  H36  1  0.04799000  0.25676000  0.70146000  1.0
  H  H37  1  0.45201000  0.24324000  0.20146000  1.0
  H  H38  1  0.95201000  0.74324000  0.29853000  1.0
  H  H39  1  0.54799000  0.75676000  0.79853000  1.0
  H  H40  1  0.13696000  0.56081000  0.93889000  1.0
  H  H41  1  0.36305000  0.93919000  0.43889000  1.0
  H  H42  1  0.86304000  0.43918000  0.06110000  1.0
  H  H43  1  0.63695000  0.06081000  0.56111000  1.0
  H  H44  1  0.91418000  0.50081000  0.90703000  1.0
  H  H45  1  0.58582000  0.99919000  0.40703000  1.0
  H  H46  1  0.08582000  0.49919000  0.09297000  1.0
  H  H47  1  0.41418000  0.00081000  0.59297000  1.0
  C  C48  1  0.45664000  0.57958000  0.13323000  1.0
  C  C49  1  0.04335000  0.92042000  0.63324000  1.0
  C  C50  1  0.54335000  0.42042000  0.86677000  1.0
  C  C51  1  0.95665000  0.07958000  0.36677000  1.0
  C  C52  1  0.39145000  0.52326000  0.20351000  1.0
  C  C53  1  0.10854000  0.97674000  0.70351000  1.0
  C  C54  1  0.60854000  0.47674000  0.79649000  1.0
  C  C55  1  0.89147000  0.02326000  0.29649000  1.0
  C  C56  1  0.37048000  0.56916000  0.28532000  1.0
  C  C57  1  0.12952000  0.93084000  0.78533000  1.0
  C  C58  1  0.62951000  0.43084000  0.71468000  1.0
  C  C59  1  0.87048000  0.06916000  0.21468000  1.0
  C  C60  1  0.41567000  0.67153000  0.29147000  1.0
  C  C61  1  0.08433000  0.82847000  0.79148000  1.0
  C  C62  1  0.58432000  0.32847000  0.70853000  1.0
  C  C63  1  0.91567000  0.17153000  0.20853000  1.0
  C  C64  1  0.48044000  0.72266000  0.21762000  1.0
  C  C65  1  0.01957000  0.77734000  0.71762000  1.0
  C  C66  1  0.51956000  0.27734000  0.78238000  1.0
  C  C67  1  0.98044000  0.22266000  0.28238000  1.0
  C  C68  1  0.30581000  0.50975000  0.35987000  1.0
  C  C69  1  0.19420000  0.99025000  0.85987000  1.0
  C  C70  1  0.69419000  0.49025000  0.64013000  1.0
  C  C71  1  0.80581000  0.00975000  0.14013000  1.0
  C  C72  1  0.22837000  0.46067000  0.48678000  1.0
  C  C73  1  0.27163000  0.03933000  0.98678000  1.0
  C  C74  1  0.77163000  0.53933000  0.51322000  1.0
  C  C75  1  0.72838000  0.96067000  0.01322000  1.0
  C  C76  1  0.19003000  0.44622000  0.57959000  1.0
  C  C77  1  0.30997000  0.05378000  0.07959000  1.0
  C  C78  1  0.80997000  0.55378000  0.42041000  1.0
  C  C79  1  0.69003000  0.94622000  0.92041000  1.0
  C  C80  1  0.20767000  0.52020000  0.64403000  1.0
  C  C81  1  0.29233000  0.97980000  0.14403000  1.0
  C  C82  1  0.79233000  0.47980000  0.35597000  1.0
  C  C83  1  0.70768000  0.02020000  0.85597000  1.0
  C  C84  1  0.10946000  0.40774000  0.74839000  1.0
  C  C85  1  0.39054000  0.09226000  0.24839000  1.0
  C  C86  1  0.89055000  0.59226000  0.25161000  1.0
  C  C87  1  0.60946000  0.90774000  0.75161000  1.0
  C  C88  1  0.09346000  0.33299000  0.68493000  1.0
  C  C89  1  0.40653000  0.16701000  0.18493000  1.0
  C  C90  1  0.90654000  0.66701000  0.31507000  1.0
  C  C91  1  0.59347000  0.83299000  0.81507000  1.0
  C  C92  1  0.88260000  0.62765000  0.99148000  1.0
  C  C93  1  0.61739000  0.87235000  0.49149000  1.0
  C  C94  1  0.11740000  0.37235000  0.00851000  1.0
  C  C95  1  0.38261000  0.12765000  0.50851000  1.0
  C  C96  1  0.99127000  0.53683000  0.96154000  1.0
  C  C97  1  0.50873000  0.96317000  0.46154000  1.0
  C  C98  1  0.00873000  0.46317000  0.03846000  1.0
  C  C99  1  0.49127000  0.03684000  0.53846000  1.0
  N  N100  1  0.50174000  0.67774000  0.13948000  1.0
  N  N101  1  0.99826000  0.82226000  0.63949000  1.0
  N  N102  1  0.49826000  0.32226000  0.86052000  1.0
  N  N103  1  0.00174000  0.17774000  0.36052000  1.0
  N  N104  1  0.29174000  0.54301000  0.44397000  1.0
  N  N105  1  0.20826000  0.95699000  0.94397000  1.0
  N  N106  1  0.70826000  0.45699000  0.55603000  1.0
  N  N107  1  0.79174000  0.04301000  0.05603000  1.0
  N  N108  1  0.20276000  0.38256000  0.43169000  1.0
  N  N109  1  0.29724000  0.11744000  0.93169000  1.0
  N  N110  1  0.79723000  0.61744000  0.56831000  1.0
  N  N111  1  0.70277000  0.88256000  0.06831000  1.0
  N  N112  1  0.25287000  0.41265000  0.35087000  1.0
  N  N113  1  0.24713000  0.08735000  0.85087000  1.0
  N  N114  1  0.74712000  0.58735000  0.64913000  1.0
  N  N115  1  0.75288000  0.91265000  0.14913000  1.0
  N  N116  1  0.13219000  0.35235000  0.60127000  1.0
  N  N117  1  0.36781000  0.14765000  0.10127000  1.0
  N  N118  1  0.86782000  0.64765000  0.39873000  1.0
  N  N119  1  0.63218000  0.85235000  0.89873000  1.0
  N  N120  1  0.16593000  0.50127000  0.72798000  1.0
  N  N121  1  0.33407000  0.99873000  0.22798000  1.0
  N  N122  1  0.83407000  0.49873000  0.27202000  1.0
  N  N123  1  0.66594000  0.00127000  0.77202000  1.0
  O  O124  1  0.96580000  0.68997000  0.04186000  1.0
  O  O125  1  0.53420000  0.81003000  0.54187000  1.0
  O  O126  1  0.03420000  0.31003000  0.95813000  1.0
  O  O127  1  0.46580000  0.18997000  0.45813000  1.0
  O  O128  1  0.70411000  0.63482000  0.96675000  1.0
  O  O129  1  0.79589000  0.86518000  0.46676000  1.0
  O  O130  1  0.29590000  0.36518000  0.03325000  1.0
  O  O131  1  0.20411000  0.13482000  0.53325000  1.0
  O  O132  1  0.29786000  0.76732000  0.98775000  1.0
  O  O133  1  0.20213000  0.73268000  0.48775000  1.0
  O  O134  1  0.70213000  0.23267000  0.01225000  1.0
  O  O135  1  0.79787000  0.26732000  0.51225000  1.0
