# generated using pymatgen
data_CdH16C18S2(NO2)4
_symmetry_space_group_name_H-M   'P 1'
_cell_length_a   7.47231000
_cell_length_b   7.71518000
_cell_length_c   10.52420000
_cell_angle_alpha   103.35400000
_cell_angle_beta   96.61220000
_cell_angle_gamma   110.68900000
_symmetry_Int_Tables_number   1
_chemical_formula_structural   CdH16C18S2(NO2)4
_chemical_formula_sum   'Cd1 H16 C18 S2 N4 O8'
_cell_volume   539.19343526
_cell_formula_units_Z   1
loop_
 _symmetry_equiv_pos_site_id
 _symmetry_equiv_pos_as_xyz
  1  'x, y, z'
loop_
 _atom_site_type_symbol
 _atom_site_label
 _atom_site_symmetry_multiplicity
 _atom_site_fract_x
 _atom_site_fract_y
 _atom_site_fract_z
 _atom_site_occupancy
  Cd  Cd0  1  0.00000000  0.00000000  0.00000000  1.0
  H  H1  1  0.69695000  0.13531000  0.56754000  1.0
  H  H2  1  0.30305000  0.86469000  0.43246000  1.0
  H  H3  1  0.63091000  0.08127000  0.32067000  1.0
  H  H4  1  0.36909000  0.91873000  0.67933000  1.0
  H  H5  1  0.65682000  0.35493000  0.22713000  1.0
  H  H6  1  0.34318000  0.64507000  0.77287000  1.0
  H  H7  1  0.75289000  0.68880000  0.37753000  1.0
  H  H8  1  0.24711000  0.31120000  0.62247000  1.0
  H  H9  1  0.59039000  0.74782000  0.05556000  1.0
  H  H10  1  0.40961000  0.25218000  0.94445000  1.0
  H  H11  1  0.24781000  0.73663000  0.04744000  1.0
  H  H12  1  0.75219000  0.26337000  0.95256000  1.0
  H  H13  1  0.95140000  0.67386000  0.12435000  1.0
  H  H14  1  0.04861000  0.32614000  0.87565000  1.0
  H  H15  1  0.99989000  0.88064000  0.22452000  1.0
  H  H16  1  0.00011000  0.11936000  0.77548000  1.0
  C  C17  1  0.75426000  0.44156000  0.60675000  1.0
  C  C18  1  0.24573000  0.55844000  0.39325000  1.0
  C  C19  1  0.70427000  0.25427000  0.52629000  1.0
  C  C20  1  0.29572000  0.74573000  0.47371000  1.0
  C  C21  1  0.66925000  0.22584000  0.38780000  1.0
  C  C22  1  0.33075000  0.77417000  0.61220000  1.0
  C  C23  1  0.68466000  0.37995000  0.33484000  1.0
  C  C24  1  0.31534000  0.62005000  0.66516000  1.0
  C  C25  1  0.73832000  0.56809000  0.41822000  1.0
  C  C26  1  0.26168000  0.43191000  0.58178000  1.0
  C  C27  1  0.77334000  0.59753000  0.55574000  1.0
  C  C28  1  0.22666000  0.40247000  0.44426000  1.0
  C  C29  1  0.83722000  0.78385000  0.66462000  1.0
  C  C30  1  0.16278000  0.21614000  0.33538000  1.0
  C  C31  1  0.54951000  0.86006000  0.03060000  1.0
  C  C32  1  0.45049000  0.13994000  0.96940000  1.0
  C  C33  1  0.36073000  0.85489000  0.02681000  1.0
  C  C34  1  0.63927000  0.14511000  0.97319000  1.0
  S  S35  1  0.80039000  0.53243000  0.78310000  1.0
  S  S36  1  0.19961000  0.46758000  0.21690000  1.0
  N  N37  1  0.85826000  0.75971000  0.78919000  1.0
  N  N38  1  0.14174000  0.24029000  0.21081000  1.0
  N  N39  1  0.68762000  0.00578000  0.00386000  1.0
  N  N40  1  0.31239000  0.99422000  0.99615000  1.0
  O  O41  1  0.62298000  0.45630000  0.83162000  1.0
  O  O42  1  0.37702000  0.54370000  0.16838000  1.0
  O  O43  1  0.97115000  0.51132000  0.84952000  1.0
  O  O44  1  0.02885000  0.48869000  0.15049000  1.0
  O  O45  1  0.92043000  0.78944000  0.13384000  1.0
  O  O46  1  0.07957000  0.21057000  0.86616000  1.0
  O  O47  1  0.87125000  0.94390000  0.64252000  1.0
  O  O48  1  0.12875000  0.05610000  0.35748000  1.0
