# generated using pymatgen
data_AgH5C5SN2O3
_symmetry_space_group_name_H-M   'P 1'
_cell_length_a   7.85205000
_cell_length_b   8.14797000
_cell_length_c   11.53230000
_cell_angle_alpha   89.99940000
_cell_angle_beta   89.99960000
_cell_angle_gamma   102.26500000
_symmetry_Int_Tables_number   1
_chemical_formula_structural   AgH5C5SN2O3
_chemical_formula_sum   'Ag4 H20 C20 S4 N8 O12'
_cell_volume   720.97630207
_cell_formula_units_Z   4
loop_
 _symmetry_equiv_pos_site_id
 _symmetry_equiv_pos_as_xyz
  1  'x, y, z'
loop_
 _atom_site_type_symbol
 _atom_site_label
 _atom_site_symmetry_multiplicity
 _atom_site_fract_x
 _atom_site_fract_y
 _atom_site_fract_z
 _atom_site_occupancy
  Ag  Ag0  1  0.17265000  0.07281000  0.56252000  1.0
  Ag  Ag1  1  0.32735000  0.92719000  0.06251000  1.0
  Ag  Ag2  1  0.82736000  0.92719000  0.43749000  1.0
  Ag  Ag3  1  0.67265000  0.07281000  0.93749000  1.0
  H  H4  1  0.11015000  0.01650000  0.32207000  1.0
  H  H5  1  0.38986000  0.98351000  0.82207000  1.0
  H  H6  1  0.88986000  0.98350000  0.67793000  1.0
  H  H7  1  0.61015000  0.01649000  0.17793000  1.0
  H  H8  1  0.96240000  0.06486000  0.22870000  1.0
  H  H9  1  0.53760000  0.93515000  0.72869000  1.0
  H  H10  1  0.03760000  0.93514000  0.77131000  1.0
  H  H11  1  0.46240000  0.06485000  0.27130000  1.0
  H  H12  1  0.96056000  0.35547000  0.19333000  1.0
  H  H13  1  0.53944000  0.64454000  0.69333000  1.0
  H  H14  1  0.03944000  0.64453000  0.80667000  1.0
  H  H15  1  0.46056000  0.35546000  0.30668000  1.0
  H  H16  1  0.08825000  0.65292000  0.24900000  1.0
  H  H17  1  0.41175000  0.34710000  0.74900000  1.0
  H  H18  1  0.91175000  0.34709000  0.75100000  1.0
  H  H19  1  0.58825000  0.65291000  0.25101000  1.0
  H  H20  1  0.31477000  0.46075000  0.54791000  1.0
  H  H21  1  0.18521000  0.53925000  0.04791000  1.0
  H  H22  1  0.68522000  0.53925000  0.45209000  1.0
  H  H23  1  0.81478000  0.46075000  0.95209000  1.0
  C  C24  1  0.07314000  0.25338000  0.34019000  1.0
  C  C25  1  0.42686000  0.74662000  0.84018000  1.0
  C  C26  1  0.92686000  0.74661000  0.65982000  1.0
  C  C27  1  0.57314000  0.25337000  0.15981000  1.0
  C  C28  1  0.03807000  0.38450000  0.27182000  1.0
  C  C29  1  0.46193000  0.61551000  0.77181000  1.0
  C  C30  1  0.96192000  0.61550000  0.72819000  1.0
  C  C31  1  0.53806000  0.38449000  0.22819000  1.0
  C  C32  1  0.11023000  0.54912000  0.30258000  1.0
  C  C33  1  0.38977000  0.45089000  0.80258000  1.0
  C  C34  1  0.88977000  0.45088000  0.69742000  1.0
  C  C35  1  0.61022000  0.54912000  0.19742000  1.0
  C  C36  1  0.21643000  0.57894000  0.40105000  1.0
  C  C37  1  0.28358000  0.42107000  0.90105000  1.0
  C  C38  1  0.78358000  0.42106000  0.59895000  1.0
  C  C39  1  0.71643000  0.57894000  0.09895000  1.0
  C  C40  1  0.23725000  0.44325000  0.46882000  1.0
  C  C41  1  0.26275000  0.55676000  0.96881000  1.0
  C  C42  1  0.76275000  0.55675000  0.53118000  1.0
  C  C43  1  0.73725000  0.44323000  0.03119000  1.0
  S  S44  1  0.34144000  0.78270000  0.43361000  1.0
  S  S45  1  0.15857000  0.21731000  0.93361000  1.0
  S  S46  1  0.65856000  0.21730000  0.56639000  1.0
  S  S47  1  0.84145000  0.78270000  0.06639000  1.0
  N  N48  1  0.16539000  0.28381000  0.43983000  1.0
  N  N49  1  0.33461000  0.71620000  0.93982000  1.0
  N  N50  1  0.83461000  0.71620000  0.56017000  1.0
  N  N51  1  0.66539000  0.28379000  0.06017000  1.0
  N  N52  1  0.01495000  0.08514000  0.31017000  1.0
  N  N53  1  0.48505000  0.91487000  0.81017000  1.0
  N  N54  1  0.98505000  0.91486000  0.68983000  1.0
  N  N55  1  0.51495000  0.08513000  0.18983000  1.0
  O  O56  1  0.52082000  0.77078000  0.40433000  1.0
  O  O57  1  0.97919000  0.22922000  0.90433000  1.0
  O  O58  1  0.47919000  0.22922000  0.59568000  1.0
  O  O59  1  0.02082000  0.77077000  0.09567000  1.0
  O  O60  1  0.31605000  0.81380000  0.55710000  1.0
  O  O61  1  0.18397000  0.18621000  0.05708000  1.0
  O  O62  1  0.68396000  0.18621000  0.44291000  1.0
  O  O63  1  0.81603000  0.81378000  0.94291000  1.0
  O  O64  1  0.27567000  0.89958000  0.35608000  1.0
  O  O65  1  0.22433000  0.10043000  0.85607000  1.0
  O  O66  1  0.72434000  0.10043000  0.64392000  1.0
  O  O67  1  0.77567000  0.89957000  0.14393000  1.0
