# generated using pymatgen
data_CdH7C10IN6
_symmetry_space_group_name_H-M   'P 1'
_cell_length_a   7.46882000
_cell_length_b   9.87003000
_cell_length_c   17.05870000
_cell_angle_alpha   73.40200000
_cell_angle_beta   89.99980000
_cell_angle_gamma   89.99970000
_symmetry_Int_Tables_number   1
_chemical_formula_structural   CdH7C10IN6
_chemical_formula_sum   'Cd4 H28 C40 I4 N24'
_cell_volume   1205.12649587
_cell_formula_units_Z   4
loop_
 _symmetry_equiv_pos_site_id
 _symmetry_equiv_pos_as_xyz
  1  'x, y, z'
loop_
 _atom_site_type_symbol
 _atom_site_label
 _atom_site_symmetry_multiplicity
 _atom_site_fract_x
 _atom_site_fract_y
 _atom_site_fract_z
 _atom_site_occupancy
  Cd  Cd0  1  0.81307000  0.84779000  0.08424000  1.0
  Cd  Cd1  1  0.31307000  0.65222000  0.41576000  1.0
  Cd  Cd2  1  0.18693000  0.15221000  0.91576000  1.0
  Cd  Cd3  1  0.68693000  0.34779000  0.58424000  1.0
  H  H4  1  0.04510000  0.52388000  0.62221000  1.0
  H  H5  1  0.54510000  0.97612000  0.87779000  1.0
  H  H6  1  0.95490000  0.47614000  0.37778000  1.0
  H  H7  1  0.45490000  0.02387000  0.12221000  1.0
  H  H8  1  0.01669000  0.76801000  0.63386000  1.0
  H  H9  1  0.51669000  0.73199000  0.86614000  1.0
  H  H10  1  0.98330000  0.23200000  0.36614000  1.0
  H  H11  1  0.48331000  0.26800000  0.13386000  1.0
  H  H12  1  0.92700000  0.81000000  0.76510000  1.0
  H  H13  1  0.42700000  0.69001000  0.73490000  1.0
  H  H14  1  0.07299000  0.19001000  0.23489000  1.0
  H  H15  1  0.57299000  0.30999000  0.26510000  1.0
  H  H16  1  0.88540000  0.35882000  0.87421000  1.0
  H  H17  1  0.38541000  0.14118000  0.62579000  1.0
  H  H18  1  0.11459000  0.64118000  0.12578000  1.0
  H  H19  1  0.61460000  0.85882000  0.37422000  1.0
  H  H20  1  0.97165000  0.80549000  0.90098000  1.0
  H  H21  1  0.47166000  0.69450000  0.59902000  1.0
  H  H22  1  0.02834000  0.19452000  0.09902000  1.0
  H  H23  1  0.52834000  0.30549000  0.40098000  1.0
  H  H24  1  0.68866000  0.41650000  0.95245000  1.0
  H  H25  1  0.18867000  0.08350000  0.54755000  1.0
  H  H26  1  0.31134000  0.58350000  0.04755000  1.0
  H  H27  1  0.81134000  0.91650000  0.45245000  1.0
  H  H28  1  0.65041000  0.53192000  0.08259000  1.0
  H  H29  1  0.15043000  0.96808000  0.41741000  1.0
  H  H30  1  0.34959000  0.46808000  0.91741000  1.0
  H  H31  1  0.84958000  0.03192000  0.58259000  1.0
  C  C32  1  0.97010000  0.28031000  0.74134000  1.0
  C  C33  1  0.47010000  0.21969000  0.75866000  1.0
  C  C34  1  0.02991000  0.71970000  0.25866000  1.0
  C  C35  1  0.52991000  0.78030000  0.24134000  1.0
  C  C36  1  0.96532000  0.42542000  0.74736000  1.0
  C  C37  1  0.46532000  0.07458000  0.75264000  1.0
  C  C38  1  0.03467000  0.57459000  0.25263000  1.0
  C  C39  1  0.53468000  0.92541000  0.24736000  1.0
  C  C40  1  0.00349000  0.54136000  0.67977000  1.0
  C  C41  1  0.50348000  0.95864000  0.82023000  1.0
  C  C42  1  0.99650000  0.45865000  0.32022000  1.0
  C  C43  1  0.49651000  0.04135000  0.17977000  1.0
  C  C44  1  0.99003000  0.67818000  0.68705000  1.0
  C  C45  1  0.49003000  0.82182000  0.81296000  1.0
  C  C46  1  0.00996000  0.32184000  0.31295000  1.0
  C  C47  1  0.50997000  0.17817000  0.18705000  1.0
  C  C48  1  0.93963000  0.70238000  0.76065000  1.0
  C  C49  1  0.43963000  0.79762000  0.73935000  1.0
  C  C50  1  0.06037000  0.29763000  0.23934000  1.0
  C  C51  1  0.56037000  0.20237000  0.26065000  1.0
  C  C52  1  0.90389000  0.58601000  0.82802000  1.0
  C  C53  1  0.40388000  0.91399000  0.67199000  1.0
  C  C54  1  0.09611000  0.41400000  0.17199000  1.0
  C  C55  1  0.59611000  0.08601000  0.32801000  1.0
  C  C56  1  0.91703000  0.44855000  0.82181000  1.0
  C  C57  1  0.41704000  0.05145000  0.67819000  1.0
  C  C58  1  0.08296000  0.55146000  0.17818000  1.0
  C  C59  1  0.58296000  0.94854000  0.32182000  1.0
  C  C60  1  0.88829000  0.71702000  0.93312000  1.0
  C  C61  1  0.38830000  0.78298000  0.56688000  1.0
  C  C62  1  0.11170000  0.28299000  0.06687000  1.0
  C  C63  1  0.61170000  0.21701000  0.43312000  1.0
  C  C64  1  0.74167000  0.51269000  0.96181000  1.0
  C  C65  1  0.24170000  0.98731000  0.53819000  1.0
  C  C66  1  0.25832000  0.48731000  0.03819000  1.0
  C  C67  1  0.75833000  0.01269000  0.46181000  1.0
  C  C68  1  0.72207000  0.57078000  0.02518000  1.0
  C  C69  1  0.22209000  0.92922000  0.47482000  1.0
  C  C70  1  0.27792000  0.42923000  0.97481000  1.0
  C  C71  1  0.77792000  0.07077000  0.52518000  1.0
  I  I72  1  0.74536000  0.11291000  0.98367000  1.0
  I  I73  1  0.24536000  0.38710000  0.51633000  1.0
  I  I74  1  0.25465000  0.88710000  0.01633000  1.0
  I  I75  1  0.75465000  0.61291000  0.48367000  1.0
  N  N76  1  0.02876000  0.16659000  0.80014000  1.0
  N  N77  1  0.52876000  0.33341000  0.69987000  1.0
  N  N78  1  0.97124000  0.83342000  0.19986000  1.0
  N  N79  1  0.47124000  0.66658000  0.30014000  1.0
  N  N80  1  0.00400000  0.05287000  0.77224000  1.0
  N  N81  1  0.50400000  0.44713000  0.72777000  1.0
  N  N82  1  0.99600000  0.94714000  0.22776000  1.0
  N  N83  1  0.49600000  0.55286000  0.27224000  1.0
  N  N84  1  0.93217000  0.09512000  0.69927000  1.0
  N  N85  1  0.43217000  0.40488000  0.80074000  1.0
  N  N86  1  0.06784000  0.90489000  0.30073000  1.0
  N  N87  1  0.56784000  0.59511000  0.19927000  1.0
  N  N88  1  0.90953000  0.23731000  0.67800000  1.0
  N  N89  1  0.40953000  0.26269000  0.82200000  1.0
  N  N90  1  0.09048000  0.76270000  0.32200000  1.0
  N  N91  1  0.59048000  0.73730000  0.17800000  1.0
  N  N92  1  0.84793000  0.60574000  0.90388000  1.0
  N  N93  1  0.34794000  0.89425000  0.59613000  1.0
  N  N94  1  0.15206000  0.39426000  0.09612000  1.0
  N  N95  1  0.65207000  0.10574000  0.40388000  1.0
  N  N96  1  0.81424000  0.69776000  0.00655000  1.0
  N  N97  1  0.31425000  0.80224000  0.49345000  1.0
  N  N98  1  0.18576000  0.30224000  0.99344000  1.0
  N  N99  1  0.68576000  0.19776000  0.50655000  1.0
