# generated using pymatgen
data_Zn2H18C36BrN8Cl
_symmetry_space_group_name_H-M   'P 1'
_cell_length_a   19.98970000
_cell_length_b   20.55870000
_cell_length_c   20.66060000
_cell_angle_alpha   68.31500000
_cell_angle_beta   74.57870000
_cell_angle_gamma   110.15990000
_symmetry_Int_Tables_number   1
_chemical_formula_structural   Zn2H18C36BrN8Cl
_chemical_formula_sum   'Zn4 H36 C72 Br2 N16 Cl2'
_cell_volume   6611.06880823
_cell_formula_units_Z   2
loop_
 _symmetry_equiv_pos_site_id
 _symmetry_equiv_pos_as_xyz
  1  'x, y, z'
loop_
 _atom_site_type_symbol
 _atom_site_label
 _atom_site_symmetry_multiplicity
 _atom_site_fract_x
 _atom_site_fract_y
 _atom_site_fract_z
 _atom_site_occupancy
  Zn  Zn0  1  0.00648000  0.39946000  0.11278000  1.0
  Zn  Zn1  1  0.01754000  0.59803000  0.89119000  1.0
  Zn  Zn2  1  0.92088000  0.40118000  0.99020000  1.0
  Zn  Zn3  1  0.10985000  0.60843000  0.00890000  1.0
  H  H4  1  0.02541000  0.22379000  0.13508000  1.0
  H  H5  1  0.40381000  0.90503000  0.47294000  1.0
  H  H6  1  0.85939000  0.58161000  0.47299000  1.0
  H  H7  1  0.98996000  0.42992000  0.56613000  1.0
  H  H8  1  0.78775000  0.43993000  0.61963000  1.0
  H  H9  1  0.06241000  0.57274000  0.41801000  1.0
  H  H10  1  0.99758000  0.64324000  0.49367000  1.0
  H  H11  1  0.85127000  0.36884000  0.54496000  1.0
  H  H12  1  0.13469000  0.13165000  0.83945000  1.0
  H  H13  1  0.93526000  0.89656000  0.09827000  1.0
  H  H14  1  0.17805000  0.69627000  0.73478000  1.0
  H  H15  1  0.93507000  0.69534000  0.91826000  1.0
  H  H16  1  0.84858000  0.27808000  0.27356000  1.0
  H  H17  1  0.98582000  0.01189000  0.87223000  1.0
  H  H18  1  0.08479000  0.01738000  0.06480000  1.0
  H  H19  1  0.92769000  0.36864000  0.84910000  1.0
  H  H20  1  0.09333000  0.63755000  0.15895000  1.0
  H  H21  1  0.27259000  0.63468000  0.89255000  1.0
  H  H22  1  0.74521000  0.37027000  0.98515000  1.0
  H  H23  1  0.06041000  0.62884000  0.72231000  1.0
  H  H24  1  0.93322000  0.38110000  0.28152000  1.0
  H  H25  1  0.14674000  0.37411000  0.02651000  1.0
  H  H26  1  0.61344000  0.56009000  0.75000000  1.0
  H  H27  1  0.87308000  0.63043000  0.84400000  1.0
  H  H28  1  0.29049000  0.78304000  0.86035000  1.0
  H  H29  1  0.73836000  0.28547000  0.11883000  1.0
  H  H30  1  0.99421000  0.31203000  0.92613000  1.0
  H  H31  1  0.04675000  0.70476000  0.07009000  1.0
  H  H32  1  0.45923000  0.42291000  0.83018000  1.0
  H  H33  1  0.57640000  0.57902000  0.94069000  1.0
  H  H34  1  0.42163000  0.44155000  0.02110000  1.0
  H  H35  1  0.48756000  0.36158000  0.96156000  1.0
  H  H36  1  0.54786000  0.64018000  0.80908000  1.0
  H  H37  1  0.55735000  0.92591000  0.39919000  1.0
  H  H38  1  0.48550000  0.02700000  0.57302000  1.0
  H  H39  1  0.63958000  0.04802000  0.49852000  1.0
  C  C40  1  0.01245000  0.25309000  0.08814000  1.0
  C  C41  1  0.46523000  0.46784000  0.96103000  1.0
  C  C42  1  0.48556000  0.45753000  0.85487000  1.0
  C  C43  1  0.54936000  0.54442000  0.91631000  1.0
  C  C44  1  0.31335000  0.50427000  0.91537000  1.0
  C  C45  1  0.71348000  0.49788000  0.89656000  1.0
  C  C46  1  0.53503000  0.57831000  0.84318000  1.0
  C  C47  1  0.50018000  0.42344000  0.92792000  1.0
  C  C48  1  0.44853000  0.50204000  0.88816000  1.0
  C  C49  1  0.58653000  0.49971000  0.88363000  1.0
  C  C50  1  0.37624000  0.50338000  0.89701000  1.0
  C  C51  1  0.96476000  0.68682000  0.95519000  1.0
  C  C52  1  0.65610000  0.49834000  0.88647000  1.0
  C  C53  1  0.54115000  0.94876000  0.43747000  1.0
  C  C54  1  0.50238000  0.00541000  0.53379000  1.0
  C  C55  1  0.19233000  0.70974000  0.77703000  1.0
  C  C56  1  0.83437000  0.29265000  0.22467000  1.0
  C  C57  1  0.54769000  0.92624000  0.51573000  1.0
  C  C58  1  0.49480000  0.02698000  0.45637000  1.0
  C  C59  1  0.33851000  0.81064000  0.69720000  1.0
  C  C60  1  0.69629000  0.17626000  0.28576000  1.0
  C  C61  1  0.45647000  0.93699000  0.47837000  1.0
  C  C62  1  0.26687000  0.76170000  0.76704000  1.0
  C  C63  1  0.58651000  0.01638000  0.49348000  1.0
  C  C64  1  0.46110000  0.91336000  0.55864000  1.0
  C  C65  1  0.58174000  0.04090000  0.41333000  1.0
  C  C66  1  0.39718000  0.85311000  0.63356000  1.0
  C  C67  1  0.64352000  0.11077000  0.34218000  1.0
  C  C68  1  0.84892000  0.46929000  0.57451000  1.0
  C  C69  1  0.00181000  0.54310000  0.46410000  1.0
  C  C70  1  0.88887000  0.54808000  0.49343000  1.0
  C  C71  1  0.96148000  0.46376000  0.54388000  1.0
  C  C72  1  0.96329000  0.51079000  0.31887000  1.0
  C  C73  1  0.76297000  0.24980000  0.22339000  1.0
  C  C74  1  0.96117000  0.50114000  0.70055000  1.0
  C  C75  1  0.88440000  0.42974000  0.53398000  1.0
  C  C76  1  0.96572000  0.58242000  0.50401000  1.0
  C  C77  1  0.92539000  0.50871000  0.45137000  1.0
  C  C78  1  0.92658000  0.50348000  0.58603000  1.0
  C  C79  1  0.96379000  0.43195000  0.82900000  1.0
  C  C80  1  0.06025000  0.57449000  0.17685000  1.0
  C  C81  1  0.93689000  0.51067000  0.37959000  1.0
  C  C82  1  0.93783000  0.50175000  0.65143000  1.0
  C  C83  1  0.10331000  0.01269000  0.94900000  1.0
  C  C84  1  0.98482000  0.49962000  0.75917000  1.0
  C  C85  1  0.96605000  0.01539000  0.98880000  1.0
  C  C86  1  0.08989000  0.07960000  0.89701000  1.0
  C  C87  1  0.97974000  0.94928000  0.04111000  1.0
  C  C88  1  0.04098000  0.19535000  0.00037000  1.0
  C  C89  1  0.99282000  0.80375000  0.98083000  1.0
  C  C90  1  0.06194000  0.01532000  0.02270000  1.0
  C  C91  1  0.00780000  0.01300000  0.91510000  1.0
  C  C92  1  0.04857000  0.08406000  0.97114000  1.0
  C  C93  1  0.02036000  0.94387000  0.96756000  1.0
  C  C94  1  0.05430000  0.15024000  0.98051000  1.0
  C  C95  1  0.99706000  0.51010000  0.25008000  1.0
  C  C96  1  0.00518000  0.86992000  0.97100000  1.0
  C  C97  1  0.22984000  0.57111000  0.93205000  1.0
  C  C98  1  0.78803000  0.43422000  0.95324000  1.0
  C  C99  1  0.03191000  0.56491000  0.76415000  1.0
  C  C100  1  0.97849000  0.44346000  0.23934000  1.0
  C  C101  1  0.16536000  0.43765000  0.00087000  1.0
  C  C102  1  0.85353000  0.56729000  0.88078000  1.0
  C  C103  1  0.24995000  0.75414000  0.84115000  1.0
  C  C104  1  0.77785000  0.29534000  0.14570000  1.0
  C  C105  1  0.99646000  0.29827000  0.98124000  1.0
  C  C106  1  0.24116000  0.50440000  0.94458000  1.0
  C  C107  1  0.02123000  0.69085000  0.03351000  1.0
  C  C108  1  0.02040000  0.24597000  0.02141000  1.0
  C  C109  1  0.98955000  0.73100000  0.99074000  1.0
  C  C110  1  0.77974000  0.49936000  0.90898000  1.0
  C  C111  1  0.57037000  0.53379000  0.81032000  1.0
  Br  Br112  1  0.20146000  0.01028000  0.91988000  1.0
  Br  Br113  1  0.86866000  0.01895000  0.01670000  1.0
  N  N114  1  0.98517000  0.30449000  0.08776000  1.0
  N  N115  1  0.02629000  0.46630000  0.16632000  1.0
  N  N116  1  0.11399000  0.46334000  0.02098000  1.0
  N  N117  1  0.90122000  0.54385000  0.90583000  1.0
  N  N118  1  0.17195000  0.70248000  0.89052000  1.0
  N  N119  1  0.85269000  0.35864000  0.10456000  1.0
  N  N120  1  0.97517000  0.33227000  0.02140000  1.0
  N  N121  1  0.01784000  0.62970000  0.02188000  1.0
  N  N122  1  0.98305000  0.62714000  0.97374000  1.0
  N  N123  1  0.13635000  0.67542000  0.85013000  1.0
  N  N124  1  0.88739000  0.35705000  0.15330000  1.0
  N  N125  1  0.99413000  0.45553000  0.87244000  1.0
  N  N126  1  0.07744000  0.54831000  0.12705000  1.0
  N  N127  1  0.15360000  0.54529000  0.97870000  1.0
  N  N128  1  0.86078000  0.46166000  0.95083000  1.0
  N  N129  1  0.03655000  0.53810000  0.83231000  1.0
  Cl  Cl130  1  0.58205000  0.86101000  0.55389000  1.0
  Cl  Cl131  1  0.46092000  0.09214000  0.41724000  1.0
