# generated using pymatgen
data_Ag2H28C15N6Cl2O13
_symmetry_space_group_name_H-M   'P 1'
_cell_length_a   10.01280000
_cell_length_b   10.06830000
_cell_length_c   13.19100000
_cell_angle_alpha   100.97900000
_cell_angle_beta   92.29670000
_cell_angle_gamma   108.45500000
_symmetry_Int_Tables_number   1
_chemical_formula_structural   Ag2H28C15N6Cl2O13
_chemical_formula_sum   'Ag4 H56 C30 N12 Cl4 O26'
_cell_volume   1231.11991182
_cell_formula_units_Z   2
loop_
 _symmetry_equiv_pos_site_id
 _symmetry_equiv_pos_as_xyz
  1  'x, y, z'
loop_
 _atom_site_type_symbol
 _atom_site_label
 _atom_site_symmetry_multiplicity
 _atom_site_fract_x
 _atom_site_fract_y
 _atom_site_fract_z
 _atom_site_occupancy
  Ag  Ag0  1  0.54766000  0.40928000  0.60569000  1.0
  Ag  Ag1  1  0.45234000  0.59072000  0.39431000  1.0
  Ag  Ag2  1  0.05099000  0.07568000  0.81939000  1.0
  Ag  Ag3  1  0.94902000  0.92432000  0.18061000  1.0
  H  H4  1  0.88651000  0.86221000  0.91978000  1.0
  H  H5  1  0.11349000  0.13779000  0.08022000  1.0
  H  H6  1  0.70794000  0.50876000  0.45518000  1.0
  H  H7  1  0.29206000  0.49124000  0.54482000  1.0
  H  H8  1  0.62084000  0.34225000  0.40351000  1.0
  H  H9  1  0.37916000  0.65775000  0.59649000  1.0
  H  H10  1  0.04358000  0.85655000  0.90955000  1.0
  H  H11  1  0.95642000  0.14345000  0.09045000  1.0
  H  H12  1  0.41573000  0.72165000  0.89103000  1.0
  H  H13  1  0.58427000  0.27835000  0.10897000  1.0
  H  H14  1  0.57652000  0.79075000  0.83457000  1.0
  H  H15  1  0.42348000  0.20925000  0.16543000  1.0
  H  H16  1  0.62025000  0.89899000  0.02008000  1.0
  H  H17  1  0.37975000  0.10101000  0.97992000  1.0
  H  H18  1  0.55092000  0.72683000  0.05289000  1.0
  H  H19  1  0.44908000  0.27317000  0.94711000  1.0
  H  H20  1  0.67806000  0.56569000  0.02038000  1.0
  H  H21  1  0.32194000  0.43431000  0.97962000  1.0
  H  H22  1  0.84603000  0.62276000  0.97215000  1.0
  H  H23  1  0.15396000  0.37724000  0.02785000  1.0
  H  H24  1  0.55790000  0.18078000  0.73485000  1.0
  H  H25  1  0.44210000  0.81922000  0.26515000  1.0
  H  H26  1  0.50551000  0.09365000  0.60107000  1.0
  H  H27  1  0.49449000  0.90636000  0.39893000  1.0
  H  H28  1  0.58257000  0.93343000  0.69167000  1.0
  H  H29  1  0.41744000  0.06657000  0.30833000  1.0
  H  H30  1  0.47122000  0.95558000  0.79189000  1.0
  H  H31  1  0.52878000  0.04441000  0.20811000  1.0
  H  H32  1  0.22075000  0.84893000  0.74972000  1.0
  H  H33  1  0.77925000  0.15107000  0.25028000  1.0
  H  H34  1  0.15576000  0.74818000  0.61985000  1.0
  H  H35  1  0.84424000  0.25182000  0.38014000  1.0
  H  H36  1  0.23615000  0.96904000  0.55045000  1.0
  H  H37  1  0.76385000  0.03096000  0.44955000  1.0
  H  H38  1  0.12164000  0.98773000  0.64674000  1.0
  H  H39  1  0.87836000  0.01227000  0.35326000  1.0
  H  H40  1  0.11560000  0.59663000  0.80900000  1.0
  H  H41  1  0.88440000  0.40337000  0.19100000  1.0
  H  H42  1  0.94868000  0.49569000  0.84295000  1.0
  H  H43  1  0.05132000  0.50431000  0.15705000  1.0
  H  H44  1  0.90791000  0.63946000  0.71810000  1.0
  H  H45  1  0.09209000  0.36054000  0.28190000  1.0
  H  H46  1  0.00831000  0.56495000  0.62833000  1.0
  H  H47  1  0.99168000  0.43505000  0.37167000  1.0
  H  H48  1  0.91892000  0.32573000  0.54429000  1.0
  H  H49  1  0.08108000  0.67427000  0.45571000  1.0
  H  H50  1  0.74920000  0.21819000  0.57211000  1.0
  H  H51  1  0.25080000  0.78181000  0.42789000  1.0
  H  H52  1  0.84897000  0.22062000  0.74554000  1.0
  H  H53  1  0.15103000  0.77938000  0.25446000  1.0
  H  H54  1  0.95700000  0.16814000  0.65244000  1.0
  H  H55  1  0.04301000  0.83186000  0.34756000  1.0
  H  H56  1  0.73039000  0.62110000  0.80182000  1.0
  H  H57  1  0.26961000  0.37890000  0.19818000  1.0
  H  H58  1  0.65717000  0.45017000  0.83422000  1.0
  H  H59  1  0.34283000  0.54983000  0.16578000  1.0
  C  C60  1  0.17508000  0.36748000  0.75878000  1.0
  C  C61  1  0.82492000  0.63252000  0.24122000  1.0
  C  C62  1  0.41228000  0.47163000  0.79627000  1.0
  C  C63  1  0.58772000  0.52837000  0.20373000  1.0
  C  C64  1  0.31984000  0.23070000  0.72486000  1.0
  C  C65  1  0.68016000  0.76930000  0.27514000  1.0
  C  C66  1  0.52544000  0.72372000  0.88829000  1.0
  C  C67  1  0.47456000  0.27628000  0.11171000  1.0
  C  C68  1  0.60696000  0.78486000  0.99589000  1.0
  C  C69  1  0.39304000  0.21515000  0.00411000  1.0
  C  C70  1  0.73784000  0.62592000  0.96593000  1.0
  C  C71  1  0.26216000  0.37408000  0.03406000  1.0
  C  C72  1  0.47939000  0.09047000  0.68147000  1.0
  C  C73  1  0.52061000  0.90953000  0.31853000  1.0
  C  C74  1  0.48258000  0.95083000  0.70861000  1.0
  C  C75  1  0.51742000  0.04917000  0.29138000  1.0
  C  C76  1  0.23581000  0.84387000  0.66666667  1.0
  C  C77  1  0.76419000  0.15613000  0.33328000  1.0
  C  C78  1  0.22517000  0.97666000  0.63397000  1.0
  C  C79  1  0.77483000  0.02334000  0.36603000  1.0
  C  C80  1  0.01572000  0.51047000  0.77892000  1.0
  C  C81  1  0.98428000  0.48953000  0.22108000  1.0
  C  C82  1  0.93916000  0.54494000  0.69087000  1.0
  C  C83  1  0.06084000  0.45506000  0.30914000  1.0
  C  C84  1  0.84877000  0.30325000  0.60597000  1.0
  C  C85  1  0.15123000  0.69675000  0.39403000  1.0
  C  C86  1  0.92287000  0.25709000  0.68915000  1.0
  C  C87  1  0.07713000  0.74291000  0.31085000  1.0
  C  C88  1  0.66685000  0.56341000  0.85584000  1.0
  C  C89  1  0.33315000  0.43659000  0.14416000  1.0
  N  N90  1  0.43541000  0.35035000  0.74346000  1.0
  N  N91  1  0.56459000  0.64965000  0.25654000  1.0
  N  N92  1  0.18715000  0.23308000  0.74020000  1.0
  N  N93  1  0.81285000  0.76692000  0.25980000  1.0
  N  N94  1  0.28470000  0.48816000  0.79558000  1.0
  N  N95  1  0.71529000  0.51183000  0.20442000  1.0
  N  N96  1  0.04519000  0.37755000  0.74186000  1.0
  N  N97  1  0.95481000  0.62245000  0.25814000  1.0
  N  N98  1  0.52652000  0.57817000  0.84916000  1.0
  N  N99  1  0.47348000  0.42183000  0.15084000  1.0
  N  N100  1  0.33886000  0.10265000  0.69156000  1.0
  N  N101  1  0.66115000  0.89735000  0.30844000  1.0
  Cl  Cl102  1  0.79192000  0.18688000  0.94995000  1.0
  Cl  Cl103  1  0.20808000  0.81312000  0.05005000  1.0
  Cl  Cl104  1  0.77129000  0.78382000  0.57523000  1.0
  Cl  Cl105  1  0.22871000  0.21618000  0.42477000  1.0
  O  O106  1  0.61455000  0.43329000  0.44453000  1.0
  O  O107  1  0.38545000  0.56671000  0.55547000  1.0
  O  O108  1  0.96480000  0.87618000  0.87496000  1.0
  O  O109  1  0.03520000  0.12382000  0.12504000  1.0
  O  O110  1  0.70326000  0.27162000  0.93237000  1.0
  O  O111  1  0.29674000  0.72838000  0.06763000  1.0
  O  O112  1  0.74531000  0.04970000  0.87563000  1.0
  O  O113  1  0.25469000  0.95030000  0.12437000  1.0
  O  O114  1  0.78423000  0.16101000  0.05668000  1.0
  O  O115  1  0.21577000  0.83899000  0.94332000  1.0
  O  O116  1  0.94010000  0.26464000  0.93916000  1.0
  O  O117  1  0.05990000  0.73536000  0.06084000  1.0
  O  O118  1  0.81256000  0.42788000  0.64766000  1.0
  O  O119  1  0.18744000  0.57212000  0.35234000  1.0
  O  O120  1  0.74808000  0.77487000  0.99686000  1.0
  O  O121  1  0.25192000  0.22513000  0.00314000  1.0
  O  O122  1  0.37131000  0.82848000  0.64874000  1.0
  O  O123  1  0.62869000  0.17152000  0.35126000  1.0
  O  O124  1  0.66179000  0.81362000  0.51536000  1.0
  O  O125  1  0.33821000  0.18638000  0.48464000  1.0
  O  O126  1  0.70792000  0.70999000  0.65546000  1.0
  O  O127  1  0.29208000  0.29001000  0.34454000  1.0
  O  O128  1  0.88192000  0.91839000  0.62244000  1.0
  O  O129  1  0.11808000  0.08160000  0.37757000  1.0
  O  O130  1  0.83416000  0.69258000  0.50543000  1.0
  O  O131  1  0.16584000  0.30742000  0.49457000  1.0
