# generated using pymatgen
data_Hf3H12C24(N3O8)2
_symmetry_space_group_name_H-M   'P 1'
_cell_length_a   17.22110000
_cell_length_b   17.22590000
_cell_length_c   18.09890000
_cell_angle_alpha   89.55290000
_cell_angle_beta   89.96160000
_cell_angle_gamma   110.24300000
_symmetry_Int_Tables_number   1
_chemical_formula_structural   Hf3H12C24(N3O8)2
_chemical_formula_sum   'Hf6 H24 C48 N12 O32'
_cell_volume   5037.20881724
_cell_formula_units_Z   2
loop_
 _symmetry_equiv_pos_site_id
 _symmetry_equiv_pos_as_xyz
  1  'x, y, z'
loop_
 _atom_site_type_symbol
 _atom_site_label
 _atom_site_symmetry_multiplicity
 _atom_site_fract_x
 _atom_site_fract_y
 _atom_site_fract_z
 _atom_site_occupancy
  Hf  Hf0  1  0.89585000  0.88801000  0.90864000  1.0
  Hf  Hf1  1  0.90712000  0.89319000  0.10224000  1.0
  Hf  Hf2  1  0.07581000  0.06425000  0.89836000  1.0
  Hf  Hf3  1  0.08315000  0.07304000  0.09191000  1.0
  Hf  Hf4  1  0.90198000  0.06815000  0.00089000  1.0
  Hf  Hf5  1  0.07881000  0.89120000  0.99952000  1.0
  H  H6  1  0.90431000  0.76730000  0.99965000  1.0
  H  H7  1  0.92708000  0.04065000  0.16317000  1.0
  H  H8  1  0.20288000  0.06556000  0.00012000  1.0
  H  H9  1  0.92761000  0.04509000  0.83820000  1.0
  H  H10  1  0.92420000  0.87081000  0.24503000  1.0
  H  H11  1  0.13388000  0.06076000  0.22900000  1.0
  H  H12  1  0.19685000  0.22270000  0.09529000  1.0
  H  H13  1  0.23207000  0.17212000  0.85955000  1.0
  H  H14  1  0.09820000  0.05062000  0.75544000  1.0
  H  H15  1  0.83332000  0.87714000  0.76700000  1.0
  H  H16  1  0.74571000  0.77502000  0.90705000  1.0
  H  H17  1  0.80285000  0.73700000  0.14291000  1.0
  H  H18  1  0.17170000  0.22165000  0.87722000  1.0
  H  H19  1  0.90441000  0.83803000  0.77078000  1.0
  H  H20  1  0.75065000  0.79531000  0.12620000  1.0
  H  H21  1  0.09582000  0.13246000  0.23479000  1.0
  H  H22  1  0.36387000  0.96534000  0.43045000  1.0
  H  H23  1  0.61768000  0.97799000  0.42986000  1.0
  H  H24  1  0.61850000  0.98032000  0.56851000  1.0
  H  H25  1  0.36470000  0.96779000  0.56894000  1.0
  H  H26  1  0.00491000  0.60577000  0.42942000  1.0
  H  H27  1  0.97943000  0.34844000  0.43389000  1.0
  H  H28  1  0.97969000  0.35011000  0.57254000  1.0
  H  H29  1  0.00523000  0.60746000  0.56795000  1.0
  C  C30  1  0.75906000  0.98004000  0.88447000  1.0
  C  C31  1  0.99879000  0.75558000  0.12572000  1.0
  C  C32  1  0.75821000  0.97681000  0.11514000  1.0
  C  C33  1  0.00131000  0.76065000  0.87285000  1.0
  C  C34  1  0.21318000  0.97326000  0.87311000  1.0
  C  C35  1  0.99142000  0.20948000  0.11785000  1.0
  C  C36  1  0.21048000  0.96605000  0.12616000  1.0
  C  C37  1  0.99099000  0.21318000  0.88665000  1.0
  C  C38  1  0.99899000  0.55158000  0.76645000  1.0
  C  C39  1  0.99344000  0.48100000  0.65991000  1.0
  C  C40  1  0.99188000  0.41845000  0.77113000  1.0
  C  C41  1  0.99641000  0.54532000  0.23325000  1.0
  C  C42  1  0.99269000  0.47723000  0.34197000  1.0
  C  C43  1  0.99116000  0.41284000  0.23265000  1.0
  C  C44  1  0.42272000  0.97462000  0.76608000  1.0
  C  C45  1  0.55500000  0.97916000  0.76874000  1.0
  C  C46  1  0.49104000  0.97544000  0.65842000  1.0
  C  C47  1  0.41879000  0.96482000  0.23325000  1.0
  C  C48  1  0.55195000  0.97191000  0.22985000  1.0
  C  C49  1  0.48896000  0.97009000  0.34045000  1.0
  C  C50  1  0.41918000  0.96861000  0.46130000  1.0
  C  C51  1  0.49064000  0.97149000  0.42205000  1.0
  C  C52  1  0.56268000  0.97574000  0.46089000  1.0
  C  C53  1  0.56314000  0.97705000  0.53769000  1.0
  C  C54  1  0.49162000  0.97420000  0.57687000  1.0
  C  C55  1  0.41965000  0.96996000  0.53793000  1.0
  C  C56  1  0.99939000  0.55023000  0.46134000  1.0
  C  C57  1  0.99225000  0.47706000  0.42353000  1.0
  C  C58  1  0.98504000  0.40476000  0.46382000  1.0
  C  C59  1  0.98518000  0.40568000  0.54063000  1.0
  C  C60  1  0.99258000  0.47896000  0.57834000  1.0
  C  C61  1  0.99956000  0.55117000  0.53798000  1.0
  C  C62  1  0.98988000  0.34137000  0.19257000  1.0
  C  C63  1  0.98992000  0.28142000  0.15761000  1.0
  C  C64  1  0.99893000  0.61881000  0.19489000  1.0
  C  C65  1  0.00006000  0.68182000  0.16353000  1.0
  C  C66  1  0.99020000  0.34729000  0.81298000  1.0
  C  C67  1  0.99014000  0.28697000  0.84838000  1.0
  C  C68  1  0.00383000  0.68882000  0.83353000  1.0
  C  C69  1  0.00232000  0.62581000  0.80288000  1.0
  C  C70  1  0.28203000  0.96186000  0.16542000  1.0
  C  C71  1  0.34478000  0.96211000  0.19624000  1.0
  C  C72  1  0.62351000  0.97460000  0.18857000  1.0
  C  C73  1  0.68419000  0.97614000  0.15335000  1.0
  C  C74  1  0.28647000  0.97216000  0.83479000  1.0
  C  C75  1  0.34922000  0.97298000  0.80353000  1.0
  C  C76  1  0.62642000  0.98117000  0.80977000  1.0
  C  C77  1  0.68665000  0.98168000  0.84500000  1.0
  N  N78  1  0.99808000  0.55272000  0.69219000  1.0
  N  N79  1  0.98979000  0.41169000  0.69703000  1.0
  N  N80  1  0.99638000  0.48656000  0.80953000  1.0
  N  N81  1  0.99588000  0.54789000  0.30741000  1.0
  N  N82  1  0.99012000  0.40759000  0.30691000  1.0
  N  N83  1  0.99419000  0.47978000  0.19212000  1.0
  N  N84  1  0.48811000  0.97756000  0.80821000  1.0
  N  N85  1  0.56038000  0.97822000  0.69457000  1.0
  N  N86  1  0.42041000  0.97354000  0.69189000  1.0
  N  N87  1  0.48397000  0.96747000  0.19079000  1.0
  N  N88  1  0.55838000  0.97358000  0.30401000  1.0
  N  N89  1  0.41741000  0.96563000  0.30747000  1.0
  O  O90  1  0.78414000  0.92070000  0.86831000  1.0
  O  O91  1  0.79085000  0.03758000  0.93039000  1.0
  O  O92  1  0.94157000  0.78253000  0.14497000  1.0
  O  O93  1  0.05409000  0.78573000  0.07678000  1.0
  O  O94  1  0.77957000  0.91398000  0.12486000  1.0
  O  O95  1  0.79601000  0.04127000  0.07684000  1.0
  O  O96  1  0.94969000  0.79321000  0.85046000  1.0
  O  O97  1  0.04997000  0.78309000  0.92783000  1.0
  O  O98  1  0.80291000  0.77985000  0.91413000  1.0
  O  O99  1  0.89089000  0.88799000  0.78068000  1.0
  O  O100  1  0.79187000  0.77343000  0.10598000  1.0
  O  O101  1  0.90455000  0.90424000  0.21180000  1.0
  O  O102  1  0.87746000  0.94368000  0.00286000  1.0
  O  O103  1  0.93369000  0.82658000  0.00308000  1.0
  O  O104  1  0.18650000  0.03117000  0.85492000  1.0
  O  O105  1  0.18320000  0.91702000  0.92147000  1.0
  O  O106  1  0.05096000  0.18427000  0.13349000  1.0
  O  O107  1  0.93337000  0.17824000  0.07205000  1.0
  O  O108  1  0.17844000  0.01753000  0.14931000  1.0
  O  O109  1  0.18774000  0.91882000  0.07044000  1.0
  O  O110  1  0.05406000  0.19248000  0.87647000  1.0
  O  O111  1  0.92727000  0.17480000  0.92550000  1.0
  O  O112  1  0.19456000  0.18052000  0.89651000  1.0
  O  O113  1  0.06402000  0.06856000  0.78893000  1.0
  O  O114  1  0.19160000  0.16561000  0.08726000  1.0
  O  O115  1  0.08418000  0.07524000  0.21991000  1.0
  O  O116  1  0.14351000  0.03638000  0.99688000  1.0
  O  O117  1  0.02658000  0.09296000  0.99822000  1.0
  O  O118  1  0.02687000  0.94008000  0.91858000  1.0
  O  O119  1  0.94510000  0.02923000  0.11480000  1.0
  O  O120  1  0.93962000  0.02642000  0.88629000  1.0
  O  O121  1  0.03106000  0.94227000  0.08128000  1.0
