# generated using pymatgen
data_HgH6C3(NCl)2
_symmetry_space_group_name_H-M   'P 1'
_cell_length_a   6.62471000
_cell_length_b   6.62449000
_cell_length_c   16.02451138
_cell_angle_alpha   97.67671601
_cell_angle_beta   97.67678991
_cell_angle_gamma   110.67600000
_symmetry_Int_Tables_number   1
_chemical_formula_structural   HgH6C3(NCl)2
_chemical_formula_sum   'Hg4 H24 C12 N8 Cl8'
_cell_volume   639.54014448
_cell_formula_units_Z   4
loop_
 _symmetry_equiv_pos_site_id
 _symmetry_equiv_pos_as_xyz
  1  'x, y, z'
loop_
 _atom_site_type_symbol
 _atom_site_label
 _atom_site_symmetry_multiplicity
 _atom_site_fract_x
 _atom_site_fract_y
 _atom_site_fract_z
 _atom_site_occupancy
  Hg  Hg0  1  0.54134000  0.79181000  0.08311000  1.0
  Hg  Hg1  1  0.20820000  0.45866000  0.41689000  1.0
  Hg  Hg2  1  0.45867000  0.20820000  0.91689000  1.0
  Hg  Hg3  1  0.79180000  0.54133000  0.58310000  1.0
  H  H4  1  0.35670000  0.22309000  0.20895000  1.0
  H  H5  1  0.51356000  0.14839000  0.29096000  1.0
  H  H6  1  0.77691000  0.64322000  0.29106000  1.0
  H  H7  1  0.85163000  0.48637000  0.20904000  1.0
  H  H8  1  0.14836000  0.51361000  0.79095000  1.0
  H  H9  1  0.22309000  0.35676000  0.70894000  1.0
  H  H10  1  0.48643000  0.85161000  0.70904000  1.0
  H  H11  1  0.64329000  0.77692000  0.79106000  1.0
  H  H12  1  0.23334000  0.55847000  0.20912000  1.0
  H  H13  1  0.84878000  0.02463000  0.29090000  1.0
  H  H14  1  0.44153000  0.76671000  0.29089000  1.0
  H  H15  1  0.97533000  0.15118000  0.20910000  1.0
  H  H16  1  0.02469000  0.84883000  0.79091000  1.0
  H  H17  1  0.55847000  0.23330000  0.70911000  1.0
  H  H18  1  0.15121000  0.97537000  0.70910000  1.0
  H  H19  1  0.76668000  0.44154000  0.79088000  1.0
  H  H20  1  0.02439000  0.65818000  0.09977000  1.0
  H  H21  1  0.05796000  0.92504000  0.40025000  1.0
  H  H22  1  0.34178000  0.97560000  0.40023000  1.0
  H  H23  1  0.07491000  0.94202000  0.09974000  1.0
  H  H24  1  0.92508000  0.05799000  0.90026000  1.0
  H  H25  1  0.65822000  0.02439000  0.59977000  1.0
  H  H26  1  0.94204000  0.07493000  0.59974000  1.0
  H  H27  1  0.97560000  0.34182000  0.90023000  1.0
  C  C28  1  0.35126000  0.10184000  0.24996000  1.0
  C  C29  1  0.89816000  0.64873000  0.25003000  1.0
  C  C30  1  0.10184000  0.35128000  0.74996000  1.0
  C  C31  1  0.64874000  0.89817000  0.75004000  1.0
  C  C32  1  0.27934000  0.72066000  0.25002000  1.0
  C  C33  1  0.97008000  0.02981000  0.24999000  1.0
  C  C34  1  0.02990000  0.97016000  0.75000000  1.0
  C  C35  1  0.72065000  0.27934000  0.74999000  1.0
  C  C36  1  0.06998000  0.82051000  0.14057000  1.0
  C  C37  1  0.17949000  0.93004000  0.35944000  1.0
  C  C38  1  0.93003000  0.17949000  0.85943000  1.0
  C  C39  1  0.82050000  0.06995000  0.64056000  1.0
  N  N40  1  0.29044000  0.88324000  0.19445000  1.0
  N  N41  1  0.18824000  0.09646000  0.30551000  1.0
  N  N42  1  0.11677000  0.70954000  0.30557000  1.0
  N  N43  1  0.90354000  0.81177000  0.19449000  1.0
  N  N44  1  0.09647000  0.18823000  0.80551000  1.0
  N  N45  1  0.88322000  0.29045000  0.69443000  1.0
  N  N46  1  0.81175000  0.90354000  0.69449000  1.0
  N  N47  1  0.70957000  0.11676000  0.80555000  1.0
  Cl  Cl48  1  0.31461000  0.40950000  0.07105000  1.0
  Cl  Cl49  1  0.83803000  0.24357000  0.42904000  1.0
  Cl  Cl50  1  0.59050000  0.68538000  0.42895000  1.0
  Cl  Cl51  1  0.75645000  0.16197000  0.07096000  1.0
  Cl  Cl52  1  0.24357000  0.83804000  0.92904000  1.0
  Cl  Cl53  1  0.40951000  0.31462000  0.57105000  1.0
  Cl  Cl54  1  0.16198000  0.75643000  0.57096000  1.0
  Cl  Cl55  1  0.68540000  0.59050000  0.92895000  1.0
