# generated using pymatgen
data_DyH6C8NO6
_symmetry_space_group_name_H-M   'P 1'
_cell_length_a   4.54003000
_cell_length_b   14.01330000
_cell_length_c   16.24040000
_cell_angle_alpha   90.00000000
_cell_angle_beta   90.00010000
_cell_angle_gamma   94.82500000
_symmetry_Int_Tables_number   1
_chemical_formula_structural   DyH6C8NO6
_chemical_formula_sum   'Dy4 H24 C32 N4 O24'
_cell_volume   1029.56578325
_cell_formula_units_Z   4
loop_
 _symmetry_equiv_pos_site_id
 _symmetry_equiv_pos_as_xyz
  1  'x, y, z'
loop_
 _atom_site_type_symbol
 _atom_site_label
 _atom_site_symmetry_multiplicity
 _atom_site_fract_x
 _atom_site_fract_y
 _atom_site_fract_z
 _atom_site_occupancy
  Dy  Dy0  1  0.75665000  0.50235000  0.09049000  1.0
  Dy  Dy1  1  0.74335000  0.99765000  0.59049000  1.0
  Dy  Dy2  1  0.24335000  0.49765000  0.90951000  1.0
  Dy  Dy3  1  0.25665000  0.00235000  0.40951000  1.0
  H  H4  1  0.61711000  0.28211000  0.32425000  1.0
  H  H5  1  0.88287000  0.21789000  0.82425000  1.0
  H  H6  1  0.38289000  0.71789000  0.67575000  1.0
  H  H7  1  0.11713000  0.78211000  0.17575000  1.0
  H  H8  1  0.12149000  0.30523000  0.54923000  1.0
  H  H9  1  0.37852000  0.19477000  0.04923000  1.0
  H  H10  1  0.87851000  0.69477000  0.45077000  1.0
  H  H11  1  0.62149000  0.80523000  0.95077000  1.0
  H  H12  1  0.26926000  0.52004000  0.36132000  1.0
  H  H13  1  0.23074000  0.97996000  0.86132000  1.0
  H  H14  1  0.73074000  0.47996000  0.63868000  1.0
  H  H15  1  0.76926000  0.02004000  0.13868000  1.0
  H  H16  1  0.32299000  0.57575000  0.20552000  1.0
  H  H17  1  0.17701000  0.92425000  0.70552000  1.0
  H  H18  1  0.67701000  0.42425000  0.79448000  1.0
  H  H19  1  0.82299000  0.07575000  0.29449000  1.0
  H  H20  1  0.62514000  0.64402000  0.21358000  1.0
  H  H21  1  0.87486000  0.85598000  0.71358000  1.0
  H  H22  1  0.37486000  0.35598000  0.78642000  1.0
  H  H23  1  0.12514000  0.14402000  0.28642000  1.0
  H  H24  1  0.75797000  0.60053000  0.94457000  1.0
  H  H25  1  0.74203000  0.89947000  0.44456000  1.0
  H  H26  1  0.24203000  0.39947000  0.05543000  1.0
  H  H27  1  0.25797000  0.10053000  0.55544000  1.0
  C  C28  1  0.93587000  0.40490000  0.33400000  1.0
  C  C29  1  0.56412000  0.09510000  0.83399000  1.0
  C  C30  1  0.06413000  0.59510000  0.66600000  1.0
  C  C31  1  0.43588000  0.90490000  0.16601000  1.0
  C  C32  1  0.78427000  0.32018000  0.36278000  1.0
  C  C33  1  0.71571000  0.17982000  0.86277000  1.0
  C  C34  1  0.21573000  0.67982000  0.63722000  1.0
  C  C35  1  0.28429000  0.82018000  0.13723000  1.0
  C  C36  1  0.85052000  0.28389000  0.44004000  1.0
  C  C37  1  0.64948000  0.21612000  0.94004000  1.0
  C  C38  1  0.14949000  0.71611000  0.55996000  1.0
  C  C39  1  0.35052000  0.78389000  0.05996000  1.0
  C  C40  1  0.06670000  0.33299000  0.48898000  1.0
  C  C41  1  0.43330000  0.16701000  0.98897000  1.0
  C  C42  1  0.93330000  0.66701000  0.51102000  1.0
  C  C43  1  0.56670000  0.83299000  0.01103000  1.0
  C  C44  1  0.21682000  0.41794000  0.46051000  1.0
  C  C45  1  0.28318000  0.08206000  0.96051000  1.0
  C  C46  1  0.78318000  0.58207000  0.53949000  1.0
  C  C47  1  0.71682000  0.91794000  0.03949000  1.0
  C  C48  1  0.15110000  0.45398000  0.38275000  1.0
  C  C49  1  0.34889000  0.04602000  0.88275000  1.0
  C  C50  1  0.84889000  0.54602000  0.61725000  1.0
  C  C51  1  0.65111000  0.95398000  0.11725000  1.0
  C  C52  1  0.86957000  0.44148000  0.25059000  1.0
  C  C53  1  0.63043000  0.05851000  0.75058000  1.0
  C  C54  1  0.13043000  0.55852000  0.74941000  1.0
  C  C55  1  0.36957000  0.94149000  0.24942000  1.0
  C  C56  1  0.70020000  0.19052000  0.46791000  1.0
  C  C57  1  0.79979000  0.30948000  0.96791000  1.0
  C  C58  1  0.29979000  0.80948000  0.53209000  1.0
  C  C59  1  0.20021000  0.69052000  0.03209000  1.0
  N  N60  1  0.43246000  0.46215000  0.51415000  1.0
  N  N61  1  0.06754000  0.03785000  0.01415000  1.0
  N  N62  1  0.56754000  0.53785000  0.48585000  1.0
  N  N63  1  0.93246000  0.96215000  0.98585000  1.0
  O  O64  1  0.67643000  0.39602000  0.20528000  1.0
  O  O65  1  0.82357000  0.10398000  0.70528000  1.0
  O  O66  1  0.32357000  0.60398000  0.79472000  1.0
  O  O67  1  0.17643000  0.89602000  0.29472000  1.0
  O  O68  1  0.00733000  0.51979000  0.22435000  1.0
  O  O69  1  0.49267000  0.98021000  0.72435000  1.0
  O  O70  1  0.99267000  0.48021000  0.77565000  1.0
  O  O71  1  0.50733000  0.01979000  0.27565000  1.0
  O  O72  1  0.47926000  0.15518000  0.42632000  1.0
  O  O73  1  0.02074000  0.34482000  0.92632000  1.0
  O  O74  1  0.52074000  0.84482000  0.57368000  1.0
  O  O75  1  0.97926000  0.65518000  0.07368000  1.0
  O  O76  1  0.80381000  0.15113000  0.53128000  1.0
  O  O77  1  0.69619000  0.34887000  0.03128000  1.0
  O  O78  1  0.19619000  0.84887000  0.46872000  1.0
  O  O79  1  0.30381000  0.65113000  0.96872000  1.0
  O  O80  1  0.50063000  0.60542000  0.17556000  1.0
  O  O81  1  0.99937000  0.89457000  0.67555000  1.0
  O  O82  1  0.49937000  0.39458000  0.82444000  1.0
  O  O83  1  0.00063000  0.10543000  0.32445000  1.0
  O  O84  1  0.75186000  0.53057000  0.94438000  1.0
  O  O85  1  0.74814000  0.96943000  0.44437000  1.0
  O  O86  1  0.24814000  0.46943000  0.05563000  1.0
  O  O87  1  0.25186000  0.03057000  0.55563000  1.0
