# generated using pymatgen
data_PrH4C3O8
_symmetry_space_group_name_H-M   'P 1'
_cell_length_a   7.64960000
_cell_length_b   10.31750000
_cell_length_c   10.41660000
_cell_angle_alpha   78.39100000
_cell_angle_beta   89.99990000
_cell_angle_gamma   89.99960000
_symmetry_Int_Tables_number   1
_chemical_formula_structural   PrH4C3O8
_chemical_formula_sum   'Pr4 H16 C12 O32'
_cell_volume   805.30980336
_cell_formula_units_Z   4
loop_
 _symmetry_equiv_pos_site_id
 _symmetry_equiv_pos_as_xyz
  1  'x, y, z'
loop_
 _atom_site_type_symbol
 _atom_site_label
 _atom_site_symmetry_multiplicity
 _atom_site_fract_x
 _atom_site_fract_y
 _atom_site_fract_z
 _atom_site_occupancy
  Pr  Pr0  1  0.09245000  0.69145000  0.54986000  1.0
  Pr  Pr1  1  0.59245000  0.30854000  0.95014000  1.0
  Pr  Pr2  1  0.90756000  0.30855000  0.45013000  1.0
  Pr  Pr3  1  0.40755000  0.69145000  0.04987000  1.0
  H  H4  1  0.42189000  0.72573000  0.38405000  1.0
  H  H5  1  0.92189000  0.27427000  0.11594000  1.0
  H  H6  1  0.57813000  0.27428000  0.61595000  1.0
  H  H7  1  0.07812000  0.72573000  0.88405000  1.0
  H  H8  1  0.33816000  0.86070000  0.33650000  1.0
  H  H9  1  0.83817000  0.13929000  0.16350000  1.0
  H  H10  1  0.66185000  0.13931000  0.66350000  1.0
  H  H11  1  0.16185000  0.86070000  0.83651000  1.0
  H  H12  1  0.71298000  0.61426000  0.51013000  1.0
  H  H13  1  0.21297000  0.38575000  0.98987000  1.0
  H  H14  1  0.28703000  0.38574000  0.48988000  1.0
  H  H15  1  0.78702000  0.61426000  0.01012000  1.0
  H  H16  1  0.68357000  0.76070000  0.53023000  1.0
  H  H17  1  0.18356000  0.23931000  0.96973000  1.0
  H  H18  1  0.31645000  0.23931000  0.46974000  1.0
  H  H19  1  0.81644000  0.76070000  0.03025000  1.0
  C  C20  1  0.40668000  0.58787000  0.75783000  1.0
  C  C21  1  0.90669000  0.41213000  0.74218000  1.0
  C  C22  1  0.59332000  0.41213000  0.24218000  1.0
  C  C23  1  0.09331000  0.58787000  0.25782000  1.0
  C  C24  1  0.41151000  0.48264000  0.67126000  1.0
  C  C25  1  0.91151000  0.51735000  0.82875000  1.0
  C  C26  1  0.58848000  0.51734000  0.32876000  1.0
  C  C27  1  0.08850000  0.48265000  0.17124000  1.0
  C  C28  1  0.97340000  0.99715000  0.42812000  1.0
  C  C29  1  0.47338000  0.00284000  0.07188000  1.0
  C  C30  1  0.02659000  0.00284000  0.57187000  1.0
  C  C31  1  0.52659000  0.99715000  0.92813000  1.0
  O  O32  1  0.33639000  0.69639000  0.71025000  1.0
  O  O33  1  0.83640000  0.30361000  0.78977000  1.0
  O  O34  1  0.66363000  0.30361000  0.28976000  1.0
  O  O35  1  0.16361000  0.69640000  0.21024000  1.0
  O  O36  1  0.47130000  0.55430000  0.87300000  1.0
  O  O37  1  0.97130000  0.44571000  0.62700000  1.0
  O  O38  1  0.52868000  0.44569000  0.12701000  1.0
  O  O39  1  0.02868000  0.55431000  0.37299000  1.0
  O  O40  1  0.32609000  0.51030000  0.56478000  1.0
  O  O41  1  0.82611000  0.48970000  0.93523000  1.0
  O  O42  1  0.67390000  0.48969000  0.43524000  1.0
  O  O43  1  0.17390000  0.51031000  0.06476000  1.0
  O  O44  1  0.49773000  0.37819000  0.71191000  1.0
  O  O45  1  0.99773000  0.62181000  0.78812000  1.0
  O  O46  1  0.50227000  0.62180000  0.28812000  1.0
  O  O47  1  0.00230000  0.37818000  0.21189000  1.0
  O  O48  1  0.98153000  0.88604000  0.39511000  1.0
  O  O49  1  0.48151000  0.11395000  0.10488000  1.0
  O  O50  1  0.01847000  0.11395000  0.60487000  1.0
  O  O51  1  0.51846000  0.88604000  0.89512000  1.0
  O  O52  1  0.92569000  0.10546000  0.35601000  1.0
  O  O53  1  0.42568000  0.89453000  0.14398000  1.0
  O  O54  1  0.07428000  0.89452000  0.64397000  1.0
  O  O55  1  0.57429000  0.10547000  0.85603000  1.0
  O  O56  1  0.35610000  0.79505000  0.41815000  1.0
  O  O57  1  0.85611000  0.20494000  0.08185000  1.0
  O  O58  1  0.64390000  0.20495000  0.58185000  1.0
  O  O59  1  0.14390000  0.79505000  0.91815000  1.0
  O  O60  1  0.75593000  0.68257000  0.55903000  1.0
  O  O61  1  0.25593000  0.31745000  0.94096000  1.0
  O  O62  1  0.24408000  0.31745000  0.44096000  1.0
  O  O63  1  0.74407000  0.68256000  0.05904000  1.0
