# generated using pymatgen
data_AgH4C4NO3
_symmetry_space_group_name_H-M   'P 1'
_cell_length_a   4.93053000
_cell_length_b   8.85586000
_cell_length_c   12.00180000
_cell_angle_alpha   89.99930000
_cell_angle_beta   90.00000000
_cell_angle_gamma   98.19110000
_symmetry_Int_Tables_number   1
_chemical_formula_structural   AgH4C4NO3
_chemical_formula_sum   'Ag4 H16 C16 N4 O12'
_cell_volume   518.70145867
_cell_formula_units_Z   4
loop_
 _symmetry_equiv_pos_site_id
 _symmetry_equiv_pos_as_xyz
  1  'x, y, z'
loop_
 _atom_site_type_symbol
 _atom_site_label
 _atom_site_symmetry_multiplicity
 _atom_site_fract_x
 _atom_site_fract_y
 _atom_site_fract_z
 _atom_site_occupancy
  Ag  Ag0  1  0.72562000  0.95524000  0.04992000  1.0
  Ag  Ag1  1  0.77437000  0.54475000  0.54992000  1.0
  Ag  Ag2  1  0.27437000  0.04475000  0.95008000  1.0
  Ag  Ag3  1  0.22563000  0.45524000  0.45008000  1.0
  H  H4  1  0.36424000  0.82017000  0.37474000  1.0
  H  H5  1  0.13576000  0.67984000  0.87473000  1.0
  H  H6  1  0.63577000  0.17984000  0.62526000  1.0
  H  H7  1  0.86423000  0.32016000  0.12526000  1.0
  H  H8  1  0.08450000  0.84580000  0.46180000  1.0
  H  H9  1  0.41550000  0.65420000  0.96179000  1.0
  H  H10  1  0.91551000  0.15420000  0.53821000  1.0
  H  H11  1  0.58450000  0.34580000  0.03820000  1.0
  H  H12  1  0.01450000  0.98745000  0.68605000  1.0
  H  H13  1  0.48549000  0.51255000  0.18604000  1.0
  H  H14  1  0.98550000  0.01255000  0.31396000  1.0
  H  H15  1  0.51450000  0.48745000  0.81396000  1.0
  H  H16  1  0.86452000  0.79428000  0.67287000  1.0
  H  H17  1  0.63548000  0.70572000  0.17287000  1.0
  H  H18  1  0.13549000  0.20573000  0.32713000  1.0
  H  H19  1  0.36451000  0.29428000  0.82713000  1.0
  C  C20  1  0.30174000  0.88752000  0.44528000  1.0
  C  C21  1  0.19825000  0.61248000  0.94528000  1.0
  C  C22  1  0.69827000  0.11248000  0.55472000  1.0
  C  C23  1  0.80174000  0.38752000  0.05472000  1.0
  C  C24  1  0.46387000  0.84727000  0.54455000  1.0
  C  C25  1  0.03612000  0.65272000  0.04455000  1.0
  C  C26  1  0.53614000  0.15273000  0.45545000  1.0
  C  C27  1  0.96387000  0.34727000  0.95545000  1.0
  C  C28  1  0.81801000  0.91141000  0.68154000  1.0
  C  C29  1  0.68198000  0.58859000  0.18154000  1.0
  C  C30  1  0.18199000  0.08860000  0.31846000  1.0
  C  C31  1  0.31801000  0.41141000  0.81846000  1.0
  C  C32  1  0.66860000  0.92492000  0.79218000  1.0
  C  C33  1  0.83139000  0.57508000  0.29217000  1.0
  C  C34  1  0.33139000  0.07508000  0.20782000  1.0
  C  C35  1  0.16860000  0.42492000  0.70782000  1.0
  N  N36  1  0.66582000  0.95161000  0.58482000  1.0
  N  N37  1  0.83417000  0.54840000  0.08481000  1.0
  N  N38  1  0.33419000  0.04840000  0.41518000  1.0
  N  N39  1  0.16582000  0.45160000  0.91518000  1.0
  O  O40  1  0.41319000  0.71554000  0.58418000  1.0
  O  O41  1  0.08681000  0.78446000  0.08419000  1.0
  O  O42  1  0.58681000  0.28446000  0.41582000  1.0
  O  O43  1  0.91320000  0.21553000  0.91581000  1.0
  O  O44  1  0.45625000  0.99022000  0.79050000  1.0
  O  O45  1  0.04376000  0.50978000  0.29050000  1.0
  O  O46  1  0.54376000  0.00978000  0.20950000  1.0
  O  O47  1  0.95624000  0.49023000  0.70950000  1.0
  O  O48  1  0.77992000  0.87060000  0.87598000  1.0
  O  O49  1  0.72008000  0.62940000  0.37597000  1.0
  O  O50  1  0.22008000  0.12940000  0.12402000  1.0
  O  O51  1  0.27992000  0.37060000  0.62402000  1.0
