# generated using pymatgen
data_GaH4C8O5
_symmetry_space_group_name_H-M   'P 1'
_cell_length_a   12.02490000
_cell_length_b   12.26160000
_cell_length_c   12.26192631
_cell_angle_alpha   76.08671590
_cell_angle_beta   60.63452889
_cell_angle_gamma   60.63180000
_symmetry_Int_Tables_number   1
_chemical_formula_structural   GaH4C8O5
_chemical_formula_sum   'Ga4 H16 C32 O20'
_cell_volume   1373.15614021
_cell_formula_units_Z   4
loop_
 _symmetry_equiv_pos_site_id
 _symmetry_equiv_pos_as_xyz
  1  'x, y, z'
loop_
 _atom_site_type_symbol
 _atom_site_label
 _atom_site_symmetry_multiplicity
 _atom_site_fract_x
 _atom_site_fract_y
 _atom_site_fract_z
 _atom_site_occupancy
  Ga  Ga0  1  0.19104000  0.61785000  0.99999000  1.0
  Ga  Ga1  1  0.80892000  0.38215000  0.99999000  1.0
  Ga  Ga2  1  0.55895000  0.49998000  0.88211000  1.0
  Ga  Ga3  1  0.94107000  0.49997000  0.11785000  1.0
  H  H4  1  0.19088000  0.43410000  0.93411000  1.0
  H  H5  1  0.55910000  0.56589000  0.06585000  1.0
  H  H6  1  0.37497000  0.43414000  0.06586000  1.0
  H  H7  1  0.87498000  0.56586000  0.93411000  1.0
  H  H8  1  0.86310000  0.50002000  0.50002000  1.0
  H  H9  1  0.11304000  0.99995000  0.00004000  1.0
  H  H10  1  0.88701000  0.99996000  0.00000000  1.0
  H  H11  1  0.63691000  0.49998000  0.50003000  1.0
  H  H12  1  0.23844000  0.55969000  0.30646000  1.0
  H  H13  1  0.10463000  0.44038000  0.69343000  1.0
  H  H14  1  0.54806000  0.80648000  0.94041000  1.0
  H  H15  1  0.29487000  0.19354000  0.05957000  1.0
  H  H16  1  0.51161000  0.19353000  0.94041000  1.0
  H  H17  1  0.64547000  0.80654000  0.05960000  1.0
  H  H18  1  0.20190000  0.55966000  0.69345000  1.0
  H  H19  1  0.45509000  0.44038000  0.30650000  1.0
  C  C20  1  0.95361000  0.50005000  0.49999000  1.0
  C  C21  1  0.20353000  0.99997000  0.00004000  1.0
  C  C22  1  0.79649000  0.99996000  0.00005000  1.0
  C  C23  1  0.54642000  0.49997000  0.50001000  1.0
  C  C24  1  0.04417000  0.54827000  0.26951000  1.0
  C  C25  1  0.86198000  0.45176000  0.73047000  1.0
  C  C26  1  0.34235000  0.76950000  0.95186000  1.0
  C  C27  1  0.06365000  0.23045000  0.04825000  1.0
  C  C28  1  0.70586000  0.23043000  0.95185000  1.0
  C  C29  1  0.88806000  0.76948000  0.04824000  1.0
  C  C30  1  0.40755000  0.54820000  0.73048000  1.0
  C  C31  1  0.68633000  0.45172000  0.26952000  1.0
  C  C32  1  0.05365000  0.52716000  0.39051000  1.0
  C  C33  1  0.97132000  0.47293000  0.60945000  1.0
  C  C34  1  0.33070000  0.89049000  0.97304000  1.0
  C  C35  1  0.19416000  0.10946000  0.02706000  1.0
  C  C36  1  0.69636000  0.10944000  0.97305000  1.0
  C  C37  1  0.77878000  0.89051000  0.02708000  1.0
  C  C38  1  0.41925000  0.52706000  0.60946000  1.0
  C  C39  1  0.55586000  0.47289000  0.39053000  1.0
  C  C40  1  0.18861000  0.50005000  0.49995000  1.0
  C  C41  1  0.43860000  0.00002000  0.99996000  1.0
  C  C42  1  0.56142000  0.00003000  0.99999000  1.0
  C  C43  1  0.31142000  0.50007000  0.49995000  1.0
  C  C44  1  0.16728000  0.53117000  0.39177000  1.0
  C  C45  1  0.09023000  0.46893000  0.60813000  1.0
  C  C46  1  0.44834000  0.89180000  0.96896000  1.0
  C  C47  1  0.30907000  0.10822000  0.03101000  1.0
  C  C48  1  0.58275000  0.10821000  0.96897000  1.0
  C  C49  1  0.65985000  0.89185000  0.03109000  1.0
  C  C50  1  0.30161000  0.53115000  0.60815000  1.0
  C  C51  1  0.44094000  0.46893000  0.39180000  1.0
  O  O52  1  0.10418000  0.61299000  0.18736000  1.0
  O  O53  1  0.90457000  0.38706000  0.81259000  1.0
  O  O54  1  0.46713000  0.68735000  0.88715000  1.0
  O  O55  1  0.04150000  0.31255000  0.11305000  1.0
  O  O56  1  0.64577000  0.31257000  0.88716000  1.0
  O  O57  1  0.84539000  0.68738000  0.11295000  1.0
  O  O58  1  0.28279000  0.61286000  0.81262000  1.0
  O  O59  1  0.70845000  0.38698000  0.18742000  1.0
  O  O60  1  0.12667000  0.49829000  0.99820000  1.0
  O  O61  1  0.62327000  0.50178000  0.00169000  1.0
  O  O62  1  0.37498000  0.49825000  0.00170000  1.0
  O  O63  1  0.87493000  0.50176000  0.99828000  1.0
  O  O64  1  0.98037000  0.49665000  0.25900000  1.0
  O  O65  1  0.73603000  0.50332000  0.74096000  1.0
  O  O66  1  0.22694000  0.75901000  0.00333000  1.0
  O  O67  1  0.98939000  0.24099000  0.99658000  1.0
  O  O68  1  0.76975000  0.24095000  0.00336000  1.0
  O  O69  1  0.01400000  0.75896000  0.99666000  1.0
  O  O70  1  0.52300000  0.49669000  0.74098000  1.0
  O  O71  1  0.76063000  0.50339000  0.25899000  1.0
