# generated using pymatgen
data_HoH7(C3O4)2
_symmetry_space_group_name_H-M   'P 1'
_cell_length_a   8.02571000
_cell_length_b   9.51621000
_cell_length_c   12.26420000
_cell_angle_alpha   91.33450000
_cell_angle_beta   89.99990000
_cell_angle_gamma   89.99990000
_symmetry_Int_Tables_number   1
_chemical_formula_structural   HoH7(C3O4)2
_chemical_formula_sum   'Ho4 H28 C24 O32'
_cell_volume   936.41614649
_cell_formula_units_Z   4
loop_
 _symmetry_equiv_pos_site_id
 _symmetry_equiv_pos_as_xyz
  1  'x, y, z'
loop_
 _atom_site_type_symbol
 _atom_site_label
 _atom_site_symmetry_multiplicity
 _atom_site_fract_x
 _atom_site_fract_y
 _atom_site_fract_z
 _atom_site_occupancy
  Ho  Ho0  1  0.94405000  0.30788000  0.58284000  1.0
  Ho  Ho1  1  0.44405000  0.19212000  0.91716000  1.0
  Ho  Ho2  1  0.05595000  0.69212000  0.41716000  1.0
  Ho  Ho3  1  0.55595000  0.80787000  0.08284000  1.0
  H  H4  1  0.69239000  0.66975000  0.79381000  1.0
  H  H5  1  0.19239000  0.83025000  0.70618000  1.0
  H  H6  1  0.30761000  0.33025000  0.20618000  1.0
  H  H7  1  0.80761000  0.16975000  0.29382000  1.0
  H  H8  1  0.82903000  0.93183000  0.67894000  1.0
  H  H9  1  0.32903000  0.56817000  0.82106000  1.0
  H  H10  1  0.17097000  0.06817000  0.32106000  1.0
  H  H11  1  0.67097000  0.43183000  0.17894000  1.0
  H  H12  1  0.39161000  0.13512000  0.50128000  1.0
  H  H13  1  0.89161000  0.36489000  0.99872000  1.0
  H  H14  1  0.60839000  0.86489000  0.49872000  1.0
  H  H15  1  0.10839000  0.63511000  0.00128000  1.0
  H  H16  1  0.80832000  0.18206000  0.78118000  1.0
  H  H17  1  0.30832000  0.31794000  0.71882000  1.0
  H  H18  1  0.19168000  0.81794000  0.21882000  1.0
  H  H19  1  0.69168000  0.68206000  0.28118000  1.0
  H  H20  1  0.20906000  0.12619000  0.67829000  1.0
  H  H21  1  0.70906000  0.37381000  0.82171000  1.0
  H  H22  1  0.79094000  0.87381000  0.32171000  1.0
  H  H23  1  0.29094000  0.62619000  0.17829000  1.0
  H  H24  1  0.98259000  0.24927000  0.81833000  1.0
  H  H25  1  0.48259000  0.25073000  0.68167000  1.0
  H  H26  1  0.01741000  0.75073000  0.18167000  1.0
  H  H27  1  0.51741000  0.74927000  0.31833000  1.0
  H  H28  1  0.14179000  0.03730000  0.57729000  1.0
  H  H29  1  0.64179000  0.46270000  0.92271000  1.0
  H  H30  1  0.85821000  0.96270000  0.42271000  1.0
  H  H31  1  0.35821000  0.53730000  0.07729000  1.0
  C  C32  1  0.81709000  0.64982000  0.63399000  1.0
  C  C33  1  0.31709000  0.85018000  0.86601000  1.0
  C  C34  1  0.18291000  0.35018000  0.36601000  1.0
  C  C35  1  0.68291000  0.14982000  0.13399000  1.0
  C  C36  1  0.75161000  0.73069000  0.73030000  1.0
  C  C37  1  0.25160000  0.76930000  0.76970000  1.0
  C  C38  1  0.24839000  0.26930000  0.26970000  1.0
  C  C39  1  0.74839000  0.23070000  0.23030000  1.0
  C  C40  1  0.77042000  0.87040000  0.74255000  1.0
  C  C41  1  0.27042000  0.62960000  0.75745000  1.0
  C  C42  1  0.22958000  0.12960000  0.25745000  1.0
  C  C43  1  0.72958000  0.37040000  0.24255000  1.0
  C  C44  1  0.69956000  0.94833000  0.83785000  1.0
  C  C45  1  0.19956000  0.55167000  0.66215000  1.0
  C  C46  1  0.30043000  0.05167000  0.16215000  1.0
  C  C47  1  0.80044000  0.44833000  0.33785000  1.0
  C  C48  1  0.65842000  0.14336000  0.53984000  1.0
  C  C49  1  0.15841000  0.35664000  0.96016000  1.0
  C  C50  1  0.34158000  0.85664000  0.46016000  1.0
  C  C51  1  0.84159000  0.64336000  0.03984000  1.0
  C  C52  1  0.50312000  0.06985000  0.50777000  1.0
  C  C53  1  0.00312000  0.43015000  0.99223000  1.0
  C  C54  1  0.49688000  0.93016000  0.49223000  1.0
  C  C55  1  0.99688000  0.56985000  0.00777000  1.0
  O  O56  1  0.83485000  0.51848000  0.64627000  1.0
  O  O57  1  0.33485000  0.98152000  0.85373000  1.0
  O  O58  1  0.16515000  0.48152000  0.35373000  1.0
  O  O59  1  0.66515000  0.01848000  0.14627000  1.0
  O  O60  1  0.10755000  0.10696000  0.63480000  1.0
  O  O61  1  0.60755000  0.39304000  0.86520000  1.0
  O  O62  1  0.89245000  0.89304000  0.36520000  1.0
  O  O63  1  0.39245000  0.60696000  0.13480000  1.0
  O  O64  1  0.88609000  0.26246000  0.76758000  1.0
  O  O65  1  0.38609000  0.23754000  0.73242000  1.0
  O  O66  1  0.11391000  0.73754000  0.23242000  1.0
  O  O67  1  0.61391000  0.76246000  0.26758000  1.0
  O  O68  1  0.85472000  0.71649000  0.54838000  1.0
  O  O69  1  0.35472000  0.78350000  0.95163000  1.0
  O  O70  1  0.14528000  0.28351000  0.45163000  1.0
  O  O71  1  0.64528000  0.21650000  0.04838000  1.0
  O  O72  1  0.66481000  0.07917000  0.82391000  1.0
  O  O73  1  0.16481000  0.42083000  0.67609000  1.0
  O  O74  1  0.33519000  0.92083000  0.17609000  1.0
  O  O75  1  0.83520000  0.57917000  0.32391000  1.0
  O  O76  1  0.66890000  0.88619000  0.92510000  1.0
  O  O77  1  0.16890000  0.61381000  0.57491000  1.0
  O  O78  1  0.33110000  0.11382000  0.07491000  1.0
  O  O79  1  0.83110000  0.38618000  0.42509000  1.0
  O  O80  1  0.64565000  0.25665000  0.59763000  1.0
  O  O81  1  0.14565000  0.24334000  0.90238000  1.0
  O  O82  1  0.35435000  0.74335000  0.40238000  1.0
  O  O83  1  0.85435000  0.75665000  0.09762000  1.0
  O  O84  1  0.80275000  0.09715000  0.51248000  1.0
  O  O85  1  0.30275000  0.40286000  0.98752000  1.0
  O  O86  1  0.19725000  0.90286000  0.48752000  1.0
  O  O87  1  0.69725000  0.59715000  0.01248000  1.0
