# generated using pymatgen
data_PrPH7C3O10
_symmetry_space_group_name_H-M   'P 1'
_cell_length_a   6.91357000
_cell_length_b   10.20240000
_cell_length_c   13.47330000
_cell_angle_alpha   90.00010000
_cell_angle_beta   90.00010000
_cell_angle_gamma   79.63800000
_symmetry_Int_Tables_number   1
_chemical_formula_structural   PrPH7C3O10
_chemical_formula_sum   'Pr4 P4 H28 C12 O40'
_cell_volume   934.84020062
_cell_formula_units_Z   4
loop_
 _symmetry_equiv_pos_site_id
 _symmetry_equiv_pos_as_xyz
  1  'x, y, z'
loop_
 _atom_site_type_symbol
 _atom_site_label
 _atom_site_symmetry_multiplicity
 _atom_site_fract_x
 _atom_site_fract_y
 _atom_site_fract_z
 _atom_site_occupancy
  Pr  Pr0  1  0.84141000  0.27900000  0.10326000  1.0
  Pr  Pr1  1  0.15860000  0.22100000  0.60326000  1.0
  Pr  Pr2  1  0.15859000  0.72100000  0.89674000  1.0
  Pr  Pr3  1  0.84141000  0.77900000  0.39674000  1.0
  P  P4  1  0.22054000  0.07554000  0.94668000  1.0
  P  P5  1  0.77947000  0.42446000  0.44668000  1.0
  P  P6  1  0.77947000  0.92445000  0.05332000  1.0
  P  P7  1  0.22053000  0.57555000  0.55332000  1.0
  H  H8  1  0.45687000  0.19908000  0.94478000  1.0
  H  H9  1  0.54314000  0.30092000  0.44478000  1.0
  H  H10  1  0.54314000  0.80092000  0.05522000  1.0
  H  H11  1  0.45686000  0.69908000  0.55522000  1.0
  H  H12  1  0.09283000  0.99023000  0.74567000  1.0
  H  H13  1  0.90717000  0.50977000  0.24567000  1.0
  H  H14  1  0.90717000  0.00977000  0.25433000  1.0
  H  H15  1  0.09282000  0.49023000  0.75433000  1.0
  H  H16  1  0.21475000  0.34173000  0.05514000  1.0
  H  H17  1  0.78525000  0.15827000  0.55514000  1.0
  H  H18  1  0.78526000  0.65827000  0.94486000  1.0
  H  H19  1  0.21475000  0.84172000  0.44486000  1.0
  H  H20  1  0.12927000  0.48617000  0.10038000  1.0
  H  H21  1  0.87073000  0.01383000  0.60038000  1.0
  H  H22  1  0.87074000  0.51383000  0.89962000  1.0
  H  H23  1  0.12927000  0.98617000  0.39963000  1.0
  H  H24  1  0.39648000  0.32892000  0.18579000  1.0
  H  H25  1  0.60352000  0.17108000  0.68578000  1.0
  H  H26  1  0.60353000  0.67106000  0.81422000  1.0
  H  H27  1  0.39647000  0.82893000  0.31422000  1.0
  H  H28  1  0.53992000  0.34076000  0.27665000  1.0
  H  H29  1  0.46009000  0.15925000  0.77664000  1.0
  H  H30  1  0.46009000  0.65923000  0.72336000  1.0
  H  H31  1  0.53991000  0.84077000  0.22335000  1.0
  H  H32  1  0.90435000  0.09763000  0.86537000  1.0
  H  H33  1  0.09566000  0.40236000  0.36538000  1.0
  H  H34  1  0.09566000  0.90236000  0.13463000  1.0
  H  H35  1  0.90434000  0.59764000  0.63462000  1.0
  C  C36  1  0.04053000  0.13503000  0.84736000  1.0
  C  C37  1  0.95947000  0.36497000  0.34737000  1.0
  C  C38  1  0.95948000  0.86497000  0.15263000  1.0
  C  C39  1  0.04052000  0.63503000  0.65263000  1.0
  C  C40  1  0.99451000  0.28599000  0.84195000  1.0
  C  C41  1  0.00550000  0.21401000  0.34196000  1.0
  C  C42  1  0.00550000  0.71400000  0.15804000  1.0
  C  C43  1  0.99450000  0.78600000  0.65805000  1.0
  C  C44  1  0.54719000  0.55505000  0.02516000  1.0
  C  C45  1  0.45281000  0.94494000  0.52516000  1.0
  C  C46  1  0.45281000  0.44495000  0.97484000  1.0
  C  C47  1  0.54717000  0.05506000  0.47485000  1.0
  O  O48  1  0.41547000  0.12234000  0.90728000  1.0
  O  O49  1  0.58454000  0.37766000  0.40728000  1.0
  O  O50  1  0.58454000  0.87766000  0.09272000  1.0
  O  O51  1  0.41546000  0.62234000  0.59272000  1.0
  O  O52  1  0.15321000  0.14279000  0.04408000  1.0
  O  O53  1  0.84679000  0.35722000  0.54408000  1.0
  O  O54  1  0.84680000  0.85721000  0.95592000  1.0
  O  O55  1  0.15320000  0.64280000  0.45592000  1.0
  O  O56  1  0.25045000  0.92535000  0.94226000  1.0
  O  O57  1  0.74955000  0.57465000  0.44226000  1.0
  O  O58  1  0.74956000  0.07466000  0.05773000  1.0
  O  O59  1  0.25045000  0.42535000  0.55773000  1.0
  O  O60  1  0.12574000  0.08119000  0.75674000  1.0
  O  O61  1  0.87427000  0.41881000  0.25674000  1.0
  O  O62  1  0.87426000  0.91881000  0.24325000  1.0
  O  O63  1  0.12573000  0.58119000  0.74326000  1.0
  O  O64  1  0.91895000  0.34933000  0.91787000  1.0
  O  O65  1  0.08104000  0.15067000  0.41787000  1.0
  O  O66  1  0.08105000  0.65067000  0.08213000  1.0
  O  O67  1  0.91894000  0.84933000  0.58213000  1.0
  O  O68  1  0.03823000  0.34053000  0.76167000  1.0
  O  O69  1  0.96176000  0.15947000  0.26167000  1.0
  O  O70  1  0.96176000  0.65947000  0.23832000  1.0
  O  O71  1  0.03823000  0.84054000  0.73832000  1.0
  O  O72  1  0.69809000  0.51990000  0.07744000  1.0
  O  O73  1  0.30191000  0.98010000  0.57744000  1.0
  O  O74  1  0.30191000  0.48010000  0.92256000  1.0
  O  O75  1  0.69811000  0.01989000  0.42255000  1.0
  O  O76  1  0.46604000  0.67486000  0.00641000  1.0
  O  O77  1  0.53395000  0.82515000  0.50641000  1.0
  O  O78  1  0.53395000  0.32516000  0.99359000  1.0
  O  O79  1  0.46605000  0.17485000  0.49359000  1.0
  O  O80  1  0.15390000  0.38737000  0.11415000  1.0
  O  O81  1  0.84610000  0.11263000  0.61415000  1.0
  O  O82  1  0.84610000  0.61262000  0.88585000  1.0
  O  O83  1  0.15390000  0.88738000  0.38585000  1.0
  O  O84  1  0.53185000  0.30120000  0.21025000  1.0
  O  O85  1  0.46815000  0.19881000  0.71025000  1.0
  O  O86  1  0.46815000  0.69879000  0.78975000  1.0
  O  O87  1  0.53185000  0.80121000  0.28975000  1.0
