# generated using pymatgen
data_Na2H16C12S2Br2N2O7
_symmetry_space_group_name_H-M   'P 1'
_cell_length_a   6.12620000
_cell_length_b   6.12609000
_cell_length_c   14.86768393
_cell_angle_alpha   101.89003634
_cell_angle_beta   92.07873248
_cell_angle_gamma   114.33060000
_symmetry_Int_Tables_number   1
_chemical_formula_structural   Na2H16C12S2Br2N2O7
_chemical_formula_sum   'Na2 H16 C12 S2 Br2 N2 O7'
_cell_volume   492.89835962
_cell_formula_units_Z   1
loop_
 _symmetry_equiv_pos_site_id
 _symmetry_equiv_pos_as_xyz
  1  'x, y, z'
loop_
 _atom_site_type_symbol
 _atom_site_label
 _atom_site_symmetry_multiplicity
 _atom_site_fract_x
 _atom_site_fract_y
 _atom_site_fract_z
 _atom_site_occupancy
  Na  Na0  1  0.88144000  0.69463000  0.53618000  1.0
  Na  Na1  1  0.15843000  0.34526000  0.46382000  1.0
  H  H2  1  0.18402000  0.02691000  0.76940000  1.0
  H  H3  1  0.25750000  0.41460000  0.23061000  1.0
  H  H4  1  0.04489000  0.00223000  0.92257000  1.0
  H  H5  1  0.07967000  0.12232000  0.07744000  1.0
  H  H6  1  0.16547000  0.76898000  0.01942000  1.0
  H  H7  1  0.74957000  0.14601000  0.98058000  1.0
  H  H8  1  0.42114000  0.56099000  0.96009000  1.0
  H  H9  1  0.60089000  0.46101000  0.03991000  1.0
  H  H10  1  0.56855000  0.59241000  0.80636000  1.0
  H  H11  1  0.78603000  0.76214000  0.19364000  1.0
  H  H12  1  0.63263000  0.12945000  0.44610000  1.0
  H  H13  1  0.68334000  0.18653000  0.55389000  1.0
  H  H14  1  0.09160000  0.22181000  0.63064000  1.0
  H  H15  1  0.59116000  0.46098000  0.36936000  1.0
  H  H16  1  0.30501000  0.14454000  0.61522000  1.0
  H  H17  1  0.52932000  0.68981000  0.38478000  1.0
  C  C18  1  0.38553000  0.81215000  0.78015000  1.0
  C  C19  1  0.03198000  0.60536000  0.21985000  1.0
  C  C20  1  0.23940000  0.92882000  0.81210000  1.0
  C  C21  1  0.11672000  0.42728000  0.18791000  1.0
  C  C22  1  0.16099000  0.91365000  0.89836000  1.0
  C  C23  1  0.01529000  0.26259000  0.10164000  1.0
  C  C24  1  0.22703000  0.78244000  0.95207000  1.0
  C  C25  1  0.83038000  0.27492000  0.04793000  1.0
  C  C26  1  0.37175000  0.66558000  0.91890000  1.0
  C  C27  1  0.74669000  0.45282000  0.08110000  1.0
  C  C28  1  0.45384000  0.68093000  0.83294000  1.0
  C  C29  1  0.84798000  0.62086000  0.16705000  1.0
  S  S30  1  0.47210000  0.82070000  0.66723000  1.0
  S  S31  1  0.15346000  0.80485000  0.33277000  1.0
  Br  Br32  1  0.83258000  0.31412000  0.74861000  1.0
  Br  Br33  1  0.56544000  0.08395000  0.25137000  1.0
  N  N34  1  0.55908000  0.09838000  0.65757000  1.0
  N  N35  1  0.44079000  0.90153000  0.34243000  1.0
  O  O36  1  0.25080000  0.68143000  0.60039000  1.0
  O  O37  1  0.08104000  0.65042000  0.39961000  1.0
  O  O38  1  0.65311000  0.72276000  0.65952000  1.0
  O  O39  1  0.06322000  0.99359000  0.34048000  1.0
  O  O40  1  0.75092000  0.25093000  0.50000000  1.0
  O  O41  1  0.15136000  0.13062000  0.58382000  1.0
  O  O42  1  0.54679000  0.56756000  0.41618000  1.0
