# generated using pymatgen
data_CdH5(C3N4)2
_symmetry_space_group_name_H-M   'P 1'
_cell_length_a   6.65127000
_cell_length_b   7.70824000
_cell_length_c   9.72325000
_cell_angle_alpha   81.97220000
_cell_angle_beta   89.52130000
_cell_angle_gamma   70.38560000
_symmetry_Int_Tables_number   1
_chemical_formula_structural   CdH5(C3N4)2
_chemical_formula_sum   'Cd2 H10 C12 N16'
_cell_volume   464.58171626
_cell_formula_units_Z   2
loop_
 _symmetry_equiv_pos_site_id
 _symmetry_equiv_pos_as_xyz
  1  'x, y, z'
loop_
 _atom_site_type_symbol
 _atom_site_label
 _atom_site_symmetry_multiplicity
 _atom_site_fract_x
 _atom_site_fract_y
 _atom_site_fract_z
 _atom_site_occupancy
  Cd  Cd0  1  0.21073000  0.10379000  0.95039000  1.0
  Cd  Cd1  1  0.78927000  0.89621000  0.04961000  1.0
  H  H2  1  0.32924000  0.03327000  0.63024000  1.0
  H  H3  1  0.67076000  0.96673000  0.36976000  1.0
  H  H4  1  0.37198000  0.20813000  0.40207000  1.0
  H  H5  1  0.62801000  0.79188000  0.59793000  1.0
  H  H6  1  0.29562000  0.55250000  0.38232000  1.0
  H  H7  1  0.70438000  0.44751000  0.61768000  1.0
  H  H8  1  0.15884000  0.71100000  0.58932000  1.0
  H  H9  1  0.84115000  0.28900000  0.41068000  1.0
  H  H10  1  0.05496000  0.69254000  0.83276000  1.0
  H  H11  1  0.94505000  0.30746000  0.16725000  1.0
  C  C12  1  0.29320000  0.18348000  0.61737000  1.0
  C  C13  1  0.70679000  0.81652000  0.38263000  1.0
  C  C14  1  0.31832000  0.28196000  0.49025000  1.0
  C  C15  1  0.68167000  0.71805000  0.50975000  1.0
  C  C16  1  0.27342000  0.47318000  0.47951000  1.0
  C  C17  1  0.72657000  0.52682000  0.52049000  1.0
  C  C18  1  0.19906000  0.56090000  0.59506000  1.0
  C  C19  1  0.80093000  0.43910000  0.40494000  1.0
  C  C20  1  0.17401000  0.45346000  0.71804000  1.0
  C  C21  1  0.82599000  0.54654000  0.28197000  1.0
  C  C22  1  0.08697000  0.54254000  0.83807000  1.0
  C  C23  1  0.91303000  0.45746000  0.16193000  1.0
  N  N24  1  0.22448000  0.26655000  0.72872000  1.0
  N  N25  1  0.77551000  0.73346000  0.27127000  1.0
  N  N26  1  0.04338000  0.44812000  0.94817000  1.0
  N  N27  1  0.95662000  0.55188000  0.05184000  1.0
  N  N28  1  0.94983000  0.99905000  0.85609000  1.0
  N  N29  1  0.05018000  0.00095000  0.14391000  1.0
  N  N30  1  0.87445000  0.03734000  0.73847000  1.0
  N  N31  1  0.12556000  0.96265000  0.26155000  1.0
  N  N32  1  0.80514000  0.07026000  0.62447000  1.0
  N  N33  1  0.19486000  0.92975000  0.37553000  1.0
  N  N34  1  0.51537000  0.85216000  0.91740000  1.0
  N  N35  1  0.48464000  0.14784000  0.08259000  1.0
  N  N36  1  0.52349000  0.70855000  0.87731000  1.0
  N  N37  1  0.47652000  0.29143000  0.12268000  1.0
  N  N38  1  0.53467000  0.57002000  0.83733000  1.0
  N  N39  1  0.46533000  0.42998000  0.16267000  1.0
