# generated using pymatgen
data_Zn4H40C99I12N16O15
_symmetry_space_group_name_H-M   'P 1'
_cell_length_a   19.22990000
_cell_length_b   19.34560000
_cell_length_c   20.09030442
_cell_angle_alpha   107.82615108
_cell_angle_beta   103.58742982
_cell_angle_gamma   114.32000000
_symmetry_Int_Tables_number   1
_chemical_formula_structural   Zn4H40C99I12N16O15
_chemical_formula_sum   'Zn4 H40 C99 I12 N16 O15'
_cell_volume   5895.60264105
_cell_formula_units_Z   1
loop_
 _symmetry_equiv_pos_site_id
 _symmetry_equiv_pos_as_xyz
  1  'x, y, z'
loop_
 _atom_site_type_symbol
 _atom_site_label
 _atom_site_symmetry_multiplicity
 _atom_site_fract_x
 _atom_site_fract_y
 _atom_site_fract_z
 _atom_site_occupancy
  Zn  Zn0  1  0.61526000  0.62041000  0.50069000  1.0
  Zn  Zn1  1  0.37764000  0.39241000  0.50080000  1.0
  Zn  Zn2  1  0.50193000  0.61355000  0.63042000  1.0
  Zn  Zn3  1  0.49892000  0.40831000  0.40628000  1.0
  H  H4  1  0.32012000  0.19873000  0.47716000  1.0
  H  H5  1  0.62735000  0.59889000  0.75311000  1.0
  H  H6  1  0.64034000  0.37131000  0.48489000  1.0
  H  H7  1  0.49949000  0.33898000  0.57540000  1.0
  H  H8  1  0.77227000  0.64436000  0.62645000  1.0
  H  H9  1  0.39283000  0.42241000  0.26926000  1.0
  H  H10  1  0.24089000  0.42051000  0.39846000  1.0
  H  H11  1  0.54160000  0.37036000  0.25430000  1.0
  H  H12  1  0.35796000  0.62078000  0.69481000  1.0
  H  H13  1  0.02005000  0.68216000  0.56946000  1.0
  H  H14  1  0.51771000  0.85236000  0.56063000  1.0
  H  H15  1  0.54967000  0.00006000  0.62203000  1.0
  H  H16  1  0.25613000  0.72855000  0.25620000  1.0
  H  H17  1  0.66887000  0.61226000  0.21280000  1.0
  H  H18  1  0.65731000  0.34145000  0.07966000  1.0
  H  H19  1  0.76562000  0.49295000  0.91169000  1.0
  H  H20  1  0.64077000  0.37576000  0.20185000  1.0
  H  H21  1  0.68199000  0.49618000  0.99004000  1.0
  H  H22  1  0.68513000  0.57816000  0.09114000  1.0
  H  H23  1  0.51284000  0.27587000  0.79717000  1.0
  H  H24  1  0.29900000  0.46627000  0.19539000  1.0
  H  H25  1  0.19075000  0.39956000  0.06338000  1.0
  H  H26  1  0.03558000  0.15404000  0.02063000  1.0
  H  H27  1  0.85659000  0.13133000  0.87977000  1.0
  H  H28  1  0.01102000  0.23543000  0.12222000  1.0
  H  H29  1  0.83245000  0.85624000  0.62292000  1.0
  H  H30  1  0.13985000  0.30267000  0.50205000  1.0
  H  H31  1  0.38551000  0.74403000  0.58488000  1.0
  H  H32  1  0.07998000  0.32764000  0.65173000  1.0
  H  H33  1  0.88491000  0.47683000  0.77123000  1.0
  H  H34  1  0.71385000  0.41017000  0.62502000  1.0
  H  H35  1  0.51964000  0.17793000  0.63067000  1.0
  H  H36  1  0.59160000  0.19048000  0.55375000  1.0
  H  H37  1  0.43029000  0.34585000  0.67321000  1.0
  H  H38  1  0.60240000  0.23900000  0.86126000  1.0
  H  H39  1  0.15955000  0.28413000  0.30365000  1.0
  H  H40  1  0.09071000  0.09377000  0.96032000  1.0
  H  H41  1  0.92037000  0.85230000  0.85094000  1.0
  H  H42  1  0.69367000  0.87004000  0.85185000  1.0
  H  H43  1  0.69431000  0.71138000  0.41872000  1.0
  C  C44  1  0.72617000  0.79045000  0.64952000  1.0
  C  C45  1  0.35767000  0.21576000  0.44559000  1.0
  C  C46  1  0.58935000  0.53857000  0.70117000  1.0
  C  C47  1  0.66050000  0.43809000  0.51371000  1.0
  C  C48  1  0.52153000  0.40507000  0.61100000  1.0
  C  C49  1  0.72746000  0.57766000  0.58604000  1.0
  C  C50  1  0.43239000  0.22324000  0.37739000  1.0
  C  C51  1  0.67151000  0.79182000  0.73503000  1.0
  C  C52  1  0.74133000  0.84253000  0.72443000  1.0
  C  C53  1  0.39113000  0.17221000  0.40851000  1.0
  C  C54  1  0.57981000  0.45864000  0.68820000  1.0
  C  C55  1  0.73941000  0.50843000  0.56973000  1.0
  C  C56  1  0.64690000  0.57962000  0.34449000  1.0
  C  C57  1  0.26335000  0.42125000  0.56696000  1.0
  C  C58  1  0.43829000  0.67584000  0.52822000  1.0
  C  C59  1  0.36616000  0.42444000  0.31131000  1.0
  C  C60  1  0.28744000  0.42124000  0.37635000  1.0
  C  C61  1  0.47665000  0.65648000  0.43236000  1.0
  C  C62  1  0.57374000  0.43856000  0.29032000  1.0
  C  C63  1  0.33555000  0.55685000  0.65302000  1.0
  C  C64  1  0.62768000  0.50619000  0.28058000  1.0
  C  C65  1  0.25467000  0.48477000  0.61550000  1.0
  C  C66  1  0.43491000  0.69244000  0.46426000  1.0
  C  C67  1  0.28733000  0.41394000  0.30436000  1.0
  C  C68  1  0.16349000  0.54061000  0.58807000  1.0
  C  C69  1  0.18163000  0.49075000  0.61924000  1.0
  C  C70  1  0.13301000  0.45389000  0.65521000  1.0
  C  C71  1  0.06889000  0.47001000  0.66320000  1.0
  C  C72  1  0.05286000  0.52245000  0.63256000  1.0
  C  C73  1  0.10697000  0.56556000  0.60156000  1.0
  C  C74  1  0.02270000  0.44385000  0.70703000  1.0
  C  C75  1  0.95201000  0.44836000  0.70307000  1.0
  C  C76  1  0.92251000  0.48039000  0.65329000  1.0
  C  C77  1  0.97966000  0.52714000  0.62772000  1.0
  C  C78  1  0.96131000  0.57468000  0.59188000  1.0
  C  C79  1  0.02674000  0.63293000  0.58035000  1.0
  C  C80  1  0.09809000  0.63102000  0.58757000  1.0
  C  C81  1  0.84192000  0.47167000  0.63222000  1.0
  C  C82  1  0.82169000  0.51580000  0.59328000  1.0
  C  C83  1  0.88201000  0.56635000  0.57329000  1.0
  C  C84  1  0.35188000  0.73732000  0.38597000  1.0
  C  C85  1  0.41590000  0.75469000  0.45129000  1.0
  C  C86  1  0.46848000  0.83867000  0.50951000  1.0
  C  C87  1  0.46122000  0.90588000  0.50380000  1.0
  C  C88  1  0.40082000  0.88947000  0.43496000  1.0
  C  C89  1  0.34562000  0.80412000  0.37524000  1.0
  C  C90  1  0.51029000  0.98882000  0.56627000  1.0
  C  C91  1  0.50542000  0.05556000  0.56011000  1.0
  C  C92  1  0.45407000  0.04289000  0.48710000  1.0
  C  C93  1  0.39633000  0.95821000  0.42628000  1.0
  C  C94  1  0.33615000  0.94339000  0.35694000  1.0
  C  C95  1  0.29007000  0.85817000  0.29457000  1.0
  C  C96  1  0.29211000  0.79192000  0.30485000  1.0
  C  C97  1  0.45946000  0.11236000  0.47399000  1.0
  C  C98  1  0.39271000  0.09798000  0.41204000  1.0
  C  C99  1  0.32929000  0.01417000  0.35764000  1.0
  C  C100  1  0.64920000  0.49452000  0.21451000  1.0
  C  C101  1  0.66489000  0.55245000  0.18333000  1.0
  C  C102  1  0.67503000  0.53329000  0.11536000  1.0
  C  C103  1  0.66978000  0.45582000  0.07465000  1.0
  C  C104  1  0.65893000  0.40009000  0.10850000  1.0
  C  C105  1  0.64887000  0.41959000  0.17668000  1.0
  C  C106  1  0.70338000  0.45481000  0.86441000  1.0
  C  C107  1  0.68672000  0.47644000  0.80493000  1.0
  C  C108  1  0.54527000  0.35665000  0.74288000  1.0
  C  C109  1  0.56329000  0.33209000  0.80023000  1.0
  C  C110  1  0.64023000  0.38434000  0.86467000  1.0
  C  C111  1  0.67023000  0.44044000  0.99974000  1.0
  C  C112  1  0.64969000  0.37146000  0.93482000  1.0
  C  C113  1  0.60606000  0.43170000  0.74485000  1.0
  C  C114  1  0.81284000  0.92817000  0.78073000  1.0
  C  C115  1  0.80368000  0.99980000  0.80207000  1.0
  C  C116  1  0.86750000  0.07894000  0.86256000  1.0
  C  C117  1  0.94450000  0.09054000  0.90415000  1.0
  C  C118  1  0.95710000  0.02129000  0.87931000  1.0
  C  C119  1  0.89146000  0.94063000  0.81925000  1.0
  C  C120  1  0.17481000  0.37811000  0.10494000  1.0
  C  C121  1  0.23569000  0.41503000  0.17892000  1.0
  C  C122  1  0.13493000  0.32220000  0.21168000  1.0
  C  C123  1  0.07401000  0.28619000  0.13724000  1.0
  C  C124  1  0.09397000  0.30925000  0.08172000  1.0
  C  C125  1  0.00659000  0.16710000  0.97605000  1.0
  C  C126  1  0.03508000  0.25119000  0.00038000  1.0
  C  C127  1  0.21884000  0.38550000  0.23286000  1.0
  C  C128  1  0.77171000  0.79755000  0.60192000  1.0
  C  C129  1  0.20634000  0.33335000  0.51042000  1.0
  C  C130  1  0.42079000  0.71178000  0.59222000  1.0
  C  C131  1  0.14137000  0.38539000  0.66944000  1.0
  C  C132  1  0.91490000  0.43885000  0.75962000  1.0
  C  C133  1  0.77148000  0.40713000  0.63839000  1.0
  C  C134  1  0.54322000  0.13450000  0.63322000  1.0
  C  C135  1  0.53939000  0.19553000  0.52174000  1.0
  C  C136  1  0.45615000  0.30720000  0.68626000  1.0
  C  C137  1  0.62602000  0.28446000  0.92269000  1.0
  C  C138  1  0.10888000  0.28125000  0.26028000  1.0
  C  C139  1  0.03928000  0.03112000  0.91178000  1.0
  C  C140  1  0.90354000  0.86580000  0.80150000  1.0
  C  C141  1  0.65122000  0.80557000  0.80175000  1.0
  C  C142  1  0.69807000  0.67078000  0.36863000  1.0
  I  I143  1  0.49936000  0.65885000  0.33704000  1.0
  I  I144  1  0.20434000  0.55550000  0.50124000  1.0
  I  I145  1  0.07999000  0.41752000  0.79229000  1.0
  I  I146  1  0.85064000  0.61804000  0.50026000  1.0
  I  I147  1  0.19982000  0.74165000  0.59982000  1.0
  I  I148  1  0.26368000  0.60927000  0.30594000  1.0
  I  I149  1  0.21866000  0.99956000  0.28730000  1.0
  I  I150  1  0.23404000  0.82735000  0.17737000  1.0
  I  I151  1  0.78871000  0.57875000  0.80678000  1.0
  I  I152  1  0.69082000  0.99014000  0.74436000  1.0
  I  I153  1  0.00632000  0.30424000  0.92843000  1.0
  I  I154  1  0.49974000  0.20498000  0.31407000  1.0
  N  N155  1  0.65189000  0.71574000  0.61856000  1.0
  N  N156  1  0.37813000  0.28708000  0.43741000  1.0
  N  N157  1  0.53879000  0.53123000  0.63723000  1.0
  N  N158  1  0.60698000  0.46456000  0.49766000  1.0
  N  N159  1  0.49691000  0.44907000  0.58143000  1.0
  N  N160  1  0.64796000  0.55049000  0.54198000  1.0
  N  N161  1  0.42543000  0.29245000  0.39552000  1.0
  N  N162  1  0.61955000  0.71642000  0.66968000  1.0
  N  N163  1  0.60642000  0.55452000  0.38803000  1.0
  N  N164  1  0.34434000  0.45580000  0.57607000  1.0
  N  N165  1  0.47730000  0.63167000  0.53184000  1.0
  N  N166  1  0.40751000  0.43415000  0.38069000  1.0
  N  N167  1  0.35933000  0.43262000  0.42085000  1.0
  N  N168  1  0.50319000  0.62162000  0.47465000  1.0
  N  N169  1  0.56174000  0.46844000  0.35378000  1.0
  N  N170  1  0.38796000  0.53808000  0.62768000  1.0
  O  O171  1  0.74278000  0.73704000  0.53724000  1.0
  O  O172  1  0.23043000  0.29262000  0.47118000  1.0
  O  O173  1  0.44767000  0.71102000  0.65427000  1.0
  O  O174  1  0.20678000  0.38526000  0.68753000  1.0
  O  O175  1  0.92288000  0.40122000  0.79721000  1.0
  O  O176  1  0.77221000  0.34990000  0.65298000  1.0
  O  O177  1  0.59227000  0.14927000  0.69442000  1.0
  O  O178  1  0.55462000  0.26510000  0.52536000  1.0
  O  O179  1  0.41151000  0.22934000  0.65751000  1.0
  O  O180  1  0.63149000  0.25933000  0.97201000  1.0
  O  O181  1  0.03600000  0.24285000  0.25231000  1.0
  O  O182  1  0.05275000  0.97355000  0.88625000  1.0
  O  O183  1  0.88766000  0.81713000  0.73666000  1.0
  O  O184  1  0.59158000  0.74961000  0.80361000  1.0
  O  O185  1  0.74220000  0.70333000  0.33864000  1.0
