# generated using pymatgen
data_Zn4H27C72N20Cl17O12
_symmetry_space_group_name_H-M   'P 1'
_cell_length_a   19.61120000
_cell_length_b   19.76660000
_cell_length_c   21.00113819
_cell_angle_alpha   107.35457276
_cell_angle_beta   108.01516721
_cell_angle_gamma   110.50300000
_symmetry_Int_Tables_number   1
_chemical_formula_structural   Zn4H27C72N20Cl17O12
_chemical_formula_sum   'Zn4 H27 C72 N20 Cl17 O12'
_cell_volume   6451.87019568
_cell_formula_units_Z   1
loop_
 _symmetry_equiv_pos_site_id
 _symmetry_equiv_pos_as_xyz
  1  'x, y, z'
loop_
 _atom_site_type_symbol
 _atom_site_label
 _atom_site_symmetry_multiplicity
 _atom_site_fract_x
 _atom_site_fract_y
 _atom_site_fract_z
 _atom_site_occupancy
  Zn  Zn0  1  0.88596000  0.89534000  0.49720000  1.0
  Zn  Zn1  1  0.10620000  0.10273000  0.51003000  1.0
  Zn  Zn2  1  0.08965000  0.98441000  0.59007000  1.0
  Zn  Zn3  1  0.90284000  0.01589000  0.41133000  1.0
  H  H4  1  0.15168000  0.01214000  0.38713000  1.0
  H  H5  1  0.05887000  0.55478000  0.56521000  1.0
  H  H6  1  0.58861000  0.62126000  0.08325000  1.0
  H  H7  1  0.87880000  0.67660000  0.18471000  1.0
  H  H8  1  0.99098000  0.02048000  0.91634000  1.0
  H  H9  1  0.08022000  0.04944000  0.22971000  1.0
  H  H10  1  0.08877000  0.04795000  0.11275000  1.0
  H  H11  1  0.12610000  0.81641000  0.67052000  1.0
  H  H12  1  0.17996000  0.17159000  0.35322000  1.0
  H  H13  1  0.54412000  0.94878000  0.48563000  1.0
  H  H14  1  0.05124000  0.60902000  0.80847000  1.0
  H  H15  1  0.84065000  0.73234000  0.53014000  1.0
  H  H16  1  0.89853000  0.39603000  0.45146000  1.0
  H  H17  1  0.25190000  0.01726000  0.70809000  1.0
  H  H18  1  0.45707000  0.32754000  0.98126000  1.0
  H  H19  1  0.63780000  0.73873000  0.19245000  1.0
  H  H20  1  0.72525000  0.50651000  0.00517000  1.0
  H  H21  1  0.00329000  0.21804000  0.07144000  1.0
  H  H22  1  0.34591000  0.29677000  0.65101000  1.0
  H  H23  1  0.85547000  0.19431000  0.52777000  1.0
  H  H24  1  0.10424000  0.84112000  0.47916000  1.0
  H  H25  1  0.33037000  0.78354000  0.42570000  1.0
  H  H26  1  0.13812000  0.26221000  0.63837000  1.0
  H  H27  1  0.33081000  0.70484000  0.28809000  1.0
  H  H28  1  0.24536000  0.77590000  0.22223000  1.0
  H  H29  1  0.39753000  0.91178000  0.27023000  1.0
  H  H30  1  0.83925000  0.47141000  0.56476000  1.0
  C  C31  1  0.92098000  0.02088000  0.64476000  1.0
  C  C32  1  0.90631000  0.77276000  0.55638000  1.0
  C  C33  1  0.88898000  0.86907000  0.29771000  1.0
  C  C34  1  0.07268000  0.22159000  0.60237000  1.0
  C  C35  1  0.10938000  0.88896000  0.46251000  1.0
  C  C36  1  0.85213000  0.78635000  0.27895000  1.0
  C  C37  1  0.14269000  0.90886000  0.41581000  1.0
  C  C38  1  0.97126000  0.76267000  0.59663000  1.0
  C  C39  1  0.02643000  0.12838000  0.30724000  1.0
  C  C40  1  0.38231000  0.92610000  0.37991000  1.0
  C  C41  1  0.42842000  0.88594000  0.41738000  1.0
  C  C42  1  0.00680000  0.23784000  0.59469000  1.0
  C  C43  1  0.57523000  0.86423000  0.35777000  1.0
  C  C44  1  0.18666000  0.87809000  0.38590000  1.0
  C  C45  1  0.38172000  0.88266000  0.30421000  1.0
  C  C46  1  0.27591000  0.11339000  0.69521000  1.0
  C  C47  1  0.42996000  0.84344000  0.34044000  1.0
  C  C48  1  0.29822000  0.80738000  0.27794000  1.0
  C  C49  1  0.29654000  0.85027000  0.35394000  1.0
  C  C50  1  0.34499000  0.76805000  0.31448000  1.0
  C  C51  1  0.34514000  0.81116000  0.39042000  1.0
  C  C52  1  0.50428000  0.84836000  0.34239000  1.0
  C  C53  1  0.32588000  0.19416000  0.71170000  1.0
  C  C54  1  0.23230000  0.85914000  0.36587000  1.0
  C  C55  1  0.01834000  0.56735000  0.70239000  1.0
  C  C56  1  0.94254000  0.48062000  0.66773000  1.0
  C  C57  1  0.00443000  0.31052000  0.62111000  1.0
  C  C58  1  0.71632000  0.93957000  0.36817000  1.0
  C  C59  1  0.97094000  0.69753000  0.61062000  1.0
  C  C60  1  0.06390000  0.52695000  0.66803000  1.0
  C  C61  1  0.98814000  0.43913000  0.63451000  1.0
  C  C62  1  0.02543000  0.53266000  0.59411000  1.0
  C  C63  1  0.97956000  0.57351000  0.62756000  1.0
  C  C64  1  0.65754000  0.88451000  0.37910000  1.0
  C  C65  1  0.94916000  0.44692000  0.56043000  1.0
  C  C66  1  0.90325000  0.48648000  0.59396000  1.0
  C  C67  1  0.99452000  0.36999000  0.63368000  1.0
  C  C68  1  0.97501000  0.64124000  0.62120000  1.0
  C  C69  1  0.79475000  0.71684000  0.20390000  1.0
  C  C70  1  0.27552000  0.20298000  0.65315000  1.0
  C  C71  1  0.81573000  0.66551000  0.16260000  1.0
  C  C72  1  0.75652000  0.59882000  0.09222000  1.0
  C  C73  1  0.67356000  0.58315000  0.06455000  1.0
  C  C74  1  0.65292000  0.63585000  0.10644000  1.0
  C  C75  1  0.86147000  0.78813000  0.34842000  1.0
  C  C76  1  0.71227000  0.70212000  0.17469000  1.0
  C  C77  1  0.49252000  0.34865000  0.91176000  1.0
  C  C78  1  0.42082000  0.28033000  0.85041000  1.0
  C  C79  1  0.55322000  0.39753000  0.89849000  1.0
  C  C80  1  0.40566000  0.25802000  0.77508000  1.0
  C  C81  1  0.47004000  0.30561000  0.76418000  1.0
  C  C82  1  0.70508000  0.86014000  0.42292000  1.0
  C  C83  1  0.54259000  0.37374000  0.82460000  1.0
  C  C84  1  0.99158000  0.09882000  0.79080000  1.0
  C  C85  1  0.00745000  0.17652000  0.83687000  1.0
  C  C86  1  0.13342000  0.97640000  0.41524000  1.0
  C  C87  1  0.01713000  0.19819000  0.91060000  1.0
  C  C88  1  0.01229000  0.14145000  0.93919000  1.0
  C  C89  1  0.99540000  0.06359000  0.89345000  1.0
  C  C90  1  0.98514000  0.04300000  0.82083000  1.0
  C  C91  1  0.01784000  0.18417000  0.14736000  1.0
  C  C92  1  0.01350000  0.18446000  0.21336000  1.0
  C  C93  1  0.04410000  0.13242000  0.11052000  1.0
  C  C94  1  0.93704000  0.16250000  0.53877000  1.0
  C  C95  1  0.03511000  0.13559000  0.24275000  1.0
  C  C96  1  0.06538000  0.08847000  0.20735000  1.0
  C  C97  1  0.04183000  0.83349000  0.61586000  1.0
  C  C98  1  0.06925000  0.08655000  0.14252000  1.0
  C  C99  1  0.05525000  0.08571000  0.70184000  1.0
  C  C100  1  0.98801000  0.07544000  0.71617000  1.0
  C  C101  1  0.95638000  0.10114000  0.31825000  1.0
  C  C102  1  0.08625000  0.13316000  0.36948000  1.0
  N  N103  1  0.94648000  0.00013000  0.59293000  1.0
  N  N104  1  0.62466000  0.46836000  0.95882000  1.0
  N  N105  1  0.02213000  0.16318000  0.01286000  1.0
  N  N106  1  0.04371000  0.14399000  0.55482000  1.0
  N  N107  1  0.04298000  0.12047000  0.04204000  1.0
  N  N108  1  0.20341000  0.07858000  0.63426000  1.0
  N  N109  1  0.79064000  0.94716000  0.40241000  1.0
  N  N110  1  0.20364000  0.13527000  0.60751000  1.0
  N  N111  1  0.78350000  0.89770000  0.43708000  1.0
  N  N112  1  0.95943000  0.10683000  0.51557000  1.0
  N  N113  1  0.03062000  0.04008000  0.62871000  1.0
  N  N114  1  0.09879000  0.99500000  0.45902000  1.0
  N  N115  1  0.90026000  0.86476000  0.40331000  1.0
  N  N116  1  0.02096000  0.88062000  0.58948000  1.0
  N  N117  1  0.97275000  0.09026000  0.38012000  1.0
  N  N118  1  0.05547000  0.11253000  0.41343000  1.0
  N  N119  1  0.93597000  0.84237000  0.55194000  1.0
  N  N120  1  0.91673000  0.91607000  0.37161000  1.0
  N  N121  1  0.08392000  0.94155000  0.48805000  1.0
  N  N122  1  0.60796000  0.51630000  0.99964000  1.0
  Cl  Cl123  1  0.81973000  0.98166000  0.62255000  1.0
  Cl  Cl124  1  0.98352000  0.24830000  0.25763000  1.0
  Cl  Cl125  1  0.70110000  0.99233000  0.31964000  1.0
  Cl  Cl126  1  0.96587000  0.94660000  0.76690000  1.0
  Cl  Cl127  1  0.03767000  0.29338000  0.96679000  1.0
  Cl  Cl128  1  0.01623000  0.24551000  0.80170000  1.0
  Cl  Cl129  1  0.67328000  0.79261000  0.45598000  1.0
  Cl  Cl130  1  0.15574000  0.14619000  0.76649000  1.0
  Cl  Cl131  1  0.82541000  0.70623000  0.36456000  1.0
  Cl  Cl132  1  0.85889000  0.07488000  0.26038000  1.0
  Cl  Cl133  1  0.89883000  0.90834000  0.23710000  1.0
  Cl  Cl134  1  0.40607000  0.02708000  0.42172000  1.0
  Cl  Cl135  1  0.89294000  0.45023000  0.71793000  1.0
  Cl  Cl136  1  0.16574000  0.55271000  0.71631000  1.0
  Cl  Cl137  1  0.34873000  0.22758000  0.87323000  1.0
  Cl  Cl138  1  0.45919000  0.27994000  0.67381000  1.0
  Cl  Cl139  1  0.61869000  0.43236000  0.80984000  1.0
  O  O140  1  0.12251000  0.85722000  0.65457000  1.0
  O  O141  1  0.99714000  0.23068000  0.11988000  1.0
  O  O142  1  0.28830000  0.26836000  0.64004000  1.0
  O  O143  1  0.85749000  0.14397000  0.50766000  1.0
  O  O144  1  0.16676000  0.15664000  0.38986000  1.0
  O  O145  1  0.49320000  0.92115000  0.48769000  1.0
  O  O146  1  0.05076000  0.63025000  0.77199000  1.0
  O  O147  1  0.91532000  0.38102000  0.49151000  1.0
  O  O148  1  0.29617000  0.07341000  0.73343000  1.0
  O  O149  1  0.50518000  0.36865000  0.98349000  1.0
  O  O150  1  0.69587000  0.75542000  0.21816000  1.0
  O  O151  1  0.77798000  0.55028000  0.05289000  1.0
