# generated using pymatgen
data_LaH11(C5O3)3
_symmetry_space_group_name_H-M   'P 1'
_cell_length_a   9.31394000
_cell_length_b   10.01800000
_cell_length_c   11.24050000
_cell_angle_alpha   92.00810000
_cell_angle_beta   98.18130000
_cell_angle_gamma   110.08000000
_symmetry_Int_Tables_number   1
_chemical_formula_structural   LaH11(C5O3)3
_chemical_formula_sum   'La2 H22 C30 O18'
_cell_volume   971.06059212
_cell_formula_units_Z   2
loop_
 _symmetry_equiv_pos_site_id
 _symmetry_equiv_pos_as_xyz
  1  'x, y, z'
loop_
 _atom_site_type_symbol
 _atom_site_label
 _atom_site_symmetry_multiplicity
 _atom_site_fract_x
 _atom_site_fract_y
 _atom_site_fract_z
 _atom_site_occupancy
  La  La0  1  0.28628000  0.04566000  0.98481000  1.0
  La  La1  1  0.71372000  0.95434000  0.01519000  1.0
  H  H2  1  0.32664000  0.48668000  0.03219000  1.0
  H  H3  1  0.67337000  0.51332000  0.96781000  1.0
  H  H4  1  0.19138000  0.79565000  0.22143000  1.0
  H  H5  1  0.80862000  0.20435000  0.77857000  1.0
  H  H6  1  0.89340000  0.35333000  0.16658000  1.0
  H  H7  1  0.10661000  0.64667000  0.83343000  1.0
  H  H8  1  0.17657000  0.59081000  0.42117000  1.0
  H  H9  1  0.82342000  0.40919000  0.57883000  1.0
  H  H10  1  0.27729000  0.72417000  0.62317000  1.0
  H  H11  1  0.72270000  0.27582000  0.37683000  1.0
  H  H12  1  0.91627000  0.90357000  0.57524000  1.0
  H  H13  1  0.08372000  0.09643000  0.42476000  1.0
  H  H14  1  0.81521000  0.77007000  0.37009000  1.0
  H  H15  1  0.18479000  0.22993000  0.62991000  1.0
  H  H16  1  0.58091000  0.18227000  0.19378000  1.0
  H  H17  1  0.41909000  0.81773000  0.80622000  1.0
  H  H18  1  0.08300000  0.02634000  0.21337000  1.0
  H  H19  1  0.91700000  0.97366000  0.78663000  1.0
  H  H20  1  0.53274000  0.31447000  0.15589000  1.0
  H  H21  1  0.46726000  0.68553000  0.84411000  1.0
  H  H22  1  0.26355000  0.11665000  0.24677000  1.0
  H  H23  1  0.73645000  0.88335000  0.75323000  1.0
  C  C24  1  0.07007000  0.25831000  0.03519000  1.0
  C  C25  1  0.92994000  0.74169000  0.96481000  1.0
  C  C26  1  0.10556000  0.40590000  0.09161000  1.0
  C  C27  1  0.89445000  0.59410000  0.90839000  1.0
  C  C28  1  0.24479000  0.51290000  0.08012000  1.0
  C  C29  1  0.75521000  0.48710000  0.91988000  1.0
  C  C30  1  0.27516000  0.65335000  0.12540000  1.0
  C  C31  1  0.72484000  0.34666000  0.87460000  1.0
  C  C32  1  0.41966000  0.76603000  0.10249000  1.0
  C  C33  1  0.58034000  0.23397000  0.89752000  1.0
  C  C34  1  0.17018000  0.68593000  0.18794000  1.0
  C  C35  1  0.82982000  0.31407000  0.81206000  1.0
  C  C36  1  0.03692000  0.57563000  0.20624000  1.0
  C  C37  1  0.96308000  0.42437000  0.79376000  1.0
  C  C38  1  0.00096000  0.43691000  0.15591000  1.0
  C  C39  1  0.99904000  0.56309000  0.84409000  1.0
  C  C40  1  0.99085000  0.67450000  0.38424000  1.0
  C  C41  1  0.00915000  0.32550000  0.61576000  1.0
  C  C42  1  0.12015000  0.65963000  0.45520000  1.0
  C  C43  1  0.87984000  0.34037000  0.54479000  1.0
  C  C44  1  0.17583000  0.73423000  0.56836000  1.0
  C  C45  1  0.82417000  0.26577000  0.43164000  1.0
  C  C46  1  0.10355000  0.82321000  0.61268000  1.0
  C  C47  1  0.89644000  0.17679000  0.38731000  1.0
  C  C48  1  0.16860000  0.90786000  0.73108000  1.0
  C  C49  1  0.83140000  0.09214000  0.26892000  1.0
  C  C50  1  0.97117000  0.83299000  0.54173000  1.0
  C  C51  1  0.02883000  0.16701000  0.45827000  1.0
  C  C52  1  0.91414000  0.75919000  0.42794000  1.0
  C  C53  1  0.08585000  0.24081000  0.57206000  1.0
  O  O54  1  0.93348000  0.16925000  0.02775000  1.0
  O  O55  1  0.06652000  0.83075000  0.97225000  1.0
  O  O56  1  0.17965000  0.23019000  0.99737000  1.0
  O  O57  1  0.82036000  0.76981000  0.00263000  1.0
  O  O58  1  0.54022000  0.73486000  0.10151000  1.0
  O  O59  1  0.45978000  0.26514000  0.89849000  1.0
  O  O60  1  0.41831000  0.89107000  0.07992000  1.0
  O  O61  1  0.58169000  0.10893000  0.92008000  1.0
  O  O62  1  0.93187000  0.60404000  0.27073000  1.0
  O  O63  1  0.06813000  0.39596000  0.72927000  1.0
  O  O64  1  0.28889000  0.89557000  0.79507000  1.0
  O  O65  1  0.71110000  0.10443000  0.20493000  1.0
  O  O66  1  0.10747000  0.99351000  0.77067000  1.0
  O  O67  1  0.89253000  0.00649000  0.22933000  1.0
  O  O68  1  0.49044000  0.21458000  0.17115000  1.0
  O  O69  1  0.50956000  0.78542000  0.82885000  1.0
  O  O70  1  0.18800000  0.03337000  0.19776000  1.0
  O  O71  1  0.81200000  0.96663000  0.80224000  1.0
