# generated using pymatgen
data_YH21(C9O2)3
_symmetry_space_group_name_H-M   'P 1'
_cell_length_a   7.89057000
_cell_length_b   11.33080000
_cell_length_c   13.06250000
_cell_angle_alpha   94.21660000
_cell_angle_beta   90.00000000
_cell_angle_gamma   90.00000000
_symmetry_Int_Tables_number   1
_chemical_formula_structural   YH21(C9O2)3
_chemical_formula_sum   'Y2 H42 C54 O12'
_cell_volume   1164.71084487
_cell_formula_units_Z   2
loop_
 _symmetry_equiv_pos_site_id
 _symmetry_equiv_pos_as_xyz
  1  'x, y, z'
loop_
 _atom_site_type_symbol
 _atom_site_label
 _atom_site_symmetry_multiplicity
 _atom_site_fract_x
 _atom_site_fract_y
 _atom_site_fract_z
 _atom_site_occupancy
  Y  Y0  1  0.46375000  0.54175000  0.47463000  1.0
  Y  Y1  1  0.96376000  0.45826000  0.52537000  1.0
  H  H2  1  0.63765000  0.12615000  0.60875000  1.0
  H  H3  1  0.13766000  0.87385000  0.39125000  1.0
  H  H4  1  0.30222000  0.26580000  0.60435000  1.0
  H  H5  1  0.80223000  0.73420000  0.39564000  1.0
  H  H6  1  0.50424000  0.95899000  0.59753000  1.0
  H  H7  1  0.00424000  0.04101000  0.40248000  1.0
  H  H8  1  0.34256000  0.77907000  0.62771000  1.0
  H  H9  1  0.84256000  0.22093000  0.37229000  1.0
  H  H10  1  0.03471000  0.79069000  0.66633000  1.0
  H  H11  1  0.53471000  0.20931000  0.33368000  1.0
  H  H12  1  0.88606000  0.98546000  0.67120000  1.0
  H  H13  1  0.38606000  0.01454000  0.32880000  1.0
  H  H14  1  0.04839000  0.16787000  0.63904000  1.0
  H  H15  1  0.54840000  0.83214000  0.36096000  1.0
  H  H16  1  0.37091000  0.62640000  0.75960000  1.0
  H  H17  1  0.87091000  0.37360000  0.24040000  1.0
  H  H18  1  0.13979000  0.45172000  0.86455000  1.0
  H  H19  1  0.63979000  0.54828000  0.13545000  1.0
  H  H20  1  0.41241000  0.73092000  0.90441000  1.0
  H  H21  1  0.91241000  0.26908000  0.09559000  1.0
  H  H22  1  0.47564000  0.82655000  0.07584000  1.0
  H  H23  1  0.97564000  0.17345000  0.92416000  1.0
  H  H24  1  0.37273000  0.73634000  0.23339000  1.0
  H  H25  1  0.87273000  0.26366000  0.76661000  1.0
  H  H26  1  0.20478000  0.55109000  0.21755000  1.0
  H  H27  1  0.70478000  0.44891000  0.78245000  1.0
  H  H28  1  0.14056000  0.45404000  0.04462000  1.0
  H  H29  1  0.64056000  0.54596000  0.95538000  1.0
  H  H30  1  0.10633000  0.18211000  0.26142000  1.0
  H  H31  1  0.60633000  0.81789000  0.73858000  1.0
  H  H32  1  0.40217000  0.33075000  0.18571000  1.0
  H  H33  1  0.90217000  0.66925000  0.81429000  1.0
  H  H34  1  0.15789000  0.04199000  0.13829000  1.0
  H  H35  1  0.65789000  0.95801000  0.86171000  1.0
  H  H36  1  0.14780000  0.92767000  0.97049000  1.0
  H  H37  1  0.64780000  0.07233000  0.02951000  1.0
  H  H38  1  0.28756000  0.00467000  0.81794000  1.0
  H  H39  1  0.78757000  0.99533000  0.18206000  1.0
  H  H40  1  0.44071000  0.19789000  0.83525000  1.0
  H  H41  1  0.94071000  0.80211000  0.16475000  1.0
  H  H42  1  0.45230000  0.31282000  0.00423000  1.0
  H  H43  1  0.95231000  0.68718000  0.99577000  1.0
  C  C44  1  0.62843000  0.31504000  0.59105000  1.0
  C  C45  1  0.12843000  0.68496000  0.40895000  1.0
  C  C46  1  0.54983000  0.19986000  0.60451000  1.0
  C  C47  1  0.04983000  0.80014000  0.39549000  1.0
  C  C48  1  0.37988000  0.18649000  0.60817000  1.0
  C  C49  1  0.87988000  0.81351000  0.39183000  1.0
  C  C50  1  0.28841000  0.07699000  0.61956000  1.0
  C  C51  1  0.78842000  0.92301000  0.38044000  1.0
  C  C52  1  0.36950000  0.96588000  0.61564000  1.0
  C  C53  1  0.86951000  0.03412000  0.38436000  1.0
  C  C54  1  0.27842000  0.86427000  0.63274000  1.0
  C  C55  1  0.77842000  0.13574000  0.36726000  1.0
  C  C56  1  0.10466000  0.87111000  0.65363000  1.0
  C  C57  1  0.60466000  0.12889000  0.34637000  1.0
  C  C58  1  0.02184000  0.98021000  0.65578000  1.0
  C  C59  1  0.52185000  0.01979000  0.34422000  1.0
  C  C60  1  0.11243000  0.08238000  0.63813000  1.0
  C  C61  1  0.61244000  0.91762000  0.36187000  1.0
  C  C62  1  0.20722000  0.49817000  0.67636000  1.0
  C  C63  1  0.70722000  0.50183000  0.32364000  1.0
  C  C64  1  0.28151000  0.55488000  0.76983000  1.0
  C  C65  1  0.78151000  0.44511000  0.23018000  1.0
  C  C66  1  0.22901000  0.52558000  0.86326000  1.0
  C  C67  1  0.72901000  0.47442000  0.13674000  1.0
  C  C68  1  0.27356000  0.58418000  0.96234000  1.0
  C  C69  1  0.77355000  0.41582000  0.03766000  1.0
  C  C70  1  0.36783000  0.69022000  0.97262000  1.0
  C  C71  1  0.86783000  0.30978000  0.02738000  1.0
  C  C72  1  0.40278000  0.74466000  0.06924000  1.0
  C  C73  1  0.90278000  0.25534000  0.93076000  1.0
  C  C74  1  0.34399000  0.69491000  0.15758000  1.0
  C  C75  1  0.84398000  0.30509000  0.84242000  1.0
  C  C76  1  0.24995000  0.59013000  0.14881000  1.0
  C  C77  1  0.74995000  0.40987000  0.85119000  1.0
  C  C78  1  0.21477000  0.53549000  0.05212000  1.0
  C  C79  1  0.71477000  0.46451000  0.94788000  1.0
  C  C80  1  0.22186000  0.32656000  0.35638000  1.0
  C  C81  1  0.72187000  0.67344000  0.64362000  1.0
  C  C82  1  0.20761000  0.24769000  0.26213000  1.0
  C  C83  1  0.70761000  0.75231000  0.73787000  1.0
  C  C84  1  0.30902000  0.25896000  0.17996000  1.0
  C  C85  1  0.80903000  0.74104000  0.82004000  1.0
  C  C86  1  0.30387000  0.18693000  0.08306000  1.0
  C  C87  1  0.80387000  0.81307000  0.91694000  1.0
  C  C88  1  0.21910000  0.07715000  0.07211000  1.0
  C  C89  1  0.71911000  0.92285000  0.92789000  1.0
  C  C90  1  0.21395000  0.01231000  0.97754000  1.0
  C  C91  1  0.71396000  0.98768000  0.02246000  1.0
  C  C92  1  0.29321000  0.05548000  0.89197000  1.0
  C  C93  1  0.79321000  0.94452000  0.10803000  1.0
  C  C94  1  0.37888000  0.16371000  0.90163000  1.0
  C  C95  1  0.87888000  0.83629000  0.09837000  1.0
  C  C96  1  0.38527000  0.22841000  0.99655000  1.0
  C  C97  1  0.88528000  0.77159000  0.00345000  1.0
  O  O98  1  0.53465000  0.40672000  0.58525000  1.0
  O  O99  1  0.03465000  0.59328000  0.41475000  1.0
  O  O100  1  0.79035000  0.31881000  0.58595000  1.0
  O  O101  1  0.29035000  0.68119000  0.41405000  1.0
  O  O102  1  0.23561000  0.54430000  0.58888000  1.0
  O  O103  1  0.73561000  0.45570000  0.41112000  1.0
  O  O104  1  0.10434000  0.41200000  0.67746000  1.0
  O  O105  1  0.60435000  0.58800000  0.32254000  1.0
  O  O106  1  0.10276000  0.32204000  0.42298000  1.0
  O  O107  1  0.60276000  0.67796000  0.57703000  1.0
  O  O108  1  0.34874000  0.39590000  0.36846000  1.0
  O  O109  1  0.84874000  0.60410000  0.63154000  1.0
