# generated using pymatgen
data_CaH6C8O5
_symmetry_space_group_name_H-M   'P 1'
_cell_length_a   6.65965000
_cell_length_b   11.13450000
_cell_length_c   11.95520000
_cell_angle_alpha   98.83610000
_cell_angle_beta   90.00000000
_cell_angle_gamma   89.99970000
_symmetry_Int_Tables_number   1
_chemical_formula_structural   CaH6C8O5
_chemical_formula_sum   'Ca4 H24 C32 O20'
_cell_volume   875.97930137
_cell_formula_units_Z   4
loop_
 _symmetry_equiv_pos_site_id
 _symmetry_equiv_pos_as_xyz
  1  'x, y, z'
loop_
 _atom_site_type_symbol
 _atom_site_label
 _atom_site_symmetry_multiplicity
 _atom_site_fract_x
 _atom_site_fract_y
 _atom_site_fract_z
 _atom_site_occupancy
  Ca  Ca0  1  0.88193000  0.55965000  0.69639000  1.0
  Ca  Ca1  1  0.38193000  0.44035000  0.80361000  1.0
  Ca  Ca2  1  0.11806000  0.44035000  0.30361000  1.0
  Ca  Ca3  1  0.61807000  0.55965000  0.19639000  1.0
  H  H4  1  0.09879000  0.14735000  0.74156000  1.0
  H  H5  1  0.59880000  0.85265000  0.75844000  1.0
  H  H6  1  0.90121000  0.85265000  0.25844000  1.0
  H  H7  1  0.40120000  0.14735000  0.24156000  1.0
  H  H8  1  0.05328000  0.93999000  0.79376000  1.0
  H  H9  1  0.55329000  0.06001000  0.70623000  1.0
  H  H10  1  0.94672000  0.06001000  0.20623000  1.0
  H  H11  1  0.44671000  0.93999000  0.29377000  1.0
  H  H12  1  0.79803000  0.90771000  0.93742000  1.0
  H  H13  1  0.29803000  0.09229000  0.56257000  1.0
  H  H14  1  0.20197000  0.09229000  0.06257000  1.0
  H  H15  1  0.70197000  0.90771000  0.43743000  1.0
  H  H16  1  0.58414000  0.08056000  0.02604000  1.0
  H  H17  1  0.08414000  0.91944000  0.47396000  1.0
  H  H18  1  0.41586000  0.91943000  0.97396000  1.0
  H  H19  1  0.91585000  0.08057000  0.52603000  1.0
  H  H20  1  0.81570000  0.66666667  0.93716000  1.0
  H  H21  1  0.31570000  0.33333333  0.56284000  1.0
  H  H22  1  0.18430000  0.33333333  0.06284000  1.0
  H  H23  1  0.68430000  0.66666667  0.43716000  1.0
  H  H24  1  0.05291000  0.66152000  0.91288000  1.0
  H  H25  1  0.55292000  0.33848000  0.58712000  1.0
  H  H26  1  0.94709000  0.33847000  0.08712000  1.0
  H  H27  1  0.44709000  0.66152000  0.41288000  1.0
  C  C28  1  0.86027000  0.22694000  0.84898000  1.0
  C  C29  1  0.36028000  0.77306000  0.65102000  1.0
  C  C30  1  0.13973000  0.77306000  0.15102000  1.0
  C  C31  1  0.63972000  0.22694000  0.34898000  1.0
  C  C32  1  0.98356000  0.13048000  0.80181000  1.0
  C  C33  1  0.48356000  0.86952000  0.69819000  1.0
  C  C34  1  0.01645000  0.86952000  0.19820000  1.0
  C  C35  1  0.51644000  0.13048000  0.30180000  1.0
  C  C36  1  0.95829000  0.01520000  0.83137000  1.0
  C  C37  1  0.45829000  0.98480000  0.66863000  1.0
  C  C38  1  0.04171000  0.98480000  0.16863000  1.0
  C  C39  1  0.54171000  0.01520000  0.33137000  1.0
  C  C40  1  0.81333000  0.99705000  0.91164000  1.0
  C  C41  1  0.31332000  0.00295000  0.58836000  1.0
  C  C42  1  0.18668000  0.00294000  0.08836000  1.0
  C  C43  1  0.68667000  0.99706000  0.41164000  1.0
  C  C44  1  0.69228000  0.09335000  0.96058000  1.0
  C  C45  1  0.19228000  0.90665000  0.53943000  1.0
  C  C46  1  0.30773000  0.90665000  0.03943000  1.0
  C  C47  1  0.80772000  0.09335000  0.46057000  1.0
  C  C48  1  0.71260000  0.20820000  0.92868000  1.0
  C  C49  1  0.21260000  0.79180000  0.57132000  1.0
  C  C50  1  0.28740000  0.79180000  0.07132000  1.0
  C  C51  1  0.78740000  0.20820000  0.42868000  1.0
  C  C52  1  0.88224000  0.34822000  0.81299000  1.0
  C  C53  1  0.38224000  0.65178000  0.68701000  1.0
  C  C54  1  0.11776000  0.65178000  0.18701000  1.0
  C  C55  1  0.61776000  0.34822000  0.31299000  1.0
  C  C56  1  0.59374000  0.31402000  0.98882000  1.0
  C  C57  1  0.09374000  0.68598000  0.51118000  1.0
  C  C58  1  0.40626000  0.68598000  0.01119000  1.0
  C  C59  1  0.90626000  0.31402000  0.48882000  1.0
  O  O60  1  0.05222000  0.38285000  0.78149000  1.0
  O  O61  1  0.55223000  0.61715000  0.71851000  1.0
  O  O62  1  0.94777000  0.61715000  0.21851000  1.0
  O  O63  1  0.44777000  0.38285000  0.28149000  1.0
  O  O64  1  0.91944000  0.67559000  0.88015000  1.0
  O  O65  1  0.41944000  0.32441000  0.61985000  1.0
  O  O66  1  0.08056000  0.32441000  0.11985000  1.0
  O  O67  1  0.58056000  0.67559000  0.38015000  1.0
  O  O68  1  0.72699000  0.41526000  0.81142000  1.0
  O  O69  1  0.22700000  0.58475000  0.68858000  1.0
  O  O70  1  0.27300000  0.58474000  0.18858000  1.0
  O  O71  1  0.77300000  0.41526000  0.31142000  1.0
  O  O72  1  0.41120000  0.32764000  0.96168000  1.0
  O  O73  1  0.91120000  0.67236000  0.53832000  1.0
  O  O74  1  0.58880000  0.67236000  0.03832000  1.0
  O  O75  1  0.08880000  0.32764000  0.46168000  1.0
  O  O76  1  0.69005000  0.38272000  0.06540000  1.0
  O  O77  1  0.19005000  0.61728000  0.43461000  1.0
  O  O78  1  0.30995000  0.61728000  0.93461000  1.0
  O  O79  1  0.80995000  0.38273000  0.56539000  1.0
