# generated using pymatgen
data_CuH18C24Br(N2O)3
_symmetry_space_group_name_H-M   'P 1'
_cell_length_a   8.77080000
_cell_length_b   11.55440000
_cell_length_c   12.59100000
_cell_angle_alpha   97.85320000
_cell_angle_beta   103.50400000
_cell_angle_gamma   93.16430000
_symmetry_Int_Tables_number   1
_chemical_formula_structural   CuH18C24Br(N2O)3
_chemical_formula_sum   'Cu2 H36 C48 Br2 N12 O6'
_cell_volume   1224.04030581
_cell_formula_units_Z   2
loop_
 _symmetry_equiv_pos_site_id
 _symmetry_equiv_pos_as_xyz
  1  'x, y, z'
loop_
 _atom_site_type_symbol
 _atom_site_label
 _atom_site_symmetry_multiplicity
 _atom_site_fract_x
 _atom_site_fract_y
 _atom_site_fract_z
 _atom_site_occupancy
  Cu  Cu0  1  0.07678000  0.00900000  0.75280000  1.0
  Cu  Cu1  1  0.92324000  0.99101000  0.24720000  1.0
  H  H2  1  0.65704000  0.41802000  0.82594000  1.0
  H  H3  1  0.34295000  0.58197000  0.17406000  1.0
  H  H4  1  0.54651000  0.85207000  0.14699000  1.0
  H  H5  1  0.45350000  0.14793000  0.85301000  1.0
  H  H6  1  0.81910000  0.75998000  0.36504000  1.0
  H  H7  1  0.18092000  0.24003000  0.63496000  1.0
  H  H8  1  0.63845000  0.57932000  0.89447000  1.0
  H  H9  1  0.36154000  0.42068000  0.10553000  1.0
  H  H10  1  0.87774000  0.42630000  0.17669000  1.0
  H  H11  1  0.12224000  0.57369000  0.82331000  1.0
  H  H12  1  0.63084000  0.73208000  0.22252000  1.0
  H  H13  1  0.36918000  0.26793000  0.77748000  1.0
  H  H14  1  0.29680000  0.86233000  0.86364000  1.0
  H  H15  1  0.70321000  0.13768000  0.13636000  1.0
  H  H16  1  0.07461000  0.14553000  0.97919000  1.0
  H  H17  1  0.92538000  0.85446000  0.02081000  1.0
  H  H18  1  0.23088000  0.14848000  0.17255000  1.0
  H  H19  1  0.76910000  0.85151000  0.82745000  1.0
  H  H20  1  0.42115000  0.99718000  0.21255000  1.0
  H  H21  1  0.57885000  0.00282000  0.78746000  1.0
  H  H22  1  0.98539000  0.87674000  0.52244000  1.0
  H  H23  1  0.01464000  0.12326000  0.47756000  1.0
  H  H24  1  0.00707000  0.78282000  0.83195000  1.0
  H  H25  1  0.99294000  0.21720000  0.16805000  1.0
  H  H26  1  0.86000000  0.58935000  0.74922000  1.0
  H  H27  1  0.14000000  0.41067000  0.25079000  1.0
  H  H28  1  0.77517000  0.53623000  0.54169000  1.0
  H  H29  1  0.22483000  0.46378000  0.45831000  1.0
  H  H30  1  0.55124000  0.30333000  0.65616000  1.0
  H  H31  1  0.44875000  0.69666000  0.34384000  1.0
  H  H32  1  0.57764000  0.13126000  0.51853000  1.0
  H  H33  1  0.42236000  0.86873000  0.48146000  1.0
  H  H34  1  0.80430000  0.01302000  0.56348000  1.0
  H  H35  1  0.19572000  0.98698000  0.43652000  1.0
  H  H36  1  0.99783000  0.23694000  0.85863000  1.0
  H  H37  1  0.00216000  0.76306000  0.14136000  1.0
  C  C38  1  0.62340000  0.66218000  0.05220000  1.0
  C  C39  1  0.37660000  0.33782000  0.94780000  1.0
  C  C40  1  0.67566000  0.57620000  0.98298000  1.0
  C  C41  1  0.32434000  0.42380000  0.01702000  1.0
  C  C42  1  0.76957000  0.49212000  0.02743000  1.0
  C  C43  1  0.23041000  0.50787000  0.97257000  1.0
  C  C44  1  0.81042000  0.49421000  0.14197000  1.0
  C  C45  1  0.18957000  0.50579000  0.85803000  1.0
  C  C46  1  0.76301000  0.58149000  0.21212000  1.0
  C  C47  1  0.23699000  0.41851000  0.78788000  1.0
  C  C48  1  0.66901000  0.66512000  0.16692000  1.0
  C  C49  1  0.33099000  0.33488000  0.83308000  1.0
  C  C50  1  0.51158000  0.74229000  0.99733000  1.0
  C  C51  1  0.48842000  0.25771000  0.00267000  1.0
  C  C52  1  0.37003000  0.91641000  0.04125000  1.0
  C  C53  1  0.62997000  0.08359000  0.95875000  1.0
  C  C54  1  0.28209000  0.92257000  0.93395000  1.0
  C  C55  1  0.71793000  0.07744000  0.06605000  1.0
  C  C56  1  0.16000000  0.08188000  0.99847000  1.0
  C  C57  1  0.83999000  0.91812000  0.00153000  1.0
  C  C58  1  0.24570000  0.08231000  0.10647000  1.0
  C  C59  1  0.75429000  0.91768000  0.89353000  1.0
  C  C60  1  0.35116000  0.99883000  0.12890000  1.0
  C  C61  1  0.64884000  0.00117000  0.87110000  1.0
  C  C62  1  0.80867000  0.57746000  0.33413000  1.0
  C  C63  1  0.19134000  0.42254000  0.66587000  1.0
  C  C64  1  0.87263000  0.70344000  0.51659000  1.0
  C  C65  1  0.12739000  0.29657000  0.48342000  1.0
  C  C66  1  0.95363000  0.81149000  0.57042000  1.0
  C  C67  1  0.04638000  0.18852000  0.42958000  1.0
  C  C68  1  0.96472000  0.75949000  0.74259000  1.0
  C  C69  1  0.03528000  0.24052000  0.25741000  1.0
  C  C70  1  0.88378000  0.65090000  0.69549000  1.0
  C  C71  1  0.11621000  0.34912000  0.30452000  1.0
  C  C72  1  0.83597000  0.62117000  0.58106000  1.0
  C  C73  1  0.16404000  0.37884000  0.41894000  1.0
  C  C74  1  0.82931000  0.39626000  0.95986000  1.0
  C  C75  1  0.17068000  0.60373000  0.04014000  1.0
  C  C76  1  0.77132000  0.28102000  0.77028000  1.0
  C  C77  1  0.22867000  0.71897000  0.22972000  1.0
  C  C78  1  0.65306000  0.25236000  0.67193000  1.0
  C  C79  1  0.34693000  0.74763000  0.32807000  1.0
  C  C80  1  0.66623000  0.15637000  0.59611000  1.0
  C  C81  1  0.33378000  0.84363000  0.40388000  1.0
  C  C82  1  0.79389000  0.09012000  0.62071000  1.0
  C  C83  1  0.20612000  0.90987000  0.37929000  1.0
  C  C84  1  0.90094000  0.21370000  0.78615000  1.0
  C  C85  1  0.09905000  0.78630000  0.21385000  1.0
  Br  Br86  1  0.29657000  0.05639000  0.66570000  1.0
  Br  Br87  1  0.70344000  0.94361000  0.33430000  1.0
  N  N88  1  0.91017000  0.11817000  0.71403000  1.0
  N  N89  1  0.08984000  0.88184000  0.28597000  1.0
  N  N90  1  0.75424000  0.37461000  0.84892000  1.0
  N  N91  1  0.24574000  0.62537000  0.15108000  1.0
  N  N92  1  0.47869000  0.83441000  0.06707000  1.0
  N  N93  1  0.52131000  0.16559000  0.93293000  1.0
  N  N94  1  0.17901000  0.00413000  0.91333000  1.0
  N  N95  1  0.82100000  0.99587000  0.08668000  1.0
  N  N96  1  0.83002000  0.68488000  0.40075000  1.0
  N  N97  1  0.16999000  0.31512000  0.59925000  1.0
  N  N98  1  0.99682000  0.84036000  0.68101000  1.0
  N  N99  1  0.00319000  0.15965000  0.31899000  1.0
  O  O100  1  0.93701000  0.33966000  0.00219000  1.0
  O  O101  1  0.06297000  0.66033000  0.99781000  1.0
  O  O102  1  0.45145000  0.72207000  0.89669000  1.0
  O  O103  1  0.54854000  0.27793000  0.10331000  1.0
  O  O104  1  0.82615000  0.48333000  0.36954000  1.0
  O  O105  1  0.17385000  0.51667000  0.63046000  1.0
