# generated using pymatgen
data_AgH12C21N4ClO4
_symmetry_space_group_name_H-M   'P 1'
_cell_length_a   9.61804000
_cell_length_b   9.61870000
_cell_length_c   27.42667899
_cell_angle_alpha   96.44995557
_cell_angle_beta   96.45199672
_cell_angle_gamma   106.50000000
_symmetry_Int_Tables_number   1
_chemical_formula_structural   AgH12C21N4ClO4
_chemical_formula_sum   'Ag4 H48 C84 N16 Cl4 O16'
_cell_volume   2389.56054668
_cell_formula_units_Z   4
loop_
 _symmetry_equiv_pos_site_id
 _symmetry_equiv_pos_as_xyz
  1  'x, y, z'
loop_
 _atom_site_type_symbol
 _atom_site_label
 _atom_site_symmetry_multiplicity
 _atom_site_fract_x
 _atom_site_fract_y
 _atom_site_fract_z
 _atom_site_occupancy
  Ag  Ag0  1  0.04756000  0.57413000  0.68710000  1.0
  Ag  Ag1  1  0.92586000  0.45242000  0.81289000  1.0
  Ag  Ag2  1  0.95242000  0.42586000  0.31289000  1.0
  Ag  Ag3  1  0.07415000  0.54758000  0.18711000  1.0
  H  H4  1  0.47525000  0.31912000  0.72044000  1.0
  H  H5  1  0.18084000  0.02472000  0.77955000  1.0
  H  H6  1  0.52474000  0.68085000  0.27956000  1.0
  H  H7  1  0.81915000  0.97528000  0.22045000  1.0
  H  H8  1  0.62080000  0.20805000  0.77466000  1.0
  H  H9  1  0.29193000  0.87919000  0.72534000  1.0
  H  H10  1  0.37920000  0.79195000  0.22535000  1.0
  H  H11  1  0.70806000  0.12082000  0.27466000  1.0
  H  H12  1  0.45442000  0.37166000  0.90201000  1.0
  H  H13  1  0.12830000  0.04556000  0.59798000  1.0
  H  H14  1  0.54560000  0.62835000  0.09800000  1.0
  H  H15  1  0.87169000  0.95442000  0.40201000  1.0
  H  H16  1  0.31009000  0.48708000  0.84801000  1.0
  H  H17  1  0.01286000  0.18988000  0.65199000  1.0
  H  H18  1  0.68991000  0.51292000  0.15200000  1.0
  H  H19  1  0.98713000  0.81010000  0.34800000  1.0
  H  H20  1  0.68860000  0.09661000  0.95077000  1.0
  H  H21  1  0.40334000  0.81140000  0.54922000  1.0
  H  H22  1  0.31141000  0.90339000  0.04922000  1.0
  H  H23  1  0.59667000  0.18858000  0.45078000  1.0
  H  H24  1  0.80011000  0.21905000  0.03650000  1.0
  H  H25  1  0.28086000  0.69989000  0.46350000  1.0
  H  H26  1  0.19989000  0.78096000  0.96349000  1.0
  H  H27  1  0.71915000  0.30011000  0.53650000  1.0
  H  H28  1  0.83669000  0.64111000  0.99047000  1.0
  H  H29  1  0.85880000  0.66327000  0.50954000  1.0
  H  H30  1  0.16329000  0.35889000  0.00953000  1.0
  H  H31  1  0.14121000  0.33677000  0.49045000  1.0
  H  H32  1  0.73115000  0.51980000  0.90479000  1.0
  H  H33  1  0.98016000  0.76883000  0.59522000  1.0
  H  H34  1  0.26885000  0.48022000  0.09521000  1.0
  H  H35  1  0.01985000  0.23119000  0.40477000  1.0
  H  H36  1  0.44428000  0.98107000  0.82633000  1.0
  H  H37  1  0.51887000  0.05567000  0.67367000  1.0
  H  H38  1  0.55572000  0.01892000  0.17368000  1.0
  H  H39  1  0.48113000  0.94432000  0.32633000  1.0
  H  H40  1  0.49439000  0.74719000  0.80011000  1.0
  H  H41  1  0.75276000  0.00560000  0.69990000  1.0
  H  H42  1  0.50563000  0.25280000  0.19991000  1.0
  H  H43  1  0.24722000  0.99438000  0.30010000  1.0
  H  H44  1  0.95589000  0.95272000  0.85572000  1.0
  H  H45  1  0.54725000  0.54411000  0.64427000  1.0
  H  H46  1  0.04411000  0.04728000  0.14428000  1.0
  H  H47  1  0.45273000  0.45588000  0.35573000  1.0
  H  H48  1  0.90408000  0.18739000  0.88080000  1.0
  H  H49  1  0.31256000  0.59590000  0.61919000  1.0
  H  H50  1  0.09591000  0.81260000  0.11919000  1.0
  H  H51  1  0.68743000  0.40410000  0.38081000  1.0
  C  C52  1  0.30284000  0.47756000  0.75001000  1.0
  C  C53  1  0.02243000  0.19715000  0.74999000  1.0
  C  C54  1  0.69715000  0.52243000  0.24999000  1.0
  C  C55  1  0.97757000  0.80285000  0.25001000  1.0
  C  C56  1  0.38504000  0.41217000  0.78091000  1.0
  C  C57  1  0.08783000  0.11495000  0.71909000  1.0
  C  C58  1  0.61497000  0.58784000  0.21910000  1.0
  C  C59  1  0.91217000  0.88505000  0.28091000  1.0
  C  C60  1  0.47011000  0.33028000  0.76013000  1.0
  C  C61  1  0.16970000  0.02989000  0.73987000  1.0
  C  C62  1  0.52989000  0.66971000  0.23987000  1.0
  C  C63  1  0.83028000  0.97012000  0.26013000  1.0
  C  C64  1  0.55178000  0.26770000  0.79063000  1.0
  C  C65  1  0.23228000  0.94821000  0.70937000  1.0
  C  C66  1  0.44821000  0.73229000  0.20937000  1.0
  C  C67  1  0.76771000  0.05179000  0.29063000  1.0
  C  C68  1  0.55025000  0.28558000  0.84219000  1.0
  C  C69  1  0.21442000  0.94976000  0.65782000  1.0
  C  C70  1  0.44976000  0.71443000  0.15782000  1.0
  C  C71  1  0.78558000  0.05024000  0.34218000  1.0
  C  C72  1  0.46016000  0.36252000  0.86242000  1.0
  C  C73  1  0.13747000  0.03984000  0.63758000  1.0
  C  C74  1  0.53985000  0.63749000  0.13759000  1.0
  C  C75  1  0.86254000  0.96017000  0.36242000  1.0
  C  C76  1  0.37905000  0.42681000  0.83234000  1.0
  C  C77  1  0.07318000  0.12094000  0.66766000  1.0
  C  C78  1  0.62095000  0.57320000  0.16767000  1.0
  C  C79  1  0.92682000  0.87906000  0.33234000  1.0
  C  C80  1  0.70048000  0.29959000  0.92204000  1.0
  C  C81  1  0.20036000  0.79950000  0.57796000  1.0
  C  C82  1  0.29953000  0.70043000  0.07796000  1.0
  C  C83  1  0.79965000  0.20051000  0.42204000  1.0
  C  C84  1  0.72157000  0.21579000  0.95949000  1.0
  C  C85  1  0.28417000  0.77841000  0.54051000  1.0
  C  C86  1  0.27844000  0.78423000  0.04051000  1.0
  C  C87  1  0.71584000  0.22158000  0.45949000  1.0
  C  C88  1  0.78318000  0.28341000  0.00749000  1.0
  C  C89  1  0.21652000  0.71684000  0.49251000  1.0
  C  C90  1  0.21683000  0.71659000  0.99251000  1.0
  C  C91  1  0.78350000  0.28316000  0.50749000  1.0
  C  C92  1  0.82337000  0.43733000  0.01928000  1.0
  C  C93  1  0.06259000  0.67662000  0.48072000  1.0
  C  C94  1  0.17664000  0.56268000  0.98072000  1.0
  C  C95  1  0.93742000  0.32338000  0.51928000  1.0
  C  C96  1  0.88799000  0.50608000  0.06831000  1.0
  C  C97  1  0.99386000  0.61203000  0.43169000  1.0
  C  C98  1  0.11201000  0.49393000  0.93169000  1.0
  C  C99  1  0.00616000  0.38798000  0.56831000  1.0
  C  C100  1  0.80221000  0.52183000  0.98189000  1.0
  C  C101  1  0.97810000  0.69776000  0.51811000  1.0
  C  C102  1  0.19779000  0.47818000  0.01811000  1.0
  C  C103  1  0.02192000  0.30226000  0.48189000  1.0
  C  C104  1  0.74238000  0.45364000  0.93383000  1.0
  C  C105  1  0.04630000  0.75758000  0.56617000  1.0
  C  C106  1  0.25761000  0.54636000  0.06617000  1.0
  C  C107  1  0.95371000  0.24243000  0.43382000  1.0
  C  C108  1  0.67090000  0.09759000  0.85548000  1.0
  C  C109  1  0.40236000  0.82907000  0.64451000  1.0
  C  C110  1  0.32910000  0.90241000  0.14451000  1.0
  C  C111  1  0.59762000  0.17093000  0.35549000  1.0
  C  C112  1  0.55626000  0.97513000  0.83127000  1.0
  C  C113  1  0.52483000  0.94370000  0.66873000  1.0
  C  C114  1  0.44374000  0.02486000  0.16873000  1.0
  C  C115  1  0.47515000  0.05629000  0.33126000  1.0
  C  C116  1  0.58444000  0.84405000  0.81687000  1.0
  C  C117  1  0.65593000  0.91554000  0.68314000  1.0
  C  C118  1  0.41556000  0.15596000  0.18314000  1.0
  C  C119  1  0.34405000  0.08445000  0.31686000  1.0
  C  C120  1  0.72840000  0.83518000  0.82638000  1.0
  C  C121  1  0.66479000  0.77160000  0.67362000  1.0
  C  C122  1  0.27161000  0.16482000  0.17362000  1.0
  C  C123  1  0.33519000  0.22839000  0.32637000  1.0
  C  C124  1  0.75949000  0.70037000  0.81631000  1.0
  C  C125  1  0.79960000  0.74048000  0.68369000  1.0
  C  C126  1  0.24050000  0.29963000  0.18369000  1.0
  C  C127  1  0.20040000  0.25952000  0.31631000  1.0
  C  C128  1  0.84463000  0.96004000  0.84909000  1.0
  C  C129  1  0.53995000  0.65537000  0.65090000  1.0
  C  C130  1  0.15538000  0.03996000  0.15091000  1.0
  C  C131  1  0.46005000  0.34463000  0.34910000  1.0
  C  C132  1  0.81524000  0.09025000  0.86344000  1.0
  C  C133  1  0.40972000  0.68473000  0.63655000  1.0
  C  C134  1  0.18476000  0.90975000  0.13656000  1.0
  C  C135  1  0.59026000  0.31526000  0.36345000  1.0
  N  N136  1  0.23384000  0.53157000  0.72480000  1.0
  N  N137  1  0.96844000  0.26616000  0.77520000  1.0
  N  N138  1  0.76614000  0.46842000  0.27520000  1.0
  N  N139  1  0.03156000  0.73384000  0.22480000  1.0
  N  N140  1  0.64066000  0.22919000  0.87314000  1.0
  N  N141  1  0.27077000  0.85934000  0.62686000  1.0
  N  N142  1  0.35935000  0.77081000  0.12686000  1.0
  N  N143  1  0.72923000  0.14067000  0.37314000  1.0
  N  N144  1  0.79170000  0.59218000  0.81084000  1.0
  N  N145  1  0.90780000  0.70829000  0.68916000  1.0
  N  N146  1  0.20829000  0.40781000  0.18916000  1.0
  N  N147  1  0.09220000  0.29173000  0.31084000  1.0
  N  N148  1  0.94290000  0.56242000  0.10863000  1.0
  N  N149  1  0.93754000  0.55711000  0.39136000  1.0
  N  N150  1  0.05710000  0.43759000  0.89137000  1.0
  N  N151  1  0.06248000  0.44290000  0.60864000  1.0
  Cl  Cl152  1  0.69778000  0.31573000  0.64039000  1.0
  Cl  Cl153  1  0.18427000  0.80224000  0.85960000  1.0
  Cl  Cl154  1  0.30222000  0.68426000  0.35961000  1.0
  Cl  Cl155  1  0.81573000  0.19776000  0.14040000  1.0
  O  O156  1  0.79455000  0.36751000  0.68851000  1.0
  O  O157  1  0.13250000  0.70541000  0.81150000  1.0
  O  O158  1  0.20545000  0.63249000  0.31149000  1.0
  O  O159  1  0.86752000  0.29459000  0.18851000  1.0
  O  O160  1  0.72968000  0.18916000  0.61514000  1.0
  O  O161  1  0.31079000  0.77030000  0.88487000  1.0
  O  O162  1  0.27033000  0.81083000  0.38486000  1.0
  O  O163  1  0.68921000  0.22970000  0.11513000  1.0
  O  O164  1  0.54463000  0.27452000  0.64911000  1.0
  O  O165  1  0.22546000  0.95540000  0.85088000  1.0
  O  O166  1  0.45538000  0.72547000  0.35089000  1.0
  O  O167  1  0.77453000  0.04458000  0.14911000  1.0
  O  O168  1  0.72110000  0.43344000  0.60992000  1.0
  O  O169  1  0.06657000  0.77888000  0.89007000  1.0
  O  O170  1  0.27890000  0.56656000  0.39008000  1.0
  O  O171  1  0.93342000  0.22112000  0.10993000  1.0
