# generated using pymatgen
data_Cu2H11C14N5Cl2
_symmetry_space_group_name_H-M   'P 1'
_cell_length_a   8.04312000
_cell_length_b   9.46974000
_cell_length_c   10.97230000
_cell_angle_alpha   66.97050000
_cell_angle_beta   85.86630000
_cell_angle_gamma   67.33930000
_symmetry_Int_Tables_number   1
_chemical_formula_structural   Cu2H11C14N5Cl2
_chemical_formula_sum   'Cu4 H22 C28 N10 Cl4'
_cell_volume   706.69233275
_cell_formula_units_Z   2
loop_
 _symmetry_equiv_pos_site_id
 _symmetry_equiv_pos_as_xyz
  1  'x, y, z'
loop_
 _atom_site_type_symbol
 _atom_site_label
 _atom_site_symmetry_multiplicity
 _atom_site_fract_x
 _atom_site_fract_y
 _atom_site_fract_z
 _atom_site_occupancy
  Cu  Cu0  1  0.50045000  0.23541000  0.69356000  1.0
  Cu  Cu1  1  0.49955000  0.76459000  0.30644000  1.0
  Cu  Cu2  1  0.75562000  0.46358000  0.50675000  1.0
  Cu  Cu3  1  0.24436000  0.53643000  0.49324000  1.0
  H  H4  1  0.55712000  0.51735000  0.89488000  1.0
  H  H5  1  0.44288000  0.48265000  0.10512000  1.0
  H  H6  1  0.58055000  0.43694000  0.77136000  1.0
  H  H7  1  0.41945000  0.56306000  0.22864000  1.0
  H  H8  1  0.18472000  0.07978000  0.10819000  1.0
  H  H9  1  0.81529000  0.92021000  0.89181000  1.0
  H  H10  1  0.15317000  0.93427000  0.01788000  1.0
  H  H11  1  0.84684000  0.06572000  0.98213000  1.0
  H  H12  1  0.13798000  0.76088000  0.89963000  1.0
  H  H13  1  0.86202000  0.23910000  0.10038000  1.0
  H  H14  1  0.28481000  0.78712000  0.68569000  1.0
  H  H15  1  0.71518000  0.21288000  0.31432000  1.0
  H  H16  1  0.44289000  0.98272000  0.60138000  1.0
  H  H17  1  0.55710000  0.01727000  0.39863000  1.0
  H  H18  1  0.93724000  0.63473000  0.30343000  1.0
  H  H19  1  0.06275000  0.36528000  0.69656000  1.0
  H  H20  1  0.12337000  0.57808000  0.12495000  1.0
  H  H21  1  0.87663000  0.42193000  0.87504000  1.0
  H  H22  1  0.17185000  0.06650000  0.31626000  1.0
  H  H23  1  0.82814000  0.93351000  0.68374000  1.0
  H  H24  1  0.98449000  0.14514000  0.48873000  1.0
  H  H25  1  0.01549000  0.85487000  0.51127000  1.0
  C  C26  1  0.41529000  0.37043000  0.91079000  1.0
  C  C27  1  0.58471000  0.62956000  0.08921000  1.0
  C  C28  1  0.25310000  0.28794000  0.08853000  1.0
  C  C29  1  0.74690000  0.71206000  0.91147000  1.0
  C  C30  1  0.24579000  0.16638000  0.04915000  1.0
  C  C31  1  0.75421000  0.83362000  0.95085000  1.0
  C  C32  1  0.31445000  0.16454000  0.92873000  1.0
  C  C33  1  0.68556000  0.83545000  0.07128000  1.0
  C  C34  1  0.30198000  0.05355000  0.86912000  1.0
  C  C35  1  0.69804000  0.94645000  0.13088000  1.0
  C  C36  1  0.21245000  0.94501000  0.92386000  1.0
  C  C37  1  0.78757000  0.05499000  0.07615000  1.0
  C  C38  1  0.20451000  0.84806000  0.85825000  1.0
  C  C39  1  0.79551000  0.15193000  0.14176000  1.0
  C  C40  1  0.28462000  0.86257000  0.73920000  1.0
  C  C41  1  0.71539000  0.13743000  0.26080000  1.0
  C  C42  1  0.37395000  0.97080000  0.69195000  1.0
  C  C43  1  0.62605000  0.02919000  0.30806000  1.0
  C  C44  1  0.99098000  0.51082000  0.30235000  1.0
  C  C45  1  0.00900000  0.48920000  0.69764000  1.0
  C  C46  1  0.09515000  0.47822000  0.20297000  1.0
  C  C47  1  0.90485000  0.52178000  0.79703000  1.0
  C  C48  1  0.15822000  0.31867000  0.20141000  1.0
  C  C49  1  0.84178000  0.68133000  0.79859000  1.0
  C  C50  1  0.12123000  0.19492000  0.30812000  1.0
  C  C51  1  0.87876000  0.80509000  0.69187000  1.0
  C  C52  1  0.01671000  0.23712000  0.40446000  1.0
  C  C53  1  0.98328000  0.76289000  0.59554000  1.0
  N  N54  1  0.39251000  0.27121000  0.85598000  1.0
  N  N55  1  0.60749000  0.72878000  0.14401000  1.0
  N  N56  1  0.33947000  0.38807000  0.02070000  1.0
  N  N57  1  0.66053000  0.61193000  0.97930000  1.0
  N  N58  1  0.51566000  0.45761000  0.84966000  1.0
  N  N59  1  0.48435000  0.54239000  0.15034000  1.0
  N  N60  1  0.38574000  0.06244000  0.75581000  1.0
  N  N61  1  0.61427000  0.93754000  0.24420000  1.0
  N  N62  1  0.94578000  0.39400000  0.40034000  1.0
  N  N63  1  0.05421000  0.60601000  0.59965000  1.0
  Cl  Cl64  1  0.79816000  0.21071000  0.70516000  1.0
  Cl  Cl65  1  0.20183000  0.78929000  0.29484000  1.0
  Cl  Cl66  1  0.45397000  0.32455000  0.46515000  1.0
  Cl  Cl67  1  0.54601000  0.67545000  0.53486000  1.0
