# generated using pymatgen
data_H15PbC5S2NO4
_symmetry_space_group_name_H-M   'P 1'
_cell_length_a   7.57112000
_cell_length_b   10.49390000
_cell_length_c   14.81120000
_cell_angle_alpha   89.99900000
_cell_angle_beta   101.56800000
_cell_angle_gamma   89.99950000
_symmetry_Int_Tables_number   1
_chemical_formula_structural   H15PbC5S2NO4
_chemical_formula_sum   'H60 Pb4 C20 S8 N4 O16'
_cell_volume   1152.85535123
_cell_formula_units_Z   4
loop_
 _symmetry_equiv_pos_site_id
 _symmetry_equiv_pos_as_xyz
  1  'x, y, z'
loop_
 _atom_site_type_symbol
 _atom_site_label
 _atom_site_symmetry_multiplicity
 _atom_site_fract_x
 _atom_site_fract_y
 _atom_site_fract_z
 _atom_site_occupancy
  H  H0  1  0.27402000  0.47989000  0.48035000  1.0
  H  H1  1  0.72596000  0.97989000  0.01964000  1.0
  H  H2  1  0.72598000  0.52011000  0.51965000  1.0
  H  H3  1  0.27403000  0.02010000  0.98036000  1.0
  H  H4  1  0.17295000  0.32379000  0.48274000  1.0
  H  H5  1  0.82705000  0.82379000  0.01726000  1.0
  H  H6  1  0.82705000  0.67621000  0.51726000  1.0
  H  H7  1  0.17295000  0.17620000  0.98274000  1.0
  H  H8  1  0.41011000  0.34662000  0.52826000  1.0
  H  H9  1  0.58989000  0.84662000  0.97173000  1.0
  H  H10  1  0.58989000  0.65338000  0.47174000  1.0
  H  H11  1  0.41012000  0.15337000  0.02827000  1.0
  H  H12  1  0.05018000  0.01254000  0.20447000  1.0
  H  H13  1  0.94981000  0.51253000  0.29552000  1.0
  H  H14  1  0.94981000  0.98747000  0.79552000  1.0
  H  H15  1  0.05018000  0.48747000  0.70448000  1.0
  H  H16  1  0.12696000  0.17508000  0.19439000  1.0
  H  H17  1  0.87303000  0.67506000  0.30562000  1.0
  H  H18  1  0.87303000  0.82494000  0.80561000  1.0
  H  H19  1  0.12697000  0.32493000  0.69439000  1.0
  H  H20  1  0.28111000  0.04287000  0.19543000  1.0
  H  H21  1  0.71888000  0.54287000  0.30456000  1.0
  H  H22  1  0.71888000  0.95714000  0.80456000  1.0
  H  H23  1  0.28112000  0.45714000  0.69544000  1.0
  H  H24  1  0.84729000  0.89980000  0.41491000  1.0
  H  H25  1  0.15271000  0.39980000  0.08509000  1.0
  H  H26  1  0.15271000  0.10020000  0.58508000  1.0
  H  H27  1  0.84729000  0.60020000  0.91492000  1.0
  H  H28  1  0.64123000  0.91621000  0.45854000  1.0
  H  H29  1  0.35877000  0.41622000  0.04145000  1.0
  H  H30  1  0.35877000  0.08377000  0.54146000  1.0
  H  H31  1  0.64123000  0.58378000  0.95855000  1.0
  H  H32  1  0.63150000  0.88310000  0.33762000  1.0
  H  H33  1  0.36851000  0.38310000  0.16237000  1.0
  H  H34  1  0.36851000  0.11689000  0.66237000  1.0
  H  H35  1  0.63150000  0.61690000  0.83763000  1.0
  H  H36  1  0.93505000  0.21393000  0.53157000  1.0
  H  H37  1  0.06496000  0.71392000  0.96842000  1.0
  H  H38  1  0.06495000  0.78607000  0.46843000  1.0
  H  H39  1  0.93505000  0.28608000  0.03158000  1.0
  H  H40  1  0.84074000  0.35417000  0.46827000  1.0
  H  H41  1  0.15924000  0.85417000  0.03172000  1.0
  H  H42  1  0.15926000  0.64583000  0.53173000  1.0
  H  H43  1  0.84075000  0.14583000  0.96828000  1.0
  H  H44  1  0.71002000  0.26224000  0.53549000  1.0
  H  H45  1  0.28999000  0.76224000  0.96451000  1.0
  H  H46  1  0.28998000  0.73776000  0.46452000  1.0
  H  H47  1  0.71002000  0.23776000  0.03549000  1.0
  H  H48  1  0.82322000  0.19853000  0.21112000  1.0
  H  H49  1  0.17678000  0.69854000  0.28888000  1.0
  H  H50  1  0.17678000  0.80147000  0.78888000  1.0
  H  H51  1  0.82322000  0.30146000  0.71112000  1.0
  H  H52  1  0.59855000  0.13265000  0.18424000  1.0
  H  H53  1  0.40145000  0.63265000  0.31576000  1.0
  H  H54  1  0.40144000  0.86735000  0.81576000  1.0
  H  H55  1  0.59855000  0.36735000  0.68425000  1.0
  H  H56  1  0.63489000  0.29759000  0.22101000  1.0
  H  H57  1  0.36512000  0.79759000  0.27899000  1.0
  H  H58  1  0.36511000  0.70241000  0.77900000  1.0
  H  H59  1  0.63489000  0.20241000  0.72102000  1.0
  Pb  Pb60  1  0.71289000  0.13685000  0.37135000  1.0
  Pb  Pb61  1  0.28711000  0.63686000  0.12865000  1.0
  Pb  Pb62  1  0.28711000  0.86314000  0.62865000  1.0
  Pb  Pb63  1  0.71288000  0.36315000  0.87135000  1.0
  C  C64  1  0.29406000  0.37687000  0.47606000  1.0
  C  C65  1  0.70593000  0.87687000  0.02393000  1.0
  C  C66  1  0.70594000  0.62313000  0.52394000  1.0
  C  C67  1  0.29407000  0.12312000  0.97607000  1.0
  C  C68  1  0.16415000  0.07912000  0.22070000  1.0
  C  C69  1  0.83584000  0.57911000  0.27930000  1.0
  C  C70  1  0.83584000  0.92089000  0.77930000  1.0
  C  C71  1  0.16416000  0.42089000  0.72070000  1.0
  C  C72  1  0.70582000  0.92906000  0.39970000  1.0
  C  C73  1  0.29417000  0.42907000  0.10030000  1.0
  C  C74  1  0.29418000  0.07093000  0.60030000  1.0
  C  C75  1  0.70582000  0.57094000  0.89971000  1.0
  C  C76  1  0.81311000  0.25985000  0.49341000  1.0
  C  C77  1  0.18688000  0.75986000  0.00658000  1.0
  C  C78  1  0.18688000  0.74015000  0.50659000  1.0
  C  C79  1  0.81312000  0.24015000  0.99342000  1.0
  C  C80  1  0.68821000  0.20080000  0.22667000  1.0
  C  C81  1  0.31179000  0.70081000  0.27333000  1.0
  C  C82  1  0.31179000  0.79920000  0.77334000  1.0
  C  C83  1  0.68821000  0.29920000  0.72667000  1.0
  S  S84  1  0.33925000  0.34543000  0.36505000  1.0
  S  S85  1  0.66074000  0.84544000  0.13495000  1.0
  S  S86  1  0.66075000  0.65456000  0.63495000  1.0
  S  S87  1  0.33927000  0.15456000  0.86505000  1.0
  S  S88  1  0.22524000  0.08831000  0.34267000  1.0
  S  S89  1  0.77476000  0.58832000  0.15733000  1.0
  S  S90  1  0.77476000  0.91169000  0.65732000  1.0
  S  S91  1  0.22525000  0.41168000  0.84267000  1.0
  N  N92  1  0.38722000  0.19352000  0.36508000  1.0
  N  N93  1  0.61277000  0.69353000  0.13492000  1.0
  N  N94  1  0.61277000  0.80648000  0.63492000  1.0
  N  N95  1  0.38724000  0.30647000  0.86508000  1.0
  O  O96  1  0.50554000  0.41165000  0.35908000  1.0
  O  O97  1  0.49445000  0.91167000  0.14091000  1.0
  O  O98  1  0.49445000  0.58833000  0.64092000  1.0
  O  O99  1  0.50556000  0.08833000  0.85908000  1.0
  O  O100  1  0.17838000  0.37776000  0.29731000  1.0
  O  O101  1  0.82161000  0.87777000  0.20269000  1.0
  O  O102  1  0.82161000  0.62224000  0.70269000  1.0
  O  O103  1  0.17841000  0.12223000  0.79730000  1.0
  O  O104  1  0.06803000  0.13193000  0.37759000  1.0
  O  O105  1  0.93196000  0.63195000  0.12241000  1.0
  O  O106  1  0.93197000  0.86806000  0.62241000  1.0
  O  O107  1  0.06805000  0.36805000  0.87760000  1.0
  O  O108  1  0.30225000  0.96741000  0.37694000  1.0
  O  O109  1  0.69775000  0.46743000  0.12306000  1.0
  O  O110  1  0.69774000  0.03259000  0.62305000  1.0
  O  O111  1  0.30225000  0.53258000  0.87695000  1.0
