# generated using pymatgen
data_MoH18C17(NO)4
_symmetry_space_group_name_H-M   'P 1'
_cell_length_a   13.12500000
_cell_length_b   13.63110000
_cell_length_c   13.63100000
_cell_angle_alpha   82.31970000
_cell_angle_beta   72.76010000
_cell_angle_gamma   72.76000000
_symmetry_Int_Tables_number   1
_chemical_formula_structural   MoH18C17(NO)4
_chemical_formula_sum   'Mo4 H72 C68 N16 O16'
_cell_volume   2221.68142572
_cell_formula_units_Z   4
loop_
 _symmetry_equiv_pos_site_id
 _symmetry_equiv_pos_as_xyz
  1  'x, y, z'
loop_
 _atom_site_type_symbol
 _atom_site_label
 _atom_site_symmetry_multiplicity
 _atom_site_fract_x
 _atom_site_fract_y
 _atom_site_fract_z
 _atom_site_occupancy
  Mo  Mo0  1  0.99150000  0.21800000  0.59588000  1.0
  Mo  Mo1  1  0.50851000  0.40411000  0.78200000  1.0
  Mo  Mo2  1  0.00850000  0.78199000  0.40412000  1.0
  Mo  Mo3  1  0.49149000  0.59588000  0.21800000  1.0
  H  H4  1  0.30988000  0.02361000  0.63520000  1.0
  H  H5  1  0.19012000  0.36480000  0.97639000  1.0
  H  H6  1  0.69012000  0.97638000  0.36479000  1.0
  H  H7  1  0.80988000  0.63520000  0.02361000  1.0
  H  H8  1  0.40646000  0.79490000  0.40519000  1.0
  H  H9  1  0.09354000  0.59481000  0.20510000  1.0
  H  H10  1  0.59355000  0.20510000  0.59480000  1.0
  H  H11  1  0.90645000  0.40520000  0.79490000  1.0
  H  H12  1  0.24370000  0.88603000  0.34709000  1.0
  H  H13  1  0.25630000  0.65291000  0.11397000  1.0
  H  H14  1  0.75631000  0.11397000  0.65290000  1.0
  H  H15  1  0.74370000  0.34709000  0.88603000  1.0
  H  H16  1  0.08109000  0.02153000  0.35247000  1.0
  H  H17  1  0.41891000  0.64753000  0.97847000  1.0
  H  H18  1  0.91891000  0.97847000  0.64753000  1.0
  H  H19  1  0.58109000  0.35247000  0.02153000  1.0
  H  H20  1  0.81683000  0.22531000  0.27337000  1.0
  H  H21  1  0.68316000  0.72664000  0.77469000  1.0
  H  H22  1  0.18317000  0.77469000  0.72663000  1.0
  H  H23  1  0.31684000  0.27337000  0.22531000  1.0
  H  H24  1  0.67106000  0.34162000  0.19623000  1.0
  H  H25  1  0.82893000  0.80377000  0.65838000  1.0
  H  H26  1  0.32894000  0.65838000  0.80377000  1.0
  H  H27  1  0.17107000  0.19623000  0.34161000  1.0
  H  H28  1  0.55988000  0.54013000  0.43299000  1.0
  H  H29  1  0.94012000  0.56702000  0.45988000  1.0
  H  H30  1  0.44012000  0.45987000  0.56702000  1.0
  H  H31  1  0.05988000  0.43298000  0.54012000  1.0
  H  H32  1  0.69408000  0.42756000  0.52567000  1.0
  H  H33  1  0.80592000  0.47433000  0.57244000  1.0
  H  H34  1  0.30591000  0.57243000  0.47433000  1.0
  H  H35  1  0.19408000  0.52567000  0.42756000  1.0
  H  H36  1  0.48005000  0.70690000  0.50823000  1.0
  H  H37  1  0.01995000  0.49177000  0.29310000  1.0
  H  H38  1  0.51995000  0.29310000  0.49177000  1.0
  H  H39  1  0.98005000  0.50823000  0.70690000  1.0
  H  H40  1  0.55925000  0.70499000  0.59280000  1.0
  H  H41  1  0.94075000  0.40720000  0.29501000  1.0
  H  H42  1  0.44075000  0.29501000  0.40720000  1.0
  H  H43  1  0.05925000  0.59281000  0.70499000  1.0
  H  H44  1  0.60416000  0.79361000  0.36838000  1.0
  H  H45  1  0.89584000  0.63162000  0.20639000  1.0
  H  H46  1  0.39584000  0.20639000  0.63162000  1.0
  H  H47  1  0.10416000  0.36839000  0.79361000  1.0
  H  H48  1  0.67992000  0.67476000  0.41350000  1.0
  H  H49  1  0.82008000  0.58650000  0.32524000  1.0
  H  H50  1  0.32008000  0.32524000  0.58650000  1.0
  H  H51  1  0.17993000  0.41350000  0.67476000  1.0
  H  H52  1  0.68540000  0.79126000  0.45360000  1.0
  H  H53  1  0.81459000  0.54640000  0.20874000  1.0
  H  H54  1  0.31459000  0.20874000  0.54640000  1.0
  H  H55  1  0.18541000  0.45361000  0.79125000  1.0
  H  H56  1  0.58273000  0.86153000  0.62534000  1.0
  H  H57  1  0.91727000  0.37466000  0.13847000  1.0
  H  H58  1  0.41727000  0.13847000  0.37466000  1.0
  H  H59  1  0.08273000  0.62534000  0.86153000  1.0
  H  H60  1  0.47661000  0.97564000  0.62436000  1.0
  H  H61  1  0.02340000  0.37563000  0.02436000  1.0
  H  H62  1  0.52339000  0.02437000  0.37563000  1.0
  H  H63  1  0.97660000  0.62437000  0.97564000  1.0
  H  H64  1  0.34307000  0.89066000  0.76287000  1.0
  H  H65  1  0.15694000  0.23713000  0.10934000  1.0
  H  H66  1  0.65693000  0.10934000  0.23713000  1.0
  H  H67  1  0.84306000  0.76287000  0.89066000  1.0
  H  H68  1  0.45569000  0.90147000  0.80418000  1.0
  H  H69  1  0.04432000  0.19583000  0.09853000  1.0
  H  H70  1  0.54431000  0.09853000  0.19582000  1.0
  H  H71  1  0.95568000  0.80418000  0.90147000  1.0
  H  H72  1  0.45771000  0.78120000  0.76637000  1.0
  H  H73  1  0.04230000  0.23363000  0.21880000  1.0
  H  H74  1  0.54229000  0.21880000  0.23363000  1.0
  H  H75  1  0.95770000  0.76637000  0.78120000  1.0
  C  C76  1  0.18280000  0.00606000  0.45543000  1.0
  C  C77  1  0.31720000  0.54457000  0.99394000  1.0
  C  C78  1  0.81720000  0.99393000  0.54457000  1.0
  C  C79  1  0.68280000  0.45543000  0.00607000  1.0
  C  C80  1  0.20571000  0.04339000  0.53754000  1.0
  C  C81  1  0.29429000  0.46246000  0.95661000  1.0
  C  C82  1  0.79429000  0.95661000  0.46246000  1.0
  C  C83  1  0.70571000  0.53754000  0.04339000  1.0
  C  C84  1  0.29816000  0.99188000  0.57163000  1.0
  C  C85  1  0.20184000  0.42837000  0.00811000  1.0
  C  C86  1  0.70184000  0.00811000  0.42837000  1.0
  C  C87  1  0.79816000  0.57163000  0.99189000  1.0
  C  C88  1  0.37249000  0.90025000  0.52698000  1.0
  C  C89  1  0.12751000  0.47302000  0.09975000  1.0
  C  C90  1  0.62751000  0.09974000  0.47301000  1.0
  C  C91  1  0.87249000  0.52699000  0.90025000  1.0
  C  C92  1  0.35097000  0.86357000  0.44375000  1.0
  C  C93  1  0.14903000  0.55625000  0.13643000  1.0
  C  C94  1  0.64903000  0.13643000  0.55625000  1.0
  C  C95  1  0.85097000  0.44375000  0.86357000  1.0
  C  C96  1  0.25960000  0.91548000  0.41012000  1.0
  C  C97  1  0.24039000  0.58988000  0.08452000  1.0
  C  C98  1  0.74040000  0.08452000  0.58988000  1.0
  C  C99  1  0.75961000  0.41012000  0.91548000  1.0
  C  C100  1  0.08995000  0.05453000  0.41749000  1.0
  C  C101  1  0.41005000  0.58251000  0.94547000  1.0
  C  C102  1  0.91006000  0.94547000  0.58251000  1.0
  C  C103  1  0.58995000  0.41749000  0.05453000  1.0
  C  C104  1  0.86168000  0.26019000  0.44725000  1.0
  C  C105  1  0.63832000  0.55274000  0.73981000  1.0
  C  C106  1  0.13832000  0.73981000  0.55274000  1.0
  C  C107  1  0.36168000  0.44726000  0.26019000  1.0
  C  C108  1  0.77086000  0.31970000  0.40370000  1.0
  C  C109  1  0.72913000  0.59630000  0.68030000  1.0
  C  C110  1  0.22914000  0.68029000  0.59630000  1.0
  C  C111  1  0.27087000  0.40370000  0.31970000  1.0
  C  C112  1  0.76071000  0.29428000  0.31119000  1.0
  C  C113  1  0.73928000  0.68881000  0.70573000  1.0
  C  C114  1  0.23928000  0.70573000  0.68881000  1.0
  C  C115  1  0.26072000  0.31119000  0.29427000  1.0
  C  C116  1  0.67963000  0.35923000  0.26852000  1.0
  C  C117  1  0.82036000  0.73148000  0.64077000  1.0
  C  C118  1  0.32037000  0.64077000  0.73148000  1.0
  C  C119  1  0.17964000  0.26852000  0.35923000  1.0
  C  C120  1  0.61730000  0.46868000  0.40140000  1.0
  C  C121  1  0.88269000  0.59860000  0.53133000  1.0
  C  C122  1  0.38270000  0.53132000  0.59860000  1.0
  C  C123  1  0.11731000  0.40140000  0.46867000  1.0
  C  C124  1  0.69410000  0.40729000  0.45116000  1.0
  C  C125  1  0.80589000  0.54884000  0.59272000  1.0
  C  C126  1  0.30590000  0.59271000  0.54884000  1.0
  C  C127  1  0.19411000  0.45116000  0.40728000  1.0
  C  C128  1  0.53146000  0.74819000  0.52699000  1.0
  C  C129  1  0.96853000  0.47301000  0.25181000  1.0
  C  C130  1  0.46854000  0.25181000  0.47301000  1.0
  C  C131  1  0.03147000  0.52699000  0.74819000  1.0
  C  C132  1  0.63095000  0.75291000  0.43546000  1.0
  C  C133  1  0.86905000  0.56454000  0.24709000  1.0
  C  C134  1  0.36905000  0.24708000  0.56454000  1.0
  C  C135  1  0.13096000  0.43546000  0.75291000  1.0
  C  C136  1  0.49245000  0.89194000  0.63898000  1.0
  C  C137  1  0.00755000  0.36102000  0.10806000  1.0
  C  C138  1  0.50755000  0.10806000  0.36102000  1.0
  C  C139  1  0.99245000  0.63898000  0.89194000  1.0
  C  C140  1  0.43348000  0.86464000  0.74953000  1.0
  C  C141  1  0.06652000  0.25048000  0.13537000  1.0
  C  C142  1  0.56652000  0.13537000  0.25047000  1.0
  C  C143  1  0.93347000  0.74953000  0.86464000  1.0
  N  N144  1  0.01178000  0.13741000  0.45527000  1.0
  N  N145  1  0.48822000  0.54473000  0.86259000  1.0
  N  N146  1  0.98823000  0.86259000  0.54473000  1.0
  N  N147  1  0.51178000  0.45527000  0.13741000  1.0
  N  N148  1  0.93279000  0.17822000  0.40287000  1.0
  N  N149  1  0.56720000  0.59713000  0.82178000  1.0
  N  N150  1  0.06721000  0.82178000  0.59712000  1.0
  N  N151  1  0.43280000  0.40287000  0.17821000  1.0
  N  N152  1  0.61001000  0.44693000  0.31075000  1.0
  N  N153  1  0.88999000  0.68925000  0.55307000  1.0
  N  N154  1  0.38999000  0.55306000  0.68925000  1.0
  N  N155  1  0.11001000  0.31075000  0.44693000  1.0
  N  N156  1  0.46192000  0.84948000  0.56223000  1.0
  N  N157  1  0.03808000  0.43777000  0.15053000  1.0
  N  N158  1  0.53808000  0.15052000  0.43777000  1.0
  N  N159  1  0.96192000  0.56223000  0.84947000  1.0
  O  O160  1  0.14010000  0.12986000  0.58360000  1.0
  O  O161  1  0.35990000  0.41639000  0.87014000  1.0
  O  O162  1  0.85990000  0.87014000  0.41640000  1.0
  O  O163  1  0.64010000  0.58361000  0.12986000  1.0
  O  O164  1  0.87114000  0.29630000  0.52921000  1.0
  O  O165  1  0.62887000  0.47079000  0.70371000  1.0
  O  O166  1  0.12886000  0.70370000  0.47080000  1.0
  O  O167  1  0.37113000  0.52921000  0.29629000  1.0
  O  O168  1  0.91781000  0.14535000  0.68486000  1.0
  O  O169  1  0.58219000  0.31513000  0.85466000  1.0
  O  O170  1  0.08219000  0.85465000  0.31514000  1.0
  O  O171  1  0.41781000  0.68486000  0.14534000  1.0
  O  O172  1  0.98749000  0.32230000  0.65771000  1.0
  O  O173  1  0.51251000  0.34228000  0.67771000  1.0
  O  O174  1  0.01251000  0.67770000  0.34229000  1.0
  O  O175  1  0.48749000  0.65771000  0.32230000  1.0
