# generated using pymatgen
data_UH20(C2O)7
_symmetry_space_group_name_H-M   'P 1'
_cell_length_a   6.27752000
_cell_length_b   10.16400000
_cell_length_c   11.95800000
_cell_angle_alpha   92.62900000
_cell_angle_beta   97.19820000
_cell_angle_gamma   94.84510000
_symmetry_Int_Tables_number   1
_chemical_formula_structural   UH20(C2O)7
_chemical_formula_sum   'U2 H40 C28 O14'
_cell_volume   753.02780616
_cell_formula_units_Z   2
loop_
 _symmetry_equiv_pos_site_id
 _symmetry_equiv_pos_as_xyz
  1  'x, y, z'
loop_
 _atom_site_type_symbol
 _atom_site_label
 _atom_site_symmetry_multiplicity
 _atom_site_fract_x
 _atom_site_fract_y
 _atom_site_fract_z
 _atom_site_occupancy
  U  U0  1  0.00051000  0.25148000  0.42138000  1.0
  U  U1  1  0.99944000  0.74852000  0.57862000  1.0
  H  H2  1  0.74175000  0.48418000  0.43615000  1.0
  H  H3  1  0.25816000  0.51583000  0.56385000  1.0
  H  H4  1  0.56297000  0.36199000  0.38685000  1.0
  H  H5  1  0.43697000  0.63800000  0.61315000  1.0
  H  H6  1  0.53114000  0.71921000  0.27277000  1.0
  H  H7  1  0.46886000  0.28078000  0.72724000  1.0
  H  H8  1  0.28476000  0.69628000  0.32981000  1.0
  H  H9  1  0.71522000  0.30371000  0.67020000  1.0
  H  H10  1  0.02988000  0.97274000  0.17423000  1.0
  H  H11  1  0.97015000  0.02726000  0.82576000  1.0
  H  H12  1  0.97834000  0.84430000  0.26517000  1.0
  H  H13  1  0.02167000  0.15569000  0.73482000  1.0
  H  H14  1  0.80519000  0.77968000  0.07063000  1.0
  H  H15  1  0.19483000  0.22033000  0.92936000  1.0
  H  H16  1  0.93952000  0.61003000  0.19932000  1.0
  H  H17  1  0.06048000  0.38997000  0.80067000  1.0
  H  H18  1  0.95451000  0.56091000  0.05724000  1.0
  H  H19  1  0.04551000  0.43909000  0.94274000  1.0
  H  H20  1  0.54980000  0.65071000  0.06926000  1.0
  H  H21  1  0.45023000  0.34928000  0.93074000  1.0
  H  H22  1  0.31350000  0.59143000  0.97822000  1.0
  H  H23  1  0.68653000  0.40858000  0.02179000  1.0
  H  H24  1  0.41823000  0.82724000  0.94631000  1.0
  H  H25  1  0.58184000  0.17276000  0.05371000  1.0
  H  H26  1  0.38314000  0.00107000  0.09716000  1.0
  H  H27  1  0.61692000  0.99894000  0.90285000  1.0
  H  H28  1  0.59465000  0.90324000  0.14113000  1.0
  H  H29  1  0.40536000  0.09674000  0.85889000  1.0
  H  H30  1  0.03135000  0.74071000  0.91623000  1.0
  H  H31  1  0.96871000  0.25931000  0.08377000  1.0
  H  H32  1  0.05973000  0.90898000  0.96412000  1.0
  H  H33  1  0.94034000  0.09103000  0.03589000  1.0
  H  H34  1  0.28056000  0.41682000  0.10451000  1.0
  H  H35  1  0.71945000  0.58318000  0.89549000  1.0
  H  H36  1  0.49973000  0.48302000  0.20153000  1.0
  H  H37  1  0.50026000  0.51697000  0.79848000  1.0
  H  H38  1  0.56304000  0.94521000  0.35485000  1.0
  H  H39  1  0.43695000  0.05479000  0.64518000  1.0
  H  H40  1  0.41341000  0.06701000  0.28967000  1.0
  H  H41  1  0.58661000  0.93298000  0.71033000  1.0
  C  C42  1  0.26577000  0.62330000  0.15435000  1.0
  C  C43  1  0.73423000  0.37669000  0.84565000  1.0
  C  C44  1  0.35514000  0.72310000  0.25342000  1.0
  C  C45  1  0.64486000  0.27689000  0.74659000  1.0
  C  C46  1  0.30802000  0.86495000  0.22407000  1.0
  C  C47  1  0.69200000  0.13505000  0.77594000  1.0
  C  C48  1  0.06336000  0.87089000  0.19299000  1.0
  C  C49  1  0.93665000  0.12912000  0.80701000  1.0
  C  C50  1  0.97968000  0.77420000  0.09182000  1.0
  C  C51  1  0.02034000  0.22581000  0.90817000  1.0
  C  C52  1  0.02132000  0.63410000  0.12596000  1.0
  C  C53  1  0.97868000  0.36590000  0.87402000  1.0
  C  C54  1  0.37591000  0.66096000  0.05061000  1.0
  C  C55  1  0.62412000  0.33904000  0.94941000  1.0
  C  C56  1  0.33573000  0.80208000  0.01954000  1.0
  C  C57  1  0.66432000  0.19792000  0.98046000  1.0
  C  C58  1  0.41843000  0.90063000  0.11987000  1.0
  C  C59  1  0.58160000  0.09937000  0.88015000  1.0
  C  C60  1  0.09267000  0.80923000  0.98931000  1.0
  C  C61  1  0.90740000  0.19078000  0.01069000  1.0
  C  C62  1  0.32359000  0.48312000  0.18140000  1.0
  C  C63  1  0.67640000  0.51687000  0.81860000  1.0
  C  C64  1  0.22061000  0.41197000  0.27112000  1.0
  C  C65  1  0.77935000  0.58804000  0.72887000  1.0
  C  C66  1  0.39923000  0.96740000  0.32130000  1.0
  C  C67  1  0.60077000  0.03259000  0.67871000  1.0
  C  C68  1  0.26748000  0.97103000  0.41809000  1.0
  C  C69  1  0.73247000  0.02896000  0.58191000  1.0
  O  O70  1  0.85665000  0.15648000  0.29970000  1.0
  O  O71  1  0.14335000  0.84352000  0.70028000  1.0
  O  O72  1  0.14849000  0.35243000  0.54156000  1.0
  O  O73  1  0.85146000  0.64758000  0.45844000  1.0
  O  O74  1  0.03351000  0.43154000  0.29465000  1.0
  O  O75  1  0.96645000  0.56847000  0.70533000  1.0
  O  O76  1  0.31888000  0.32041000  0.32277000  1.0
  O  O77  1  0.68108000  0.67959000  0.67724000  1.0
  O  O78  1  0.21295000  0.08280000  0.45377000  1.0
  O  O79  1  0.78700000  0.91719000  0.54621000  1.0
  O  O80  1  0.21376000  0.86474000  0.46333000  1.0
  O  O81  1  0.78619000  0.13526000  0.53666000  1.0
  O  O82  1  0.70715000  0.38669000  0.43285000  1.0
  O  O83  1  0.29279000  0.61332000  0.56713000  1.0
