# generated using pymatgen
data_Ag2H15C11N4O5
_symmetry_space_group_name_H-M   'P 1'
_cell_length_a   12.30350000
_cell_length_b   16.85670000
_cell_length_c   18.40150000
_cell_angle_alpha   73.34030000
_cell_angle_beta   70.47540000
_cell_angle_gamma   68.60240000
_symmetry_Int_Tables_number   1
_chemical_formula_structural   Ag2H15C11N4O5
_chemical_formula_sum   'Ag16 H120 C88 N32 O40'
_cell_volume   3289.46636585
_cell_formula_units_Z   8
loop_
 _symmetry_equiv_pos_site_id
 _symmetry_equiv_pos_as_xyz
  1  'x, y, z'
loop_
 _atom_site_type_symbol
 _atom_site_label
 _atom_site_symmetry_multiplicity
 _atom_site_fract_x
 _atom_site_fract_y
 _atom_site_fract_z
 _atom_site_occupancy
  Ag  Ag0  1  0.12978000  0.60737000  0.06698000  1.0
  Ag  Ag1  1  0.26452000  0.56020000  0.91492000  1.0
  Ag  Ag2  1  0.35060000  0.88518000  0.87871000  1.0
  Ag  Ag3  1  0.80405000  0.89257000  0.43308000  1.0
  Ag  Ag4  1  0.73967000  0.93982000  0.58524000  1.0
  Ag  Ag5  1  0.11455000  0.61481000  0.62130000  1.0
  Ag  Ag6  1  0.87022000  0.39263000  0.93302000  1.0
  Ag  Ag7  1  0.73548000  0.43980000  0.08508000  1.0
  Ag  Ag8  1  0.64939000  0.11483000  0.12129000  1.0
  Ag  Ag9  1  0.19595000  0.10744000  0.56692000  1.0
  Ag  Ag10  1  0.26032000  0.06018000  0.41477000  1.0
  Ag  Ag11  1  0.88544000  0.38520000  0.37870000  1.0
  Ag  Ag12  1  0.34857000  0.75000000  0.25001000  1.0
  Ag  Ag13  1  0.58307000  0.75004000  0.24983000  1.0
  Ag  Ag14  1  0.65143000  0.25000000  0.74999000  1.0
  Ag  Ag15  1  0.41693000  0.24996000  0.75017000  1.0
  H  H16  1  0.66232000  0.82019000  0.09749000  1.0
  H  H17  1  0.51601000  0.85889000  0.12514000  1.0
  H  H18  1  0.35986000  0.41162000  0.01061000  1.0
  H  H19  1  0.22864000  0.40365000  0.02548000  1.0
  H  H20  1  0.28430000  0.71719000  0.93259000  1.0
  H  H21  1  0.17537000  0.78253000  0.00144000  1.0
  H  H22  1  0.54827000  0.75142000  0.95301000  1.0
  H  H23  1  0.49588000  0.69863000  0.90417000  1.0
  H  H24  1  0.40490000  0.84028000  0.04767000  1.0
  H  H25  1  0.24634000  0.85383000  0.06864000  1.0
  H  H26  1  0.16852000  0.73542000  0.13886000  1.0
  H  H27  1  0.26919000  0.63282000  0.17337000  1.0
  H  H28  1  0.48021000  0.61331000  0.14352000  1.0
  H  H29  1  0.53702000  0.70409000  0.08976000  1.0
  H  H30  1  0.41734000  0.58182000  0.97544000  1.0
  H  H31  1  0.41250000  0.54262000  0.07865000  1.0
  H  H32  1  0.70886000  0.06198000  0.28969000  1.0
  H  H33  1  0.80536000  0.97535000  0.23806000  1.0
  H  H34  1  0.72120000  0.91329000  0.16965000  1.0
  H  H35  1  0.56263000  0.95619000  0.17558000  1.0
  H  H36  1  0.43427000  0.06971000  0.24391000  1.0
  H  H37  1  0.49217000  0.11742000  0.29297000  1.0
  H  H38  1  0.46734000  0.86495000  0.38087000  1.0
  H  H39  1  0.41789000  0.92750000  0.29433000  1.0
  H  H40  1  0.55595000  0.03511000  0.40849000  1.0
  H  H41  1  0.54543000  0.92693000  0.44667000  1.0
  H  H42  1  0.78650000  0.83205000  0.28728000  1.0
  H  H43  1  0.67777000  0.80920000  0.37625000  1.0
  H  H44  1  0.57818000  0.70862000  0.73076000  1.0
  H  H45  1  0.67122000  0.53252000  0.53185000  1.0
  H  H46  1  0.57997000  0.68002000  0.40234000  1.0
  H  H47  1  0.50017000  0.64127000  0.37458000  1.0
  H  H48  1  0.78215000  0.08822000  0.48936000  1.0
  H  H49  1  0.65778000  0.09622000  0.47458000  1.0
  H  H50  1  0.93411000  0.78272000  0.56745000  1.0
  H  H51  1  0.95944000  0.71740000  0.49857000  1.0
  H  H52  1  0.25264000  0.74875000  0.54701000  1.0
  H  H53  1  0.09862000  0.80147000  0.59583000  1.0
  H  H54  1  0.29291000  0.65987000  0.45234000  1.0
  H  H55  1  0.16901000  0.64614000  0.43139000  1.0
  H  H56  1  0.04276000  0.76450000  0.36121000  1.0
  H  H57  1  0.07521000  0.86716000  0.32666000  1.0
  H  H58  1  0.23681000  0.88683000  0.35647000  1.0
  H  H59  1  0.33075000  0.79612000  0.41021000  1.0
  H  H60  1  0.97447000  0.91820000  0.52459000  1.0
  H  H61  1  0.03356000  0.95743000  0.42138000  1.0
  H  H62  1  0.06056000  0.43801000  0.21030000  1.0
  H  H63  1  0.01882000  0.52469000  0.26185000  1.0
  H  H64  1  0.80418000  0.58679000  0.33024000  1.0
  H  H65  1  0.69445000  0.54387000  0.32430000  1.0
  H  H66  1  0.74786000  0.43030000  0.25611000  1.0
  H  H67  1  0.90251000  0.38250000  0.20710000  1.0
  H  H68  1  0.71334000  0.63493000  0.11897000  1.0
  H  H69  1  0.63979000  0.57245000  0.20555000  1.0
  H  H70  1  0.99966000  0.46465000  0.09157000  1.0
  H  H71  1  0.91923000  0.57279000  0.05323000  1.0
  H  H72  1  0.90595000  0.66798000  0.21249000  1.0
  H  H73  1  0.86333000  0.69068000  0.12354000  1.0
  H  H74  1  0.01711000  0.79132000  0.76945000  1.0
  H  H75  1  0.73560000  0.96757000  0.96834000  1.0
  H  H76  1  0.33768000  0.17981000  0.90252000  1.0
  H  H77  1  0.48399000  0.14111000  0.87486000  1.0
  H  H78  1  0.64014000  0.58838000  0.98938000  1.0
  H  H79  1  0.77136000  0.59635000  0.97452000  1.0
  H  H80  1  0.71569000  0.28281000  0.06741000  1.0
  H  H81  1  0.82463000  0.21747000  0.99856000  1.0
  H  H82  1  0.45173000  0.24857000  0.04698000  1.0
  H  H83  1  0.50411000  0.30137000  0.09582000  1.0
  H  H84  1  0.59510000  0.15972000  0.95233000  1.0
  H  H85  1  0.75367000  0.14616000  0.93136000  1.0
  H  H86  1  0.83149000  0.26458000  0.86114000  1.0
  H  H87  1  0.73081000  0.36718000  0.82663000  1.0
  H  H88  1  0.51979000  0.38669000  0.85647000  1.0
  H  H89  1  0.46298000  0.29591000  0.91024000  1.0
  H  H90  1  0.58265000  0.41818000  0.02456000  1.0
  H  H91  1  0.58750000  0.45738000  0.92135000  1.0
  H  H92  1  0.29114000  0.93802000  0.71031000  1.0
  H  H93  1  0.19463000  0.02465000  0.76194000  1.0
  H  H94  1  0.27880000  0.08671000  0.83035000  1.0
  H  H95  1  0.43736000  0.04381000  0.82443000  1.0
  H  H96  1  0.56572000  0.93029000  0.75609000  1.0
  H  H97  1  0.50783000  0.88258000  0.70703000  1.0
  H  H98  1  0.53267000  0.13505000  0.61913000  1.0
  H  H99  1  0.58211000  0.07250000  0.70567000  1.0
  H  H100  1  0.44405000  0.96488000  0.59151000  1.0
  H  H101  1  0.45458000  0.07306000  0.55333000  1.0
  H  H102  1  0.21351000  0.16795000  0.71272000  1.0
  H  H103  1  0.32223000  0.19080000  0.62374000  1.0
  H  H104  1  0.42181000  0.29138000  0.26925000  1.0
  H  H105  1  0.32878000  0.46748000  0.46815000  1.0
  H  H106  1  0.42003000  0.31998000  0.59766000  1.0
  H  H107  1  0.49982000  0.35872000  0.62542000  1.0
  H  H108  1  0.21785000  0.91178000  0.51064000  1.0
  H  H109  1  0.34222000  0.90379000  0.52543000  1.0
  H  H110  1  0.06589000  0.21728000  0.43255000  1.0
  H  H111  1  0.04056000  0.28261000  0.50142000  1.0
  H  H112  1  0.74736000  0.25125000  0.45299000  1.0
  H  H113  1  0.90138000  0.19853000  0.40418000  1.0
  H  H114  1  0.70709000  0.34012000  0.54766000  1.0
  H  H115  1  0.83099000  0.35386000  0.56861000  1.0
  H  H116  1  0.95724000  0.23550000  0.63879000  1.0
  H  H117  1  0.92480000  0.13284000  0.67334000  1.0
  H  H118  1  0.76320000  0.11317000  0.64353000  1.0
  H  H119  1  0.66926000  0.20388000  0.58980000  1.0
  H  H120  1  0.02553000  0.08180000  0.47541000  1.0
  H  H121  1  0.96644000  0.04257000  0.57862000  1.0
  H  H122  1  0.93944000  0.56199000  0.78970000  1.0
  H  H123  1  0.98118000  0.47531000  0.73814000  1.0
  H  H124  1  0.19582000  0.41321000  0.66976000  1.0
  H  H125  1  0.30555000  0.45613000  0.67570000  1.0
  H  H126  1  0.25213000  0.56971000  0.74389000  1.0
  H  H127  1  0.09748000  0.61750000  0.79290000  1.0
  H  H128  1  0.28665000  0.36507000  0.88103000  1.0
  H  H129  1  0.36020000  0.42755000  0.79445000  1.0
  H  H130  1  0.00034000  0.53536000  0.90842000  1.0
  H  H131  1  0.08076000  0.42722000  0.94678000  1.0
  H  H132  1  0.09405000  0.33202000  0.78751000  1.0
  H  H133  1  0.13667000  0.30932000  0.87646000  1.0
  H  H134  1  0.98290000  0.20869000  0.23054000  1.0
  H  H135  1  0.26440000  0.03243000  0.03166000  1.0
  C  C136  1  0.26754000  0.73811000  0.98757000  1.0
  C  C137  1  0.48152000  0.71936000  0.95897000  1.0
  C  C138  1  0.33761000  0.80855000  0.05426000  1.0
  C  C139  1  0.25969000  0.68954000  0.12565000  1.0
  C  C140  1  0.47169000  0.67063000  0.09634000  1.0
  C  C141  1  0.40298000  0.60000000  0.03152000  1.0
  C  C142  1  0.71433000  0.00213000  0.27417000  1.0
  C  C143  1  0.63160000  0.94032000  0.20726000  1.0
  C  C144  1  0.49975000  0.05708000  0.27739000  1.0
  C  C145  1  0.48470000  0.91290000  0.32714000  1.0
  C  C146  1  0.56268000  0.97489000  0.39306000  1.0
  C  C147  1  0.69507000  0.85786000  0.32337000  1.0
  C  C148  1  0.49640000  0.57258000  0.79393000  1.0
  C  C149  1  0.67855000  0.78494000  0.58612000  1.0
  C  C150  1  0.75039000  0.67280000  0.46763000  1.0
  C  C151  1  0.57239000  0.45515000  0.67329000  1.0
  C  C152  1  0.56824000  0.59288000  0.71042000  1.0
  C  C153  1  0.59992000  0.66990000  0.68659000  1.0
  C  C154  1  0.65542000  0.69858000  0.60858000  1.0
  C  C155  1  0.68323000  0.64793000  0.55211000  1.0
  C  C156  1  0.65186000  0.57082000  0.57597000  1.0
  C  C157  1  0.59574000  0.54194000  0.65418000  1.0
  C  C158  1  0.99327000  0.76184000  0.51246000  1.0
  C  C159  1  0.15979000  0.78076000  0.54104000  1.0
  C  C160  1  0.20049000  0.69152000  0.44575000  1.0
  C  C161  1  0.07484000  0.81042000  0.37438000  1.0
  C  C162  1  0.23851000  0.82952000  0.40367000  1.0
  C  C163  1  0.03433000  0.90003000  0.46850000  1.0
  C  C164  1  0.99066000  0.49784000  0.22580000  1.0
  C  C165  1  0.77923000  0.55972000  0.29264000  1.0
  C  C166  1  0.83423000  0.44287000  0.22260000  1.0
  C  C167  1  0.72485000  0.58702000  0.17273000  1.0
  C  C168  1  0.93077000  0.52495000  0.10689000  1.0
  C  C169  1  0.87640000  0.64210000  0.17646000  1.0
  C  C170  1  0.86278000  0.92760000  0.70624000  1.0
  C  C171  1  0.04927000  0.71501000  0.91404000  1.0
  C  C172  1  0.89080000  0.82723000  0.03253000  1.0
  C  C173  1  0.70070000  0.04487000  0.82694000  1.0
  C  C174  1  0.87137000  0.90719000  0.78976000  1.0
  C  C175  1  0.95613000  0.83009000  0.81362000  1.0
  C  C176  1  0.96231000  0.80141000  0.89162000  1.0
  C  C177  1  0.88318000  0.85212000  0.94806000  1.0
  C  C178  1  0.79859000  0.92927000  0.92420000  1.0
  C  C179  1  0.79175000  0.95814000  0.84600000  1.0
  C  C180  1  0.73245000  0.26189000  0.01243000  1.0
  C  C181  1  0.51847000  0.28065000  0.04103000  1.0
  C  C182  1  0.66239000  0.19145000  0.94574000  1.0
  C  C183  1  0.74031000  0.31045000  0.87436000  1.0
  C  C184  1  0.52831000  0.32937000  0.90366000  1.0
  C  C185  1  0.59701000  0.40000000  0.96848000  1.0
  C  C186  1  0.28566000  0.99787000  0.72582000  1.0
  C  C187  1  0.36839000  0.05968000  0.79274000  1.0
  C  C188  1  0.50025000  0.94292000  0.72261000  1.0
  C  C189  1  0.51530000  0.08710000  0.67286000  1.0
  C  C190  1  0.43732000  0.02511000  0.60694000  1.0
  C  C191  1  0.30493000  0.14214000  0.67662000  1.0
  C  C192  1  0.50360000  0.42742000  0.20607000  1.0
  C  C193  1  0.32144000  0.21506000  0.41389000  1.0
  C  C194  1  0.24962000  0.32719000  0.53237000  1.0
  C  C195  1  0.42762000  0.54484000  0.32671000  1.0
  C  C196  1  0.43176000  0.40712000  0.28958000  1.0
  C  C197  1  0.40008000  0.33010000  0.31341000  1.0
  C  C198  1  0.34459000  0.30142000  0.39142000  1.0
  C  C199  1  0.31677000  0.35207000  0.44788000  1.0
  C  C200  1  0.34814000  0.42918000  0.42403000  1.0
  C  C201  1  0.40425000  0.45807000  0.34582000  1.0
  C  C202  1  0.00673000  0.23816000  0.48754000  1.0
  C  C203  1  0.84020000  0.21924000  0.45896000  1.0
  C  C204  1  0.79951000  0.30848000  0.55425000  1.0
  C  C205  1  0.92516000  0.18958000  0.62562000  1.0
  C  C206  1  0.76150000  0.17048000  0.59633000  1.0
  C  C207  1  0.96567000  0.09997000  0.53150000  1.0
  C  C208  1  0.00933000  0.50216000  0.77420000  1.0
  C  C209  1  0.22077000  0.44028000  0.70736000  1.0
  C  C210  1  0.16576000  0.55713000  0.77739000  1.0
  C  C211  1  0.27514000  0.41298000  0.82727000  1.0
  C  C212  1  0.06922000  0.47506000  0.89311000  1.0
  C  C213  1  0.12360000  0.35790000  0.82354000  1.0
  C  C214  1  0.13722000  0.07240000  0.29376000  1.0
  C  C215  1  0.95074000  0.28500000  0.08595000  1.0
  C  C216  1  0.10921000  0.17277000  0.96747000  1.0
  C  C217  1  0.29929000  0.95513000  0.17306000  1.0
  C  C218  1  0.12864000  0.09281000  0.21024000  1.0
  C  C219  1  0.04389000  0.16991000  0.18638000  1.0
  C  C220  1  0.03770000  0.19860000  0.10838000  1.0
  C  C221  1  0.11682000  0.14789000  0.05194000  1.0
  C  C222  1  0.20141000  0.07074000  0.07580000  1.0
  C  C223  1  0.20825000  0.04186000  0.15399000  1.0
  N  N224  1  0.34965000  0.73192000  0.11643000  1.0
  N  N225  1  0.35782000  0.78303000  0.97768000  1.0
  N  N226  1  0.27864000  0.66094000  0.05156000  1.0
  N  N227  1  0.49355000  0.64285000  0.02205000  1.0
  N  N228  1  0.62535000  0.02296000  0.22713000  1.0
  N  N229  1  0.60686000  0.87677000  0.27873000  1.0
  N  N230  1  0.68839000  0.93820000  0.34630000  1.0
  N  N231  1  0.47512000  0.99349000  0.34855000  1.0
  N  N232  1  0.19797000  0.76815000  0.38358000  1.0
  N  N233  1  0.11859000  0.71699000  0.52236000  1.0
  N  N234  1  0.99108000  0.83900000  0.44848000  1.0
  N  N235  1  0.15830000  0.85727000  0.47797000  1.0
  N  N236  1  0.87548000  0.47705000  0.27283000  1.0
  N  N237  1  0.76246000  0.62322000  0.22112000  1.0
  N  N238  1  0.97298000  0.56172000  0.15362000  1.0
  N  N239  1  0.81725000  0.50640000  0.15140000  1.0
  N  N240  1  0.65035000  0.26808000  0.88357000  1.0
  N  N241  1  0.64218000  0.21697000  0.02232000  1.0
  N  N242  1  0.72137000  0.33906000  0.94844000  1.0
  N  N243  1  0.50645000  0.35715000  0.97795000  1.0
  N  N244  1  0.37465000  0.97704000  0.77287000  1.0
  N  N245  1  0.39314000  0.12323000  0.72127000  1.0
  N  N246  1  0.31161000  0.06180000  0.65370000  1.0
  N  N247  1  0.52488000  0.00651000  0.65145000  1.0
  N  N248  1  0.80203000  0.23185000  0.61643000  1.0
  N  N249  1  0.88141000  0.28302000  0.47764000  1.0
  N  N250  1  0.00892000  0.16100000  0.55152000  1.0
  N  N251  1  0.84171000  0.14272000  0.52203000  1.0
  N  N252  1  0.12451000  0.52296000  0.72717000  1.0
  N  N253  1  0.23754000  0.37679000  0.77888000  1.0
  N  N254  1  0.02701000  0.43828000  0.84638000  1.0
  N  N255  1  0.18275000  0.49361000  0.84860000  1.0
  O  O256  1  0.58501000  0.80339000  0.11901000  1.0
  O  O257  1  0.26945000  0.44131000  0.02962000  1.0
  O  O258  1  0.42703000  0.52635000  0.80606000  1.0
  O  O259  1  0.50453000  0.60390000  0.84601000  1.0
  O  O260  1  0.73586000  0.79811000  0.62564000  1.0
  O  O261  1  0.63608000  0.84049000  0.53098000  1.0
  O  O262  1  0.84059000  0.69874000  0.45432000  1.0
  O  O263  1  0.71178000  0.66416000  0.41462000  1.0
  O  O264  1  0.50363000  0.44827000  0.63865000  1.0
  O  O265  1  0.63150000  0.39448000  0.71814000  1.0
  O  O266  1  0.50750000  0.69678000  0.38071000  1.0
  O  O267  1  0.74038000  0.05854000  0.47040000  1.0
  O  O268  1  0.75918000  0.97356000  0.69420000  1.0
  O  O269  1  0.95441000  0.89652000  0.65411000  1.0
  O  O270  1  0.15923000  0.70184000  0.87448000  1.0
  O  O271  1  0.00718000  0.65952000  0.96923000  1.0
  O  O272  1  0.99365000  0.80128000  0.04583000  1.0
  O  O273  1  0.79056000  0.83591000  0.08555000  1.0
  O  O274  1  0.59050000  0.05167000  0.86172000  1.0
  O  O275  1  0.74386000  0.10552000  0.78190000  1.0
  O  O276  1  0.41499000  0.19661000  0.88099000  1.0
  O  O277  1  0.73055000  0.55869000  0.97038000  1.0
  O  O278  1  0.57297000  0.47365000  0.19394000  1.0
  O  O279  1  0.49547000  0.39609000  0.15399000  1.0
  O  O280  1  0.26415000  0.20189000  0.37437000  1.0
  O  O281  1  0.36394000  0.15951000  0.46902000  1.0
  O  O282  1  0.15942000  0.30124000  0.54569000  1.0
  O  O283  1  0.28822000  0.33585000  0.58538000  1.0
  O  O284  1  0.49637000  0.55173000  0.36136000  1.0
  O  O285  1  0.36851000  0.60551000  0.28186000  1.0
  O  O286  1  0.49250000  0.30322000  0.61929000  1.0
  O  O287  1  0.25961000  0.94146000  0.52961000  1.0
  O  O288  1  0.24082000  0.02644000  0.30579000  1.0
  O  O289  1  0.04558000  0.10348000  0.34589000  1.0
  O  O290  1  0.84079000  0.29817000  0.12551000  1.0
  O  O291  1  0.99285000  0.34049000  0.03076000  1.0
  O  O292  1  0.00636000  0.19873000  0.95417000  1.0
  O  O293  1  0.20944000  0.16409000  0.91445000  1.0
  O  O294  1  0.40949000  0.94833000  0.13828000  1.0
  O  O295  1  0.25612000  0.89448000  0.21810000  1.0
