# generated using pymatgen
data_CdH8C12(NCl)2
_symmetry_space_group_name_H-M   'P 1'
_cell_length_a   7.30179000
_cell_length_b   9.71483000
_cell_length_c   9.71493000
_cell_angle_alpha   65.41870000
_cell_angle_beta   73.90630000
_cell_angle_gamma   73.90640000
_symmetry_Int_Tables_number   1
_chemical_formula_structural   CdH8C12(NCl)2
_chemical_formula_sum   'Cd2 H16 C24 N4 Cl4'
_cell_volume   591.69386276
_cell_formula_units_Z   2
loop_
 _symmetry_equiv_pos_site_id
 _symmetry_equiv_pos_as_xyz
  1  'x, y, z'
loop_
 _atom_site_type_symbol
 _atom_site_label
 _atom_site_symmetry_multiplicity
 _atom_site_fract_x
 _atom_site_fract_y
 _atom_site_fract_z
 _atom_site_occupancy
  Cd  Cd0  1  0.75000000  0.06778000  0.93222000  1.0
  Cd  Cd1  1  0.25000000  0.93222000  0.06778000  1.0
  H  H2  1  0.10540000  0.37130000  0.23703000  1.0
  H  H3  1  0.39460000  0.76297000  0.62870000  1.0
  H  H4  1  0.89460000  0.62870000  0.76297000  1.0
  H  H5  1  0.60540000  0.23702000  0.37131000  1.0
  H  H6  1  0.24173000  0.09794000  0.38283000  1.0
  H  H7  1  0.25828000  0.61718000  0.90205000  1.0
  H  H8  1  0.75827000  0.90206000  0.61717000  1.0
  H  H9  1  0.74172000  0.38282000  0.09795000  1.0
  H  H10  1  0.10309000  0.97994000  0.66729000  1.0
  H  H11  1  0.39692000  0.33271000  0.02005000  1.0
  H  H12  1  0.89691000  0.02006000  0.33271000  1.0
  H  H13  1  0.60309000  0.66728000  0.97995000  1.0
  H  H14  1  0.88073000  0.61917000  0.24009000  1.0
  H  H15  1  0.61928000  0.75991000  0.38083000  1.0
  H  H16  1  0.11927000  0.38083000  0.75991000  1.0
  H  H17  1  0.38072000  0.24009000  0.61917000  1.0
  C  C18  1  0.82798000  0.32327000  0.59451000  1.0
  C  C19  1  0.67202000  0.40549000  0.67673000  1.0
  C  C20  1  0.17202000  0.67673000  0.40549000  1.0
  C  C21  1  0.32798000  0.59451000  0.32327000  1.0
  C  C22  1  0.90009000  0.40132000  0.43607000  1.0
  C  C23  1  0.59991000  0.56393000  0.59868000  1.0
  C  C24  1  0.09990000  0.59869000  0.56392000  1.0
  C  C25  1  0.40009000  0.43607000  0.40132000  1.0
  C  C26  1  0.04928000  0.31589000  0.35935000  1.0
  C  C27  1  0.45073000  0.64065000  0.68411000  1.0
  C  C28  1  0.95073000  0.68411000  0.64065000  1.0
  C  C29  1  0.54927000  0.35935000  0.31589000  1.0
  C  C30  1  0.12445000  0.16459000  0.44004000  1.0
  C  C31  1  0.37556000  0.55997000  0.83541000  1.0
  C  C32  1  0.87555000  0.83541000  0.55997000  1.0
  C  C33  1  0.62444000  0.44003000  0.16459000  1.0
  C  C34  1  0.04747000  0.09826000  0.59749000  1.0
  C  C35  1  0.45254000  0.40251000  0.90173000  1.0
  C  C36  1  0.95254000  0.90174000  0.40251000  1.0
  C  C37  1  0.54746000  0.59749000  0.09827000  1.0
  C  C38  1  0.82218000  0.56036000  0.36126000  1.0
  C  C39  1  0.67782000  0.63874000  0.43964000  1.0
  C  C40  1  0.17782000  0.43964000  0.63874000  1.0
  C  C41  1  0.32217000  0.36126000  0.56037000  1.0
  N  N42  1  0.90206000  0.17424000  0.67111000  1.0
  N  N43  1  0.59795000  0.32890000  0.82576000  1.0
  N  N44  1  0.09794000  0.82576000  0.32889000  1.0
  N  N45  1  0.40205000  0.67110000  0.17424000  1.0
  Cl  Cl46  1  0.00797000  0.81977000  0.98104000  1.0
  Cl  Cl47  1  0.49203000  0.01896000  0.18023000  1.0
  Cl  Cl48  1  0.99204000  0.18023000  0.01896000  1.0
  Cl  Cl49  1  0.50797000  0.98104000  0.81977000  1.0
