# generated using pymatgen
data_Sr2H38C39(NO7)2
_symmetry_space_group_name_H-M   'P 1'
_cell_length_a   14.29300000
_cell_length_b   19.30940000
_cell_length_c   19.57640000
_cell_angle_alpha   64.40400000
_cell_angle_beta   73.10630000
_cell_angle_gamma   75.82570000
_symmetry_Int_Tables_number   1
_chemical_formula_structural   Sr2H38C39(NO7)2
_chemical_formula_sum   'Sr8 H152 C156 N8 O56'
_cell_volume   4617.58487075
_cell_formula_units_Z   4
loop_
 _symmetry_equiv_pos_site_id
 _symmetry_equiv_pos_as_xyz
  1  'x, y, z'
loop_
 _atom_site_type_symbol
 _atom_site_label
 _atom_site_symmetry_multiplicity
 _atom_site_fract_x
 _atom_site_fract_y
 _atom_site_fract_z
 _atom_site_occupancy
  Sr  Sr0  1  0.35095000  0.73924000  0.78255000  1.0
  Sr  Sr1  1  0.64905000  0.26076000  0.21745000  1.0
  Sr  Sr2  1  0.08732000  0.79787000  0.74526000  1.0
  Sr  Sr3  1  0.91268000  0.20213000  0.25474000  1.0
  Sr  Sr4  1  0.83216000  0.74572000  0.76467000  1.0
  Sr  Sr5  1  0.16784000  0.25428000  0.23533000  1.0
  Sr  Sr6  1  0.58181000  0.83359000  0.71785000  1.0
  Sr  Sr7  1  0.41819000  0.16641000  0.28216000  1.0
  H  H8  1  0.38288000  0.31066000  0.83176000  1.0
  H  H9  1  0.61712000  0.68934000  0.16825000  1.0
  H  H10  1  0.32236000  0.22611000  0.87417000  1.0
  H  H11  1  0.67764000  0.77389000  0.12583000  1.0
  H  H12  1  0.39582000  0.14208000  0.00555000  1.0
  H  H13  1  0.60418000  0.85792000  0.99445000  1.0
  H  H14  1  0.44651000  0.15555000  0.11042000  1.0
  H  H15  1  0.55349000  0.84445000  0.88958000  1.0
  H  H16  1  0.65649000  0.30405000  0.94102000  1.0
  H  H17  1  0.34351000  0.69595000  0.05898000  1.0
  H  H18  1  0.60665000  0.29011000  0.83534000  1.0
  H  H19  1  0.39335000  0.70989000  0.16466000  1.0
  H  H20  1  0.39262000  0.18664000  0.69142000  1.0
  H  H21  1  0.60738000  0.81336000  0.30858000  1.0
  H  H22  1  0.43981000  0.13797000  0.77847000  1.0
  H  H23  1  0.56018000  0.86203000  0.22153000  1.0
  H  H24  1  0.29164000  0.32121000  0.66840000  1.0
  H  H25  1  0.70836000  0.67879000  0.33160000  1.0
  H  H26  1  0.23086000  0.30441000  0.76712000  1.0
  H  H27  1  0.76913000  0.69559000  0.23288000  1.0
  H  H28  1  0.00295000  0.51607000  0.69270000  1.0
  H  H29  1  0.99705000  0.48393000  0.30729000  1.0
  H  H30  1  0.20204000  0.62335000  0.73142000  1.0
  H  H31  1  0.79796000  0.37665000  0.26857000  1.0
  H  H32  1  0.33531000  0.51477000  0.72575000  1.0
  H  H33  1  0.66468000  0.48523000  0.27425000  1.0
  H  H34  1  0.50321000  0.33464000  0.70313000  1.0
  H  H35  1  0.49679000  0.66536000  0.29687000  1.0
  H  H36  1  0.54473000  0.23788000  0.70780000  1.0
  H  H37  1  0.45527000  0.76212000  0.29220000  1.0
  H  H38  1  0.77981000  0.20917000  0.51845000  1.0
  H  H39  1  0.22019000  0.79083000  0.48155000  1.0
  H  H40  1  0.56303000  0.31491000  0.37757000  1.0
  H  H41  1  0.43697000  0.68509000  0.62243000  1.0
  H  H42  1  0.44368000  0.34613000  0.48563000  1.0
  H  H43  1  0.55631000  0.65387000  0.51437000  1.0
  H  H44  1  0.39018000  0.57228000  0.94929000  1.0
  H  H45  1  0.60983000  0.42772000  0.05071000  1.0
  H  H46  1  0.30406000  0.38485000  0.95268000  1.0
  H  H47  1  0.69594000  0.61515000  0.04732000  1.0
  H  H48  1  0.42415000  0.39216000  0.89125000  1.0
  H  H49  1  0.57585000  0.60784000  0.10875000  1.0
  H  H50  1  0.32350000  0.46605000  0.86094000  1.0
  H  H51  1  0.67650000  0.53395000  0.13905000  1.0
  H  H52  1  0.33986000  0.39079000  0.06398000  1.0
  H  H53  1  0.66014000  0.60921000  0.93602000  1.0
  H  H54  1  0.40442000  0.46630000  0.04878000  1.0
  H  H55  1  0.59558000  0.53370000  0.95122000  1.0
  H  H56  1  0.46850000  0.38677000  0.02161000  1.0
  H  H57  1  0.53150000  0.61323000  0.97839000  1.0
  H  H58  1  0.20126000  0.66402000  0.96757000  1.0
  H  H59  1  0.79874000  0.33598000  0.03243000  1.0
  H  H60  1  0.15841000  0.47835000  0.04603000  1.0
  H  H61  1  0.84159000  0.52166000  0.95398000  1.0
  H  H62  1  0.05344000  0.53676000  0.08020000  1.0
  H  H63  1  0.94656000  0.46325000  0.91980000  1.0
  H  H64  1  0.17481000  0.55737000  0.06425000  1.0
  H  H65  1  0.82519000  0.44263000  0.93575000  1.0
  H  H66  1  0.10743000  0.50925000  0.92374000  1.0
  H  H67  1  0.89257000  0.49076000  0.07626000  1.0
  H  H68  1  0.08754000  0.60889000  0.86000000  1.0
  H  H69  1  0.91246000  0.39111000  0.14000000  1.0
  H  H70  1  0.99624000  0.57042000  0.94501000  1.0
  H  H71  1  0.00376000  0.42958000  0.05500000  1.0
  H  H72  1  0.05605000  0.01158000  0.84562000  1.0
  H  H73  1  0.94395000  0.98841000  0.15438000  1.0
  H  H74  1  0.11624000  0.12008000  0.85246000  1.0
  H  H75  1  0.88376000  0.87992000  0.14754000  1.0
  H  H76  1  0.40866000  0.05304000  0.73696000  1.0
  H  H77  1  0.59134000  0.94696000  0.26304000  1.0
  H  H78  1  0.34837000  0.94509000  0.73368000  1.0
  H  H79  1  0.65163000  0.05491000  0.26632000  1.0
  H  H80  1  0.82471000  0.93485000  0.62706000  1.0
  H  H81  1  0.17529000  0.06515000  0.37294000  1.0
  H  H82  1  0.90806000  0.10345000  0.51008000  1.0
  H  H83  1  0.09194000  0.89655000  0.48992000  1.0
  H  H84  1  0.86700000  0.10352000  0.60584000  1.0
  H  H85  1  0.13300000  0.89648000  0.39416000  1.0
  H  H86  1  0.80290000  0.05874000  0.57375000  1.0
  H  H87  1  0.19710000  0.94126000  0.42625000  1.0
  H  H88  1  0.06382000  0.05129000  0.55921000  1.0
  H  H89  1  0.93618000  0.94871000  0.44079000  1.0
  H  H90  1  0.08621000  0.94758000  0.59836000  1.0
  H  H91  1  0.91378000  0.05242000  0.40164000  1.0
  H  H92  1  0.03715000  0.99857000  0.66193000  1.0
  H  H93  1  0.96285000  0.00143000  0.33807000  1.0
  H  H94  1  0.51771000  0.82580000  0.55874000  1.0
  H  H95  1  0.48229000  0.17420000  0.44125000  1.0
  H  H96  1  0.36690000  0.91002000  0.43764000  1.0
  H  H97  1  0.63310000  0.08999000  0.56236000  1.0
  H  H98  1  0.49391000  0.88343000  0.44337000  1.0
  H  H99  1  0.50609000  0.11657000  0.55663000  1.0
  H  H100  1  0.43878000  0.98275000  0.41715000  1.0
  H  H101  1  0.56122000  0.01725000  0.58284000  1.0
  H  H102  1  0.32458000  0.02101000  0.52898000  1.0
  H  H103  1  0.67542000  0.97899000  0.47102000  1.0
  H  H104  1  0.30137000  0.94183000  0.62270000  1.0
  H  H105  1  0.69863000  0.05817000  0.37730000  1.0
  H  H106  1  0.24944000  0.95082000  0.54614000  1.0
  H  H107  1  0.75056000  0.04918000  0.45386000  1.0
  H  H108  1  0.99002000  0.83016000  0.90521000  1.0
  H  H109  1  0.00998000  0.16984000  0.09479000  1.0
  H  H110  1  0.05015000  0.82718000  0.01257000  1.0
  H  H111  1  0.94985000  0.17282000  0.98743000  1.0
  H  H112  1  0.90931000  0.62437000  0.16749000  1.0
  H  H113  1  0.09068000  0.37564000  0.83251000  1.0
  H  H114  1  0.84773000  0.62901000  0.05786000  1.0
  H  H115  1  0.15227000  0.37099000  0.94214000  1.0
  H  H116  1  0.05622000  0.82656000  0.12378000  1.0
  H  H117  1  0.94378000  0.17344000  0.87622000  1.0
  H  H118  1  0.15268000  0.75241000  0.10851000  1.0
  H  H119  1  0.84732000  0.24759000  0.89149000  1.0
  H  H120  1  0.21010000  0.76874000  0.27251000  1.0
  H  H121  1  0.78990000  0.23126000  0.72749000  1.0
  H  H122  1  0.25047000  0.78353000  0.17230000  1.0
  H  H123  1  0.74953000  0.21647000  0.82770000  1.0
  H  H124  1  0.07601000  0.01047000  0.18283000  1.0
  H  H125  1  0.92400000  0.98952000  0.81717000  1.0
  H  H126  1  0.15966000  0.10069000  0.19593000  1.0
  H  H127  1  0.84034000  0.89931000  0.80407000  1.0
  H  H128  1  0.40666000  0.92314000  0.25002000  1.0
  H  H129  1  0.59334000  0.07687000  0.74998000  1.0
  H  H130  1  0.33122000  0.83531000  0.22531000  1.0
  H  H131  1  0.66878000  0.16469000  0.77469000  1.0
  H  H132  1  0.14931000  0.64223000  0.32468000  1.0
  H  H133  1  0.85069000  0.35777000  0.67532000  1.0
  H  H134  1  0.09543000  0.62299000  0.26391000  1.0
  H  H135  1  0.90457000  0.37701000  0.73609000  1.0
  H  H136  1  0.14103000  0.55729000  0.19864000  1.0
  H  H137  1  0.85897000  0.44271000  0.80135000  1.0
  H  H138  1  0.20459000  0.42607000  0.19984000  1.0
  H  H139  1  0.79541000  0.57394000  0.80016000  1.0
  H  H140  1  0.48094000  0.43600000  0.23894000  1.0
  H  H141  1  0.51906000  0.56400000  0.76107000  1.0
  H  H142  1  0.41638000  0.56878000  0.23950000  1.0
  H  H143  1  0.58362000  0.43122000  0.76050000  1.0
  H  H144  1  0.98161000  0.82519000  0.25138000  1.0
  H  H145  1  0.01839000  0.17481000  0.74862000  1.0
  H  H146  1  0.95622000  0.72734000  0.29311000  1.0
  H  H147  1  0.04378000  0.27266000  0.70689000  1.0
  H  H148  1  0.06133000  0.73581000  0.48106000  1.0
  H  H149  1  0.93867000  0.26418000  0.51894000  1.0
  H  H150  1  0.93540000  0.77241000  0.58293000  1.0
  H  H151  1  0.06460000  0.22759000  0.41707000  1.0
  H  H152  1  0.72437000  0.86131000  0.43662000  1.0
  H  H153  1  0.27563000  0.13869000  0.56338000  1.0
  H  H154  1  0.84839000  0.82668000  0.33439000  1.0
  H  H155  1  0.15161000  0.17331000  0.66561000  1.0
  H  H156  1  0.13611000  0.40574000  0.68773000  1.0
  H  H157  1  0.86389000  0.59426000  0.31227000  1.0
  H  H158  1  0.66474000  0.24217000  0.62516000  1.0
  H  H159  1  0.33526000  0.75783000  0.37484000  1.0
  C  C160  1  0.38761000  0.26000000  0.75121000  1.0
  C  C161  1  0.61239000  0.74000000  0.24879000  1.0
  C  C162  1  0.38713000  0.25262000  0.83248000  1.0
  C  C163  1  0.61287000  0.74737000  0.16753000  1.0
  C  C164  1  0.49979000  0.21459000  0.91458000  1.0
  C  C165  1  0.50021000  0.78541000  0.08542000  1.0
  C  C166  1  0.45317000  0.17721000  0.99170000  1.0
  C  C167  1  0.54683000  0.82279000  0.00830000  1.0
  C  C168  1  0.48191000  0.18463000  0.05018000  1.0
  C  C169  1  0.51808000  0.81537000  0.94982000  1.0
  C  C170  1  0.55573000  0.22974000  0.03245000  1.0
  C  C171  1  0.44426000  0.77026000  0.96755000  1.0
  C  C172  1  0.60018000  0.26817000  0.95467000  1.0
  C  C173  1  0.39982000  0.73183000  0.04533000  1.0
  C  C174  1  0.57249000  0.26060000  0.89593000  1.0
  C  C175  1  0.42751000  0.73941000  0.10407000  1.0
  C  C176  1  0.58691000  0.23798000  0.09515000  1.0
  C  C177  1  0.41309000  0.76202000  0.90485000  1.0
  C  C178  1  0.38151000  0.18184000  0.75142000  1.0
  C  C179  1  0.61849000  0.81815000  0.24858000  1.0
  C  C180  1  0.29927000  0.31960000  0.72348000  1.0
  C  C181  1  0.70073000  0.68040000  0.27652000  1.0
  C  C182  1  0.24292000  0.45257000  0.70936000  1.0
  C  C183  1  0.75708000  0.54743000  0.29064000  1.0
  C  C184  1  0.07600000  0.51480000  0.70038000  1.0
  C  C185  1  0.92400000  0.48520000  0.29962000  1.0
  C  C186  1  0.09256000  0.57553000  0.71450000  1.0
  C  C187  1  0.90744000  0.42448000  0.28549000  1.0
  C  C188  1  0.18720000  0.57566000  0.72228000  1.0
  C  C189  1  0.81280000  0.42434000  0.27772000  1.0
  C  C190  1  0.26195000  0.51524000  0.71921000  1.0
  C  C191  1  0.73804000  0.48476000  0.28079000  1.0
  C  C192  1  0.00983000  0.63730000  0.72436000  1.0
  C  C193  1  0.99017000  0.36271000  0.27564000  1.0
  C  C194  1  0.48503000  0.28662000  0.69545000  1.0
  C  C195  1  0.51497000  0.71338000  0.30455000  1.0
  C  C196  1  0.54496000  0.29452000  0.56269000  1.0
  C  C197  1  0.45503000  0.70548000  0.43731000  1.0
  C  C198  1  0.70559000  0.23855000  0.51198000  1.0
  C  C199  1  0.29441000  0.76145000  0.48803000  1.0
  C  C200  1  0.67859000  0.25733000  0.44218000  1.0
  C  C201  1  0.32141000  0.74267000  0.55782000  1.0
  C  C202  1  0.58426000  0.29808000  0.43239000  1.0
  C  C203  1  0.41574000  0.70192000  0.56761000  1.0
  C  C204  1  0.51777000  0.31590000  0.49197000  1.0
  C  C205  1  0.48222000  0.68410000  0.50803000  1.0
  C  C206  1  0.74823000  0.23253000  0.38071000  1.0
  C  C207  1  0.25177000  0.76747000  0.61929000  1.0
  C  C208  1  0.37527000  0.54653000  0.91342000  1.0
  C  C209  1  0.62473000  0.45347000  0.08658000  1.0
  C  C210  1  0.35554000  0.42564000  0.91083000  1.0
  C  C211  1  0.64446000  0.57436000  0.08916000  1.0
  C  C212  1  0.39850000  0.42595000  0.02487000  1.0
  C  C213  1  0.60150000  0.57405000  0.97513000  1.0
  C  C214  1  0.16490000  0.65493000  0.93004000  1.0
  C  C215  1  0.83510000  0.34507000  0.06996000  1.0
  C  C216  1  0.12777000  0.53749000  0.04293000  1.0
  C  C217  1  0.87223000  0.46251000  0.95707000  1.0
  C  C218  1  0.07596000  0.56823000  0.92058000  1.0
  C  C219  1  0.92404000  0.43177000  0.07942000  1.0
  C  C220  1  0.16260000  0.91073000  0.77882000  1.0
  C  C221  1  0.83741000  0.08927000  0.22118000  1.0
  C  C222  1  0.19840000  0.97245000  0.78745000  1.0
  C  C223  1  0.80160000  0.02755000  0.21255000  1.0
  C  C224  1  0.13294000  0.02129000  0.82207000  1.0
  C  C225  1  0.86706000  0.97871000  0.17793000  1.0
  C  C226  1  0.16529000  0.08163000  0.82550000  1.0
  C  C227  1  0.83471000  0.91837000  0.17450000  1.0
  C  C228  1  0.26366000  0.09543000  0.79235000  1.0
  C  C229  1  0.73634000  0.90457000  0.20766000  1.0
  C  C230  1  0.33092000  0.04582000  0.75978000  1.0
  C  C231  1  0.66908000  0.95418000  0.24022000  1.0
  C  C232  1  0.29736000  0.98453000  0.75835000  1.0
  C  C233  1  0.70264000  0.01547000  0.24165000  1.0
  C  C234  1  0.90021000  0.92956000  0.63427000  1.0
  C  C235  1  0.09979000  0.07044000  0.36573000  1.0
  C  C236  1  0.87598000  0.06971000  0.57069000  1.0
  C  C237  1  0.12402000  0.93029000  0.42931000  1.0
  C  C238  1  0.03714000  0.99845000  0.60575000  1.0
  C  C239  1  0.96286000  0.00154000  0.39425000  1.0
  C  C240  1  0.45465000  0.85906000  0.58452000  1.0
  C  C241  1  0.54535000  0.14094000  0.41548000  1.0
  C  C242  1  0.42650000  0.92252000  0.45378000  1.0
  C  C243  1  0.57350000  0.07748000  0.54621000  1.0
  C  C244  1  0.31365000  0.95974000  0.55992000  1.0
  C  C245  1  0.68635000  0.04026000  0.44007000  1.0
  C  C246  1  0.88692000  0.72884000  0.90705000  1.0
  C  C247  1  0.11308000  0.27116000  0.09295000  1.0
  C  C248  1  0.91538000  0.72946000  0.97439000  1.0
  C  C249  1  0.08462000  0.27054000  0.02561000  1.0
  C  C250  1  0.97140000  0.78532000  0.96284000  1.0
  C  C251  1  0.02859000  0.21468000  0.03716000  1.0
  C  C252  1  0.00564000  0.78363000  0.02341000  1.0
  C  C253  1  0.99436000  0.21637000  0.97659000  1.0
  C  C254  1  0.98275000  0.72518000  0.09707000  1.0
  C  C255  1  0.01725000  0.27482000  0.90293000  1.0
  C  C256  1  0.92515000  0.66964000  0.10985000  1.0
  C  C257  1  0.07485000  0.33036000  0.89015000  1.0
  C  C258  1  0.89167000  0.67225000  0.04888000  1.0
  C  C259  1  0.10833000  0.32775000  0.95112000  1.0
  C  C260  1  0.08480000  0.76443000  0.14868000  1.0
  C  C261  1  0.91519000  0.23557000  0.85132000  1.0
  C  C262  1  0.10693000  0.74410000  0.22760000  1.0
  C  C263  1  0.89307000  0.25590000  0.77240000  1.0
  C  C264  1  0.18633000  0.79061000  0.21724000  1.0
  C  C265  1  0.81367000  0.20939000  0.78276000  1.0
  C  C266  1  0.19707000  0.91666000  0.20477000  1.0
  C  C267  1  0.80293000  0.08334000  0.79522000  1.0
  C  C268  1  0.14971000  0.99194000  0.19539000  1.0
  C  C269  1  0.85030000  0.00806000  0.80461000  1.0
  C  C270  1  0.19597000  0.04184000  0.20441000  1.0
  C  C271  1  0.80403000  0.95816000  0.79559000  1.0
  C  C272  1  0.28812000  0.01694000  0.22573000  1.0
  C  C273  1  0.71188000  0.98306000  0.77427000  1.0
  C  C274  1  0.33477000  0.94184000  0.23430000  1.0
  C  C275  1  0.66523000  0.05816000  0.76570000  1.0
  C  C276  1  0.29124000  0.89194000  0.22241000  1.0
  C  C277  1  0.70876000  0.10806000  0.77759000  1.0
  C  C278  1  0.33496000  0.06891000  0.24028000  1.0
  C  C279  1  0.66504000  0.93109000  0.75972000  1.0
  C  C280  1  0.14541000  0.65777000  0.26433000  1.0
  C  C281  1  0.85459000  0.34223000  0.73567000  1.0
  C  C282  1  0.27482000  0.57015000  0.22060000  1.0
  C  C283  1  0.72519000  0.42985000  0.77939000  1.0
  C  C284  1  0.21548000  0.53097000  0.20768000  1.0
  C  C285  1  0.78453000  0.46903000  0.79231000  1.0
  C  C286  1  0.25201000  0.45748000  0.20715000  1.0
  C  C287  1  0.74799000  0.54252000  0.79284000  1.0
  C  C288  1  0.34694000  0.42212000  0.21964000  1.0
  C  C289  1  0.65306000  0.57788000  0.78036000  1.0
  C  C290  1  0.40668000  0.46306000  0.23020000  1.0
  C  C291  1  0.59332000  0.53695000  0.76980000  1.0
  C  C292  1  0.37132000  0.53682000  0.23019000  1.0
  C  C293  1  0.62868000  0.46318000  0.76981000  1.0
  C  C294  1  0.38190000  0.34062000  0.22575000  1.0
  C  C295  1  0.61811000  0.65938000  0.77425000  1.0
  C  C296  1  0.01183000  0.76435000  0.28055000  1.0
  C  C297  1  0.98817000  0.23565000  0.71945000  1.0
  C  C298  1  0.96266000  0.77771000  0.40228000  1.0
  C  C299  1  0.03734000  0.22229000  0.59772000  1.0
  C  C300  1  0.98735000  0.76386000  0.47191000  1.0
  C  C301  1  0.01265000  0.23614000  0.52809000  1.0
  C  C302  1  0.91704000  0.78419000  0.52837000  1.0
  C  C303  1  0.08296000  0.21581000  0.47163000  1.0
  C  C304  1  0.82117000  0.81871000  0.51659000  1.0
  C  C305  1  0.17883000  0.18129000  0.48341000  1.0
  C  C306  1  0.79841000  0.83399000  0.44607000  1.0
  C  C307  1  0.20159000  0.16601000  0.55393000  1.0
  C  C308  1  0.86814000  0.81397000  0.38868000  1.0
  C  C309  1  0.13186000  0.18603000  0.61132000  1.0
  C  C310  1  0.74388000  0.83556000  0.57941000  1.0
  C  C311  1  0.25612000  0.16444000  0.42059000  1.0
  C  C312  1  0.15039000  0.45331000  0.69748000  1.0
  C  C313  1  0.84961000  0.54670000  0.30252000  1.0
  C  C314  1  0.64051000  0.25722000  0.57205000  1.0
  C  C315  1  0.35949000  0.74278000  0.42795000  1.0
  N  N316  1  0.37556000  0.46950000  0.94839000  1.0
  N  N317  1  0.62444000  0.53050000  0.05161000  1.0
  N  N318  1  0.12425000  0.58961000  0.96316000  1.0
  N  N319  1  0.87575000  0.41039000  0.03684000  1.0
  N  N320  1  0.93786000  0.99622000  0.60136000  1.0
  N  N321  1  0.06214000  0.00378000  0.39864000  1.0
  N  N322  1  0.40037000  0.91126000  0.53509000  1.0
  N  N323  1  0.59963000  0.08874000  0.46491000  1.0
  O  O324  1  0.64336000  0.28807000  0.07625000  1.0
  O  O325  1  0.35664000  0.71193000  0.92375000  1.0
  O  O326  1  0.55533000  0.19439000  0.16594000  1.0
  O  O327  1  0.44467000  0.80561000  0.83405000  1.0
  O  O328  1  0.47723000  0.20598000  0.85457000  1.0
  O  O329  1  0.52276000  0.79402000  0.14543000  1.0
  O  O330  1  0.28645000  0.15945000  0.79408000  1.0
  O  O331  1  0.71355000  0.84055000  0.20593000  1.0
  O  O332  1  0.31892000  0.39322000  0.71328000  1.0
  O  O333  1  0.68108000  0.60678000  0.28672000  1.0
  O  O334  1  0.92441000  0.63501000  0.71874000  1.0
  O  O335  1  0.07559000  0.36499000  0.28126000  1.0
  O  O336  1  0.02729000  0.68992000  0.74085000  1.0
  O  O337  1  0.97271000  0.31008000  0.25914000  1.0
  O  O338  1  0.47233000  0.31302000  0.61769000  1.0
  O  O339  1  0.52767000  0.68697000  0.38231000  1.0
  O  O340  1  0.82367000  0.18300000  0.39712000  1.0
  O  O341  1  0.17633000  0.81700000  0.60288000  1.0
  O  O342  1  0.72868000  0.26280000  0.31266000  1.0
  O  O343  1  0.27132000  0.73720000  0.68734000  1.0
  O  O344  1  0.35877000  0.58782000  0.84719000  1.0
  O  O345  1  0.64123000  0.41218000  0.15282000  1.0
  O  O346  1  0.22658000  0.86085000  0.75669000  1.0
  O  O347  1  0.77342000  0.13915000  0.24331000  1.0
  O  O348  1  0.07013000  0.91093000  0.79068000  1.0
  O  O349  1  0.92987000  0.08907000  0.20931000  1.0
  O  O350  1  0.16602000  0.70271000  0.86157000  1.0
  O  O351  1  0.83399000  0.29729000  0.13843000  1.0
  O  O352  1  0.94446000  0.86471000  0.67037000  1.0
  O  O353  1  0.05555000  0.13529000  0.32962000  1.0
  O  O354  1  0.43841000  0.84802000  0.65515000  1.0
  O  O355  1  0.56159000  0.15198000  0.34485000  1.0
  O  O356  1  0.92215000  0.77796000  0.83971000  1.0
  O  O357  1  0.07786000  0.22204000  0.16029000  1.0
  O  O358  1  0.83231000  0.68095000  0.91667000  1.0
  O  O359  1  0.16769000  0.31905000  0.08333000  1.0
  O  O360  1  0.01315000  0.71750000  0.16052000  1.0
  O  O361  1  0.98685000  0.28250000  0.83948000  1.0
  O  O362  1  0.14576000  0.87067000  0.19618000  1.0
  O  O363  1  0.85424000  0.12934000  0.80381000  1.0
  O  O364  1  0.29932000  0.14136000  0.21885000  1.0
  O  O365  1  0.70068000  0.85864000  0.78115000  1.0
  O  O366  1  0.40793000  0.04031000  0.27392000  1.0
  O  O367  1  0.59207000  0.95969000  0.72608000  1.0
  O  O368  1  0.24375000  0.64295000  0.22180000  1.0
  O  O369  1  0.75625000  0.35705000  0.77820000  1.0
  O  O370  1  0.32886000  0.30639000  0.21070000  1.0
  O  O371  1  0.67115000  0.69361000  0.78929000  1.0
  O  O372  1  0.46277000  0.30633000  0.24808000  1.0
  O  O373  1  0.53723000  0.69367000  0.75192000  1.0
  O  O374  1  0.03551000  0.75350000  0.35109000  1.0
  O  O375  1  0.96449000  0.24650000  0.64890000  1.0
  O  O376  1  0.76711000  0.81712000  0.64431000  1.0
  O  O377  1  0.23289000  0.18288000  0.35569000  1.0
  O  O378  1  0.65707000  0.86645000  0.56850000  1.0
  O  O379  1  0.34293000  0.13355000  0.43150000  1.0
