# generated using pymatgen
data_ZnH4C16(NCl)4
_symmetry_space_group_name_H-M   'P 1'
_cell_length_a   19.82077458
_cell_length_b   19.82060000
_cell_length_c   19.82060000
_cell_angle_alpha   110.44200000
_cell_angle_beta   107.54658149
_cell_angle_gamma   110.44255122
_symmetry_Int_Tables_number   1
_chemical_formula_structural   ZnH4C16(NCl)4
_chemical_formula_sum   'Zn4 H16 C64 N16 Cl16'
_cell_volume   5989.12606131
_cell_formula_units_Z   4
loop_
 _symmetry_equiv_pos_site_id
 _symmetry_equiv_pos_as_xyz
  1  'x, y, z'
loop_
 _atom_site_type_symbol
 _atom_site_label
 _atom_site_symmetry_multiplicity
 _atom_site_fract_x
 _atom_site_fract_y
 _atom_site_fract_z
 _atom_site_occupancy
  Zn  Zn0  1  0.50000000  0.89505000  0.39505000  1.0
  Zn  Zn1  1  0.50000000  0.10495000  0.60495000  1.0
  Zn  Zn2  1  0.60495000  0.10495000  0.50000000  1.0
  Zn  Zn3  1  0.39505000  0.89505000  0.50000000  1.0
  H  H4  1  0.72297000  0.13492000  0.15101000  1.0
  H  H5  1  0.97691000  0.68999000  0.11187000  1.0
  H  H6  1  0.88812000  0.86503000  0.57811000  1.0
  H  H7  1  0.15102000  0.13492000  0.72299000  1.0
  H  H8  1  0.27700000  0.42802000  0.41192000  1.0
  H  H9  1  0.42189000  0.31001000  0.28692000  1.0
  H  H10  1  0.71305000  0.13497000  0.02308000  1.0
  H  H11  1  0.58809000  0.86508000  0.01610000  1.0
  H  H12  1  0.57812000  0.86503000  0.88813000  1.0
  H  H13  1  0.28692000  0.31001000  0.42189000  1.0
  H  H14  1  0.41192000  0.42802000  0.27700000  1.0
  H  H15  1  0.01610000  0.86508000  0.58808000  1.0
  H  H16  1  0.02309000  0.13497000  0.71307000  1.0
  H  H17  1  0.11189000  0.68999000  0.97692000  1.0
  H  H18  1  0.84898000  0.57198000  0.98389000  1.0
  H  H19  1  0.98391000  0.57198000  0.84898000  1.0
  C  C20  1  0.34619000  0.87543000  0.27744000  1.0
  C  C21  1  0.58021000  0.93131000  0.28897000  1.0
  C  C22  1  0.38973000  0.33566000  0.31370000  1.0
  C  C23  1  0.94593000  0.92397000  0.61027000  1.0
  C  C24  1  0.09339000  0.07604000  0.69187000  1.0
  C  C25  1  0.98265000  0.59848000  0.90661000  1.0
  C  C26  1  0.97804000  0.66434000  0.05407000  1.0
  C  C27  1  0.05407000  0.66433000  0.97803000  1.0
  C  C28  1  0.90661000  0.59848000  0.98264000  1.0
  C  C29  1  0.01735000  0.92396000  0.61583000  1.0
  C  C30  1  0.02197000  0.07604000  0.68630000  1.0
  C  C31  1  0.31370000  0.33567000  0.38974000  1.0
  C  C32  1  0.71103000  0.29124000  0.64233000  1.0
  C  C33  1  0.38416000  0.40151000  0.30812000  1.0
  C  C34  1  0.69185000  0.07603000  0.09338000  1.0
  C  C35  1  0.61027000  0.92397000  0.94593000  1.0
  C  C36  1  0.64420000  0.00000000  0.94648000  1.0
  C  C37  1  0.65549000  0.00001000  0.09220000  1.0
  C  C38  1  0.34451000  0.43671000  0.34451000  1.0
  C  C39  1  0.35579000  0.30228000  0.35579000  1.0
  C  C40  1  0.94648000  0.00000000  0.64421000  1.0
  C  C41  1  0.09220000  0.00000000  0.65549000  1.0
  C  C42  1  0.90780000  0.56329000  0.90780000  1.0
  C  C43  1  0.27744000  0.87543000  0.34619000  1.0
  C  C44  1  0.05352000  0.69772000  0.05352000  1.0
  C  C45  1  0.65381000  0.93126000  0.52925000  1.0
  C  C46  1  0.35766000  0.06869000  0.64890000  1.0
  C  C47  1  0.35110000  0.70876000  0.41979000  1.0
  C  C48  1  0.47075000  0.12456000  0.40201000  1.0
  C  C49  1  0.64234000  0.29124000  0.71104000  1.0
  C  C50  1  0.64890000  0.06871000  0.35767000  1.0
  C  C51  1  0.52924000  0.93124000  0.65380000  1.0
  C  C52  1  0.40200000  0.12456000  0.47076000  1.0
  C  C53  1  0.41980000  0.70876000  0.35110000  1.0
  C  C54  1  0.28896000  0.93129000  0.58020000  1.0
  C  C55  1  0.72256000  0.06875000  0.59799000  1.0
  C  C56  1  0.59799000  0.06875000  0.72256000  1.0
  C  C57  1  0.63198000  0.00000000  0.87243000  1.0
  C  C58  1  0.65415000  0.99999000  0.16301000  1.0
  C  C59  1  0.34584000  0.50885000  0.34584000  1.0
  C  C60  1  0.36801000  0.24045000  0.36801000  1.0
  C  C61  1  0.87244000  0.00000000  0.63200000  1.0
  C  C62  1  0.16301000  0.99999000  0.65414000  1.0
  C  C63  1  0.83699000  0.49115000  0.83699000  1.0
  C  C64  1  0.12757000  0.75956000  0.12757000  1.0
  C  C65  1  0.64649000  0.00001000  0.22188000  1.0
  C  C66  1  0.61544000  0.00001000  0.80785000  1.0
  C  C67  1  0.38456000  0.19241000  0.38457000  1.0
  C  C68  1  0.35352000  0.57539000  0.35351000  1.0
  C  C69  1  0.22187000  0.00000000  0.64648000  1.0
  C  C70  1  0.80785000  0.00001000  0.61545000  1.0
  C  C71  1  0.19216000  0.80759000  0.19216000  1.0
  C  C72  1  0.77813000  0.42462000  0.77813000  1.0
  C  C73  1  0.26589000  0.85253000  0.26589000  1.0
  C  C74  1  0.71480000  0.34401000  0.71480000  1.0
  C  C75  1  0.62921000  0.00000000  0.28520000  1.0
  C  C76  1  0.58664000  0.00000000  0.73411000  1.0
  C  C77  1  0.41336000  0.14747000  0.41337000  1.0
  C  C78  1  0.37079000  0.65599000  0.37078000  1.0
  C  C79  1  0.28520000  0.00000000  0.62921000  1.0
  C  C80  1  0.73411000  0.00000000  0.58664000  1.0
  C  C81  1  0.68628000  0.07603000  0.02196000  1.0
  C  C82  1  0.61584000  0.92397000  0.01736000  1.0
  C  C83  1  0.30812000  0.40151000  0.38416000  1.0
  N  N84  1  0.39936000  0.90661000  0.35634000  1.0
  N  N85  1  0.57004000  0.95682000  0.35549000  1.0
  N  N86  1  0.64450000  0.21454000  0.60131000  1.0
  N  N87  1  0.35635000  0.90662000  0.39936000  1.0
  N  N88  1  0.60065000  0.95699000  0.50726000  1.0
  N  N89  1  0.39869000  0.04318000  0.61324000  1.0
  N  N90  1  0.38678000  0.78546000  0.42996000  1.0
  N  N91  1  0.49274000  0.09339000  0.44973000  1.0
  N  N92  1  0.60132000  0.21455000  0.64450000  1.0
  N  N93  1  0.61323000  0.04319000  0.39869000  1.0
  N  N94  1  0.50726000  0.95698000  0.60064000  1.0
  N  N95  1  0.44973000  0.09339000  0.49275000  1.0
  N  N96  1  0.42996000  0.78546000  0.38677000  1.0
  N  N97  1  0.35550000  0.95681000  0.57004000  1.0
  N  N98  1  0.64366000  0.04302000  0.55027000  1.0
  N  N99  1  0.55028000  0.04302000  0.64366000  1.0
  Cl  Cl100  1  0.37474000  0.86458000  0.20355000  1.0
  Cl  Cl101  1  0.53749000  0.82841000  0.22134000  1.0
  Cl  Cl102  1  0.77867000  0.31616000  0.60707000  1.0
  Cl  Cl103  1  0.20354000  0.86458000  0.37474000  1.0
  Cl  Cl104  1  0.62527000  0.82881000  0.48985000  1.0
  Cl  Cl105  1  0.39294000  0.17160000  0.70909000  1.0
  Cl  Cl106  1  0.29092000  0.68385000  0.46251000  1.0
  Cl  Cl107  1  0.51015000  0.13542000  0.33897000  1.0
  Cl  Cl108  1  0.60707000  0.31615000  0.77866000  1.0
  Cl  Cl109  1  0.70907000  0.17159000  0.39292000  1.0
  Cl  Cl110  1  0.48984000  0.82880000  0.62526000  1.0
  Cl  Cl111  1  0.33896000  0.13543000  0.51017000  1.0
  Cl  Cl112  1  0.46252000  0.68386000  0.29092000  1.0
  Cl  Cl113  1  0.22134000  0.82841000  0.53749000  1.0
  Cl  Cl114  1  0.79646000  0.17120000  0.66104000  1.0
  Cl  Cl115  1  0.66104000  0.17120000  0.79646000  1.0
