# generated using pymatgen
data_ZnH13C16(NO2)2
_symmetry_space_group_name_H-M   'P 1'
_cell_length_a   11.28570000
_cell_length_b   14.06560000
_cell_length_c   15.34740000
_cell_angle_alpha   91.57120000
_cell_angle_beta   91.40990000
_cell_angle_gamma   108.79700000
_symmetry_Int_Tables_number   1
_chemical_formula_structural   ZnH13C16(NO2)2
_chemical_formula_sum   'Zn2 H26 C32 N4 O8'
_cell_volume   2304.00691895
_cell_formula_units_Z   2
loop_
 _symmetry_equiv_pos_site_id
 _symmetry_equiv_pos_as_xyz
  1  'x, y, z'
loop_
 _atom_site_type_symbol
 _atom_site_label
 _atom_site_symmetry_multiplicity
 _atom_site_fract_x
 _atom_site_fract_y
 _atom_site_fract_z
 _atom_site_occupancy
  Zn  Zn0  1  0.47450000  0.38964000  0.50532000  1.0
  Zn  Zn1  1  0.51016000  0.60311000  0.50346000  1.0
  H  H2  1  0.12226000  0.58044000  0.51001000  1.0
  H  H3  1  0.39955000  0.60777000  0.23091000  1.0
  H  H4  1  0.54893000  0.65770000  0.95335000  1.0
  H  H5  1  0.56729000  0.38228000  0.05626000  1.0
  H  H6  1  0.69133000  0.99344000  0.55557000  1.0
  H  H7  1  0.38076000  0.02178000  0.38364000  1.0
  H  H8  1  0.33534000  0.70051000  0.45731000  1.0
  H  H9  1  0.58077000  0.27567000  0.61421000  1.0
  H  H10  1  0.50747000  0.71486000  0.74508000  1.0
  H  H11  1  0.61212000  0.75434000  0.83826000  1.0
  H  H12  1  0.65635000  0.70162000  0.74204000  1.0
  H  H13  1  0.86355000  0.40793000  0.50425000  1.0
  H  H14  1  0.65899000  0.39800000  0.28334000  1.0
  H  H15  1  0.53048000  0.29218000  0.25211000  1.0
  H  H16  1  0.65492000  0.33689000  0.17938000  1.0
  H  H17  1  0.73458000  0.74546000  0.54759000  1.0
  H  H18  1  0.80117000  0.87397000  0.57453000  1.0
  H  H19  1  0.32235000  0.15398000  0.31782000  1.0
  H  H20  1  0.37489000  0.27777000  0.35904000  1.0
  H  H21  1  0.30930000  0.87031000  0.45492000  1.0
  H  H22  1  0.60092000  0.10445000  0.62495000  1.0
  H  H23  1  0.05419000  0.34962000  0.50262000  1.0
  H  H24  1  0.93412000  0.63883000  0.51412000  1.0
  H  H25  1  0.40474000  0.33498000  0.93406000  1.0
  H  H26  1  0.38698000  0.60889000  0.06841000  1.0
  H  H27  1  0.41879000  0.34280000  0.77222000  1.0
  C  C28  1  0.49625000  0.49961000  0.67423000  1.0
  C  C29  1  0.53855000  0.21662000  0.56458000  1.0
  C  C30  1  0.39813000  0.86223000  0.47620000  1.0
  C  C31  1  0.55000000  0.12202000  0.56991000  1.0
  C  C32  1  0.50008000  0.94625000  0.50544000  1.0
  C  C33  1  0.49099000  0.04872000  0.50416000  1.0
  C  C34  1  0.73834000  0.53975000  0.50667000  1.0
  C  C35  1  0.24909000  0.44993000  0.50178000  1.0
  C  C36  1  0.87549000  0.56001000  0.51021000  1.0
  C  C37  1  0.11157000  0.42873000  0.50376000  1.0
  C  C38  1  0.92691000  0.48550000  0.50779000  1.0
  C  C39  1  0.48814000  0.49565000  0.33221000  1.0
  C  C40  1  0.05945000  0.50269000  0.50771000  1.0
  C  C41  1  0.44000000  0.40723000  0.90325000  1.0
  C  C42  1  0.42868000  0.55876000  0.10096000  1.0
  C  C43  1  0.44742000  0.41144000  0.81320000  1.0
  C  C44  1  0.43463000  0.55761000  0.19149000  1.0
  C  C45  1  0.49107000  0.50348000  0.77176000  1.0
  C  C46  1  0.48554000  0.49225000  0.23457000  1.0
  C  C47  1  0.52735000  0.59449000  0.82258000  1.0
  C  C48  1  0.53372000  0.42723000  0.18581000  1.0
  C  C49  1  0.51808000  0.58822000  0.91322000  1.0
  C  C50  1  0.47611000  0.49646000  0.95493000  1.0
  C  C51  1  0.52669000  0.42971000  0.09479000  1.0
  C  C52  1  0.57877000  0.69700000  0.78527000  1.0
  C  C53  1  0.59807000  0.36026000  0.22727000  1.0
  C  C54  1  0.47521000  0.49435000  0.05106000  1.0
  C  C55  1  0.60950000  0.93032000  0.53423000  1.0
  C  C56  1  0.42463000  0.07533000  0.43696000  1.0
  C  C57  1  0.61781000  0.83192000  0.53294000  1.0
  C  C58  1  0.41820000  0.17401000  0.43474000  1.0
  C  C59  1  0.41169000  0.76820000  0.47772000  1.0
  N  N60  1  0.51800000  0.75198000  0.50521000  1.0
  N  N61  1  0.47448000  0.24307000  0.49924000  1.0
  N  N62  1  0.72399000  0.81457000  0.55963000  1.0
  N  N63  1  0.35545000  0.20242000  0.36933000  1.0
  O  O64  1  0.49264000  0.41591000  0.63769000  1.0
  O  O65  1  0.51442000  0.58145000  0.37043000  1.0
  O  O66  1  0.50248000  0.57922000  0.63434000  1.0
  O  O67  1  0.46259000  0.41210000  0.37059000  1.0
  O  O68  1  0.66748000  0.44915000  0.49761000  1.0
  O  O69  1  0.31755000  0.54100000  0.49388000  1.0
  O  O70  1  0.70070000  0.61668000  0.51221000  1.0
  O  O71  1  0.28753000  0.37431000  0.50809000  1.0
