# generated using pymatgen
data_ZnPH8C7N2O3
_symmetry_space_group_name_H-M   'P 1'
_cell_length_a   8.83167000
_cell_length_b   9.97057000
_cell_length_c   11.25340000
_cell_angle_alpha   110.08700000
_cell_angle_beta   90.00000000
_cell_angle_gamma   90.00000000
_symmetry_Int_Tables_number   1
_chemical_formula_structural   ZnPH8C7N2O3
_chemical_formula_sum   'Zn4 P4 H32 C28 N8 O12'
_cell_volume   930.66162294
_cell_formula_units_Z   4
loop_
 _symmetry_equiv_pos_site_id
 _symmetry_equiv_pos_as_xyz
  1  'x, y, z'
loop_
 _atom_site_type_symbol
 _atom_site_label
 _atom_site_symmetry_multiplicity
 _atom_site_fract_x
 _atom_site_fract_y
 _atom_site_fract_z
 _atom_site_occupancy
  Zn  Zn0  1  0.70116000  0.06475000  0.45757000  1.0
  Zn  Zn1  1  0.20116000  0.43525000  0.54243000  1.0
  Zn  Zn2  1  0.29884000  0.93525000  0.54243000  1.0
  Zn  Zn3  1  0.79884000  0.56475000  0.45757000  1.0
  P  P4  1  0.56118000  0.75896000  0.36842000  1.0
  P  P5  1  0.06118000  0.74104000  0.63158000  1.0
  P  P6  1  0.43882000  0.24104000  0.63158000  1.0
  P  P7  1  0.93882000  0.25896000  0.36842000  1.0
  H  H8  1  0.44928000  0.70871000  0.27396000  1.0
  H  H9  1  0.94928000  0.79129000  0.72604000  1.0
  H  H10  1  0.55072000  0.29128000  0.72604000  1.0
  H  H11  1  0.05072000  0.20871000  0.27396000  1.0
  H  H12  1  0.00297000  0.17811000  0.61872000  1.0
  H  H13  1  0.50297000  0.32189000  0.38128000  1.0
  H  H14  1  0.99703000  0.82189000  0.38128000  1.0
  H  H15  1  0.49703000  0.67811000  0.61872000  1.0
  H  H16  1  0.62038000  0.96572000  0.69388000  1.0
  H  H17  1  0.12038000  0.53428000  0.30611000  1.0
  H  H18  1  0.37962000  0.03427000  0.30612000  1.0
  H  H19  1  0.87962000  0.46572000  0.69388000  1.0
  H  H20  1  0.80578000  0.05011000  0.90714000  1.0
  H  H21  1  0.30578000  0.44989000  0.09286000  1.0
  H  H22  1  0.19422000  0.94989000  0.09286000  1.0
  H  H23  1  0.69422000  0.55011000  0.90714000  1.0
  H  H24  1  0.17000000  0.18295000  0.81161000  1.0
  H  H25  1  0.67000000  0.31705000  0.18839000  1.0
  H  H26  1  0.83000000  0.81705000  0.18839000  1.0
  H  H27  1  0.33000000  0.68295000  0.81161000  1.0
  H  H28  1  0.08337000  0.14053000  0.93707000  1.0
  H  H29  1  0.58337000  0.35946000  0.06293000  1.0
  H  H30  1  0.91663000  0.85947000  0.06293000  1.0
  H  H31  1  0.41663000  0.64053000  0.93707000  1.0
  H  H32  1  0.16162000  0.42616000  0.80704000  1.0
  H  H33  1  0.66162000  0.07384000  0.19296000  1.0
  H  H34  1  0.83838000  0.57384000  0.19296000  1.0
  H  H35  1  0.33838000  0.92616000  0.80704000  1.0
  H  H36  1  0.90543000  0.32050000  0.08980000  1.0
  H  H37  1  0.40543000  0.17950000  0.91020000  1.0
  H  H38  1  0.09457000  0.67950000  0.91020000  1.0
  H  H39  1  0.59457000  0.82050000  0.08980000  1.0
  C  C40  1  0.92496000  0.12963000  0.66692000  1.0
  C  C41  1  0.42496000  0.37037000  0.33308000  1.0
  C  C42  1  0.07504000  0.87037000  0.33308000  1.0
  C  C43  1  0.57504000  0.62963000  0.66692000  1.0
  C  C44  1  0.72750000  0.02197000  0.71066000  1.0
  C  C45  1  0.22750000  0.47803000  0.28934000  1.0
  C  C46  1  0.27250000  0.97803000  0.28934000  1.0
  C  C47  1  0.77250000  0.52197000  0.71066000  1.0
  C  C48  1  0.81847000  0.06290000  0.81590000  1.0
  C  C49  1  0.31847000  0.43710000  0.18410000  1.0
  C  C50  1  0.18153000  0.93710000  0.18410000  1.0
  C  C51  1  0.68153000  0.56290000  0.81590000  1.0
  C  C52  1  0.06800000  0.19838000  0.87067000  1.0
  C  C53  1  0.56800000  0.30161000  0.12933000  1.0
  C  C54  1  0.93200000  0.80161000  0.12933000  1.0
  C  C55  1  0.43200000  0.69838000  0.87067000  1.0
  C  C56  1  0.03581000  0.35483000  0.93962000  1.0
  C  C57  1  0.53581000  0.14517000  0.06038000  1.0
  C  C58  1  0.96419000  0.64517000  0.06038000  1.0
  C  C59  1  0.46419000  0.85483000  0.93962000  1.0
  C  C60  1  0.09049000  0.45798000  0.89159000  1.0
  C  C61  1  0.59049000  0.04202000  0.10841000  1.0
  C  C62  1  0.90951000  0.54202000  0.10841000  1.0
  C  C63  1  0.40951000  0.95798000  0.89159000  1.0
  C  C64  1  0.94568000  0.39827000  0.04854000  1.0
  C  C65  1  0.44568000  0.10173000  0.95146000  1.0
  C  C66  1  0.05432000  0.60173000  0.95146000  1.0
  C  C67  1  0.55432000  0.89827000  0.04855000  1.0
  N  N68  1  0.79523000  0.06463000  0.61866000  1.0
  N  N69  1  0.29524000  0.43537000  0.38134000  1.0
  N  N70  1  0.20476000  0.93537000  0.38134000  1.0
  N  N71  1  0.70476000  0.56463000  0.61866000  1.0
  N  N72  1  0.94247000  0.12996000  0.78627000  1.0
  N  N73  1  0.44247000  0.37004000  0.21373000  1.0
  N  N74  1  0.05753000  0.87004000  0.21373000  1.0
  N  N75  1  0.55753000  0.62996000  0.78627000  1.0
  O  O76  1  0.64429000  0.87824000  0.33665000  1.0
  O  O77  1  0.14428000  0.62176000  0.66335000  1.0
  O  O78  1  0.35571000  0.12176000  0.66335000  1.0
  O  O79  1  0.85571000  0.37824000  0.33665000  1.0
  O  O80  1  0.66260000  0.62934000  0.35264000  1.0
  O  O81  1  0.16260000  0.87066000  0.64736000  1.0
  O  O82  1  0.33740000  0.37066000  0.64736000  1.0
  O  O83  1  0.83740000  0.12934000  0.35264000  1.0
  O  O84  1  0.48105000  0.81256000  0.49811000  1.0
  O  O85  1  0.98105000  0.68744000  0.50189000  1.0
  O  O86  1  0.51895000  0.18744000  0.50189000  1.0
  O  O87  1  0.01895000  0.31256000  0.49811000  1.0
