# generated using pymatgen
data_K2H8C12N2Cl2O5
_symmetry_space_group_name_H-M   'P 1'
_cell_length_a   3.84617000
_cell_length_b   12.90730000
_cell_length_c   15.71807290
_cell_angle_alpha   101.76502715
_cell_angle_beta   97.01825663
_cell_angle_gamma   90.01780000
_symmetry_Int_Tables_number   1
_chemical_formula_structural   K2H8C12N2Cl2O5
_chemical_formula_sum   'K4 H16 C24 N4 Cl4 O10'
_cell_volume   757.93095085
_cell_formula_units_Z   2
loop_
 _symmetry_equiv_pos_site_id
 _symmetry_equiv_pos_as_xyz
  1  'x, y, z'
loop_
 _atom_site_type_symbol
 _atom_site_label
 _atom_site_symmetry_multiplicity
 _atom_site_fract_x
 _atom_site_fract_y
 _atom_site_fract_z
 _atom_site_occupancy
  K  K0  1  0.34545000  0.41305000  0.08623000  1.0
  K  K1  1  0.25832000  0.08715000  0.91378000  1.0
  K  K2  1  0.65455000  0.58695000  0.91377000  1.0
  K  K3  1  0.74167000  0.91285000  0.08623000  1.0
  H  H4  1  0.27671000  0.03980000  0.24323000  1.0
  H  H5  1  0.03333000  0.46019000  0.75655000  1.0
  H  H6  1  0.72328000  0.96020000  0.75677000  1.0
  H  H7  1  0.96667000  0.53980000  0.24345000  1.0
  H  H8  1  0.70773000  0.38412000  0.35150000  1.0
  H  H9  1  0.35488000  0.11596000  0.64843000  1.0
  H  H10  1  0.29227000  0.61589000  0.64850000  1.0
  H  H11  1  0.64512000  0.88404000  0.35157000  1.0
  H  H12  1  0.82909000  0.25455000  0.44708000  1.0
  H  H13  1  0.38116000  0.24547000  0.55279000  1.0
  H  H14  1  0.17091000  0.74545000  0.55292000  1.0
  H  H15  1  0.61884000  0.75453000  0.44721000  1.0
  H  H16  1  0.83133000  0.27082000  0.95385000  1.0
  H  H17  1  0.87758000  0.22934000  0.04608000  1.0
  H  H18  1  0.16867000  0.72918000  0.04615000  1.0
  H  H19  1  0.12242000  0.77066000  0.95392000  1.0
  C  C20  1  0.93181000  0.29136000  0.24051000  1.0
  C  C21  1  0.69044000  0.20868000  0.75935000  1.0
  C  C22  1  0.06820000  0.70864000  0.75949000  1.0
  C  C23  1  0.30956000  0.79132000  0.24065000  1.0
  C  C24  1  0.08287000  0.18741000  0.20962000  1.0
  C  C25  1  0.87295000  0.31257000  0.79019000  1.0
  C  C26  1  0.91713000  0.81259000  0.79038000  1.0
  C  C27  1  0.12705000  0.68743000  0.20981000  1.0
  C  C28  1  0.15560000  0.11496000  0.26682000  1.0
  C  C29  1  0.88861000  0.38502000  0.73297000  1.0
  C  C30  1  0.84440000  0.88504000  0.73318000  1.0
  C  C31  1  0.11140000  0.61498000  0.26703000  1.0
  C  C32  1  0.06763000  0.14100000  0.35001000  1.0
  C  C33  1  0.71721000  0.35897000  0.64980000  1.0
  C  C34  1  0.93237000  0.85900000  0.64999000  1.0
  C  C35  1  0.28278000  0.64103000  0.35019000  1.0
  C  C36  1  0.90162000  0.23829000  0.38082000  1.0
  C  C37  1  0.52012000  0.26171000  0.61903000  1.0
  C  C38  1  0.09838000  0.76171000  0.61918000  1.0
  C  C39  1  0.47987000  0.73829000  0.38096000  1.0
  C  C40  1  0.83417000  0.30996000  0.32829000  1.0
  C  C41  1  0.50492000  0.19007000  0.67159000  1.0
  C  C42  1  0.16584000  0.69005000  0.67171000  1.0
  C  C43  1  0.49508000  0.80993000  0.32841000  1.0
  N  N44  1  0.13223000  0.16495000  0.12388000  1.0
  N  N45  1  0.00802000  0.33501000  0.87593000  1.0
  N  N46  1  0.86777000  0.83505000  0.87612000  1.0
  N  N47  1  0.99198000  0.66498000  0.12407000  1.0
  Cl  Cl48  1  0.15282000  0.05637000  0.42250000  1.0
  Cl  Cl49  1  0.72977000  0.44362000  0.57729000  1.0
  Cl  Cl50  1  0.84717000  0.94363000  0.57750000  1.0
  Cl  Cl51  1  0.27023000  0.55638000  0.42271000  1.0
  O  O52  1  0.88908000  0.36121000  0.19430000  1.0
  O  O53  1  0.69353000  0.13885000  0.80560000  1.0
  O  O54  1  0.11093000  0.63879000  0.80570000  1.0
  O  O55  1  0.30646000  0.86114000  0.19440000  1.0
  O  O56  1  0.25970000  0.07480000  0.09247000  1.0
  O  O57  1  0.16706000  0.42516000  0.90734000  1.0
  O  O58  1  0.74029000  0.92520000  0.90753000  1.0
  O  O59  1  0.83294000  0.57484000  0.09266000  1.0
  O  O60  1  0.70437000  0.25011000  0.00000000  1.0
  O  O61  1  0.29563000  0.74988000  0.00000000  1.0
