# generated using pymatgen
data_ZnH6(C3N2)2
_symmetry_space_group_name_H-M   'P 1'
_cell_length_a   9.34919000
_cell_length_b   10.41370000
_cell_length_c   12.81006036
_cell_angle_alpha   80.58057400
_cell_angle_beta   68.59785238
_cell_angle_gamma   63.33240000
_symmetry_Int_Tables_number   1
_chemical_formula_structural   ZnH6(C3N2)2
_chemical_formula_sum   'Zn4 H24 C24 N16'
_cell_volume   1037.65988455
_cell_formula_units_Z   4
loop_
 _symmetry_equiv_pos_site_id
 _symmetry_equiv_pos_as_xyz
  1  'x, y, z'
loop_
 _atom_site_type_symbol
 _atom_site_label
 _atom_site_symmetry_multiplicity
 _atom_site_fract_x
 _atom_site_fract_y
 _atom_site_fract_z
 _atom_site_occupancy
  Zn  Zn0  1  0.06777000  0.90786000  0.37034000  1.0
  Zn  Zn1  1  0.34601000  0.09214000  0.62965000  1.0
  Zn  Zn2  1  0.72564000  0.59211000  0.87035000  1.0
  Zn  Zn3  1  0.18809000  0.40789000  0.12965000  1.0
  H  H4  1  0.72796000  0.00311000  0.57305000  1.0
  H  H5  1  0.30419000  0.99687000  0.42691000  1.0
  H  H6  1  0.48115000  0.49677000  0.07301000  1.0
  H  H7  1  0.05095000  0.50311000  0.92697000  1.0
  H  H8  1  0.45643000  0.12300000  0.34706000  1.0
  H  H9  1  0.92651000  0.87702000  0.65292000  1.0
  H  H10  1  0.32932000  0.37708000  0.84700000  1.0
  H  H11  1  0.55344000  0.62298000  0.15300000  1.0
  H  H12  1  0.79770000  0.03916000  0.22748000  1.0
  H  H13  1  0.06438000  0.96088000  0.77249000  1.0
  H  H14  1  0.58682000  0.46085000  0.72743000  1.0
  H  H15  1  0.77516000  0.53919000  0.27255000  1.0
  H  H16  1  0.98440000  0.22500000  0.27083000  1.0
  H  H17  1  0.48023000  0.77501000  0.72917000  1.0
  H  H18  1  0.95957000  0.27502000  0.77076000  1.0
  H  H19  1  0.00549000  0.72490000  0.22918000  1.0
  H  H20  1  0.50610000  0.09085000  0.09367000  1.0
  H  H21  1  0.69048000  0.90921000  0.90643000  1.0
  H  H22  1  0.34704000  0.40924000  0.59363000  1.0
  H  H23  1  0.34988000  0.59080000  0.40643000  1.0
  H  H24  1  0.44902000  0.85535000  0.19903000  1.0
  H  H25  1  0.50342000  0.14467000  0.80098000  1.0
  H  H26  1  0.05443000  0.64473000  0.69905000  1.0
  H  H27  1  0.39826000  0.35527000  0.30098000  1.0
  C  C28  1  0.70086000  0.02452000  0.49496000  1.0
  C  C29  1  0.22040000  0.97547000  0.50500000  1.0
  C  C30  1  0.47542000  0.47539000  0.99493000  1.0
  C  C31  1  0.94576000  0.52453000  0.00506000  1.0
  C  C32  1  0.56291000  0.08632000  0.37714000  1.0
  C  C33  1  0.02641000  0.91369000  0.62283000  1.0
  C  C34  1  0.39916000  0.41371000  0.87709000  1.0
  C  C35  1  0.69000000  0.58632000  0.12290000  1.0
  C  C36  1  0.73303000  0.04383000  0.31731000  1.0
  C  C37  1  0.09423000  0.95618000  0.68265000  1.0
  C  C38  1  0.52683000  0.45615000  0.81727000  1.0
  C  C39  1  0.80029000  0.54387000  0.18272000  1.0
  C  C40  1  0.11904000  0.15624000  0.23724000  1.0
  C  C41  1  0.51248000  0.84378000  0.76280000  1.0
  C  C42  1  0.02543000  0.34380000  0.73720000  1.0
  C  C43  1  0.10653000  0.65615000  0.26278000  1.0
  C  C44  1  0.38917000  0.08414000  0.14719000  1.0
  C  C45  1  0.62039000  0.91592000  0.85289000  1.0
  C  C46  1  0.22340000  0.41595000  0.64717000  1.0
  C  C47  1  0.28654000  0.58405000  0.35286000  1.0
  C  C48  1  0.36025000  0.96704000  0.19887000  1.0
  C  C49  1  0.52612000  0.03300000  0.80116000  1.0
  C  C50  1  0.07738000  0.53302000  0.69887000  1.0
  C  C51  1  0.30933000  0.46696000  0.30114000  1.0
  N  N52  1  0.81982000  0.00485000  0.39291000  1.0
  N  N53  1  0.21763000  0.99515000  0.60705000  1.0
  N  N54  1  0.57472000  0.49505000  0.89288000  1.0
  N  N55  1  0.96269000  0.50489000  0.10710000  1.0
  N  N56  1  0.54348000  0.07383000  0.49004000  1.0
  N  N57  1  0.10739000  0.92616000  0.50993000  1.0
  N  N58  1  0.36726000  0.42615000  0.99000000  1.0
  N  N59  1  0.78346000  0.57382000  0.00999000  1.0
  N  N60  1  0.18831000  0.01369000  0.25580000  1.0
  N  N61  1  0.45781000  0.98632000  0.74420000  1.0
  N  N62  1  0.95211000  0.48636000  0.75582000  1.0
  N  N63  1  0.19439000  0.51360000  0.24416000  1.0
  N  N64  1  0.23550000  0.20381000  0.17198000  1.0
  N  N65  1  0.61117000  0.79622000  0.82811000  1.0
  N  N66  1  0.18945000  0.29625000  0.67193000  1.0
  N  N67  1  0.15767000  0.70373000  0.32807000  1.0
