# generated using pymatgen
data_Cu5H36C20S2(I3N4)2
_symmetry_space_group_name_H-M   'P 1'
_cell_length_a   8.06482000
_cell_length_b   9.87431000
_cell_length_c   12.95670000
_cell_angle_alpha   98.76770000
_cell_angle_beta   104.10500000
_cell_angle_gamma   112.10000000
_symmetry_Int_Tables_number   1
_chemical_formula_structural   Cu5H36C20S2(I3N4)2
_chemical_formula_sum   'Cu5 H36 C20 S2 I6 N8'
_cell_volume   892.30198309
_cell_formula_units_Z   1
loop_
 _symmetry_equiv_pos_site_id
 _symmetry_equiv_pos_as_xyz
  1  'x, y, z'
loop_
 _atom_site_type_symbol
 _atom_site_label
 _atom_site_symmetry_multiplicity
 _atom_site_fract_x
 _atom_site_fract_y
 _atom_site_fract_z
 _atom_site_occupancy
  Cu  Cu0  1  0.00000000  0.50000000  0.50000000  1.0
  Cu  Cu1  1  0.58898000  0.55063000  0.39762000  1.0
  Cu  Cu2  1  0.41105000  0.44937000  0.60238000  1.0
  Cu  Cu3  1  0.54187000  0.59052000  0.09354000  1.0
  Cu  Cu4  1  0.45814000  0.40948000  0.90645000  1.0
  H  H5  1  0.32186000  0.85009000  0.58021000  1.0
  H  H6  1  0.67812000  0.14991000  0.41979000  1.0
  H  H7  1  0.10680000  0.86091000  0.57722000  1.0
  H  H8  1  0.89318000  0.13911000  0.42279000  1.0
  H  H9  1  0.14621000  0.01944000  0.45352000  1.0
  H  H10  1  0.85379000  0.98058000  0.54648000  1.0
  H  H11  1  0.37008000  0.02026000  0.46548000  1.0
  H  H12  1  0.62991000  0.97973000  0.53452000  1.0
  H  H13  1  0.02684000  0.97490000  0.26732000  1.0
  H  H14  1  0.97315000  0.02511000  0.73267000  1.0
  H  H15  1  0.95870000  0.79676000  0.17805000  1.0
  H  H16  1  0.04130000  0.20324000  0.82194000  1.0
  H  H17  1  0.18959000  0.99759000  0.12409000  1.0
  H  H18  1  0.81041000  0.00241000  0.87591000  1.0
  H  H19  1  0.30567000  0.88829000  0.17867000  1.0
  H  H20  1  0.69432000  0.11170000  0.82132000  1.0
  H  H21  1  0.35332000  0.06973000  0.25993000  1.0
  H  H22  1  0.64668000  0.93026000  0.74006000  1.0
  H  H23  1  0.18134000  0.55665000  0.20185000  1.0
  H  H24  1  0.81866000  0.44336000  0.79817000  1.0
  H  H25  1  0.06177000  0.65031000  0.12723000  1.0
  H  H26  1  0.93823000  0.34969000  0.87278000  1.0
  H  H27  1  0.79691000  0.41647000  0.01692000  1.0
  H  H28  1  0.20310000  0.58352000  0.98308000  1.0
  H  H29  1  0.96270000  0.33626000  0.05561000  1.0
  H  H30  1  0.03732000  0.66374000  0.94440000  1.0
  H  H31  1  0.58277000  0.14444000  0.03470000  1.0
  H  H32  1  0.41724000  0.85555000  0.96529000  1.0
  H  H33  1  0.56846000  0.15335000  0.16938000  1.0
  H  H34  1  0.43154000  0.84664000  0.83062000  1.0
  H  H35  1  0.68037000  0.95614000  0.11406000  1.0
  H  H36  1  0.31966000  0.04385000  0.88594000  1.0
  H  H37  1  0.85991000  0.10764000  0.22728000  1.0
  H  H38  1  0.14011000  0.89236000  0.77273000  1.0
  H  H39  1  0.87564000  0.09446000  0.09190000  1.0
  H  H40  1  0.12437000  0.90556000  0.90810000  1.0
  C  C41  1  0.18815000  0.83967000  0.52503000  1.0
  C  C42  1  0.81183000  0.16034000  0.47497000  1.0
  C  C43  1  0.21990000  0.94592000  0.44878000  1.0
  C  C44  1  0.78009000  0.05408000  0.55122000  1.0
  C  C45  1  0.08000000  0.89191000  0.24202000  1.0
  C  C46  1  0.92000000  0.10809000  0.75798000  1.0
  C  C47  1  0.24194000  0.96534000  0.19857000  1.0
  C  C48  1  0.75805000  0.03465000  0.80143000  1.0
  C  C49  1  0.05557000  0.69629000  0.34853000  1.0
  C  C50  1  0.94440000  0.30371000  0.65147000  1.0
  C  C51  1  0.04328000  0.55741000  0.16610000  1.0
  C  C52  1  0.95673000  0.44260000  0.83391000  1.0
  C  C53  1  0.89599000  0.40458000  0.08697000  1.0
  C  C54  1  0.10403000  0.59542000  0.91304000  1.0
  C  C55  1  0.82541000  0.43347000  0.24990000  1.0
  C  C56  1  0.17459000  0.56652000  0.75010000  1.0
  C  C57  1  0.66690000  0.17213000  0.12211000  1.0
  C  C58  1  0.33311000  0.82787000  0.87789000  1.0
  C  C59  1  0.77742000  0.07738000  0.13956000  1.0
  C  C60  1  0.22260000  0.92262000  0.86044000  1.0
  S  S61  1  0.71189000  0.38991000  0.34275000  1.0
  S  S62  1  0.28811000  0.61007000  0.65725000  1.0
  I  I63  1  0.24884000  0.35116000  0.38421000  1.0
  I  I64  1  0.75117000  0.64885000  0.61579000  1.0
  I  I65  1  0.60123000  0.74838000  0.28430000  1.0
  I  I66  1  0.39876000  0.25161000  0.71569000  1.0
  I  I67  1  0.30088000  0.31043000  0.04612000  1.0
  I  I68  1  0.69913000  0.68957000  0.95387000  1.0
  N  N69  1  0.08156000  0.68418000  0.44995000  1.0
  N  N70  1  0.91842000  0.31582000  0.55005000  1.0
  N  N71  1  0.13576000  0.83917000  0.33806000  1.0
  N  N72  1  0.86422000  0.16082000  0.66194000  1.0
  N  N73  1  0.95966000  0.57360000  0.25479000  1.0
  N  N74  1  0.04032000  0.42639000  0.74521000  1.0
  N  N75  1  0.79187000  0.33354000  0.15645000  1.0
  N  N76  1  0.20814000  0.66645000  0.84355000  1.0
