# generated using pymatgen
data_MnH12C14N2O5
_symmetry_space_group_name_H-M   'P 1'
_cell_length_a   11.84120000
_cell_length_b   11.84130000
_cell_length_c   16.22740000
_cell_angle_alpha   72.87490000
_cell_angle_beta   72.87490000
_cell_angle_gamma   78.72420000
_symmetry_Int_Tables_number   1
_chemical_formula_structural   MnH12C14N2O5
_chemical_formula_sum   'Mn4 H48 C56 N8 O20'
_cell_volume   2063.23800723
_cell_formula_units_Z   4
loop_
 _symmetry_equiv_pos_site_id
 _symmetry_equiv_pos_as_xyz
  1  'x, y, z'
loop_
 _atom_site_type_symbol
 _atom_site_label
 _atom_site_symmetry_multiplicity
 _atom_site_fract_x
 _atom_site_fract_y
 _atom_site_fract_z
 _atom_site_occupancy
  Mn  Mn0  1  0.39866000  0.17742000  0.94438000  1.0
  Mn  Mn1  1  0.82257000  0.60134000  0.55562000  1.0
  Mn  Mn2  1  0.60134000  0.82258000  0.05562000  1.0
  Mn  Mn3  1  0.17743000  0.39866000  0.44439000  1.0
  H  H4  1  0.19604000  0.32643000  0.72070000  1.0
  H  H5  1  0.67357000  0.80396000  0.77930000  1.0
  H  H6  1  0.80396000  0.67358000  0.27930000  1.0
  H  H7  1  0.32643000  0.19604000  0.22070000  1.0
  H  H8  1  0.83943000  0.58658000  0.95760000  1.0
  H  H9  1  0.41342000  0.16057000  0.54240000  1.0
  H  H10  1  0.16058000  0.41342000  0.04240000  1.0
  H  H11  1  0.58658000  0.83942000  0.45760000  1.0
  H  H12  1  0.02132000  0.43684000  0.96170000  1.0
  H  H13  1  0.56316000  0.97868000  0.53830000  1.0
  H  H14  1  0.97868000  0.56316000  0.03830000  1.0
  H  H15  1  0.43684000  0.02132000  0.46170000  1.0
  H  H16  1  0.73834000  0.64380000  0.80903000  1.0
  H  H17  1  0.35619000  0.26166000  0.69097000  1.0
  H  H18  1  0.26167000  0.35620000  0.19097000  1.0
  H  H19  1  0.64380000  0.73834000  0.30903000  1.0
  H  H20  1  0.67086000  0.66615000  0.91612000  1.0
  H  H21  1  0.33385000  0.32913000  0.58388000  1.0
  H  H22  1  0.32914000  0.33385000  0.08388000  1.0
  H  H23  1  0.66615000  0.67087000  0.41612000  1.0
  H  H24  1  0.85089000  0.52861000  0.74489000  1.0
  H  H25  1  0.47138000  0.14911000  0.75511000  1.0
  H  H26  1  0.14911000  0.47139000  0.25511000  1.0
  H  H27  1  0.52861000  0.85089000  0.24489000  1.0
  H  H28  1  0.73862000  0.36711000  0.98261000  1.0
  H  H29  1  0.63289000  0.26138000  0.51739000  1.0
  H  H30  1  0.26139000  0.63289000  0.01739000  1.0
  H  H31  1  0.36711000  0.73861000  0.48261000  1.0
  H  H32  1  0.52662000  0.61258000  0.81632000  1.0
  H  H33  1  0.38741000  0.47338000  0.68367000  1.0
  H  H34  1  0.47338000  0.38742000  0.18368000  1.0
  H  H35  1  0.61259000  0.52662000  0.31633000  1.0
  H  H36  1  0.60566000  0.21389000  0.00718000  1.0
  H  H37  1  0.78611000  0.39434000  0.49282000  1.0
  H  H38  1  0.39435000  0.78611000  0.99282000  1.0
  H  H39  1  0.21389000  0.60565000  0.50718000  1.0
  H  H40  1  0.40372000  0.44876000  0.84515000  1.0
  H  H41  1  0.55124000  0.59628000  0.65484000  1.0
  H  H42  1  0.59628000  0.55125000  0.15485000  1.0
  H  H43  1  0.44876000  0.40372000  0.34516000  1.0
  H  H44  1  0.35488000  0.96320000  0.03531000  1.0
  H  H45  1  0.03680000  0.64512000  0.46470000  1.0
  H  H46  1  0.64512000  0.03680000  0.96469000  1.0
  H  H47  1  0.96320000  0.35487000  0.53531000  1.0
  H  H48  1  0.22922000  0.01231000  0.01475000  1.0
  H  H49  1  0.98769000  0.77078000  0.48524000  1.0
  H  H50  1  0.77078000  0.98769000  0.98524000  1.0
  H  H51  1  0.01231000  0.22922000  0.51476000  1.0
  C  C52  1  0.02437000  0.42966000  0.72376000  1.0
  C  C53  1  0.57034000  0.97563000  0.77624000  1.0
  C  C54  1  0.97563000  0.57034000  0.27624000  1.0
  C  C55  1  0.42966000  0.02437000  0.22376000  1.0
  C  C56  1  0.92473000  0.49603000  0.85894000  1.0
  C  C57  1  0.50397000  0.07527000  0.64106000  1.0
  C  C58  1  0.07527000  0.50397000  0.14106000  1.0
  C  C59  1  0.49603000  0.92473000  0.35894000  1.0
  C  C60  1  0.11979000  0.37699000  0.84504000  1.0
  C  C61  1  0.62301000  0.88021000  0.65496000  1.0
  C  C62  1  0.88021000  0.62302000  0.15497000  1.0
  C  C63  1  0.37698000  0.11979000  0.34503000  1.0
  C  C64  1  0.12186000  0.37449000  0.75887000  1.0
  C  C65  1  0.62551000  0.87814000  0.74113000  1.0
  C  C66  1  0.87814000  0.62551000  0.24113000  1.0
  C  C67  1  0.37449000  0.12185000  0.25887000  1.0
  C  C68  1  0.02737000  0.42482000  0.63230000  1.0
  C  C69  1  0.57518000  0.97262000  0.86771000  1.0
  C  C70  1  0.97262000  0.57519000  0.36771000  1.0
  C  C71  1  0.42481000  0.02737000  0.13229000  1.0
  C  C72  1  0.21856000  0.30934000  0.88614000  1.0
  C  C73  1  0.69065000  0.78144000  0.61386000  1.0
  C  C74  1  0.78144000  0.69066000  0.11386000  1.0
  C  C75  1  0.30934000  0.21856000  0.38614000  1.0
  C  C76  1  0.64332000  0.50258000  0.89753000  1.0
  C  C77  1  0.49742000  0.35667000  0.60247000  1.0
  C  C78  1  0.35668000  0.49743000  0.10247000  1.0
  C  C79  1  0.50258000  0.64332000  0.39753000  1.0
  C  C80  1  0.02278000  0.43805000  0.89404000  1.0
  C  C81  1  0.56195000  0.97722000  0.60596000  1.0
  C  C82  1  0.97723000  0.56196000  0.10597000  1.0
  C  C83  1  0.43804000  0.02277000  0.39403000  1.0
  C  C84  1  0.72085000  0.59852000  0.88064000  1.0
  C  C85  1  0.40147000  0.27915000  0.61936000  1.0
  C  C86  1  0.27915000  0.40148000  0.11936000  1.0
  C  C87  1  0.59852000  0.72085000  0.38064000  1.0
  C  C88  1  0.92562000  0.48750000  0.77374000  1.0
  C  C89  1  0.51250000  0.07438000  0.72626000  1.0
  C  C90  1  0.07438000  0.51250000  0.22626000  1.0
  C  C91  1  0.48750000  0.92562000  0.27374000  1.0
  C  C92  1  0.66464000  0.38850000  0.95141000  1.0
  C  C93  1  0.61150000  0.33536000  0.54859000  1.0
  C  C94  1  0.33537000  0.61151000  0.04859000  1.0
  C  C95  1  0.38850000  0.66463000  0.45140000  1.0
  C  C96  1  0.54711000  0.52506000  0.85900000  1.0
  C  C97  1  0.47493000  0.45289000  0.64100000  1.0
  C  C98  1  0.45289000  0.47494000  0.14100000  1.0
  C  C99  1  0.52507000  0.54711000  0.35900000  1.0
  C  C100  1  0.59152000  0.30301000  0.96450000  1.0
  C  C101  1  0.69699000  0.40848000  0.53550000  1.0
  C  C102  1  0.40849000  0.69699000  0.03550000  1.0
  C  C103  1  0.30301000  0.59151000  0.46450000  1.0
  C  C104  1  0.47861000  0.43455000  0.87469000  1.0
  C  C105  1  0.56545000  0.52138000  0.62531000  1.0
  C  C106  1  0.52139000  0.56546000  0.12531000  1.0
  C  C107  1  0.43455000  0.47861000  0.37470000  1.0
  N  N108  1  0.50006000  0.32444000  0.92627000  1.0
  N  N109  1  0.67556000  0.49994000  0.57373000  1.0
  N  N110  1  0.49994000  0.67557000  0.07373000  1.0
  N  N111  1  0.32444000  0.50006000  0.42627000  1.0
  N  N112  1  0.82961000  0.55517000  0.90819000  1.0
  N  N113  1  0.44483000  0.17039000  0.59180000  1.0
  N  N114  1  0.17039000  0.44483000  0.09181000  1.0
  N  N115  1  0.55517000  0.82961000  0.40819000  1.0
  O  O116  1  0.30942000  0.25711000  0.83893000  1.0
  O  O117  1  0.74289000  0.69058000  0.66107000  1.0
  O  O118  1  0.69058000  0.74290000  0.16107000  1.0
  O  O119  1  0.25710000  0.30942000  0.33893000  1.0
  O  O120  1  0.21305000  0.30142000  0.96740000  1.0
  O  O121  1  0.69858000  0.78695000  0.53260000  1.0
  O  O122  1  0.78695000  0.69858000  0.03260000  1.0
  O  O123  1  0.30142000  0.21305000  0.46740000  1.0
  O  O124  1  0.12802000  0.39985000  0.58136000  1.0
  O  O125  1  0.60015000  0.87198000  0.91864000  1.0
  O  O126  1  0.87198000  0.60015000  0.41864000  1.0
  O  O127  1  0.39985000  0.12802000  0.08136000  1.0
  O  O128  1  0.92875000  0.44297000  0.60850000  1.0
  O  O129  1  0.55703000  0.07125000  0.89150000  1.0
  O  O130  1  0.07126000  0.55703000  0.39150000  1.0
  O  O131  1  0.44297000  0.92875000  0.10850000  1.0
  O  O132  1  0.31389000  0.00239000  0.98615000  1.0
  O  O133  1  0.99761000  0.68611000  0.51385000  1.0
  O  O134  1  0.68611000  0.99761000  0.01385000  1.0
  O  O135  1  0.00239000  0.31389000  0.48615000  1.0
