# generated using pymatgen
data_TbH15C20(N3O5)2
_symmetry_space_group_name_H-M   'P 1'
_cell_length_a   9.39024000
_cell_length_b   9.44776000
_cell_length_c   13.44700000
_cell_angle_alpha   73.72600000
_cell_angle_beta   81.79370000
_cell_angle_gamma   68.16280000
_symmetry_Int_Tables_number   1
_chemical_formula_structural   TbH15C20(N3O5)2
_chemical_formula_sum   'Tb2 H30 C40 N12 O20'
_cell_volume   1062.00924262
_cell_formula_units_Z   2
loop_
 _symmetry_equiv_pos_site_id
 _symmetry_equiv_pos_as_xyz
  1  'x, y, z'
loop_
 _atom_site_type_symbol
 _atom_site_label
 _atom_site_symmetry_multiplicity
 _atom_site_fract_x
 _atom_site_fract_y
 _atom_site_fract_z
 _atom_site_occupancy
  Tb  Tb0  1  0.23418000  0.55113000  0.48463000  1.0
  Tb  Tb1  1  0.76582000  0.44887000  0.51537000  1.0
  H  H2  1  0.25344000  0.86765000  0.34531000  1.0
  H  H3  1  0.74656000  0.13235000  0.65469000  1.0
  H  H4  1  0.42686000  0.73775000  0.36387000  1.0
  H  H5  1  0.57314000  0.26225000  0.63613000  1.0
  H  H6  1  0.00989000  0.89704000  0.42039000  1.0
  H  H7  1  0.99010000  0.10296000  0.57961000  1.0
  H  H8  1  0.90807000  0.78509000  0.46654000  1.0
  H  H9  1  0.09192000  0.21491000  0.53347000  1.0
  H  H10  1  0.67963000  0.02606000  0.45867000  1.0
  H  H11  1  0.32037000  0.97394000  0.54133000  1.0
  H  H12  1  0.53888000  0.90223000  0.21350000  1.0
  H  H13  1  0.46111000  0.09777000  0.78650000  1.0
  H  H14  1  0.16188000  0.55688000  0.95320000  1.0
  H  H15  1  0.83813000  0.44312000  0.04680000  1.0
  H  H16  1  0.57589000  0.54575000  0.22633000  1.0
  H  H17  1  0.42411000  0.45425000  0.77367000  1.0
  H  H18  1  0.05259000  0.18515000  0.80804000  1.0
  H  H19  1  0.94741000  0.81485000  0.19196000  1.0
  H  H20  1  0.34869000  0.86896000  0.07983000  1.0
  H  H21  1  0.65131000  0.13104000  0.92017000  1.0
  H  H22  1  0.25421000  0.27405000  0.04077000  1.0
  H  H23  1  0.74579000  0.72595000  0.95923000  1.0
  H  H24  1  0.23675000  0.69632000  0.01104000  1.0
  H  H25  1  0.76325000  0.30368000  0.98896000  1.0
  H  H26  1  0.45680000  0.18181000  0.11483000  1.0
  H  H27  1  0.54320000  0.81820000  0.88517000  1.0
  H  H28  1  0.03485000  0.02374000  0.77016000  1.0
  H  H29  1  0.96515000  0.97627000  0.22984000  1.0
  H  H30  1  0.82844000  0.75299000  0.68433000  1.0
  H  H31  1  0.17156000  0.24701000  0.31567000  1.0
  C  C32  1  0.57752000  0.21886000  0.33068000  1.0
  C  C33  1  0.42248000  0.78114000  0.66932000  1.0
  C  C34  1  0.62969000  0.06007000  0.38339000  1.0
  C  C35  1  0.37032000  0.93992000  0.61661000  1.0
  C  C36  1  0.54871000  0.99081000  0.24666000  1.0
  C  C37  1  0.45129000  0.00919000  0.75334000  1.0
  C  C38  1  0.61380000  0.94538000  0.34335000  1.0
  C  C39  1  0.38620000  0.05462000  0.65665000  1.0
  C  C40  1  0.06399000  0.52943000  0.82859000  1.0
  C  C41  1  0.93601000  0.47057000  0.17141000  1.0
  C  C42  1  0.66632000  0.77759000  0.40252000  1.0
  C  C43  1  0.33368000  0.22241000  0.59747000  1.0
  C  C44  1  0.96744000  0.46745000  0.68153000  1.0
  C  C45  1  0.03257000  0.53256000  0.31848000  1.0
  C  C46  1  0.14207000  0.47350000  0.92069000  1.0
  C  C47  1  0.85793000  0.52650000  0.07931000  1.0
  C  C48  1  0.59074000  0.33295000  0.38431000  1.0
  C  C49  1  0.40926000  0.66704000  0.61569000  1.0
  C  C50  1  0.49056000  0.54890000  0.17861000  1.0
  C  C51  1  0.50944000  0.45110000  0.82139000  1.0
  C  C52  1  0.07808000  0.26683000  0.83928000  1.0
  C  C53  1  0.92192000  0.73317000  0.16072000  1.0
  C  C54  1  0.51287000  0.26225000  0.23382000  1.0
  C  C55  1  0.48714000  0.73774000  0.76618000  1.0
  C  C56  1  0.16018000  0.20901000  0.92969000  1.0
  C  C57  1  0.83982000  0.79100000  0.07032000  1.0
  C  C58  1  0.19251000  0.31441000  0.96990000  1.0
  C  C59  1  0.80749000  0.68559000  0.03011000  1.0
  C  C60  1  0.31948000  0.61885000  0.06916000  1.0
  C  C61  1  0.68052000  0.38115000  0.93083000  1.0
  C  C62  1  0.50128000  0.14738000  0.19158000  1.0
  C  C63  1  0.49872000  0.85262000  0.80842000  1.0
  C  C64  1  0.21347000  0.03649000  0.97734000  1.0
  C  C65  1  0.78654000  0.96351000  0.02266000  1.0
  C  C66  1  0.00819000  0.92548000  0.76256000  1.0
  C  C67  1  0.99181000  0.07452000  0.23744000  1.0
  C  C68  1  0.90223000  0.79131000  0.71739000  1.0
  C  C69  1  0.09777000  0.20869000  0.28261000  1.0
  C  C70  1  0.03287000  0.42502000  0.78583000  1.0
  C  C71  1  0.96713000  0.57498000  0.21417000  1.0
  N  N72  1  0.45724000  0.42151000  0.17621000  1.0
  N  N73  1  0.54276000  0.57849000  0.82379000  1.0
  N  N74  1  0.40510000  0.67494000  0.11185000  1.0
  N  N75  1  0.59490000  0.32505000  0.88815000  1.0
  N  N76  1  0.01508000  0.69397000  0.78365000  1.0
  N  N77  1  0.98492000  0.30603000  0.21636000  1.0
  N  N78  1  0.34722000  0.46627000  0.10546000  1.0
  N  N79  1  0.65278000  0.53373000  0.89454000  1.0
  N  N80  1  0.89523000  0.93940000  0.70217000  1.0
  N  N81  1  0.10477000  0.06060000  0.29783000  1.0
  N  N82  1  0.08358000  0.77998000  0.81286000  1.0
  N  N83  1  0.91641000  0.22002000  0.18714000  1.0
  O  O84  1  0.75186000  0.73227000  0.47987000  1.0
  O  O85  1  0.24813000  0.26773000  0.52013000  1.0
  O  O86  1  0.62518000  0.67887000  0.37599000  1.0
  O  O87  1  0.37481000  0.32113000  0.62401000  1.0
  O  O88  1  0.04074000  0.52299000  0.60322000  1.0
  O  O89  1  0.95926000  0.47701000  0.39678000  1.0
  O  O90  1  0.31550000  0.75474000  0.37301000  1.0
  O  O91  1  0.68450000  0.24527000  0.62699000  1.0
  O  O92  1  0.01321000  0.79153000  0.45793000  1.0
  O  O93  1  0.98678000  0.20847000  0.54208000  1.0
  O  O94  1  0.46848000  0.43026000  0.41351000  1.0
  O  O95  1  0.53152000  0.56973000  0.58649000  1.0
  O  O96  1  0.84738000  0.43927000  0.67646000  1.0
  O  O97  1  0.15262000  0.56074000  0.32355000  1.0
  O  O98  1  0.72482000  0.32133000  0.39987000  1.0
  O  O99  1  0.27519000  0.67866000  0.60013000  1.0
  O  O100  1  0.17566000  0.94680000  0.94453000  1.0
  O  O101  1  0.82434000  0.05320000  0.05547000  1.0
  O  O102  1  0.30793000  0.99029000  0.05515000  1.0
  O  O103  1  0.69207000  0.00971000  0.94485000  1.0
