# generated using pymatgen
data_Zr6H41C60Br5O32
_symmetry_space_group_name_H-M   'P 1'
_cell_length_a   14.65976525
_cell_length_b   14.82407185
_cell_length_c   14.84700000
_cell_angle_alpha   60.33184768
_cell_angle_beta   60.42348826
_cell_angle_gamma   60.40183608
_symmetry_Int_Tables_number   1
_chemical_formula_structural   Zr6H41C60Br5O32
_chemical_formula_sum   'Zr6 H41 C60 Br5 O32'
_cell_volume   2301.38833456
_cell_formula_units_Z   1
loop_
 _symmetry_equiv_pos_site_id
 _symmetry_equiv_pos_as_xyz
  1  'x, y, z'
loop_
 _atom_site_type_symbol
 _atom_site_label
 _atom_site_symmetry_multiplicity
 _atom_site_fract_x
 _atom_site_fract_y
 _atom_site_fract_z
 _atom_site_occupancy
  Zr  Zr0  1  0.37872000  0.88479000  0.11047000  1.0
  Zr  Zr1  1  0.62318000  0.12001000  0.87587000  1.0
  Zr  Zr2  1  0.38173000  0.12318000  0.87149000  1.0
  Zr  Zr3  1  0.61931000  0.88413000  0.11205000  1.0
  Zr  Zr4  1  0.61730000  0.88432000  0.87405000  1.0
  Zr  Zr5  1  0.37920000  0.12235000  0.11038000  1.0
  H  H6  1  0.40393000  0.91004000  0.89825000  1.0
  H  H7  1  0.78274000  0.90764000  0.90272000  1.0
  H  H8  1  0.40843000  0.28411000  0.89923000  1.0
  H  H9  1  0.40505000  0.91005000  0.27189000  1.0
  H  H10  1  0.37497000  0.57323000  0.15693000  1.0
  H  H11  1  0.77224000  0.51985000  0.84186000  1.0
  H  H12  1  0.68532000  0.60368000  0.75824000  1.0
  H  H13  1  0.67350000  0.43414000  0.76989000  1.0
  H  H14  1  0.76301000  0.35009000  0.85067000  1.0
  H  H15  1  0.09717000  0.84960000  0.41173000  1.0
  H  H16  1  0.04857000  0.24415000  0.38840000  1.0
  H  H17  1  0.13605000  0.15393000  0.47114000  1.0
  H  H18  1  0.96575000  0.14629000  0.64106000  1.0
  H  H19  1  0.87931000  0.23290000  0.55732000  1.0
  H  H20  1  0.88934000  0.58012000  0.86591000  1.0
  H  H21  1  0.88294000  0.53463000  0.24975000  1.0
  H  H22  1  0.96740000  0.62023000  0.15746000  1.0
  H  H23  1  0.13868000  0.45093000  0.14643000  1.0
  H  H24  1  0.05401000  0.36612000  0.23853000  1.0
  H  H25  1  0.34525000  0.13714000  0.41109000  1.0
  H  H26  1  0.75632000  0.84190000  0.36734000  1.0
  H  H27  1  0.67444000  0.75345000  0.45243000  1.0
  H  H28  1  0.66931000  0.76112000  0.62094000  1.0
  H  H29  1  0.74912000  0.85105000  0.53664000  1.0
  H  H30  1  0.01982000  0.88075000  0.91922000  1.0
  H  H31  1  0.99552000  0.01833000  0.82856000  1.0
  H  H32  1  0.15481000  0.01871000  0.82829000  1.0
  H  H33  1  0.17744000  0.88138000  0.91979000  1.0
  H  H34  1  0.03788000  0.17714000  0.90367000  1.0
  H  H35  1  0.97832000  0.15133000  0.04627000  1.0
  H  H36  1  0.88006000  0.17495000  0.90210000  1.0
  H  H37  1  0.82002000  0.15177000  0.04459000  1.0
  H  H38  1  0.93626000  0.84257000  0.12464000  1.0
  H  H39  1  0.85420000  0.95153000  0.17787000  1.0
  H  H40  1  0.01288000  0.95354000  0.17752000  1.0
  H  H41  1  0.09453000  0.84394000  0.12526000  1.0
  H  H42  1  0.64802000  0.59402000  0.39665000  1.0
  H  H43  1  0.32858000  0.53237000  0.37698000  1.0
  H  H44  1  0.24620000  0.61724000  0.46162000  1.0
  H  H45  1  0.25887000  0.44815000  0.62987000  1.0
  H  H46  1  0.34105000  0.36344000  0.54572000  1.0
  C  C47  1  0.50683000  0.69367000  0.99917000  1.0
  C  C48  1  0.80682000  0.99392000  0.69425000  1.0
  C  C49  1  0.50568000  0.29412000  0.00959000  1.0
  C  C50  1  0.19540000  0.00459000  0.29381000  1.0
  C  C51  1  0.19077000  0.00554000  0.99640000  1.0
  C  C52  1  0.49991000  0.69889000  0.29191000  1.0
  C  C53  1  0.80469000  0.00336000  0.99819000  1.0
  C  C54  1  0.51260000  0.30305000  0.68701000  1.0
  C  C55  1  0.49613000  0.00748000  0.68886000  1.0
  C  C56  1  0.19085000  0.30042000  0.99159000  1.0
  C  C57  1  0.50165000  0.00426000  0.29254000  1.0
  C  C58  1  0.79511000  0.69569000  0.00060000  1.0
  C  C59  1  0.51519000  0.58536000  0.00854000  1.0
  C  C60  1  0.51056000  0.38616000  0.02074000  1.0
  C  C61  1  0.59570000  0.53030000  0.93388000  1.0
  C  C62  1  0.43477000  0.43786000  0.10194000  1.0
  C  C63  1  0.59178000  0.43487000  0.94054000  1.0
  C  C64  1  0.43660000  0.53446000  0.09484000  1.0
  C  C65  1  0.69743000  0.53182000  0.83141000  1.0
  C  C66  1  0.69163000  0.42509000  0.83791000  1.0
  C  C67  1  0.10305000  0.99697000  0.40054000  1.0
  C  C68  1  0.91321000  0.98404000  0.60059000  1.0
  C  C69  1  0.05611000  0.07002000  0.45696000  1.0
  C  C70  1  0.96921000  0.90323000  0.54850000  1.0
  C  C71  1  0.96392000  0.06338000  0.55250000  1.0
  C  C72  1  0.05896000  0.91130000  0.45084000  1.0
  C  C73  1  0.06115000  0.16884000  0.45875000  1.0
  C  C74  1  0.95537000  0.16268000  0.56536000  1.0
  C  C75  1  0.89137000  0.59203000  0.00315000  1.0
  C  C76  1  0.08633000  0.39669000  0.99356000  1.0
  C  C77  1  0.94800000  0.54097000  0.07745000  1.0
  C  C78  1  0.02560000  0.44800000  0.92023000  1.0
  C  C79  1  0.04203000  0.44722000  0.07161000  1.0
  C  C80  1  0.93209000  0.54223000  0.92497000  1.0
  C  C81  1  0.95369000  0.54631000  0.17375000  1.0
  C  C82  1  0.06073000  0.44067000  0.16677000  1.0
  C  C83  1  0.49863000  0.00220000  0.39502000  1.0
  C  C84  1  0.48940000  0.00664000  0.59237000  1.0
  C  C85  1  0.57865000  0.92639000  0.44561000  1.0
  C  C86  1  0.40470000  0.07935000  0.54342000  1.0
  C  C87  1  0.57389000  0.93009000  0.54000000  1.0
  C  C88  1  0.41048000  0.07823000  0.44733000  1.0
  C  C89  1  0.68412000  0.82786000  0.44073000  1.0
  C  C90  1  0.67995000  0.83291000  0.54661000  1.0
  C  C91  1  0.01000000  0.96405000  0.90747000  1.0
  C  C92  1  0.11573000  0.96460000  0.90735000  1.0
  C  C93  1  0.08522000  0.00464000  0.00047000  1.0
  C  C94  1  0.99957000  0.12152000  0.98134000  1.0
  C  C95  1  0.89452000  0.12095000  0.98092000  1.0
  C  C96  1  0.90729000  0.00335000  0.00092000  1.0
  C  C97  1  0.92789000  0.92587000  0.11087000  1.0
  C  C98  1  0.03296000  0.92681000  0.11087000  1.0
  C  C99  1  0.50207000  0.59856000  0.39133000  1.0
  C  C100  1  0.51404000  0.40377000  0.58668000  1.0
  C  C101  1  0.42433000  0.54476000  0.44602000  1.0
  C  C102  1  0.59173000  0.46084000  0.53053000  1.0
  C  C103  1  0.43128000  0.45112000  0.53955000  1.0
  C  C104  1  0.58617000  0.55369000  0.43663000  1.0
  C  C105  1  0.31984000  0.54507000  0.44812000  1.0
  C  C106  1  0.32768000  0.43923000  0.55363000  1.0
  Br  Br107  1  0.32426000  0.38175000  0.23026000  1.0
  Br  Br108  1  0.93409000  0.77224000  0.60781000  1.0
  Br  Br109  1  0.06290000  0.39648000  0.80701000  1.0
  Br  Br110  1  0.27092000  0.18214000  0.60528000  1.0
  Br  Br111  1  0.71165000  0.42052000  0.57647000  1.0
  O  O112  1  0.42691000  0.73637000  0.07178000  1.0
  O  O113  1  0.77074000  0.07235000  0.72970000  1.0
  O  O114  1  0.58305000  0.25838000  0.93134000  1.0
  O  O115  1  0.23151000  0.93119000  0.25183000  1.0
  O  O116  1  0.23116000  0.08065000  0.91882000  1.0
  O  O117  1  0.57685000  0.73901000  0.25250000  1.0
  O  O118  1  0.76330000  0.92786000  0.07290000  1.0
  O  O119  1  0.43406000  0.26630000  0.72338000  1.0
  O  O120  1  0.57372000  0.92929000  0.72633000  1.0
  O  O121  1  0.22875000  0.26341000  0.06890000  1.0
  O  O122  1  0.42515000  0.08040000  0.25270000  1.0
  O  O123  1  0.75637000  0.73701000  0.92308000  1.0
  O  O124  1  0.23652000  0.26335000  0.91254000  1.0
  O  O125  1  0.58019000  0.92822000  0.25361000  1.0
  O  O126  1  0.76069000  0.73602000  0.07491000  1.0
  O  O127  1  0.42505000  0.08589000  0.72693000  1.0
  O  O128  1  0.23361000  0.92820000  0.07050000  1.0
  O  O129  1  0.58784000  0.26134000  0.73004000  1.0
  O  O130  1  0.76773000  0.07819000  0.91944000  1.0
  O  O131  1  0.42095000  0.73786000  0.25480000  1.0
  O  O132  1  0.23206000  0.08386000  0.25308000  1.0
  O  O133  1  0.57908000  0.73656000  0.91738000  1.0
  O  O134  1  0.75860000  0.92470000  0.73135000  1.0
  O  O135  1  0.42257000  0.26068000  0.07589000  1.0
  O  O136  1  0.43150000  0.93679000  0.19233000  1.0
  O  O137  1  0.43486000  0.20437000  0.92518000  1.0
  O  O138  1  0.70222000  0.93450000  0.92763000  1.0
  O  O139  1  0.43181000  0.93664000  0.92433000  1.0
  O  O140  1  0.55088000  0.05255000  0.84509000  1.0
  O  O141  1  0.54837000  0.85496000  0.04211000  1.0
  O  O142  1  0.55016000  0.05213000  0.04270000  1.0
  O  O143  1  0.35064000  0.05313000  0.03976000  1.0
