# generated using pymatgen
data_GdH12C27(NO2)6
_symmetry_space_group_name_H-M   'P 1'
_cell_length_a   12.83342203
_cell_length_b   12.83430000
_cell_length_c   15.62650000
_cell_angle_alpha   90.03540000
_cell_angle_beta   90.01601271
_cell_angle_gamma   119.98278666
_symmetry_Int_Tables_number   1
_chemical_formula_structural   GdH12C27(NO2)6
_chemical_formula_sum   'Gd2 H24 C54 N12 O24'
_cell_volume   2229.36989120
_cell_formula_units_Z   2
loop_
 _symmetry_equiv_pos_site_id
 _symmetry_equiv_pos_as_xyz
  1  'x, y, z'
loop_
 _atom_site_type_symbol
 _atom_site_label
 _atom_site_symmetry_multiplicity
 _atom_site_fract_x
 _atom_site_fract_y
 _atom_site_fract_z
 _atom_site_occupancy
  Gd  Gd0  1  0.33242000  0.66606000  0.43927000  1.0
  Gd  Gd1  1  0.66631000  0.33241000  0.93932000  1.0
  H  H2  1  0.74275000  0.78583000  0.28455000  1.0
  H  H3  1  0.21432000  0.95708000  0.28463000  1.0
  H  H4  1  0.04323000  0.25752000  0.28463000  1.0
  H  H5  1  0.78545000  0.74260000  0.78505000  1.0
  H  H6  1  0.95703000  0.21453000  0.78514000  1.0
  H  H7  1  0.25762000  0.04305000  0.78517000  1.0
  H  H8  1  0.41452000  0.46311000  0.22033000  1.0
  H  H9  1  0.53706000  0.95145000  0.22070000  1.0
  H  H10  1  0.04844000  0.58553000  0.22042000  1.0
  H  H11  1  0.46282000  0.41445000  0.72047000  1.0
  H  H12  1  0.95181000  0.53736000  0.72095000  1.0
  H  H13  1  0.58551000  0.04827000  0.72046000  1.0
  H  H14  1  0.72919000  0.56895000  0.06585000  1.0
  H  H15  1  0.43104000  0.15999000  0.06599000  1.0
  H  H16  1  0.83963000  0.27057000  0.06592000  1.0
  H  H17  1  0.56915000  0.72929000  0.56612000  1.0
  H  H18  1  0.15997000  0.43070000  0.56631000  1.0
  H  H19  1  0.27029000  0.83956000  0.56620000  1.0
  H  H20  1  0.91341000  0.71556000  0.12801000  1.0
  H  H21  1  0.28455000  0.19771000  0.12794000  1.0
  H  H22  1  0.80225000  0.08669000  0.12789000  1.0
  H  H23  1  0.71562000  0.91341000  0.62848000  1.0
  H  H24  1  0.19764000  0.28438000  0.62842000  1.0
  H  H25  1  0.08652000  0.80216000  0.62844000  1.0
  C  C26  1  0.93573000  0.88313000  0.16422000  1.0
  C  C27  1  0.11699000  0.05261000  0.16422000  1.0
  C  C28  1  0.94753000  0.06439000  0.16428000  1.0
  C  C29  1  0.88305000  0.93567000  0.66475000  1.0
  C  C30  1  0.05256000  0.11691000  0.66480000  1.0
  C  C31  1  0.06430000  0.94743000  0.66486000  1.0
  C  C32  1  0.74932000  0.68776000  0.17198000  1.0
  C  C33  1  0.31235000  0.06153000  0.17207000  1.0
  C  C34  1  0.93845000  0.25075000  0.17205000  1.0
  C  C35  1  0.68763000  0.74930000  0.67239000  1.0
  C  C36  1  0.06160000  0.31235000  0.67254000  1.0
  C  C37  1  0.25063000  0.93827000  0.67249000  1.0
  C  C38  1  0.69265000  0.70954000  0.24201000  1.0
  C  C39  1  0.29060000  0.98320000  0.24215000  1.0
  C  C40  1  0.01699000  0.30756000  0.24211000  1.0
  C  C41  1  0.70924000  0.69256000  0.74243000  1.0
  C  C42  1  0.98329000  0.29079000  0.74261000  1.0
  C  C43  1  0.30756000  0.01678000  0.74254000  1.0
  C  C44  1  0.57346000  0.62700000  0.25938000  1.0
  C  C45  1  0.37314000  0.94653000  0.25962000  1.0
  C  C46  1  0.05353000  0.42673000  0.25948000  1.0
  C  C47  1  0.62668000  0.57336000  0.75969000  1.0
  C  C48  1  0.94672000  0.37342000  0.75999000  1.0
  C  C49  1  0.42677000  0.05334000  0.75975000  1.0
  C  C50  1  0.50850000  0.52627000  0.20613000  1.0
  C  C51  1  0.47384000  0.98223000  0.20643000  1.0
  C  C52  1  0.01759000  0.49151000  0.20622000  1.0
  C  C53  1  0.52602000  0.50846000  0.70638000  1.0
  C  C54  1  0.98252000  0.47407000  0.70674000  1.0
  C  C55  1  0.49145000  0.01739000  0.70638000  1.0
  C  C56  1  0.56379000  0.50497000  0.13630000  1.0
  C  C57  1  0.49510000  0.05865000  0.13654000  1.0
  C  C58  1  0.94094000  0.43610000  0.13638000  1.0
  C  C59  1  0.50489000  0.56382000  0.63654000  1.0
  C  C60  1  0.05891000  0.49514000  0.63684000  1.0
  C  C61  1  0.43592000  0.94077000  0.63655000  1.0
  C  C62  1  0.68453000  0.58383000  0.11989000  1.0
  C  C63  1  0.41622000  0.10054000  0.12004000  1.0
  C  C64  1  0.89915000  0.31538000  0.11997000  1.0
  C  C65  1  0.58384000  0.68456000  0.62019000  1.0
  C  C66  1  0.10063000  0.41612000  0.62039000  1.0
  C  C67  1  0.31516000  0.89900000  0.62027000  1.0
  C  C68  1  0.50904000  0.64027000  0.33467000  1.0
  C  C69  1  0.35981000  0.86868000  0.33483000  1.0
  C  C70  1  0.13155000  0.49176000  0.33462000  1.0
  C  C71  1  0.63996000  0.50884000  0.83487000  1.0
  C  C72  1  0.86868000  0.36018000  0.83507000  1.0
  C  C73  1  0.49192000  0.13144000  0.83482000  1.0
  C  C74  1  0.49059000  0.39307000  0.08345000  1.0
  C  C75  1  0.60693000  0.09712000  0.08374000  1.0
  C  C76  1  0.90237000  0.50929000  0.08348000  1.0
  C  C77  1  0.39313000  0.49069000  0.58355000  1.0
  C  C78  1  0.09729000  0.60678000  0.58385000  1.0
  C  C79  1  0.50900000  0.90224000  0.58345000  1.0
  N  N80  1  0.05608000  0.93151000  0.16469000  1.0
  N  N81  1  0.06862000  0.12459000  0.16481000  1.0
  N  N82  1  0.87555000  0.94410000  0.16487000  1.0
  N  N83  1  0.93146000  0.05603000  0.66524000  1.0
  N  N84  1  0.12452000  0.06852000  0.66544000  1.0
  N  N85  1  0.94401000  0.87548000  0.66540000  1.0
  N  N86  1  0.87009000  0.75999000  0.15516000  1.0
  N  N87  1  0.24013000  0.11005000  0.15514000  1.0
  N  N88  1  0.88999000  0.13006000  0.15516000  1.0
  N  N89  1  0.75994000  0.87009000  0.65566000  1.0
  N  N90  1  0.11006000  0.24006000  0.65569000  1.0
  N  N91  1  0.12991000  0.88984000  0.65573000  1.0
  O  O92  1  0.56486000  0.71057000  0.39565000  1.0
  O  O93  1  0.28942000  0.85387000  0.39576000  1.0
  O  O94  1  0.14693000  0.43671000  0.39564000  1.0
  O  O95  1  0.71012000  0.56451000  0.89595000  1.0
  O  O96  1  0.85360000  0.28986000  0.89610000  1.0
  O  O97  1  0.43695000  0.14679000  0.89594000  1.0
  O  O98  1  0.39390000  0.57588000  0.33295000  1.0
  O  O99  1  0.42421000  0.81790000  0.33302000  1.0
  O  O100  1  0.18182000  0.60688000  0.33241000  1.0
  O  O101  1  0.57580000  0.39369000  0.83298000  1.0
  O  O102  1  0.81798000  0.42465000  0.83299000  1.0
  O  O103  1  0.60704000  0.18184000  0.83244000  1.0
  O  O104  1  0.37925000  0.33234000  0.09871000  1.0
  O  O105  1  0.66749000  0.04630000  0.09909000  1.0
  O  O106  1  0.95320000  0.62070000  0.09870000  1.0
  O  O107  1  0.33222000  0.37937000  0.59878000  1.0
  O  O108  1  0.04659000  0.66747000  0.59914000  1.0
  O  O109  1  0.62037000  0.95278000  0.59870000  1.0
  O  O110  1  0.54630000  0.36618000  0.02847000  1.0
  O  O111  1  0.63388000  0.17963000  0.02876000  1.0
  O  O112  1  0.81972000  0.45362000  0.02852000  1.0
  O  O113  1  0.36656000  0.54646000  0.52843000  1.0
  O  O114  1  0.17961000  0.63346000  0.52873000  1.0
  O  O115  1  0.45325000  0.81989000  0.52828000  1.0
