# generated using pymatgen
data_Zn4H32C48Cl4O13
_symmetry_space_group_name_H-M   'P 1'
_cell_length_a   23.87498267
_cell_length_b   23.87540000
_cell_length_c   23.87360000
_cell_angle_alpha   66.74520000
_cell_angle_beta   72.38443517
_cell_angle_gamma   107.61258669
_symmetry_Int_Tables_number   1
_chemical_formula_structural   Zn4H32C48Cl4O13
_chemical_formula_sum   'Zn8 H64 C96 Cl8 O26'
_cell_volume   10441.14288332
_cell_formula_units_Z   2
loop_
 _symmetry_equiv_pos_site_id
 _symmetry_equiv_pos_as_xyz
  1  'x, y, z'
loop_
 _atom_site_type_symbol
 _atom_site_label
 _atom_site_symmetry_multiplicity
 _atom_site_fract_x
 _atom_site_fract_y
 _atom_site_fract_z
 _atom_site_occupancy
  Zn  Zn0  1  0.05764000  0.09944000  0.45819000  1.0
  Zn  Zn1  1  0.05764000  0.95819000  0.48417000  1.0
  Zn  Zn2  1  0.94235000  0.95818000  0.59946000  1.0
  Zn  Zn3  1  0.94237000  0.98417000  0.45818000  1.0
  Zn  Zn4  1  0.94236000  0.40055000  0.04181000  1.0
  Zn  Zn5  1  0.05765000  0.54181000  0.90054000  1.0
  Zn  Zn6  1  0.94235000  0.54180000  0.01584000  1.0
  Zn  Zn7  1  0.05763000  0.51583000  0.04182000  1.0
  H  H8  1  0.92405000  0.27208000  0.96354000  1.0
  H  H9  1  0.07595000  0.46355000  0.77204000  1.0
  H  H10  1  0.92410000  0.03644000  0.72797000  1.0
  H  H11  1  0.07586000  0.22794000  0.53643000  1.0
  H  H12  1  0.07597000  0.61245000  0.15194000  1.0
  H  H13  1  0.92406000  0.65201000  0.11238000  1.0
  H  H14  1  0.07586000  0.84790000  0.38770000  1.0
  H  H15  1  0.92410000  0.88765000  0.34796000  1.0
  H  H16  1  0.73561000  0.27206000  0.15207000  1.0
  H  H17  1  0.73561000  0.46356000  0.11232000  1.0
  H  H18  1  0.26440000  0.03645000  0.38761000  1.0
  H  H19  1  0.26439000  0.22792000  0.34805000  1.0
  H  H20  1  0.26440000  0.65209000  0.77205000  1.0
  H  H21  1  0.26439000  0.61233000  0.96357000  1.0
  H  H22  1  0.73561000  0.88761000  0.53644000  1.0
  H  H23  1  0.73560000  0.84803000  0.72793000  1.0
  H  H24  1  0.08026000  0.45695000  0.65908000  1.0
  H  H25  1  0.08671000  0.38293000  0.66476000  1.0
  H  H26  1  0.14312000  0.44094000  0.67539000  1.0
  H  H27  1  0.91973000  0.15914000  0.95696000  1.0
  H  H28  1  0.91327000  0.16480000  0.88293000  1.0
  H  H29  1  0.85686000  0.17543000  0.94095000  1.0
  H  H30  1  0.14307000  0.32461000  0.55937000  1.0
  H  H31  1  0.08629000  0.33532000  0.61695000  1.0
  H  H32  1  0.08041000  0.34081000  0.54274000  1.0
  H  H33  1  0.85688000  0.05941000  0.82463000  1.0
  H  H34  1  0.91367000  0.11697000  0.83533000  1.0
  H  H35  1  0.91954000  0.04277000  0.84083000  1.0
  H  H36  1  0.91975000  0.76065000  0.12329000  1.0
  H  H37  1  0.91329000  0.74851000  0.20378000  1.0
  H  H38  1  0.85688000  0.68148000  0.20218000  1.0
  H  H39  1  0.08028000  0.62335000  0.26058000  1.0
  H  H40  1  0.08673000  0.70383000  0.24846000  1.0
  H  H41  1  0.14315000  0.70224000  0.18141000  1.0
  H  H42  1  0.85688000  0.79747000  0.31851000  1.0
  H  H43  1  0.91368000  0.79670000  0.25101000  1.0
  H  H44  1  0.91953000  0.87677000  0.23966000  1.0
  H  H45  1  0.14307000  0.81846000  0.29753000  1.0
  H  H46  1  0.08629000  0.75097000  0.29673000  1.0
  H  H47  1  0.08042000  0.73959000  0.37682000  1.0
  H  H48  1  0.61598000  0.44059000  0.20251000  1.0
  H  H49  1  0.54771000  0.38302000  0.20329000  1.0
  H  H50  1  0.61642000  0.45724000  0.12321000  1.0
  H  H51  1  0.61599000  0.17540000  0.18152000  1.0
  H  H52  1  0.54771000  0.16469000  0.24901000  1.0
  H  H53  1  0.61642000  0.15918000  0.26039000  1.0
  H  H54  1  0.38393000  0.34086000  0.23943000  1.0
  H  H55  1  0.45228000  0.33519000  0.25155000  1.0
  H  H56  1  0.38364000  0.32455000  0.31860000  1.0
  H  H57  1  0.38395000  0.04305000  0.37671000  1.0
  H  H58  1  0.45230000  0.11708000  0.29623000  1.0
  H  H59  1  0.38366000  0.05906000  0.29783000  1.0
  H  H60  1  0.38401000  0.70250000  0.94062000  1.0
  H  H61  1  0.45229000  0.70329000  0.88303000  1.0
  H  H62  1  0.38357000  0.62321000  0.95725000  1.0
  H  H63  1  0.38402000  0.68155000  0.67538000  1.0
  H  H64  1  0.45230000  0.74904000  0.66468000  1.0
  H  H65  1  0.38359000  0.76041000  0.65917000  1.0
  H  H66  1  0.61606000  0.73940000  0.84088000  1.0
  H  H67  1  0.54771000  0.75152000  0.83520000  1.0
  H  H68  1  0.61634000  0.81855000  0.82459000  1.0
  H  H69  1  0.61607000  0.87671000  0.54303000  1.0
  H  H70  1  0.54772000  0.79623000  0.61706000  1.0
  H  H71  1  0.61636000  0.79784000  0.55904000  1.0
  C  C72  1  0.18244000  0.09120000  0.40879000  1.0
  C  C73  1  0.99999000  0.86338000  0.63663000  1.0
  C  C74  1  0.99998000  0.09121000  0.59123000  1.0
  C  C75  1  0.81756000  0.90880000  0.59120000  1.0
  C  C76  1  0.00002000  0.13663000  0.36336000  1.0
  C  C77  1  1.00000000  0.90877000  0.40878000  1.0
  C  C78  1  0.00000000  0.40880000  0.90876000  1.0
  C  C79  1  0.99999000  0.63661000  0.86338000  1.0
  C  C80  1  0.81756000  0.40878000  0.09123000  1.0
  C  C81  1  0.00001000  0.59125000  0.09119000  1.0
  C  C82  1  0.99999000  0.36337000  0.13663000  1.0
  C  C83  1  0.18244000  0.59122000  0.90879000  1.0
  C  C84  1  0.00001000  0.19474000  0.30526000  1.0
  C  C85  1  1.00000000  0.30527000  0.19473000  1.0
  C  C86  1  0.95709000  0.18010000  0.27700000  1.0
  C  C87  1  0.04292000  0.31991000  0.22300000  1.0
  C  C88  1  0.95709000  0.23409000  0.22301000  1.0
  C  C89  1  0.04292000  0.26592000  0.27698000  1.0
  C  C90  1  0.99999000  0.80526000  0.69474000  1.0
  C  C91  1  1.00000000  0.69473000  0.80526000  1.0
  C  C92  1  0.95708000  0.77698000  0.76594000  1.0
  C  C93  1  0.04290000  0.72300000  0.73407000  1.0
  C  C94  1  0.95709000  0.72300000  0.81991000  1.0
  C  C95  1  0.04289000  0.77698000  0.68010000  1.0
  C  C96  1  0.00000000  0.37144000  0.87140000  1.0
  C  C97  1  0.95716000  0.29979000  0.90770000  1.0
  C  C98  1  0.95625000  0.26371000  0.87395000  1.0
  C  C99  1  0.99998000  0.30097000  0.80095000  1.0
  C  C100  1  0.04373000  0.37397000  0.76368000  1.0
  C  C101  1  0.04283000  0.40772000  0.79975000  1.0
  C  C102  1  0.99997000  0.26537000  0.76535000  1.0
  C  C103  1  0.99996000  0.23464000  0.73464000  1.0
  C  C104  1  0.99997000  0.19905000  0.69904000  1.0
  C  C105  1  0.95628000  0.12604000  0.73632000  1.0
  C  C106  1  0.95717000  0.09227000  0.70025000  1.0
  C  C107  1  0.99997000  0.12857000  0.62859000  1.0
  C  C108  1  0.04277000  0.20024000  0.59227000  1.0
  C  C109  1  0.04366000  0.23631000  0.62603000  1.0
  C  C110  1  0.00002000  0.62862000  0.12854000  1.0
  C  C111  1  0.04286000  0.63517000  0.15735000  1.0
  C  C112  1  0.04376000  0.66982000  0.19252000  1.0
  C  C113  1  0.00001000  0.69907000  0.19902000  1.0
  C  C114  1  0.95627000  0.69259000  0.16976000  1.0
  C  C115  1  0.95718000  0.65743000  0.13509000  1.0
  C  C116  1  1.00000000  0.73465000  0.23463000  1.0
  C  C117  1  0.99998000  0.76534000  0.26538000  1.0
  C  C118  1  0.99997000  0.80092000  0.30099000  1.0
  C  C119  1  0.04367000  0.80735000  0.33030000  1.0
  C  C120  1  0.04278000  0.84253000  0.36495000  1.0
  C  C121  1  0.99998000  0.87139000  0.37145000  1.0
  C  C122  1  0.95718000  0.86489000  0.34258000  1.0
  C  C123  1  0.95628000  0.83024000  0.30741000  1.0
  C  C124  1  0.74284000  0.37142000  0.12858000  1.0
  C  C125  1  0.70748000  0.29976000  0.15744000  1.0
  C  C126  1  0.63766000  0.26369000  0.19262000  1.0
  C  C127  1  0.60191000  0.30095000  0.19906000  1.0
  C  C128  1  0.63765000  0.37396000  0.16974000  1.0
  C  C129  1  0.70748000  0.40772000  0.13508000  1.0
  C  C130  1  0.53072000  0.26535000  0.23467000  1.0
  C  C131  1  0.46928000  0.23463000  0.26541000  1.0
  C  C132  1  0.39809000  0.19903000  0.30100000  1.0
  C  C133  1  0.36235000  0.12603000  0.33026000  1.0
  C  C134  1  0.29253000  0.09228000  0.36490000  1.0
  C  C135  1  0.25716000  0.12856000  0.37146000  1.0
  C  C136  1  0.29252000  0.20021000  0.34265000  1.0
  C  C137  1  0.36234000  0.23628000  0.30749000  1.0
  C  C138  1  0.25716000  0.62860000  0.87143000  1.0
  C  C139  1  0.29253000  0.65748000  0.79975000  1.0
  C  C140  1  0.36235000  0.69265000  0.76368000  1.0
  C  C141  1  0.39809000  0.69908000  0.80096000  1.0
  C  C142  1  0.36234000  0.66974000  0.87398000  1.0
  C  C143  1  0.29252000  0.63510000  0.90773000  1.0
  C  C144  1  0.46928000  0.73468000  0.76536000  1.0
  C  C145  1  0.53072000  0.76539000  0.73463000  1.0
  C  C146  1  0.60191000  0.80098000  0.69903000  1.0
  C  C147  1  0.63766000  0.83025000  0.62602000  1.0
  C  C148  1  0.70748000  0.86490000  0.59227000  1.0
  C  C149  1  0.74284000  0.87144000  0.62856000  1.0
  C  C150  1  0.70748000  0.84263000  0.70022000  1.0
  C  C151  1  0.63766000  0.80747000  0.73629000  1.0
  C  C152  1  0.09081000  0.41556000  0.68665000  1.0
  C  C153  1  0.90917000  0.18669000  0.91557000  1.0
  C  C154  1  0.09071000  0.31335000  0.58440000  1.0
  C  C155  1  0.90924000  0.08442000  0.81336000  1.0
  C  C156  1  0.90919000  0.72253000  0.17524000  1.0
  C  C157  1  0.09083000  0.67529000  0.22248000  1.0
  C  C158  1  0.90924000  0.82482000  0.27742000  1.0
  C  C159  1  0.09071000  0.77735000  0.32487000  1.0
  C  C160  1  0.60223000  0.41558000  0.17516000  1.0
  C  C161  1  0.60223000  0.18665000  0.22262000  1.0
  C  C162  1  0.39776000  0.31330000  0.27754000  1.0
  C  C163  1  0.39778000  0.08444000  0.32477000  1.0
  C  C164  1  0.39777000  0.67516000  0.91559000  1.0
  C  C165  1  0.39778000  0.72265000  0.68664000  1.0
  C  C166  1  0.60223000  0.77751000  0.81332000  1.0
  C  C167  1  0.60224000  0.82477000  0.58441000  1.0
  Cl  Cl168  1  0.90223000  0.09665000  0.30561000  1.0
  Cl  Cl169  1  0.09778000  0.40335000  0.19438000  1.0
  Cl  Cl170  1  0.90223000  0.20783000  0.19442000  1.0
  Cl  Cl171  1  0.09777000  0.29216000  0.30558000  1.0
  Cl  Cl172  1  0.90225000  0.80559000  0.79219000  1.0
  Cl  Cl173  1  0.09773000  0.69439000  0.70781000  1.0
  Cl  Cl174  1  0.90225000  0.69440000  0.90338000  1.0
  Cl  Cl175  1  0.09773000  0.80558000  0.59664000  1.0
  O  O176  1  0.00000000  0.00000000  0.50000000  1.0
  O  O177  1  0.15329000  0.12730000  0.41383000  1.0
  O  O178  1  0.03991000  0.88575000  0.57441000  1.0
  O  O179  1  0.95885000  0.02596000  0.62733000  1.0
  O  O180  1  0.15329000  0.02597000  0.43288000  1.0
  O  O181  1  0.04113000  0.12730000  0.52598000  1.0
  O  O182  1  0.96007000  0.88567000  0.65419000  1.0
  O  O183  1  0.84671000  0.91384000  0.62730000  1.0
  O  O184  1  0.96018000  0.07442000  0.38565000  1.0
  O  O185  1  0.84672000  0.93291000  0.52595000  1.0
  O  O186  1  0.03987000  0.15418000  0.38573000  1.0
  O  O187  1  0.04113000  0.91381000  0.43290000  1.0
  O  O188  1  0.95888000  0.93290000  0.41381000  1.0
  O  O189  1  0.00000000  0.50000000  0.00000000  1.0
  O  O190  1  0.95886000  0.37272000  0.97400000  1.0
  O  O191  1  0.03994000  0.61434000  0.84581000  1.0
  O  O192  1  0.84671000  0.47402000  0.06712000  1.0
  O  O193  1  0.04114000  0.47404000  0.87267000  1.0
  O  O194  1  0.84671000  0.37268000  0.08620000  1.0
  O  O195  1  0.96007000  0.61423000  0.92559000  1.0
  O  O196  1  0.95888000  0.58620000  0.06708000  1.0
  O  O197  1  0.03982000  0.42559000  0.11434000  1.0
  O  O198  1  0.04114000  0.56713000  0.08616000  1.0
  O  O199  1  0.96016000  0.34583000  0.11424000  1.0
  O  O200  1  0.15329000  0.58618000  0.87270000  1.0
  O  O201  1  0.15328000  0.56709000  0.97404000  1.0
