# generated using pymatgen
data_ZnH19C12N2ClO3
_symmetry_space_group_name_H-M   'P 1'
_cell_length_a   7.25415000
_cell_length_b   9.34938000
_cell_length_c   9.74805000
_cell_angle_alpha   89.99960000
_cell_angle_beta   89.99930000
_cell_angle_gamma   93.92810000
_symmetry_Int_Tables_number   1
_chemical_formula_structural   ZnH19C12N2ClO3
_chemical_formula_sum   'Zn2 H38 C24 N4 Cl2 O6'
_cell_volume   659.57721910
_cell_formula_units_Z   2
loop_
 _symmetry_equiv_pos_site_id
 _symmetry_equiv_pos_as_xyz
  1  'x, y, z'
loop_
 _atom_site_type_symbol
 _atom_site_label
 _atom_site_symmetry_multiplicity
 _atom_site_fract_x
 _atom_site_fract_y
 _atom_site_fract_z
 _atom_site_occupancy
  Zn  Zn0  1  0.17347000  0.47873000  0.13802000  1.0
  Zn  Zn1  1  0.82651000  0.52127000  0.63802000  1.0
  H  H2  1  0.84524000  0.41568000  0.35267000  1.0
  H  H3  1  0.15475000  0.58433000  0.85268000  1.0
  H  H4  1  0.49069000  0.46953000  0.73612000  1.0
  H  H5  1  0.50930000  0.53048000  0.23612000  1.0
  H  H6  1  0.54572000  0.02961000  0.54474000  1.0
  H  H7  1  0.45430000  0.97038000  0.04473000  1.0
  H  H8  1  0.56277000  0.12673000  0.38805000  1.0
  H  H9  1  0.43727000  0.87326000  0.88804000  1.0
  H  H10  1  0.25742000  0.20588000  0.40881000  1.0
  H  H11  1  0.74261000  0.79412000  0.90881000  1.0
  H  H12  1  0.14133000  0.28290000  0.63964000  1.0
  H  H13  1  0.85869000  0.71710000  0.13966000  1.0
  H  H14  1  0.38566000  0.08822000  0.79301000  1.0
  H  H15  1  0.61434000  0.91178000  0.29301000  1.0
  H  H16  1  0.32349000  0.25584000  0.84556000  1.0
  H  H17  1  0.67650000  0.74417000  0.34557000  1.0
  H  H18  1  0.96792000  0.96924000  0.42679000  1.0
  H  H19  1  0.03208000  0.03077000  0.92680000  1.0
  H  H20  1  0.86990000  0.01354000  0.58490000  1.0
  H  H21  1  0.13011000  0.98647000  0.08490000  1.0
  H  H22  1  0.94518000  0.15258000  0.46763000  1.0
  H  H23  1  0.05484000  0.84743000  0.96763000  1.0
  H  H24  1  0.36088000  0.90112000  0.65024000  1.0
  H  H25  1  0.63913000  0.09888000  0.15024000  1.0
  H  H26  1  0.14968000  0.82413000  0.58418000  1.0
  H  H27  1  0.85033000  0.17587000  0.08418000  1.0
  H  H28  1  0.15339000  0.90709000  0.74519000  1.0
  H  H29  1  0.84661000  0.09292000  0.24519000  1.0
  H  H30  1  0.70278000  0.06313000  0.75788000  1.0
  H  H31  1  0.29721000  0.93688000  0.25788000  1.0
  H  H32  1  0.68457000  0.16880000  0.90616000  1.0
  H  H33  1  0.31542000  0.83121000  0.40615000  1.0
  H  H34  1  0.85673000  0.21741000  0.78010000  1.0
  H  H35  1  0.14327000  0.78260000  0.28010000  1.0
  H  H36  1  0.58303000  0.37085000  0.98085000  1.0
  H  H37  1  0.41693000  0.62914000  0.48085000  1.0
  H  H38  1  0.59506000  0.55224000  0.93120000  1.0
  H  H39  1  0.40493000  0.44775000  0.43119000  1.0
  C  C40  1  0.85586000  0.46736000  0.93329000  1.0
  C  C41  1  0.14413000  0.53262000  0.43329000  1.0
  C  C42  1  0.57380000  0.26257000  0.72266000  1.0
  C  C43  1  0.42620000  0.73743000  0.22266000  1.0
  C  C44  1  0.60899000  0.25327000  0.56888000  1.0
  C  C45  1  0.39103000  0.74675000  0.06888000  1.0
  C  C46  1  0.51350000  0.13017000  0.49396000  1.0
  C  C47  1  0.48652000  0.86982000  0.99395000  1.0
  C  C48  1  0.30830000  0.15266000  0.49959000  1.0
  C  C49  1  0.69172000  0.84734000  0.99959000  1.0
  C  C50  1  0.23635000  0.19749000  0.63888000  1.0
  C  C51  1  0.76366000  0.80251000  0.13888000  1.0
  C  C52  1  0.37397000  0.19825000  0.75637000  1.0
  C  C53  1  0.62602000  0.80175000  0.25638000  1.0
  C  C54  1  0.16660000  0.05527000  0.57475000  1.0
  C  C55  1  0.83341000  0.94473000  0.07475000  1.0
  C  C56  1  0.97674000  0.04849000  0.51036000  1.0
  C  C57  1  0.02327000  0.95151000  0.01036000  1.0
  C  C58  1  0.21236000  0.91598000  0.64160000  1.0
  C  C59  1  0.78764000  0.08402000  0.14160000  1.0
  C  C60  1  0.71413000  0.17366000  0.79611000  1.0
  C  C61  1  0.28586000  0.82635000  0.29610000  1.0
  C  C62  1  0.64836000  0.44788000  0.90727000  1.0
  C  C63  1  0.35162000  0.55211000  0.40726000  1.0
  N  N64  1  0.60387000  0.41635000  0.76328000  1.0
  N  N65  1  0.39612000  0.58366000  0.26328000  1.0
  N  N66  1  0.71186000  0.35497000  0.51297000  1.0
  N  N67  1  0.28812000  0.64502000  0.01298000  1.0
  Cl  Cl68  1  0.28816000  0.26234000  0.12694000  1.0
  Cl  Cl69  1  0.71184000  0.73767000  0.62694000  1.0
  O  O70  1  0.90840000  0.46424000  0.05688000  1.0
  O  O71  1  0.09159000  0.53573000  0.55688000  1.0
  O  O72  1  0.96272000  0.49125000  0.82978000  1.0
  O  O73  1  0.03726000  0.50876000  0.32979000  1.0
  O  O74  1  0.73637000  0.34493000  0.37205000  1.0
  O  O75  1  0.26362000  0.65508000  0.87205000  1.0
