# generated using pymatgen
data_Zn6H41C78NO26
_symmetry_space_group_name_H-M   'P 1'
_cell_length_a   18.58820000
_cell_length_b   18.69810000
_cell_length_c   18.77970000
_cell_angle_alpha   109.24200000
_cell_angle_beta   109.65600000
_cell_angle_gamma   109.17800000
_symmetry_Int_Tables_number   1
_chemical_formula_structural   Zn6H41C78NO26
_chemical_formula_sum   'Zn6 H41 C78 N1 O26'
_cell_volume   5045.35301481
_cell_formula_units_Z   1
loop_
 _symmetry_equiv_pos_site_id
 _symmetry_equiv_pos_as_xyz
  1  'x, y, z'
loop_
 _atom_site_type_symbol
 _atom_site_label
 _atom_site_symmetry_multiplicity
 _atom_site_fract_x
 _atom_site_fract_y
 _atom_site_fract_z
 _atom_site_occupancy
  Zn  Zn0  1  0.93750000  0.94444000  0.50124000  1.0
  Zn  Zn1  1  0.06397000  0.06490000  0.49844000  1.0
  Zn  Zn2  1  0.05948000  0.50038000  0.06035000  1.0
  Zn  Zn3  1  0.93545000  0.50560000  0.93905000  1.0
  Zn  Zn4  1  0.49444000  0.93253000  0.93239000  1.0
  Zn  Zn5  1  0.50889000  0.06219000  0.06473000  1.0
  H  H6  1  0.01523000  0.64069000  0.44753000  1.0
  H  H7  1  0.94651000  0.92375000  0.28179000  1.0
  H  H8  1  0.91483000  0.93679000  0.15113000  1.0
  H  H9  1  0.90622000  0.82698000  0.02275000  1.0
  H  H10  1  0.92491000  0.70454000  0.02661000  1.0
  H  H11  1  0.97324000  0.53828000  0.18737000  1.0
  H  H12  1  0.99962000  0.52617000  0.31831000  1.0
  H  H13  1  0.99605000  0.76292000  0.44075000  1.0
  H  H14  1  0.28458000  0.02920000  0.62848000  1.0
  H  H15  1  0.07475000  0.02865000  0.72551000  1.0
  H  H16  1  0.05087000  0.00397000  0.83812000  1.0
  H  H17  1  0.14728000  0.96577000  0.93011000  1.0
  H  H18  1  0.27264000  0.96306000  0.91490000  1.0
  H  H19  1  0.38715000  0.00184000  0.72801000  1.0
  H  H20  1  0.94452000  0.11236000  0.73734000  1.0
  H  H21  1  0.97521000  0.20338000  0.53116000  1.0
  H  H22  1  0.98171000  0.44933000  0.62034000  1.0
  H  H23  1  0.97100000  0.44189000  0.74656000  1.0
  H  H24  1  0.95295000  0.23720000  0.84983000  1.0
  H  H25  1  0.90029000  0.12882000  0.31877000  1.0
  H  H26  1  0.80628000  0.84235000  0.29240000  1.0
  H  H27  1  0.68198000  0.69737000  0.18245000  1.0
  H  H28  1  0.56051000  0.67635000  0.05278000  1.0
  H  H29  1  0.56773000  0.80314000  0.03466000  1.0
  H  H30  1  0.77318000  0.10906000  0.19612000  1.0
  H  H31  1  0.89730000  0.37869000  0.16106000  1.0
  H  H32  1  0.81503000  0.27295000  0.85924000  1.0
  H  H33  1  0.68450000  0.15352000  0.72045000  1.0
  H  H34  1  0.55197000  0.05800000  0.71855000  1.0
  H  H35  1  0.55579000  0.07688000  0.85576000  1.0
  H  H36  1  0.76868000  0.27694000  0.15949000  1.0
  H  H37  1  0.11508000  0.74134000  0.11212000  1.0
  H  H38  1  0.12245000  0.88337000  0.17513000  1.0
  H  H39  1  0.22336000  0.00891000  0.17273000  1.0
  H  H40  1  0.31794000  0.99200000  0.11035000  1.0
  H  H41  1  0.35819000  0.75182000  0.97269000  1.0
  H  H42  1  0.17740000  0.56298000  0.82288000  1.0
  H  H43  1  0.29239000  0.61422000  0.86315000  1.0
  H  H44  1  0.23502000  0.50541000  0.83984000  1.0
  H  H45  1  0.31757000  0.60746000  0.00077000  1.0
  H  H46  1  0.20401000  0.55152000  0.96013000  1.0
  C  C47  1  0.13834000  0.02674000  0.61878000  1.0
  C  C48  1  0.97284000  0.86180000  0.38206000  1.0
  C  C49  1  0.90707000  0.01492000  0.37119000  1.0
  C  C50  1  0.96978000  0.10321000  0.60508000  1.0
  C  C51  1  0.93976000  0.87420000  0.22581000  1.0
  C  C52  1  0.92350000  0.88236000  0.15292000  1.0
  C  C53  1  0.91840000  0.82020000  0.08056000  1.0
  C  C54  1  0.92913000  0.75157000  0.08269000  1.0
  C  C55  1  0.94404000  0.73929000  0.15661000  1.0
  C  C56  1  0.94987000  0.80321000  0.23073000  1.0
  C  C57  1  0.95632000  0.66971000  0.16158000  1.0
  C  C58  1  0.96972000  0.65945000  0.23589000  1.0
  C  C59  1  0.97380000  0.72275000  0.30904000  1.0
  C  C60  1  0.96432000  0.79331000  0.30498000  1.0
  C  C61  1  0.97795000  0.58792000  0.24190000  1.0
  C  C62  1  0.99312000  0.58127000  0.31561000  1.0
  C  C63  1  0.00135000  0.64585000  0.38876000  1.0
  C  C64  1  0.99123000  0.71421000  0.38515000  1.0
  C  C65  1  0.11848000  0.01436000  0.76642000  1.0
  C  C66  1  0.10483000  0.00000000  0.82937000  1.0
  C  C67  1  0.15966000  0.97937000  0.88191000  1.0
  C  C68  1  0.22956000  0.97713000  0.87295000  1.0
  C  C69  1  0.24696000  0.99366000  0.81014000  1.0
  C  C70  1  0.18808000  0.00950000  0.75312000  1.0
  C  C71  1  0.20343000  0.02158000  0.68689000  1.0
  C  C72  1  0.27462000  0.01999000  0.67948000  1.0
  C  C73  1  0.33196000  0.00408000  0.73515000  1.0
  C  C74  1  0.31941000  0.99211000  0.79982000  1.0
  C  C75  1  0.97379000  0.25401000  0.57909000  1.0
  C  C76  1  0.97833000  0.32546000  0.57042000  1.0
  C  C77  1  0.97796000  0.39443000  0.63042000  1.0
  C  C78  1  0.97242000  0.38982000  0.70010000  1.0
  C  C79  1  0.96674000  0.31724000  0.71213000  1.0
  C  C80  1  0.96806000  0.24776000  0.65044000  1.0
  C  C81  1  0.96109000  0.17405000  0.66191000  1.0
  C  C82  1  0.95173000  0.16968000  0.73067000  1.0
  C  C83  1  0.95535000  0.23960000  0.79340000  1.0
  C  C84  1  0.96280000  0.31225000  0.78510000  1.0
  C  C85  1  0.75521000  0.83514000  0.23645000  1.0
  C  C86  1  0.68453000  0.75326000  0.17460000  1.0
  C  C87  1  0.61609000  0.74146000  0.10152000  1.0
  C  C88  1  0.61979000  0.81204000  0.09142000  1.0
  C  C89  1  0.69250000  0.89722000  0.15326000  1.0
  C  C90  1  0.76225000  0.90966000  0.22815000  1.0
  C  C91  1  0.83665000  0.99571000  0.28832000  1.0
  C  C92  1  0.84232000  0.06458000  0.27324000  1.0
  C  C93  1  0.77126000  0.05315000  0.20353000  1.0
  C  C94  1  0.69735000  0.97174000  0.14526000  1.0
  C  C95  1  0.90908000  0.38395000  0.02520000  1.0
  C  C96  1  0.96242000  0.61000000  0.09092000  1.0
  C  C97  1  0.13666000  0.62398000  0.02673000  1.0
  C  C98  1  0.96925000  0.38499000  0.85650000  1.0
  C  C99  1  0.62276000  0.13645000  0.02383000  1.0
  C  C100  1  0.38624000  0.98381000  0.86303000  1.0
  C  C101  1  0.38821000  0.90928000  0.02930000  1.0
  C  C102  1  0.62064000  0.96723000  0.07954000  1.0
  C  C103  1  0.75895000  0.23024000  0.85935000  1.0
  C  C104  1  0.68537000  0.16364000  0.78141000  1.0
  C  C105  1  0.61095000  0.10937000  0.78044000  1.0
  C  C106  1  0.61272000  0.12037000  0.85735000  1.0
  C  C107  1  0.68849000  0.18693000  0.93912000  1.0
  C  C108  1  0.76226000  0.24526000  0.93997000  1.0
  C  C109  1  0.83715000  0.31509000  0.02211000  1.0
  C  C110  1  0.83964000  0.32510000  0.09943000  1.0
  C  C111  1  0.76717000  0.26827000  0.09860000  1.0
  C  C112  1  0.69349000  0.20016000  0.02069000  1.0
  C  C113  1  0.15902000  0.79573000  0.11076000  1.0
  C  C114  1  0.16336000  0.87535000  0.14641000  1.0
  C  C115  1  0.22035000  0.94605000  0.14503000  1.0
  C  C116  1  0.27314000  0.93682000  0.10973000  1.0
  C  C117  1  0.27143000  0.85608000  0.07354000  1.0
  C  C118  1  0.21145000  0.78333000  0.07274000  1.0
  C  C119  1  0.20595000  0.70037000  0.03446000  1.0
  C  C120  1  0.25878000  0.68797000  0.99962000  1.0
  C  C121  1  0.31701000  0.76002000  0.00087000  1.0
  C  C122  1  0.32417000  0.84161000  0.03557000  1.0
  C  C123  1  0.25500000  0.60126000  0.95924000  1.0
  C  C124  1  0.23913000  0.56941000  0.86605000  1.0
  N  N125  1  0.98365000  0.32993000  0.49518000  1.0
  O  O126  1  0.05771000  0.97614000  0.59014000  1.0
  O  O127  1  0.16599000  0.07861000  0.59112000  1.0
  O  O128  1  0.91843000  0.83875000  0.40905000  1.0
  O  O129  1  0.03292000  0.93923000  0.41515000  1.0
  O  O130  1  0.88315000  0.97648000  0.41041000  1.0
  O  O131  1  0.98778000  0.06936000  0.39956000  1.0
  O  O132  1  0.92104000  0.02463000  0.58539000  1.0
  O  O133  1  0.02697000  0.12620000  0.58262000  1.0
  O  O134  1  0.98997000  0.41337000  0.08063000  1.0
  O  O135  1  0.88601000  0.41223000  0.97367000  1.0
  O  O136  1  0.02434000  0.59261000  0.11352000  1.0
  O  O137  1  0.90701000  0.58036000  0.01053000  1.0
  O  O138  1  0.16105000  0.59218000  0.07551000  1.0
  O  O139  1  0.05785000  0.59566000  0.97111000  1.0
  O  O140  1  0.02350000  0.40929000  0.93370000  1.0
  O  O141  1  0.91859000  0.41648000  0.83482000  1.0
  O  O142  1  0.59026000  0.05644000  0.97110000  1.0
  O  O143  1  0.60045000  0.16517000  0.08065000  1.0
  O  O144  1  0.40992000  0.92849000  0.83283000  1.0
  O  O145  1  0.41679000  0.03356000  0.94322000  1.0
  O  O146  1  0.40772000  0.88182000  0.97069000  1.0
  O  O147  1  0.42133000  0.99091000  0.08268000  1.0
  O  O148  1  0.58437000  0.91203000  0.99820000  1.0
  O  O149  1  0.59664000  0.02040000  0.11034000  1.0
  O  O150  1  0.98904000  0.27130000  0.44557000  1.0
  O  O151  1  0.98249000  0.39242000  0.48602000  1.0
