# generated using pymatgen
data_H10PbC18(NO)4
_symmetry_space_group_name_H-M   'P 1'
_cell_length_a   6.88571000
_cell_length_b   8.64659000
_cell_length_c   13.93520000
_cell_angle_alpha   101.39700000
_cell_angle_beta   99.84390000
_cell_angle_gamma   100.06700000
_symmetry_Int_Tables_number   1
_chemical_formula_structural   H10PbC18(NO)4
_chemical_formula_sum   'H20 Pb2 C36 N8 O8'
_cell_volume   782.42902632
_cell_formula_units_Z   2
loop_
 _symmetry_equiv_pos_site_id
 _symmetry_equiv_pos_as_xyz
  1  'x, y, z'
loop_
 _atom_site_type_symbol
 _atom_site_label
 _atom_site_symmetry_multiplicity
 _atom_site_fract_x
 _atom_site_fract_y
 _atom_site_fract_z
 _atom_site_occupancy
  H  H0  1  0.48361000  0.79302000  0.16778000  1.0
  H  H1  1  0.51645000  0.20728000  0.83230000  1.0
  H  H2  1  0.37854000  0.56539000  0.50309000  1.0
  H  H3  1  0.62159000  0.43464000  0.49681000  1.0
  H  H4  1  0.20123000  0.41827000  0.17971000  1.0
  H  H5  1  0.79845000  0.58164000  0.82021000  1.0
  H  H6  1  0.97390000  0.95973000  0.76248000  1.0
  H  H7  1  0.02629000  0.04024000  0.23753000  1.0
  H  H8  1  0.39039000  0.94037000  0.32213000  1.0
  H  H9  1  0.60980000  0.05988000  0.67799000  1.0
  H  H10  1  0.24528000  0.79210000  0.76658000  1.0
  H  H11  1  0.75506000  0.20797000  0.23338000  1.0
  H  H12  1  0.43911000  0.41795000  0.33611000  1.0
  H  H13  1  0.56082000  0.58206000  0.66373000  1.0
  H  H14  1  0.60376000  0.94530000  0.49154000  1.0
  H  H15  1  0.39658000  0.05491000  0.50856000  1.0
  H  H16  1  0.32758000  0.09625000  0.17219000  1.0
  H  H17  1  0.67201000  0.90360000  0.82782000  1.0
  H  H18  1  0.23756000  0.97266000  0.94289000  1.0
  H  H19  1  0.76232000  0.02733000  0.05712000  1.0
  Pb  Pb20  1  0.79292000  0.55399000  0.08585000  1.0
  Pb  Pb21  1  0.20658000  0.44593000  0.91416000  1.0
  C  C22  1  0.12341000  0.64237000  0.43196000  1.0
  C  C23  1  0.87660000  0.35760000  0.56801000  1.0
  C  C24  1  0.00005000  0.63916000  0.33901000  1.0
  C  C25  1  0.99989000  0.36082000  0.66098000  1.0
  C  C26  1  0.83292000  0.72209000  0.33631000  1.0
  C  C27  1  0.16711000  0.27798000  0.66370000  1.0
  C  C28  1  0.56709000  0.79717000  0.24252000  1.0
  C  C29  1  0.43301000  0.20306000  0.75754000  1.0
  C  C30  1  0.79378000  0.80426000  0.42690000  1.0
  C  C31  1  0.20633000  0.19581000  0.57313000  1.0
  C  C32  1  0.92033000  0.80751000  0.52246000  1.0
  C  C33  1  0.07973000  0.19242000  0.47755000  1.0
  C  C34  1  0.08132000  0.72559000  0.52494000  1.0
  C  C35  1  0.91876000  0.27437000  0.47503000  1.0
  C  C36  1  0.28384000  0.56149000  0.43123000  1.0
  C  C37  1  0.71618000  0.43851000  0.56869000  1.0
  C  C38  1  0.18503000  0.48272000  0.25237000  1.0
  C  C39  1  0.81477000  0.51722000  0.74757000  1.0
  C  C40  1  0.00052000  0.88874000  0.69359000  1.0
  C  C41  1  0.99965000  0.11123000  0.30642000  1.0
  C  C42  1  0.51730000  0.88060000  0.32889000  1.0
  C  C43  1  0.48288000  0.11968000  0.67121000  1.0
  C  C44  1  0.15489000  0.80047000  0.69608000  1.0
  C  C45  1  0.84532000  0.19954000  0.30391000  1.0
  C  C46  1  0.31608000  0.48133000  0.34105000  1.0
  C  C47  1  0.68383000  0.51863000  0.65885000  1.0
  C  C48  1  0.63208000  0.88336000  0.42118000  1.0
  C  C49  1  0.36814000  0.11681000  0.57889000  1.0
  C  C50  1  0.45260000  0.24800000  0.07819000  1.0
  C  C51  1  0.54725000  0.75184000  0.92181000  1.0
  C  C52  1  0.33125000  0.09859000  0.09444000  1.0
  C  C53  1  0.66850000  0.90132000  0.90557000  1.0
  C  C54  1  0.23173000  0.97096000  0.02042000  1.0
  C  C55  1  0.76810000  0.02896000  0.97958000  1.0
  C  C56  1  0.11064000  0.82252000  0.03834000  1.0
  C  C57  1  0.88934000  0.17733000  0.96169000  1.0
  N  N58  1  0.88304000  0.89123000  0.60780000  1.0
  N  N59  1  0.11703000  0.10869000  0.39222000  1.0
  N  N60  1  0.19643000  0.72093000  0.61286000  1.0
  N  N61  1  0.80373000  0.27906000  0.38711000  1.0
  N  N62  1  0.71950000  0.72062000  0.24654000  1.0
  N  N63  1  0.28055000  0.27957000  0.75349000  1.0
  N  N64  1  0.03269000  0.55894000  0.25166000  1.0
  N  N65  1  0.96712000  0.44102000  0.74831000  1.0
  O  O66  1  0.55657000  0.35082000  0.15722000  1.0
  O  O67  1  0.44331000  0.64907000  0.84279000  1.0
  O  O68  1  0.08213000  0.82205000  0.12627000  1.0
  O  O69  1  0.91794000  0.17781000  0.87376000  1.0
  O  O70  1  0.44828000  0.26709000  0.98916000  1.0
  O  O71  1  0.55159000  0.73272000  0.01083000  1.0
  O  O72  1  0.03891000  0.70273000  0.96234000  1.0
  O  O73  1  0.96112000  0.29710000  0.03769000  1.0
