# generated using pymatgen
data_CuH7C7SBrN
_symmetry_space_group_name_H-M   'P 1'
_cell_length_a   5.55536000
_cell_length_b   13.83810000
_cell_length_c   15.25670000
_cell_angle_alpha   89.99610000
_cell_angle_beta   86.67830000
_cell_angle_gamma   89.99970000
_symmetry_Int_Tables_number   1
_chemical_formula_structural   CuH7C7SBrN
_chemical_formula_sum   'Cu4 H28 C28 S4 Br4 N4'
_cell_volume   1170.89789379
_cell_formula_units_Z   4
loop_
 _symmetry_equiv_pos_site_id
 _symmetry_equiv_pos_as_xyz
  1  'x, y, z'
loop_
 _atom_site_type_symbol
 _atom_site_label
 _atom_site_symmetry_multiplicity
 _atom_site_fract_x
 _atom_site_fract_y
 _atom_site_fract_z
 _atom_site_occupancy
  Cu  Cu0  1  0.25965000  0.49177000  0.50782000  1.0
  Cu  Cu1  1  0.24034000  0.99180000  0.99217000  1.0
  Cu  Cu2  1  0.74035000  0.50821000  0.49216000  1.0
  Cu  Cu3  1  0.75969000  0.00824000  0.00783000  1.0
  H  H4  1  0.95785000  0.32216000  0.60737000  1.0
  H  H5  1  0.54217000  0.82217000  0.89264000  1.0
  H  H6  1  0.04216000  0.67781000  0.39262000  1.0
  H  H7  1  0.45785000  0.17783000  0.10738000  1.0
  H  H8  1  0.25205000  0.23247000  0.69387000  1.0
  H  H9  1  0.24796000  0.73248000  0.80615000  1.0
  H  H10  1  0.74792000  0.76751000  0.30613000  1.0
  H  H11  1  0.75205000  0.26752000  0.19388000  1.0
  H  H12  1  0.18491000  0.21810000  0.85634000  1.0
  H  H13  1  0.31509000  0.71811000  0.64369000  1.0
  H  H14  1  0.81507000  0.78189000  0.14366000  1.0
  H  H15  1  0.68491000  0.28188000  0.35635000  1.0
  H  H16  1  0.81962000  0.29121000  0.93163000  1.0
  H  H17  1  0.68038000  0.79122000  0.56838000  1.0
  H  H18  1  0.18037000  0.70881000  0.06836000  1.0
  H  H19  1  0.31959000  0.20877000  0.43164000  1.0
  H  H20  1  0.52385000  0.37875000  0.84556000  1.0
  H  H21  1  0.97614000  0.87877000  0.65444000  1.0
  H  H22  1  0.47616000  0.62126000  0.15443000  1.0
  H  H23  1  0.02385000  0.12123000  0.34556000  1.0
  H  H24  1  0.48168000  0.50975000  0.76864000  1.0
  H  H25  1  0.01834000  0.00978000  0.73135000  1.0
  H  H26  1  0.51835000  0.49025000  0.23134000  1.0
  H  H27  1  0.98166000  0.99023000  0.26865000  1.0
  H  H28  1  0.30157000  0.52083000  0.67794000  1.0
  H  H29  1  0.19844000  0.02085000  0.82205000  1.0
  H  H30  1  0.69841000  0.47918000  0.32204000  1.0
  H  H31  1  0.80155000  0.97916000  0.17795000  1.0
  C  C32  1  0.55266000  0.41225000  0.67028000  1.0
  C  C33  1  0.94733000  0.91226000  0.82972000  1.0
  C  C34  1  0.44735000  0.58774000  0.32971000  1.0
  C  C35  1  0.05269000  0.08775000  0.17029000  1.0
  C  C36  1  0.72434000  0.35776000  0.72073000  1.0
  C  C37  1  0.77568000  0.85777000  0.77928000  1.0
  C  C38  1  0.27567000  0.64224000  0.27927000  1.0
  C  C39  1  0.22433000  0.14223000  0.22073000  1.0
  C  C40  1  0.92757000  0.31392000  0.67824000  1.0
  C  C41  1  0.57248000  0.81394000  0.82178000  1.0
  C  C42  1  0.07242000  0.68606000  0.32175000  1.0
  C  C43  1  0.42755000  0.18606000  0.17824000  1.0
  C  C44  1  0.09174000  0.26422000  0.72714000  1.0
  C  C45  1  0.40827000  0.76423000  0.77289000  1.0
  C  C46  1  0.90823000  0.73577000  0.27287000  1.0
  C  C47  1  0.59173000  0.23577000  0.22713000  1.0
  C  C48  1  0.05568000  0.25727000  0.81843000  1.0
  C  C49  1  0.44435000  0.75729000  0.68159000  1.0
  C  C50  1  0.94429000  0.74272000  0.18156000  1.0
  C  C51  1  0.55565000  0.24271000  0.31843000  1.0
  C  C52  1  0.85243000  0.29963000  0.86089000  1.0
  C  C53  1  0.64763000  0.79965000  0.63912000  1.0
  C  C54  1  0.14757000  0.70037000  0.13909000  1.0
  C  C55  1  0.35237000  0.20035000  0.36089000  1.0
  C  C56  1  0.68780000  0.34968000  0.81257000  1.0
  C  C57  1  0.81222000  0.84971000  0.68744000  1.0
  C  C58  1  0.31220000  0.65032000  0.18742000  1.0
  C  C59  1  0.18777000  0.15029000  0.31257000  1.0
  S  S60  1  0.50921000  0.38233000  0.56398000  1.0
  S  S61  1  0.99081000  0.88235000  0.93602000  1.0
  S  S62  1  0.49078000  0.61765000  0.43600000  1.0
  S  S63  1  0.00924000  0.11767000  0.06398000  1.0
  Br  Br64  1  0.02017000  0.41077000  0.39603000  1.0
  Br  Br65  1  0.47978000  0.91078000  0.10396000  1.0
  Br  Br66  1  0.97979000  0.58924000  0.60395000  1.0
  Br  Br67  1  0.52018000  0.08923000  0.89603000  1.0
  N  N68  1  0.43249000  0.48458000  0.70985000  1.0
  N  N69  1  0.06752000  0.98460000  0.79014000  1.0
  N  N70  1  0.56751000  0.51542000  0.29014000  1.0
  N  N71  1  0.93249000  0.01541000  0.20985000  1.0
