# generated using pymatgen
data_H16PbC22S(NO2)3
_symmetry_space_group_name_H-M   'P 1'
_cell_length_a   9.97569000
_cell_length_b   10.11180000
_cell_length_c   10.86420000
_cell_angle_alpha   90.26400000
_cell_angle_beta   92.00160000
_cell_angle_gamma   112.60230000
_symmetry_Int_Tables_number   1
_chemical_formula_structural   H16PbC22S(NO2)3
_chemical_formula_sum   'H32 Pb2 C44 S2 N6 O12'
_cell_volume   1010.91465769
_cell_formula_units_Z   2
loop_
 _symmetry_equiv_pos_site_id
 _symmetry_equiv_pos_as_xyz
  1  'x, y, z'
loop_
 _atom_site_type_symbol
 _atom_site_label
 _atom_site_symmetry_multiplicity
 _atom_site_fract_x
 _atom_site_fract_y
 _atom_site_fract_z
 _atom_site_occupancy
  H  H0  1  0.83763000  0.09172000  0.83152000  1.0
  H  H1  1  0.16236000  0.90832000  0.16847000  1.0
  H  H2  1  0.97780000  0.21566000  0.65056000  1.0
  H  H3  1  0.02222000  0.78436000  0.34943000  1.0
  H  H4  1  0.36669000  0.39117000  0.88415000  1.0
  H  H5  1  0.63331000  0.60882000  0.11585000  1.0
  H  H6  1  0.56817000  0.26760000  0.12564000  1.0
  H  H7  1  0.43178000  0.73238000  0.87433000  1.0
  H  H8  1  0.70324000  0.12138000  0.04450000  1.0
  H  H9  1  0.29681000  0.87866000  0.95554000  1.0
  H  H10  1  0.66808000  0.88940000  0.14647000  1.0
  H  H11  1  0.33196000  0.11063000  0.85356000  1.0
  H  H12  1  0.49990000  0.80944000  0.31827000  1.0
  H  H13  1  0.50004000  0.19052000  0.68169000  1.0
  H  H14  1  0.33869000  0.74247000  0.43843000  1.0
  H  H15  1  0.66133000  0.25753000  0.56159000  1.0
  H  H16  1  0.16069000  0.68187000  0.60049000  1.0
  H  H17  1  0.83931000  0.31811000  0.39950000  1.0
  H  H18  1  0.04983000  0.86006000  0.65906000  1.0
  H  H19  1  0.95015000  0.13992000  0.34092000  1.0
  H  H20  1  0.13989000  0.09822000  0.55565000  1.0
  H  H21  1  0.86015000  0.90179000  0.44438000  1.0
  H  H22  1  0.01802000  0.13360000  0.12718000  1.0
  H  H23  1  0.98196000  0.86641000  0.87282000  1.0
  H  H24  1  0.58662000  0.35568000  0.86861000  1.0
  H  H25  1  0.41338000  0.64427000  0.13138000  1.0
  H  H26  1  0.75394000  0.38992000  0.04925000  1.0
  H  H27  1  0.24605000  0.61007000  0.95074000  1.0
  H  H28  1  0.11002000  0.57762000  0.80656000  1.0
  H  H29  1  0.88997000  0.42239000  0.19344000  1.0
  H  H30  1  0.92613000  0.53611000  0.63641000  1.0
  H  H31  1  0.07386000  0.46392000  0.36359000  1.0
  Pb  Pb32  1  0.38305000  0.31594000  0.34985000  1.0
  Pb  Pb33  1  0.61699000  0.68405000  0.65016000  1.0
  C  C34  1  0.25089000  0.27100000  0.09486000  1.0
  C  C35  1  0.74909000  0.72900000  0.90515000  1.0
  C  C36  1  0.17473000  0.25466000  0.97242000  1.0
  C  C37  1  0.82527000  0.74534000  0.02758000  1.0
  C  C38  1  0.02307000  0.17276000  0.95817000  1.0
  C  C39  1  0.97692000  0.82725000  0.04182000  1.0
  C  C40  1  0.95332000  0.15745000  0.84135000  1.0
  C  C41  1  0.04668000  0.84257000  0.15864000  1.0
  C  C42  1  0.03143000  0.22509000  0.74101000  1.0
  C  C43  1  0.96858000  0.77492000  0.25898000  1.0
  C  C44  1  0.18044000  0.30954000  0.75575000  1.0
  C  C45  1  0.81958000  0.69047000  0.24425000  1.0
  C  C46  1  0.25147000  0.32407000  0.87063000  1.0
  C  C47  1  0.74853000  0.67593000  0.12937000  1.0
  C  C48  1  0.55749000  0.16555000  0.16525000  1.0
  C  C49  1  0.44248000  0.83444000  0.83474000  1.0
  C  C50  1  0.63019000  0.08374000  0.12011000  1.0
  C  C51  1  0.36982000  0.91628000  0.87990000  1.0
  C  C52  1  0.60995000  0.95467000  0.17703000  1.0
  C  C53  1  0.39006000  0.04534000  0.82298000  1.0
  C  C54  1  0.51561000  0.91025000  0.27377000  1.0
  C  C55  1  0.48437000  0.08974000  0.72621000  1.0
  C  C56  1  0.44404000  0.99750000  0.31277000  1.0
  C  C57  1  0.55594000  0.00249000  0.68722000  1.0
  C  C58  1  0.33800000  0.95538000  0.41212000  1.0
  C  C59  1  0.66201000  0.04461000  0.58789000  1.0
  C  C60  1  0.29540000  0.82100000  0.46730000  1.0
  C  C61  1  0.70461000  0.17899000  0.53271000  1.0
  C  C62  1  0.19215000  0.78583000  0.55747000  1.0
  C  C63  1  0.80786000  0.21416000  0.44254000  1.0
  C  C64  1  0.13275000  0.88447000  0.59059000  1.0
  C  C65  1  0.86725000  0.11552000  0.40941000  1.0
  C  C66  1  0.18157000  0.01645000  0.53261000  1.0
  C  C67  1  0.81845000  0.98356000  0.46741000  1.0
  C  C68  1  0.70380000  0.40260000  0.85750000  1.0
  C  C69  1  0.29619000  0.59737000  0.14249000  1.0
  C  C70  1  0.79820000  0.42154000  0.95918000  1.0
  C  C71  1  0.20179000  0.57845000  0.04081000  1.0
  C  C72  1  0.94873000  0.48726000  0.94613000  1.0
  C  C73  1  0.05126000  0.51274000  0.05387000  1.0
  C  C74  1  0.99534000  0.52801000  0.82658000  1.0
  C  C75  1  0.00466000  0.47198000  0.17342000  1.0
  C  C76  1  0.89267000  0.50385000  0.72992000  1.0
  C  C77  1  0.10732000  0.49615000  0.27007000  1.0
  S  S78  1  0.27841000  0.40470000  0.62973000  1.0
  S  S79  1  0.72161000  0.59530000  0.37027000  1.0
  N  N80  1  0.46785000  0.12445000  0.25909000  1.0
  N  N81  1  0.53213000  0.87554000  0.74090000  1.0
  N  N82  1  0.28125000  0.05140000  0.44597000  1.0
  N  N83  1  0.71877000  0.94860000  0.55405000  1.0
  N  N84  1  0.74841000  0.44347000  0.74349000  1.0
  N  N85  1  0.25159000  0.55651000  0.25651000  1.0
  O  O86  1  0.38526000  0.34675000  0.10800000  1.0
  O  O87  1  0.61473000  0.65321000  0.89201000  1.0
  O  O88  1  0.17371000  0.20613000  0.18702000  1.0
  O  O89  1  0.82625000  0.79391000  0.81299000  1.0
  O  O90  1  0.94393000  0.11006000  0.05464000  1.0
  O  O91  1  0.05605000  0.88994000  0.94534000  1.0
  O  O92  1  0.31500000  0.55858000  0.65778000  1.0
  O  O93  1  0.68502000  0.44142000  0.34220000  1.0
  O  O94  1  0.18159000  0.35133000  0.51957000  1.0
  O  O95  1  0.81845000  0.64866000  0.48043000  1.0
  O  O96  1  0.41208000  0.37442000  0.62380000  1.0
  O  O97  1  0.58796000  0.62559000  0.37622000  1.0
