# generated using pymatgen
data_BaH22C14N4O
_symmetry_space_group_name_H-M   'P 1'
_cell_length_a   8.48665000
_cell_length_b   9.72961000
_cell_length_c   10.68160000
_cell_angle_alpha   65.16220000
_cell_angle_beta   79.79340000
_cell_angle_gamma   76.14180000
_symmetry_Int_Tables_number   1
_chemical_formula_structural   BaH22C14N4O
_chemical_formula_sum   'Ba2 H44 C28 N8 O2'
_cell_volume   774.17415325
_cell_formula_units_Z   2
loop_
 _symmetry_equiv_pos_site_id
 _symmetry_equiv_pos_as_xyz
  1  'x, y, z'
loop_
 _atom_site_type_symbol
 _atom_site_label
 _atom_site_symmetry_multiplicity
 _atom_site_fract_x
 _atom_site_fract_y
 _atom_site_fract_z
 _atom_site_occupancy
  Ba  Ba0  1  0.25626000  0.98767000  0.00807000  1.0
  Ba  Ba1  1  0.74373000  0.01234000  0.99192000  1.0
  H  H2  1  0.75576000  0.48109000  0.67923000  1.0
  H  H3  1  0.24423000  0.51892000  0.32077000  1.0
  H  H4  1  0.98902000  0.34626000  0.48789000  1.0
  H  H5  1  0.01098000  0.65373000  0.51211000  1.0
  H  H6  1  0.85778000  0.21032000  0.55679000  1.0
  H  H7  1  0.14223000  0.78967000  0.44322000  1.0
  H  H8  1  0.06855000  0.14779000  0.57941000  1.0
  H  H9  1  0.93145000  0.85221000  0.42060000  1.0
  H  H10  1  0.72248000  0.54657000  0.90864000  1.0
  H  H11  1  0.27751000  0.45343000  0.09136000  1.0
  H  H12  1  0.87147000  0.43950000  0.02993000  1.0
  H  H13  1  0.12853000  0.56050000  0.97007000  1.0
  H  H14  1  0.68948000  0.37103000  0.04756000  1.0
  H  H15  1  0.31051000  0.62897000  0.95244000  1.0
  H  H16  1  0.67049000  0.78375000  0.57580000  1.0
  H  H17  1  0.32951000  0.21623000  0.42421000  1.0
  H  H18  1  0.29492000  0.74758000  0.69094000  1.0
  H  H19  1  0.70508000  0.25240000  0.30907000  1.0
  H  H20  1  0.31311000  0.93278000  0.56103000  1.0
  H  H21  1  0.68691000  0.06720000  0.43897000  1.0
  H  H22  1  0.21524000  0.91331000  0.72812000  1.0
  H  H23  1  0.78476000  0.08667000  0.27189000  1.0
  H  H24  1  0.97028000  0.88014000  0.64461000  1.0
  H  H25  1  0.02973000  0.11986000  0.35538000  1.0
  H  H26  1  0.97037000  0.68208000  0.74523000  1.0
  H  H27  1  0.02964000  0.31791000  0.25478000  1.0
  H  H28  1  0.95860000  0.80858000  0.82839000  1.0
  H  H29  1  0.04140000  0.19142000  0.17160000  1.0
  H  H30  1  0.49688000  0.43013000  0.80340000  1.0
  H  H31  1  0.50313000  0.56987000  0.19660000  1.0
  H  H32  1  0.34227000  0.34358000  0.93053000  1.0
  H  H33  1  0.65773000  0.65642000  0.06947000  1.0
  H  H34  1  0.60990000  0.29603000  0.63471000  1.0
  H  H35  1  0.39010000  0.70397000  0.36529000  1.0
  H  H36  1  0.52127000  0.13261000  0.66666667  1.0
  H  H37  1  0.47873000  0.86740000  0.33333333  1.0
  H  H38  1  0.25873000  0.29470000  0.60734000  1.0
  H  H39  1  0.74127000  0.70532000  0.39265000  1.0
  H  H40  1  0.37924000  0.43651000  0.50596000  1.0
  H  H41  1  0.62076000  0.56350000  0.49403000  1.0
  H  H42  1  0.15666000  0.42095000  0.75432000  1.0
  H  H43  1  0.84335000  0.57906000  0.24567000  1.0
  H  H44  1  0.27670000  0.56409000  0.65998000  1.0
  H  H45  1  0.72329000  0.43591000  0.34002000  1.0
  C  C46  1  0.93945000  0.26310000  0.70970000  1.0
  C  C47  1  0.06055000  0.73691000  0.29030000  1.0
  C  C48  1  0.83591000  0.38088000  0.74442000  1.0
  C  C49  1  0.16408000  0.61912000  0.25559000  1.0
  C  C50  1  0.86364000  0.34579000  0.88139000  1.0
  C  C51  1  0.13636000  0.65421000  0.11861000  1.0
  C  C52  1  0.96485000  0.24091000  0.57681000  1.0
  C  C53  1  0.03515000  0.75909000  0.42319000  1.0
  C  C54  1  0.78284000  0.43010000  0.97176000  1.0
  C  C55  1  0.21715000  0.56991000  0.02824000  1.0
  C  C56  1  0.47550000  0.85172000  0.72062000  1.0
  C  C57  1  0.52450000  0.14826000  0.27939000  1.0
  C  C58  1  0.63449000  0.81486000  0.66449000  1.0
  C  C59  1  0.36552000  0.18513000  0.33551000  1.0
  C  C60  1  0.73610000  0.82724000  0.74826000  1.0
  C  C61  1  0.26391000  0.17276000  0.25174000  1.0
  C  C62  1  0.31673000  0.86171000  0.67270000  1.0
  C  C63  1  0.68328000  0.13828000  0.32730000  1.0
  C  C64  1  0.91769000  0.79874000  0.74099000  1.0
  C  C65  1  0.08231000  0.20126000  0.25900000  1.0
  C  C66  1  0.39868000  0.36455000  0.82533000  1.0
  C  C67  1  0.60133000  0.63545000  0.17467000  1.0
  C  C68  1  0.50010000  0.24356000  0.67598000  1.0
  C  C69  1  0.49989000  0.75645000  0.32401000  1.0
  C  C70  1  0.34847000  0.35658000  0.61169000  1.0
  C  C71  1  0.65153000  0.64343000  0.38830000  1.0
  C  C72  1  0.28084000  0.43939000  0.71153000  1.0
  C  C73  1  0.71916000  0.56061000  0.28846000  1.0
  N  N74  1  0.02441000  0.16395000  0.81938000  1.0
  N  N75  1  0.97559000  0.83605000  0.18062000  1.0
  N  N76  1  0.97793000  0.21526000  0.92585000  1.0
  N  N77  1  0.02207000  0.78475000  0.07415000  1.0
  N  N78  1  0.48200000  0.88312000  0.83167000  1.0
  N  N79  1  0.51801000  0.11688000  0.16833000  1.0
  N  N80  1  0.64310000  0.86889000  0.84831000  1.0
  N  N81  1  0.35690000  0.13111000  0.15169000  1.0
  O  O82  1  0.47111000  0.21395000  0.82263000  1.0
  O  O83  1  0.52888000  0.78605000  0.17737000  1.0
