# generated using pymatgen
data_HgH9C8SCl2
_symmetry_space_group_name_H-M   'P 1'
_cell_length_a   5.85783000
_cell_length_b   11.75740000
_cell_length_c   15.03800000
_cell_angle_alpha   92.31330000
_cell_angle_beta   90.00000000
_cell_angle_gamma   89.99980000
_symmetry_Int_Tables_number   1
_chemical_formula_structural   HgH9C8SCl2
_chemical_formula_sum   'Hg4 H36 C32 S4 Cl8'
_cell_volume   1034.86587567
_cell_formula_units_Z   4
loop_
 _symmetry_equiv_pos_site_id
 _symmetry_equiv_pos_as_xyz
  1  'x, y, z'
loop_
 _atom_site_type_symbol
 _atom_site_label
 _atom_site_symmetry_multiplicity
 _atom_site_fract_x
 _atom_site_fract_y
 _atom_site_fract_z
 _atom_site_occupancy
  Hg  Hg0  1  0.93839000  0.12487000  0.75928000  1.0
  Hg  Hg1  1  0.43840000  0.87512000  0.74072000  1.0
  Hg  Hg2  1  0.06160000  0.87512000  0.24071000  1.0
  Hg  Hg3  1  0.56159000  0.12488000  0.25929000  1.0
  H  H4  1  0.23969000  0.33145000  0.68610000  1.0
  H  H5  1  0.73971000  0.66854000  0.81390000  1.0
  H  H6  1  0.76030000  0.66854000  0.31390000  1.0
  H  H7  1  0.26028000  0.33147000  0.18609000  1.0
  H  H8  1  0.30162000  0.54045000  0.69740000  1.0
  H  H9  1  0.80164000  0.45954000  0.80260000  1.0
  H  H10  1  0.69837000  0.45954000  0.30260000  1.0
  H  H11  1  0.19838000  0.54047000  0.19739000  1.0
  H  H12  1  0.00615000  0.67212000  0.64230000  1.0
  H  H13  1  0.50617000  0.32788000  0.85770000  1.0
  H  H14  1  0.99386000  0.32788000  0.35770000  1.0
  H  H15  1  0.49387000  0.67213000  0.14229000  1.0
  H  H16  1  0.64594000  0.59519000  0.57653000  1.0
  H  H17  1  0.14595000  0.40481000  0.92346000  1.0
  H  H18  1  0.35407000  0.40481000  0.42347000  1.0
  H  H19  1  0.85408000  0.59519000  0.07653000  1.0
  H  H20  1  0.58811000  0.38457000  0.55961000  1.0
  H  H21  1  0.08812000  0.61542000  0.94038000  1.0
  H  H22  1  0.41189000  0.61543000  0.44038000  1.0
  H  H23  1  0.91190000  0.38457000  0.05962000  1.0
  H  H24  1  0.08418000  0.19596000  0.47724000  1.0
  H  H25  1  0.58417000  0.80404000  0.02276000  1.0
  H  H26  1  0.91582000  0.80403000  0.52276000  1.0
  H  H27  1  0.41582000  0.19596000  0.97724000  1.0
  H  H28  1  0.25884000  0.18146000  0.57397000  1.0
  H  H29  1  0.75884000  0.81854000  0.92603000  1.0
  H  H30  1  0.74116000  0.81853000  0.42602000  1.0
  H  H31  1  0.24116000  0.18147000  0.07397000  1.0
  H  H32  1  0.12198000  0.98214000  0.58892000  1.0
  H  H33  1  0.62198000  0.01786000  0.91108000  1.0
  H  H34  1  0.87801000  0.01785000  0.41108000  1.0
  H  H35  1  0.37801000  0.98215000  0.08893000  1.0
  H  H36  1  0.26187000  0.00281000  0.48754000  1.0
  H  H37  1  0.76187000  0.99719000  0.01246000  1.0
  H  H38  1  0.73812000  0.99718000  0.51246000  1.0
  H  H39  1  0.23812000  0.00281000  0.98755000  1.0
  C  C40  1  0.91091000  0.34628000  0.62118000  1.0
  C  C41  1  0.41092000  0.65371000  0.87882000  1.0
  C  C42  1  0.08908000  0.65371000  0.37882000  1.0
  C  C43  1  0.58907000  0.34629000  0.12118000  1.0
  C  C44  1  0.11173000  0.38916000  0.66047000  1.0
  C  C45  1  0.61174000  0.61083000  0.83953000  1.0
  C  C46  1  0.88827000  0.61083000  0.33953000  1.0
  C  C47  1  0.38826000  0.38918000  0.16046000  1.0
  C  C48  1  0.14517000  0.50659000  0.66735000  1.0
  C  C49  1  0.64519000  0.49342000  0.83265000  1.0
  C  C50  1  0.85482000  0.49341000  0.33265000  1.0
  C  C51  1  0.35483000  0.50659000  0.16734000  1.0
  C  C52  1  0.97828000  0.58042000  0.63649000  1.0
  C  C53  1  0.47830000  0.41957000  0.86351000  1.0
  C  C54  1  0.02172000  0.41958000  0.36351000  1.0
  C  C55  1  0.52172000  0.58043000  0.13648000  1.0
  C  C56  1  0.77708000  0.53695000  0.59870000  1.0
  C  C57  1  0.27709000  0.46304000  0.90129000  1.0
  C  C58  1  0.22292000  0.46305000  0.40129000  1.0
  C  C59  1  0.72293000  0.53696000  0.09870000  1.0
  C  C60  1  0.74284000  0.41952000  0.59033000  1.0
  C  C61  1  0.24284000  0.58047000  0.90967000  1.0
  C  C62  1  0.25717000  0.58048000  0.40966000  1.0
  C  C63  1  0.75717000  0.41953000  0.09033000  1.0
  C  C64  1  0.10315000  0.15187000  0.53984000  1.0
  C  C65  1  0.60316000  0.84813000  0.96017000  1.0
  C  C66  1  0.89684000  0.84812000  0.46016000  1.0
  C  C67  1  0.39684000  0.15188000  0.03984000  1.0
  C  C68  1  0.10450000  0.02339000  0.52495000  1.0
  C  C69  1  0.60450000  0.97661000  0.97505000  1.0
  C  C70  1  0.89549000  0.97660000  0.47504000  1.0
  C  C71  1  0.39549000  0.02340000  0.02496000  1.0
  S  S72  1  0.85807000  0.19765000  0.60743000  1.0
  S  S73  1  0.35808000  0.80235000  0.89256000  1.0
  S  S74  1  0.14192000  0.80235000  0.39256000  1.0
  S  S75  1  0.64191000  0.19766000  0.10744000  1.0
  Cl  Cl76  1  0.91274000  0.90035000  0.75275000  1.0
  Cl  Cl77  1  0.41273000  0.09965000  0.74725000  1.0
  Cl  Cl78  1  0.08726000  0.09964000  0.24726000  1.0
  Cl  Cl79  1  0.58726000  0.90036000  0.25275000  1.0
  Cl  Cl80  1  0.92939000  0.21061000  0.90785000  1.0
  Cl  Cl81  1  0.42938000  0.78939000  0.59215000  1.0
  Cl  Cl82  1  0.07062000  0.78939000  0.09215000  1.0
  Cl  Cl83  1  0.57062000  0.21061000  0.40785000  1.0
