# generated using pymatgen
data_AlH6C11SBrO5
_symmetry_space_group_name_H-M   'P 1'
_cell_length_a   6.97473000
_cell_length_b   11.08170290
_cell_length_c   12.63390237
_cell_angle_alpha   81.40212589
_cell_angle_beta   75.93089405
_cell_angle_gamma   72.06640742
_symmetry_Int_Tables_number   1
_chemical_formula_structural   AlH6C11SBrO5
_chemical_formula_sum   'Al2 H12 C22 S2 Br2 O10'
_cell_volume   898.23259857
_cell_formula_units_Z   2
loop_
 _symmetry_equiv_pos_site_id
 _symmetry_equiv_pos_as_xyz
  1  'x, y, z'
loop_
 _atom_site_type_symbol
 _atom_site_label
 _atom_site_symmetry_multiplicity
 _atom_site_fract_x
 _atom_site_fract_y
 _atom_site_fract_z
 _atom_site_occupancy
  Al  Al0  1  0.49837000  0.50040000  0.49430000  1.0
  Al  Al1  1  0.99710000  0.50118000  0.49479000  1.0
  H  H2  1  0.20693000  0.64991000  0.41961000  1.0
  H  H3  1  0.78770000  0.35663000  0.57922000  1.0
  H  H4  1  0.84093000  0.76173000  0.65136000  1.0
  H  H5  1  0.58872000  0.23336000  0.63921000  1.0
  H  H6  1  0.20849000  0.11952000  0.42054000  1.0
  H  H7  1  0.32436000  0.88163000  0.43219000  1.0
  H  H8  1  0.48791000  0.49913000  0.21624000  1.0
  H  H9  1  0.54395000  0.41804000  0.09595000  1.0
  H  H10  1  0.46717000  0.58647000  0.08742000  1.0
  H  H11  1  0.53592000  0.40957000  0.90079000  1.0
  H  H12  1  0.45594000  0.57804000  0.89487000  1.0
  H  H13  1  0.51178000  0.49893000  0.77339000  1.0
  C  C14  1  0.62688000  0.72471000  0.51436000  1.0
  C  C15  1  0.83110000  0.50701000  0.29962000  1.0
  C  C16  1  0.35706000  0.27542000  0.49424000  1.0
  C  C17  1  0.16735000  0.49182000  0.69071000  1.0
  C  C18  1  0.77546000  0.50039000  0.10498000  1.0
  C  C19  1  0.22624000  0.49432000  0.88525000  1.0
  C  C20  1  0.88972000  0.50292000  0.18026000  1.0
  C  C21  1  0.11159000  0.49187000  0.81020000  1.0
  C  C22  1  0.10241000  0.49744000  0.99258000  1.0
  C  C23  1  0.89942000  0.49739000  0.99777000  1.0
  C  C24  1  0.55086000  0.86500000  0.52487000  1.0
  C  C25  1  0.63946000  0.92991000  0.58155000  1.0
  C  C26  1  0.39285000  0.93343000  0.47220000  1.0
  C  C27  1  0.78765000  0.86508000  0.64577000  1.0
  C  C28  1  0.86633000  0.93072000  0.70124000  1.0
  C  C29  1  0.41835000  0.13366000  0.51330000  1.0
  C  C30  1  0.32733000  0.06687000  0.46584000  1.0
  C  C31  1  0.56952000  0.06673000  0.57653000  1.0
  C  C32  1  0.64784000  0.13068000  0.63788000  1.0
  C  C33  1  0.79493000  0.06542000  0.69744000  1.0
  C  C34  1  0.55699000  0.50095000  0.12880000  1.0
  C  C35  1  0.44401000  0.49550000  0.86093000  1.0
  S  S36  1  0.14186000  0.50129000  0.12108000  1.0
  S  S37  1  0.85946000  0.49396000  0.86934000  1.0
  Br  Br38  1  0.06694000  0.83738000  0.78303000  1.0
  Br  Br39  1  0.89552000  0.16176000  0.77220000  1.0
  O  O40  1  0.49255000  0.67072000  0.50922000  1.0
  O  O41  1  0.97489000  0.50778000  0.34621000  1.0
  O  O42  1  0.16909000  0.32942000  0.48946000  1.0
  O  O43  1  0.35365000  0.48592000  0.64314000  1.0
  O  O44  1  0.49755000  0.33045000  0.48294000  1.0
  O  O45  1  0.02032000  0.49659000  0.64427000  1.0
  O  O46  1  0.81964000  0.67196000  0.50684000  1.0
  O  O47  1  0.64557000  0.51065000  0.34680000  1.0
  O  O48  1  0.23777000  0.56171000  0.44900000  1.0
  O  O49  1  0.75736000  0.44081000  0.54093000  1.0
