# generated using pymatgen
data_NiH30C20(N3O2)2
_symmetry_space_group_name_H-M   'P 1'
_cell_length_a   7.11364000
_cell_length_b   12.31720000
_cell_length_c   12.49287046
_cell_angle_alpha   89.98295406
_cell_angle_beta   97.89178310
_cell_angle_gamma   89.96370000
_symmetry_Int_Tables_number   1
_chemical_formula_structural   NiH30C20(N3O2)2
_chemical_formula_sum   'Ni2 H60 C40 N12 O8'
_cell_volume   1084.25956029
_cell_formula_units_Z   2
loop_
 _symmetry_equiv_pos_site_id
 _symmetry_equiv_pos_as_xyz
  1  'x, y, z'
loop_
 _atom_site_type_symbol
 _atom_site_label
 _atom_site_symmetry_multiplicity
 _atom_site_fract_x
 _atom_site_fract_y
 _atom_site_fract_z
 _atom_site_occupancy
  Ni  Ni0  1  0.00003000  0.00000000  0.00001000  1.0
  Ni  Ni1  1  0.49998000  0.50001000  0.49998000  1.0
  H  H2  1  0.64553000  0.87439000  0.04134000  1.0
  H  H3  1  0.85470000  0.37434000  0.45876000  1.0
  H  H4  1  0.35453000  0.12562000  0.95867000  1.0
  H  H5  1  0.14526000  0.62567000  0.54120000  1.0
  H  H6  1  0.68527000  0.87318000  0.18503000  1.0
  H  H7  1  0.81503000  0.37314000  0.31507000  1.0
  H  H8  1  0.31477000  0.12683000  0.81498000  1.0
  H  H9  1  0.18493000  0.62688000  0.68489000  1.0
  H  H10  1  0.02230000  0.81848000  0.17908000  1.0
  H  H11  1  0.47809000  0.31848000  0.32101000  1.0
  H  H12  1  0.97774000  0.18152000  0.82094000  1.0
  H  H13  1  0.52187000  0.68154000  0.67895000  1.0
  H  H14  1  0.87313000  0.72329000  0.09918000  1.0
  H  H15  1  0.62745000  0.22328000  0.40099000  1.0
  H  H16  1  0.12691000  0.27671000  0.90083000  1.0
  H  H17  1  0.37251000  0.77673000  0.59897000  1.0
  H  H18  1  0.81661000  0.85604000  0.86503000  1.0
  H  H19  1  0.68370000  0.35604000  0.63504000  1.0
  H  H20  1  0.18349000  0.14393000  0.13499000  1.0
  H  H21  1  0.31626000  0.64395000  0.36491000  1.0
  H  H22  1  0.84293000  0.72114000  0.91987000  1.0
  H  H23  1  0.65760000  0.22113000  0.58031000  1.0
  H  H24  1  0.15716000  0.27883000  0.08015000  1.0
  H  H25  1  0.34233000  0.77887000  0.41964000  1.0
  H  H26  1  0.09781000  0.68664000  0.82866000  1.0
  H  H27  1  0.40281000  0.18666000  0.67154000  1.0
  H  H28  1  0.90230000  0.31333000  0.17139000  1.0
  H  H29  1  0.59714000  0.81334000  0.32841000  1.0
  H  H30  1  0.07349000  0.81709000  0.76518000  1.0
  H  H31  1  0.42685000  0.31711000  0.73492000  1.0
  H  H32  1  0.92664000  0.18287000  0.23485000  1.0
  H  H33  1  0.57310000  0.68289000  0.26503000  1.0
  H  H34  1  0.29919000  0.84686000  0.08259000  1.0
  H  H35  1  0.20111000  0.34691000  0.41749000  1.0
  H  H36  1  0.70087000  0.15317000  0.91744000  1.0
  H  H37  1  0.79883000  0.65311000  0.58247000  1.0
  H  H38  1  0.20746000  0.71328000  0.04371000  1.0
  H  H39  1  0.29309000  0.21333000  0.45647000  1.0
  H  H40  1  0.79264000  0.28673000  0.95635000  1.0
  H  H41  1  0.70684000  0.78668000  0.54349000  1.0
  H  H42  1  0.62634000  0.07811000  0.18578000  1.0
  H  H43  1  0.87355000  0.57808000  0.31419000  1.0
  H  H44  1  0.37373000  0.92186000  0.81426000  1.0
  H  H45  1  0.12645000  0.42192000  0.68579000  1.0
  H  H46  1  0.56701000  0.05698000  0.04569000  1.0
  H  H47  1  0.93292000  0.55692000  0.45428000  1.0
  H  H48  1  0.43308000  0.94303000  0.95434000  1.0
  H  H49  1  0.06702000  0.44309000  0.54571000  1.0
  H  H50  1  0.84893000  0.00904000  0.49893000  1.0
  H  H51  1  0.65097000  0.50911000  0.00103000  1.0
  H  H52  1  0.15120000  0.99093000  0.50112000  1.0
  H  H53  1  0.34881000  0.49088000  0.99894000  1.0
  H  H54  1  0.37083000  0.99524000  0.67426000  1.0
  H  H55  1  0.12914000  0.49521000  0.82574000  1.0
  H  H56  1  0.62928000  0.00473000  0.32580000  1.0
  H  H57  1  0.87066000  0.50477000  0.17423000  1.0
  H  H58  1  0.93120000  0.00455000  0.18301000  1.0
  H  H59  1  0.56881000  0.50458000  0.31700000  1.0
  H  H60  1  0.06887000  0.99543000  0.81701000  1.0
  H  H61  1  0.43113000  0.49544000  0.68297000  1.0
  C  C62  1  0.75359000  0.88550000  0.11223000  1.0
  C  C63  1  0.74666000  0.38548000  0.38785000  1.0
  C  C64  1  0.24647000  0.11450000  0.88779000  1.0
  C  C65  1  0.25330000  0.61454000  0.61211000  1.0
  C  C66  1  0.91697000  0.80890000  0.10664000  1.0
  C  C67  1  0.58342000  0.30890000  0.39347000  1.0
  C  C68  1  0.08307000  0.19109000  0.89337000  1.0
  C  C69  1  0.41655000  0.69112000  0.60650000  1.0
  C  C70  1  0.91757000  0.79679000  0.90548000  1.0
  C  C71  1  0.58285000  0.29680000  0.59464000  1.0
  C  C72  1  0.08254000  0.20319000  0.09455000  1.0
  C  C73  1  0.41710000  0.70321000  0.40531000  1.0
  C  C74  1  0.08754000  0.77416000  0.84277000  1.0
  C  C75  1  0.41291000  0.27418000  0.65736000  1.0
  C  C76  1  0.91258000  0.22582000  0.15727000  1.0
  C  C77  1  0.58703000  0.72582000  0.34259000  1.0
  C  C78  1  0.20910000  0.79983000  0.02101000  1.0
  C  C79  1  0.29129000  0.29988000  0.47910000  1.0
  C  C80  1  0.79098000  0.20018000  0.97903000  1.0
  C  C81  1  0.70865000  0.70013000  0.52086000  1.0
  C  C82  1  0.68307000  0.08011000  0.10836000  1.0
  C  C83  1  0.81681000  0.58007000  0.39160000  1.0
  C  C84  1  0.31702000  0.91989000  0.89168000  1.0
  C  C85  1  0.18315000  0.41994000  0.60837000  1.0
  C  C86  1  0.75691000  0.00517000  0.70452000  1.0
  C  C87  1  0.74309000  0.50518000  0.79549000  1.0
  C  C88  1  0.24323000  0.99484000  0.29554000  1.0
  C  C89  1  0.25670000  0.49485000  0.20449000  1.0
  C  C90  1  0.62440000  0.00228000  0.59845000  1.0
  C  C91  1  0.87558000  0.50230000  0.90157000  1.0
  C  C92  1  0.37572000  0.99771000  0.40161000  1.0
  C  C93  1  0.12421000  0.49771000  0.09841000  1.0
  C  C94  1  0.69606000  0.00518000  0.49934000  1.0
  C  C95  1  0.80387000  0.50521000  0.00067000  1.0
  C  C96  1  0.30408000  0.99480000  0.50073000  1.0
  C  C97  1  0.19591000  0.49477000  0.99930000  1.0
  C  C98  1  0.42718000  0.99709000  0.59755000  1.0
  C  C99  1  0.07281000  0.49707000  0.90247000  1.0
  C  C100  1  0.57294000  0.00288000  0.40252000  1.0
  C  C101  1  0.92698000  0.50291000  0.09750000  1.0
  N  N102  1  0.83435000  0.99618000  0.10975000  1.0
  N  N103  1  0.66568000  0.49617000  0.39025000  1.0
  N  N104  1  0.16572000  0.00382000  0.89027000  1.0
  N  N105  1  0.33428000  0.50384000  0.60971000  1.0
  N  N106  1  0.00922000  0.84224000  0.01192000  1.0
  N  N107  1  0.49109000  0.34225000  0.48816000  1.0
  N  N108  1  0.99084000  0.15775000  0.98810000  1.0
  N  N109  1  0.50885000  0.65776000  0.51179000  1.0
  N  N110  1  0.25922000  0.81097000  0.91387000  1.0
  N  N111  1  0.24117000  0.31102000  0.58624000  1.0
  N  N112  1  0.74088000  0.18903000  0.08618000  1.0
  N  N113  1  0.75878000  0.68899000  0.41372000  1.0
  O  O114  1  0.68393000  0.02114000  0.79026000  1.0
  O  O115  1  0.81607000  0.52112000  0.70974000  1.0
  O  O116  1  0.31620000  0.97887000  0.20979000  1.0
  O  O117  1  0.18378000  0.47889000  0.29026000  1.0
  O  O118  1  0.93337000  0.99061000  0.69851000  1.0
  O  O119  1  0.56666000  0.49065000  0.80149000  1.0
  O  O120  1  0.06676000  0.00939000  0.30154000  1.0
  O  O121  1  0.43314000  0.50941000  0.19849000  1.0
