# generated using pymatgen
data_DyAgH6C12(NO2)4
_symmetry_space_group_name_H-M   'P 1'
_cell_length_a   8.05571000
_cell_length_b   10.07520000
_cell_length_c   18.33310000
_cell_angle_alpha   89.99940000
_cell_angle_beta   89.99990000
_cell_angle_gamma   84.46450000
_symmetry_Int_Tables_number   1
_chemical_formula_structural   DyAgH6C12(NO2)4
_chemical_formula_sum   'Dy4 Ag4 H24 C48 N16 O32'
_cell_volume   1481.02841323
_cell_formula_units_Z   4
loop_
 _symmetry_equiv_pos_site_id
 _symmetry_equiv_pos_as_xyz
  1  'x, y, z'
loop_
 _atom_site_type_symbol
 _atom_site_label
 _atom_site_symmetry_multiplicity
 _atom_site_fract_x
 _atom_site_fract_y
 _atom_site_fract_z
 _atom_site_occupancy
  Dy  Dy0  1  0.75770000  0.85840000  0.89394000  1.0
  Dy  Dy1  1  0.74230000  0.14159000  0.39393000  1.0
  Dy  Dy2  1  0.24230000  0.14159000  0.10607000  1.0
  Dy  Dy3  1  0.25770000  0.85841000  0.60607000  1.0
  Ag  Ag4  1  0.10333000  0.35203000  0.92641000  1.0
  Ag  Ag5  1  0.39666000  0.64797000  0.42641000  1.0
  Ag  Ag6  1  0.89666000  0.64797000  0.07358000  1.0
  Ag  Ag7  1  0.60334000  0.35204000  0.57359000  1.0
  H  H8  1  0.11450000  0.65142000  0.91589000  1.0
  H  H9  1  0.38550000  0.34857000  0.41589000  1.0
  H  H10  1  0.88549000  0.34858000  0.08411000  1.0
  H  H11  1  0.61450000  0.65143000  0.58411000  1.0
  H  H12  1  0.31438000  0.82862000  0.90706000  1.0
  H  H13  1  0.18562000  0.17137000  0.40706000  1.0
  H  H14  1  0.68561000  0.17138000  0.09294000  1.0
  H  H15  1  0.81439000  0.82863000  0.59295000  1.0
  H  H16  1  0.51572000  0.35808000  0.91482000  1.0
  H  H17  1  0.98427000  0.64191000  0.41482000  1.0
  H  H18  1  0.48427000  0.64192000  0.08518000  1.0
  H  H19  1  0.01573000  0.35809000  0.58518000  1.0
  H  H20  1  0.76629000  0.36320000  0.74385000  1.0
  H  H21  1  0.73371000  0.63680000  0.24385000  1.0
  H  H22  1  0.23371000  0.63680000  0.25615000  1.0
  H  H23  1  0.26629000  0.36320000  0.75615000  1.0
  H  H24  1  0.62044000  0.05355000  0.61691000  1.0
  H  H25  1  0.87957000  0.94646000  0.11691000  1.0
  H  H26  1  0.37956000  0.94646000  0.38309000  1.0
  H  H27  1  0.12044000  0.05355000  0.88309000  1.0
  H  H28  1  0.80408000  0.20666000  0.85151000  1.0
  H  H29  1  0.69593000  0.79333000  0.35151000  1.0
  H  H30  1  0.19593000  0.79333000  0.14849000  1.0
  H  H31  1  0.30408000  0.20667000  0.64849000  1.0
  C  C32  1  0.24853000  0.62565000  0.91361000  1.0
  C  C33  1  0.25146000  0.37435000  0.41361000  1.0
  C  C34  1  0.75146000  0.37435000  0.08639000  1.0
  C  C35  1  0.74854000  0.62565000  0.58639000  1.0
  C  C36  1  0.35924000  0.72343000  0.90859000  1.0
  C  C37  1  0.14076000  0.27657000  0.40859000  1.0
  C  C38  1  0.64075000  0.27657000  0.09140000  1.0
  C  C39  1  0.85925000  0.72343000  0.59141000  1.0
  C  C40  1  0.57930000  0.56202000  0.90709000  1.0
  C  C41  1  0.92069000  0.43798000  0.40708000  1.0
  C  C42  1  0.42069000  0.43798000  0.09291000  1.0
  C  C43  1  0.07931000  0.56202000  0.59292000  1.0
  C  C44  1  0.46958000  0.46332000  0.91230000  1.0
  C  C45  1  0.03040000  0.53668000  0.41230000  1.0
  C  C46  1  0.53040000  0.53668000  0.08770000  1.0
  C  C47  1  0.96959000  0.46332000  0.58770000  1.0
  C  C48  1  0.76578000  0.53063000  0.90661000  1.0
  C  C49  1  0.73421000  0.46937000  0.40661000  1.0
  C  C50  1  0.23421000  0.46937000  0.09339000  1.0
  C  C51  1  0.26579000  0.53063000  0.59339000  1.0
  C  C52  1  0.74169000  0.25891000  0.73906000  1.0
  C  C53  1  0.75832000  0.74109000  0.23906000  1.0
  C  C54  1  0.25831000  0.74109000  0.26093000  1.0
  C  C55  1  0.24169000  0.25892000  0.76094000  1.0
  C  C56  1  0.65743000  0.08983000  0.66953000  1.0
  C  C57  1  0.84257000  0.91017000  0.16953000  1.0
  C  C58  1  0.34257000  0.91017000  0.33047000  1.0
  C  C59  1  0.15743000  0.08983000  0.83047000  1.0
  C  C60  1  0.76156000  0.17297000  0.79889000  1.0
  C  C61  1  0.73845000  0.82703000  0.29889000  1.0
  C  C62  1  0.23845000  0.82703000  0.20111000  1.0
  C  C63  1  0.26156000  0.17297000  0.70111000  1.0
  C  C64  1  0.66503000  0.00640000  0.73015000  1.0
  C  C65  1  0.83498000  0.99360000  0.23015000  1.0
  C  C66  1  0.33498000  0.99360000  0.26985000  1.0
  C  C67  1  0.16504000  0.00640000  0.76985000  1.0
  C  C68  1  0.60144000  0.87032000  0.72796000  1.0
  C  C69  1  0.89856000  0.12968000  0.22796000  1.0
  C  C70  1  0.39856000  0.12968000  0.27203000  1.0
  C  C71  1  0.10144000  0.87032000  0.77204000  1.0
  C  C72  1  0.45741000  0.03897000  0.96744000  1.0
  C  C73  1  0.04260000  0.96102000  0.46745000  1.0
  C  C74  1  0.54259000  0.96103000  0.03256000  1.0
  C  C75  1  0.95741000  0.03897000  0.53256000  1.0
  C  C76  1  0.95605000  0.06825000  0.98799000  1.0
  C  C77  1  0.54394000  0.93175000  0.48799000  1.0
  C  C78  1  0.04395000  0.93175000  0.01201000  1.0
  C  C79  1  0.45604000  0.06825000  0.51201000  1.0
  N  N80  1  0.30397000  0.49568000  0.91649000  1.0
  N  N81  1  0.19602000  0.50432000  0.41649000  1.0
  N  N82  1  0.69602000  0.50432000  0.08351000  1.0
  N  N83  1  0.80398000  0.49568000  0.58351000  1.0
  N  N84  1  0.52390000  0.69231000  0.90620000  1.0
  N  N85  1  0.97610000  0.30768000  0.40620000  1.0
  N  N86  1  0.47610000  0.30769000  0.09379000  1.0
  N  N87  1  0.02390000  0.69232000  0.59380000  1.0
  N  N88  1  0.69365000  0.21635000  0.67378000  1.0
  N  N89  1  0.80636000  0.78365000  0.17378000  1.0
  N  N90  1  0.30635000  0.78365000  0.32622000  1.0
  N  N91  1  0.19365000  0.21635000  0.82622000  1.0
  N  N92  1  0.72459000  0.04625000  0.79409000  1.0
  N  N93  1  0.77542000  0.95374000  0.29409000  1.0
  N  N94  1  0.27542000  0.95375000  0.20591000  1.0
  N  N95  1  0.22459000  0.04625000  0.70591000  1.0
  O  O96  1  0.85108000  0.63094000  0.90729000  1.0
  O  O97  1  0.64891000  0.36904000  0.40729000  1.0
  O  O98  1  0.14891000  0.36905000  0.09271000  1.0
  O  O99  1  0.35109000  0.63095000  0.59271000  1.0
  O  O100  1  0.82181000  0.40946000  0.90773000  1.0
  O  O101  1  0.67818000  0.59053000  0.40773000  1.0
  O  O102  1  0.17818000  0.59053000  0.09227000  1.0
  O  O103  1  0.32182000  0.40946000  0.59227000  1.0
  O  O104  1  0.50753000  0.84611000  0.67507000  1.0
  O  O105  1  0.99249000  0.15389000  0.17507000  1.0
  O  O106  1  0.49248000  0.15389000  0.32492000  1.0
  O  O107  1  0.00751000  0.84611000  0.82493000  1.0
  O  O108  1  0.64569000  0.79276000  0.78025000  1.0
  O  O109  1  0.85432000  0.20724000  0.28025000  1.0
  O  O110  1  0.35432000  0.20724000  0.21975000  1.0
  O  O111  1  0.14569000  0.79276000  0.71976000  1.0
  O  O112  1  0.50148000  0.99950000  0.90407000  1.0
  O  O113  1  0.99852000  0.00050000  0.40407000  1.0
  O  O114  1  0.49852000  0.00051000  0.09593000  1.0
  O  O115  1  0.00148000  0.99950000  0.59593000  1.0
  O  O116  1  0.34955000  0.13443000  0.98337000  1.0
  O  O117  1  0.15045000  0.86558000  0.48337000  1.0
  O  O118  1  0.65045000  0.86557000  0.01663000  1.0
  O  O119  1  0.84955000  0.13443000  0.51663000  1.0
  O  O120  1  0.83654000  0.06541000  0.94340000  1.0
  O  O121  1  0.66346000  0.93459000  0.44340000  1.0
  O  O122  1  0.16345000  0.93459000  0.05660000  1.0
  O  O123  1  0.33655000  0.06541000  0.55660000  1.0
  O  O124  1  0.01301000  0.17084000  0.01459000  1.0
  O  O125  1  0.48698000  0.82916000  0.51459000  1.0
  O  O126  1  0.98698000  0.82915000  0.98540000  1.0
  O  O127  1  0.51302000  0.17085000  0.48540000  1.0
