# generated using pymatgen
data_SnH5C7NO4
_symmetry_space_group_name_H-M   'P 1'
_cell_length_a   5.33766000
_cell_length_b   8.39832000
_cell_length_c   9.35696000
_cell_angle_alpha   88.78470000
_cell_angle_beta   88.51880000
_cell_angle_gamma   86.36700000
_symmetry_Int_Tables_number   1
_chemical_formula_structural   SnH5C7NO4
_chemical_formula_sum   'Sn2 H10 C14 N2 O8'
_cell_volume   418.38464543
_cell_formula_units_Z   2
loop_
 _symmetry_equiv_pos_site_id
 _symmetry_equiv_pos_as_xyz
  1  'x, y, z'
loop_
 _atom_site_type_symbol
 _atom_site_label
 _atom_site_symmetry_multiplicity
 _atom_site_fract_x
 _atom_site_fract_y
 _atom_site_fract_z
 _atom_site_occupancy
  Sn  Sn0  1  0.89803000  0.73500000  0.42239000  1.0
  Sn  Sn1  1  0.10200000  0.26500000  0.57762000  1.0
  H  H2  1  0.40278000  0.61394000  0.92027000  1.0
  H  H3  1  0.59718000  0.38606000  0.07970000  1.0
  H  H4  1  0.30285000  0.62882000  0.18410000  1.0
  H  H5  1  0.69716000  0.37117000  0.81588000  1.0
  H  H6  1  0.09980000  0.74588000  0.74956000  1.0
  H  H7  1  0.90013000  0.25412000  0.25043000  1.0
  H  H8  1  0.70763000  0.88810000  0.84616000  1.0
  H  H9  1  0.29233000  0.11190000  0.15385000  1.0
  H  H10  1  0.62900000  0.88650000  0.11350000  1.0
  H  H11  1  0.37100000  0.11350000  0.88652000  1.0
  C  C12  1  0.51747000  0.46678000  0.42319000  1.0
  C  C13  1  0.48258000  0.53322000  0.57682000  1.0
  C  C14  1  0.43185000  0.97300000  0.43339000  1.0
  C  C15  1  0.56815000  0.02701000  0.56663000  1.0
  C  C16  1  0.17419000  0.68331000  0.10551000  1.0
  C  C17  1  0.82581000  0.31668000  0.89447000  1.0
  C  C18  1  0.23034000  0.67605000  0.95955000  1.0
  C  C19  1  0.76963000  0.32394000  0.04044000  1.0
  C  C20  1  0.06126000  0.75019000  0.86427000  1.0
  C  C21  1  0.93869000  0.24981000  0.13572000  1.0
  C  C22  1  0.84209000  0.82865000  0.91812000  1.0
  C  C23  1  0.15788000  0.17135000  0.08188000  1.0
  C  C24  1  0.79859000  0.82911000  0.06538000  1.0
  C  C25  1  0.20140000  0.17089000  0.93462000  1.0
  N  N26  1  0.96150000  0.75774000  0.15747000  1.0
  N  N27  1  0.03850000  0.24226000  0.84253000  1.0
  O  O28  1  0.67372000  0.53198000  0.33898000  1.0
  O  O29  1  0.32639000  0.46803000  0.66099000  1.0
  O  O30  1  0.38856000  0.35258000  0.39054000  1.0
  O  O31  1  0.61147000  0.64739000  0.60944000  1.0
  O  O32  1  0.54935000  0.86862000  0.35441000  1.0
  O  O33  1  0.45065000  0.13142000  0.64563000  1.0
  O  O34  1  0.21527000  0.03260000  0.41038000  1.0
  O  O35  1  0.78477000  0.96740000  0.58967000  1.0
