# generated using pymatgen
data_CuH13C14(NO)4
_symmetry_space_group_name_H-M   'P 1'
_cell_length_a   4.63397000
_cell_length_b   14.31370000
_cell_length_c   24.88500000
_cell_angle_alpha   89.99980000
_cell_angle_beta   88.85690000
_cell_angle_gamma   89.99870000
_symmetry_Int_Tables_number   1
_chemical_formula_structural   CuH13C14(NO)4
_chemical_formula_sum   'Cu4 H52 C56 N16 O16'
_cell_volume   1650.27505526
_cell_formula_units_Z   4
loop_
 _symmetry_equiv_pos_site_id
 _symmetry_equiv_pos_as_xyz
  1  'x, y, z'
loop_
 _atom_site_type_symbol
 _atom_site_label
 _atom_site_symmetry_multiplicity
 _atom_site_fract_x
 _atom_site_fract_y
 _atom_site_fract_z
 _atom_site_occupancy
  Cu  Cu0  1  0.77480000  0.57919000  0.14614000  1.0
  Cu  Cu1  1  0.72526000  0.07921000  0.35386000  1.0
  Cu  Cu2  1  0.22522000  0.42079000  0.85385000  1.0
  Cu  Cu3  1  0.27475000  0.92080000  0.64614000  1.0
  H  H4  1  0.56331000  0.39325000  0.20484000  1.0
  H  H5  1  0.93674000  0.89326000  0.29516000  1.0
  H  H6  1  0.43671000  0.60674000  0.79517000  1.0
  H  H7  1  0.06321000  0.10673000  0.70484000  1.0
  H  H8  1  0.59127000  0.34303000  0.30103000  1.0
  H  H9  1  0.90874000  0.84302000  0.19897000  1.0
  H  H10  1  0.40874000  0.65698000  0.69897000  1.0
  H  H11  1  0.09121000  0.15698000  0.80103000  1.0
  H  H12  1  0.96833000  0.59868000  0.33988000  1.0
  H  H13  1  0.53171000  0.09869000  0.16012000  1.0
  H  H14  1  0.03167000  0.40132000  0.66012000  1.0
  H  H15  1  0.46834000  0.90133000  0.83987000  1.0
  H  H16  1  0.33462000  0.72523000  0.13929000  1.0
  H  H17  1  0.16540000  0.22524000  0.36071000  1.0
  H  H18  1  0.66541000  0.27476000  0.86071000  1.0
  H  H19  1  0.83462000  0.77476000  0.63929000  1.0
  H  H20  1  0.20242000  0.79596000  0.08705000  1.0
  H  H21  1  0.29760000  0.29597000  0.41295000  1.0
  H  H22  1  0.79758000  0.20403000  0.91295000  1.0
  H  H23  1  0.70241000  0.70403000  0.58705000  1.0
  H  H24  1  0.48959000  0.83707000  0.12691000  1.0
  H  H25  1  0.01041000  0.33707000  0.37309000  1.0
  H  H26  1  0.51040000  0.16292000  0.87309000  1.0
  H  H27  1  0.98961000  0.66292000  0.62691000  1.0
  H  H28  1  0.07078000  0.57471000  0.03098000  1.0
  H  H29  1  0.42925000  0.07471000  0.46902000  1.0
  H  H30  1  0.92920000  0.42529000  0.96902000  1.0
  H  H31  1  0.57078000  0.92529000  0.53098000  1.0
  H  H32  1  0.97138000  0.71539000  0.95663000  1.0
  H  H33  1  0.52862000  0.21539000  0.54337000  1.0
  H  H34  1  0.02860000  0.28461000  0.04337000  1.0
  H  H35  1  0.47137000  0.78461000  0.45663000  1.0
  H  H36  1  0.37541000  0.86953000  0.01682000  1.0
  H  H37  1  0.12462000  0.36952000  0.48318000  1.0
  H  H38  1  0.62462000  0.13047000  0.98319000  1.0
  H  H39  1  0.87540000  0.63048000  0.51681000  1.0
  H  H40  1  0.52010000  0.83415000  0.95365000  1.0
  H  H41  1  0.97993000  0.33415000  0.54634000  1.0
  H  H42  1  0.47992000  0.16585000  0.04635000  1.0
  H  H43  1  0.02007000  0.66585000  0.45365000  1.0
  H  H44  1  0.86494000  0.93495000  0.91146000  1.0
  H  H45  1  0.63511000  0.43496000  0.58854000  1.0
  H  H46  1  0.13508000  0.06503000  0.08854000  1.0
  H  H47  1  0.36490000  0.56504000  0.41146000  1.0
  H  H48  1  0.77688000  0.94018000  0.08481000  1.0
  H  H49  1  0.72312000  0.44019000  0.41519000  1.0
  H  H50  1  0.22312000  0.05982000  0.91519000  1.0
  H  H51  1  0.27689000  0.55981000  0.58481000  1.0
  H  H52  1  0.22930000  0.41221000  0.09328000  1.0
  H  H53  1  0.27083000  0.91221000  0.40671000  1.0
  H  H54  1  0.77070000  0.58779000  0.90671000  1.0
  H  H55  1  0.72917000  0.08779000  0.59329000  1.0
  C  C56  1  0.65019000  0.43982000  0.23507000  1.0
  C  C57  1  0.84983000  0.93983000  0.26494000  1.0
  C  C58  1  0.34980000  0.56017000  0.76494000  1.0
  C  C59  1  0.15015000  0.06018000  0.73506000  1.0
  C  C60  1  0.66727000  0.41215000  0.28879000  1.0
  C  C61  1  0.83272000  0.91215000  0.21121000  1.0
  C  C62  1  0.33274000  0.58785000  0.71121000  1.0
  C  C63  1  0.16723000  0.08786000  0.78879000  1.0
  C  C64  1  0.87524000  0.55155000  0.31034000  1.0
  C  C65  1  0.62478000  0.05157000  0.18966000  1.0
  C  C66  1  0.12476000  0.44845000  0.68966000  1.0
  C  C67  1  0.37524000  0.94845000  0.81033000  1.0
  C  C68  1  0.85669000  0.58106000  0.25721000  1.0
  C  C69  1  0.64335000  0.08107000  0.24279000  1.0
  C  C70  1  0.14329000  0.41893000  0.74279000  1.0
  C  C71  1  0.35666000  0.91894000  0.75721000  1.0
  C  C72  1  0.95417000  0.67595000  0.23811000  1.0
  C  C73  1  0.54580000  0.17596000  0.26190000  1.0
  C  C74  1  0.04580000  0.32404000  0.76190000  1.0
  C  C75  1  0.45421000  0.82405000  0.73810000  1.0
  C  C76  1  0.39885000  0.77469000  0.10775000  1.0
  C  C77  1  0.10116000  0.27469000  0.39225000  1.0
  C  C78  1  0.60114000  0.22531000  0.89225000  1.0
  C  C79  1  0.89887000  0.72531000  0.60775000  1.0
  C  C80  1  0.60846000  0.73024000  0.07005000  1.0
  C  C81  1  0.89158000  0.23023000  0.42995000  1.0
  C  C82  1  0.39154000  0.26976000  0.92995000  1.0
  C  C83  1  0.10844000  0.76977000  0.57005000  1.0
  C  C84  1  0.92831000  0.63456000  0.03357000  1.0
  C  C85  1  0.57173000  0.13456000  0.46642000  1.0
  C  C86  1  0.07169000  0.36543000  0.96642000  1.0
  C  C87  1  0.42829000  0.86543000  0.53358000  1.0
  C  C88  1  0.88221000  0.70371000  0.99666000  1.0
  C  C89  1  0.61781000  0.20371000  0.50334000  1.0
  C  C90  1  0.11779000  0.29629000  0.00334000  1.0
  C  C91  1  0.38219000  0.79629000  0.49666000  1.0
  C  C92  1  0.57531000  0.84943000  0.99545000  1.0
  C  C93  1  0.92467000  0.34943000  0.50454000  1.0
  C  C94  1  0.42464000  0.15057000  0.00454000  1.0
  C  C95  1  0.07533000  0.65058000  0.49546000  1.0
  C  C96  1  0.79448000  0.92749000  0.99760000  1.0
  C  C97  1  0.70553000  0.42749000  0.50240000  1.0
  C  C98  1  0.20553000  0.07250000  0.00240000  1.0
  C  C99  1  0.29444000  0.57251000  0.49760000  1.0
  C  C100  1  0.92300000  0.96323000  0.95059000  1.0
  C  C101  1  0.57704000  0.46323000  0.54942000  1.0
  C  C102  1  0.07703000  0.03677000  0.04941000  1.0
  C  C103  1  0.42295000  0.53678000  0.45059000  1.0
  C  C104  1  0.87361000  0.96508000  0.04712000  1.0
  C  C105  1  0.62635000  0.46507000  0.45288000  1.0
  C  C106  1  0.12641000  0.03492000  0.95288000  1.0
  C  C107  1  0.37363000  0.53493000  0.54712000  1.0
  C  C108  1  0.35917000  0.46800000  0.11213000  1.0
  C  C109  1  0.14092000  0.96800000  0.38787000  1.0
  C  C110  1  0.64081000  0.53200000  0.88787000  1.0
  C  C111  1  0.85908000  0.03200000  0.61213000  1.0
  N  N112  1  0.78154000  0.46741000  0.32640000  1.0
  N  N113  1  0.71848000  0.96742000  0.17360000  1.0
  N  N114  1  0.21847000  0.53260000  0.67360000  1.0
  N  N115  1  0.28152000  0.03260000  0.82639000  1.0
  N  N116  1  0.74533000  0.52427000  0.21978000  1.0
  N  N117  1  0.75469000  0.02428000  0.28023000  1.0
  N  N118  1  0.25466000  0.47572000  0.78022000  1.0
  N  N119  1  0.24529000  0.97572000  0.71977000  1.0
  N  N120  1  0.75851000  0.65189000  0.07871000  1.0
  N  N121  1  0.74154000  0.15189000  0.42128000  1.0
  N  N122  1  0.24151000  0.34810000  0.92128000  1.0
  N  N123  1  0.25847000  0.84811000  0.57872000  1.0
  N  N124  1  0.67987000  0.76329000  0.01995000  1.0
  N  N125  1  0.82016000  0.26329000  0.48005000  1.0
  N  N126  1  0.32012000  0.23671000  0.98005000  1.0
  N  N127  1  0.17985000  0.73671000  0.51995000  1.0
  O  O128  1  0.06990000  0.73061000  0.27003000  1.0
  O  O129  1  0.43004000  0.23062000  0.22998000  1.0
  O  O130  1  0.93000000  0.26940000  0.72997000  1.0
  O  O131  1  0.56996000  0.76940000  0.77002000  1.0
  O  O132  1  0.90239000  0.69239000  0.18799000  1.0
  O  O133  1  0.59766000  0.19239000  0.31202000  1.0
  O  O134  1  0.09764000  0.30761000  0.81202000  1.0
  O  O135  1  0.40235000  0.80761000  0.68798000  1.0
  O  O136  1  0.23346000  0.53462000  0.13570000  1.0
  O  O137  1  0.26661000  0.03464000  0.36430000  1.0
  O  O138  1  0.76655000  0.46537000  0.86430000  1.0
  O  O139  1  0.73340000  0.96537000  0.63571000  1.0
  O  O140  1  0.63381000  0.45969000  0.10829000  1.0
  O  O141  1  0.86629000  0.95969000  0.39170000  1.0
  O  O142  1  0.36618000  0.54031000  0.89170000  1.0
  O  O143  1  0.13371000  0.04032000  0.60830000  1.0
