# generated using pymatgen
data_ZnH8C12(IN2)2
_symmetry_space_group_name_H-M   'P 1'
_cell_length_a   14.64590000
_cell_length_b   18.31050000
_cell_length_c   34.30110000
_cell_angle_alpha   93.28580000
_cell_angle_beta   102.30600000
_cell_angle_gamma   113.57300000
_symmetry_Int_Tables_number   1
_chemical_formula_structural   ZnH8C12(IN2)2
_chemical_formula_sum   'Zn12 H96 C144 I24 N48'
_cell_volume   8132.28038777
_cell_formula_units_Z   12
loop_
 _symmetry_equiv_pos_site_id
 _symmetry_equiv_pos_as_xyz
  1  'x, y, z'
loop_
 _atom_site_type_symbol
 _atom_site_label
 _atom_site_symmetry_multiplicity
 _atom_site_fract_x
 _atom_site_fract_y
 _atom_site_fract_z
 _atom_site_occupancy
  Zn  Zn0  1  0.14045000  0.17358000  0.94828000  1.0
  Zn  Zn1  1  0.03902000  0.27065000  0.57435000  1.0
  Zn  Zn2  1  0.44121000  0.43376000  0.76107000  1.0
  Zn  Zn3  1  0.48203000  0.67367000  0.44842000  1.0
  Zn  Zn4  1  0.30602000  0.77074000  0.07439000  1.0
  Zn  Zn5  1  0.25349000  0.93365000  0.26104000  1.0
  Zn  Zn6  1  0.51797000  0.32633000  0.55158000  1.0
  Zn  Zn7  1  0.69397000  0.22925000  0.92561000  1.0
  Zn  Zn8  1  0.74651000  0.06635000  0.73896000  1.0
  Zn  Zn9  1  0.85955000  0.82642000  0.05172000  1.0
  Zn  Zn10  1  0.96097000  0.72935000  0.42565000  1.0
  Zn  Zn11  1  0.55879000  0.56624000  0.23894000  1.0
  H  H12  1  0.16868000  0.20399000  0.86584000  1.0
  H  H13  1  0.09332000  0.25652000  0.80696000  1.0
  H  H14  1  0.90648000  0.30167000  0.87883000  1.0
  H  H15  1  0.99058000  0.24946000  0.93468000  1.0
  H  H16  1  0.87101000  0.30467000  0.60012000  1.0
  H  H17  1  0.82871000  0.33067000  0.66447000  1.0
  H  H18  1  0.12091000  0.33645000  0.72848000  1.0
  H  H19  1  0.15538000  0.31616000  0.66121000  1.0
  H  H20  1  0.58105000  0.43937000  0.71084000  1.0
  H  H21  1  0.73729000  0.41144000  0.71266000  1.0
  H  H22  1  0.73276000  0.35740000  0.83344000  1.0
  H  H23  1  0.57570000  0.38462000  0.82612000  1.0
  H  H24  1  0.84289000  0.15604000  0.51484000  1.0
  H  H25  1  0.69809000  0.16377000  0.46236000  1.0
  H  H26  1  0.84471000  0.42211000  0.49851000  1.0
  H  H27  1  0.98855000  0.40462000  0.54671000  1.0
  H  H28  1  0.22474000  0.07483000  0.30280000  1.0
  H  H29  1  0.33540000  0.19817000  0.35536000  1.0
  H  H30  1  0.59133000  0.13722000  0.35658000  1.0
  H  H31  1  0.47107000  0.01707000  0.30347000  1.0
  H  H32  1  0.42820000  0.54002000  0.38361000  1.0
  H  H33  1  0.46342000  0.41830000  0.37132000  1.0
  H  H34  1  0.64565000  0.47832000  0.49504000  1.0
  H  H35  1  0.60527000  0.59969000  0.50196000  1.0
  H  H36  1  0.40133000  0.70376000  0.36596000  1.0
  H  H37  1  0.46999000  0.75616000  0.30697000  1.0
  H  H38  1  0.77401000  0.80127000  0.37852000  1.0
  H  H39  1  0.69399000  0.74942000  0.43453000  1.0
  H  H40  1  0.53371000  0.80468000  0.10007000  1.0
  H  H41  1  0.66654000  0.83096000  0.16438000  1.0
  H  H42  1  0.44408000  0.83632000  0.22850000  1.0
  H  H43  1  0.32198000  0.81606000  0.16127000  1.0
  H  H44  1  0.06932000  0.93932000  0.21084000  1.0
  H  H45  1  0.88694000  0.91143000  0.21261000  1.0
  H  H46  1  0.95776000  0.85733000  0.33339000  1.0
  H  H47  1  0.13481000  0.88457000  0.32614000  1.0
  H  H48  1  0.32805000  0.65631000  0.01475000  1.0
  H  H49  1  0.42821000  0.66419000  0.96227000  1.0
  H  H50  1  0.57598000  0.92250000  0.99854000  1.0
  H  H51  1  0.46293000  0.90484000  0.04681000  1.0
  H  H52  1  0.65274000  0.57479000  0.80277000  1.0
  H  H53  1  0.71814000  0.69821000  0.85534000  1.0
  H  H54  1  0.40265000  0.63753000  0.85668000  1.0
  H  H55  1  0.34944000  0.51728000  0.80358000  1.0
  H  H56  1  0.99526000  0.04011000  0.88331000  1.0
  H  H57  1  0.82612000  0.91837000  0.87118000  1.0
  H  H58  1  0.82835000  0.97841000  0.99502000  1.0
  H  H59  1  0.99714000  0.09961000  0.00184000  1.0
  H  H60  1  0.59867000  0.29624000  0.63404000  1.0
  H  H61  1  0.53001000  0.24383000  0.69303000  1.0
  H  H62  1  0.22599000  0.19873000  0.62148000  1.0
  H  H63  1  0.30601000  0.25059000  0.56547000  1.0
  H  H64  1  0.46628000  0.19531000  0.89993000  1.0
  H  H65  1  0.33346000  0.16904000  0.83562000  1.0
  H  H66  1  0.55592000  0.16368000  0.77149000  1.0
  H  H67  1  0.67802000  0.18393000  0.83873000  1.0
  H  H68  1  0.93069000  0.06068000  0.78916000  1.0
  H  H69  1  0.11306000  0.08857000  0.78739000  1.0
  H  H70  1  0.04224000  0.14267000  0.66666667  1.0
  H  H71  1  0.86519000  0.11543000  0.67386000  1.0
  H  H72  1  0.67195000  0.34369000  0.98524000  1.0
  H  H73  1  0.57179000  0.33581000  0.03773000  1.0
  H  H74  1  0.42402000  0.07750000  0.00146000  1.0
  H  H75  1  0.53707000  0.09515000  0.95319000  1.0
  H  H76  1  0.34726000  0.42521000  0.19723000  1.0
  H  H77  1  0.28186000  0.30180000  0.14466000  1.0
  H  H78  1  0.59735000  0.36247000  0.14332000  1.0
  H  H79  1  0.65056000  0.48272000  0.19642000  1.0
  H  H80  1  0.00474000  0.95988000  0.11669000  1.0
  H  H81  1  0.17388000  0.08163000  0.12882000  1.0
  H  H82  1  0.17165000  0.02159000  0.00498000  1.0
  H  H83  1  0.00287000  0.90039000  0.99816000  1.0
  H  H84  1  0.83132000  0.79601000  0.13416000  1.0
  H  H85  1  0.90668000  0.74347000  0.19304000  1.0
  H  H86  1  0.09352000  0.69833000  0.12117000  1.0
  H  H87  1  0.00942000  0.75054000  0.06532000  1.0
  H  H88  1  0.12899000  0.69534000  0.39989000  1.0
  H  H89  1  0.17130000  0.66934000  0.33553000  1.0
  H  H90  1  0.87909000  0.66355000  0.27152000  1.0
  H  H91  1  0.84463000  0.68384000  0.33879000  1.0
  H  H92  1  0.41895000  0.56063000  0.28916000  1.0
  H  H93  1  0.26271000  0.58856000  0.28733000  1.0
  H  H94  1  0.26723000  0.64260000  0.16656000  1.0
  H  H95  1  0.42430000  0.61539000  0.17388000  1.0
  H  H96  1  0.15711000  0.84395000  0.48516000  1.0
  H  H97  1  0.30191000  0.83623000  0.53764000  1.0
  H  H98  1  0.15529000  0.57788000  0.50149000  1.0
  H  H99  1  0.01145000  0.59538000  0.45329000  1.0
  H  H100  1  0.77526000  0.92517000  0.69720000  1.0
  H  H101  1  0.66460000  0.80183000  0.64463000  1.0
  H  H102  1  0.40867000  0.86278000  0.64342000  1.0
  H  H103  1  0.52893000  0.98293000  0.69653000  1.0
  H  H104  1  0.57181000  0.45999000  0.61639000  1.0
  H  H105  1  0.53658000  0.58171000  0.62868000  1.0
  H  H106  1  0.35435000  0.52168000  0.50496000  1.0
  H  H107  1  0.39474000  0.40031000  0.49804000  1.0
  C  C108  1  0.11043000  0.22647000  0.86707000  1.0
  C  C109  1  0.06825000  0.25488000  0.83468000  1.0
  C  C110  1  0.99297000  0.28199000  0.83820000  1.0
  C  C111  1  0.96400000  0.28050000  0.87458000  1.0
  C  C112  1  0.01079000  0.25167000  0.90582000  1.0
  C  C113  1  0.92519000  0.31308000  0.62907000  1.0
  C  C114  1  0.90156000  0.32753000  0.66497000  1.0
  C  C115  1  0.97113000  0.33466000  0.70156000  1.0
  C  C116  1  0.06427000  0.33068000  0.70068000  1.0
  C  C117  1  0.08323000  0.31835000  0.66340000  1.0
  C  C118  1  0.61815000  0.42124000  0.73725000  1.0
  C  C119  1  0.70386000  0.40584000  0.73841000  1.0
  C  C120  1  0.74628000  0.38146000  0.77305000  1.0
  C  C121  1  0.70112000  0.37466000  0.80558000  1.0
  C  C122  1  0.61466000  0.39062000  0.80188000  1.0
  C  C123  1  0.94635000  0.31098000  0.80341000  1.0
  C  C124  1  0.94140000  0.34026000  0.73980000  1.0
  C  C125  1  0.83430000  0.36030000  0.77363000  1.0
  C  C126  1  0.84041000  0.21351000  0.50943000  1.0
  C  C127  1  0.76100000  0.21812000  0.48076000  1.0
  C  C128  1  0.76172000  0.29390000  0.47643000  1.0
  C  C129  1  0.84330000  0.36265000  0.50077000  1.0
  C  C130  1  0.92161000  0.35308000  0.52776000  1.0
  C  C131  1  0.30677000  0.09160000  0.31511000  1.0
  C  C132  1  0.36793000  0.15978000  0.34411000  1.0
  C  C133  1  0.47195000  0.17679000  0.35975000  1.0
  C  C134  1  0.51084000  0.12561000  0.34487000  1.0
  C  C135  1  0.44491000  0.05948000  0.31554000  1.0
  C  C136  1  0.47579000  0.52383000  0.40738000  1.0
  C  C137  1  0.49436000  0.45626000  0.40081000  1.0
  C  C138  1  0.55602000  0.43877000  0.43267000  1.0
  C  C139  1  0.59694000  0.49023000  0.46984000  1.0
  C  C140  1  0.57454000  0.55685000  0.47388000  1.0
  C  C141  1  0.67590000  0.30036000  0.44734000  1.0
  C  C142  1  0.53931000  0.24558000  0.39251000  1.0
  C  C143  1  0.57890000  0.36799000  0.42681000  1.0
  C  C144  1  0.48327000  0.72624000  0.36710000  1.0
  C  C145  1  0.52124000  0.75456000  0.33465000  1.0
  C  C146  1  0.62708000  0.78161000  0.33805000  1.0
  C  C147  1  0.69109000  0.78015000  0.37437000  1.0
  C  C148  1  0.64697000  0.75152000  0.40570000  1.0
  C  C149  1  0.51698000  0.81316000  0.12904000  1.0
  C  C150  1  0.59104000  0.82777000  0.16491000  1.0
  C  C151  1  0.56517000  0.83480000  0.20151000  1.0
  C  C152  1  0.46715000  0.83070000  0.20068000  1.0
  C  C153  1  0.39855000  0.81837000  0.16343000  1.0
  C  C154  1  0.04041000  0.92122000  0.23724000  1.0
  C  C155  1  0.94046000  0.90586000  0.23838000  1.0
  C  C156  1  0.90815000  0.88144000  0.27299000  1.0
  C  C157  1  0.97894000  0.87464000  0.30555000  1.0
  C  C158  1  0.07767000  0.89059000  0.30188000  1.0
  C  C159  1  0.66783000  0.81067000  0.30325000  1.0
  C  C160  1  0.63868000  0.84035000  0.23973000  1.0
  C  C161  1  0.79953000  0.86024000  0.27353000  1.0
  C  C162  1  0.38263000  0.71381000  0.00939000  1.0
  C  C163  1  0.43803000  0.71850000  0.98071000  1.0
  C  C164  1  0.50875000  0.79432000  0.97640000  1.0
  C  C165  1  0.52021000  0.86301000  0.00079000  1.0
  C  C166  1  0.45935000  0.85335000  0.02781000  1.0
  C  C167  1  0.59986000  0.59162000  0.81513000  1.0
  C  C168  1  0.63597000  0.65981000  0.84411000  1.0
  C  C169  1  0.56467000  0.67694000  0.85978000  1.0
  C  C170  1  0.45973000  0.62581000  0.84495000  1.0
  C  C171  1  0.43009000  0.55962000  0.81561000  1.0
  C  C172  1  0.95548000  0.02389000  0.90716000  1.0
  C  C173  1  0.86278000  0.95631000  0.90066000  1.0
  C  C174  1  0.81572000  0.93888000  0.93260000  1.0
  C  C175  1  0.86361000  0.99030000  0.96977000  1.0
  C  C176  1  0.95673000  0.05682000  0.97375000  1.0
  C  C177  1  0.57194000  0.80079000  0.94730000  1.0
  C  C178  1  0.59894000  0.74580000  0.89251000  1.0
  C  C179  1  0.71617000  0.86819000  0.92679000  1.0
  C  C180  1  0.51674000  0.27376000  0.63290000  1.0
  C  C181  1  0.47876000  0.24543000  0.66535000  1.0
  C  C182  1  0.37292000  0.21839000  0.66196000  1.0
  C  C183  1  0.30891000  0.21986000  0.62563000  1.0
  C  C184  1  0.35304000  0.24848000  0.59430000  1.0
  C  C185  1  0.48301000  0.18683000  0.87096000  1.0
  C  C186  1  0.40896000  0.17222000  0.83509000  1.0
  C  C187  1  0.43483000  0.16519000  0.79849000  1.0
  C  C188  1  0.53285000  0.16929000  0.79932000  1.0
  C  C189  1  0.60145000  0.18162000  0.83657000  1.0
  C  C190  1  0.95959000  0.07878000  0.76276000  1.0
  C  C191  1  0.05955000  0.09414000  0.76162000  1.0
  C  C192  1  0.09185000  0.11856000  0.72701000  1.0
  C  C193  1  0.02106000  0.12536000  0.69445000  1.0
  C  C194  1  0.92233000  0.10941000  0.69812000  1.0
  C  C195  1  0.33217000  0.18933000  0.69675000  1.0
  C  C196  1  0.36132000  0.15965000  0.76027000  1.0
  C  C197  1  0.20047000  0.13976000  0.72647000  1.0
  C  C198  1  0.61736000  0.28619000  0.99061000  1.0
  C  C199  1  0.56197000  0.28150000  0.01929000  1.0
  C  C200  1  0.49125000  0.20568000  0.02360000  1.0
  C  C201  1  0.47979000  0.13699000  0.99921000  1.0
  C  C202  1  0.54065000  0.14664000  0.97219000  1.0
  C  C203  1  0.40014000  0.40838000  0.18487000  1.0
  C  C204  1  0.36403000  0.34019000  0.15589000  1.0
  C  C205  1  0.43532000  0.32307000  0.14022000  1.0
  C  C206  1  0.54027000  0.37420000  0.15505000  1.0
  C  C207  1  0.56991000  0.44038000  0.18439000  1.0
  C  C208  1  0.04452000  0.97611000  0.09284000  1.0
  C  C209  1  0.13722000  0.04369000  0.09934000  1.0
  C  C210  1  0.18428000  0.06112000  0.06740000  1.0
  C  C211  1  0.13639000  0.00970000  0.03023000  1.0
  C  C212  1  0.04328000  0.94318000  0.02625000  1.0
  C  C213  1  0.42806000  0.19922000  0.05270000  1.0
  C  C214  1  0.40106000  0.25420000  0.10749000  1.0
  C  C215  1  0.28383000  0.13181000  0.07321000  1.0
  C  C216  1  0.88957000  0.77353000  0.13293000  1.0
  C  C217  1  0.93175000  0.74511000  0.16532000  1.0
  C  C218  1  0.00703000  0.71801000  0.16180000  1.0
  C  C219  1  0.03600000  0.71950000  0.12542000  1.0
  C  C220  1  0.98921000  0.74833000  0.09418000  1.0
  C  C221  1  0.07481000  0.68692000  0.37093000  1.0
  C  C222  1  0.09845000  0.67247000  0.33503000  1.0
  C  C223  1  0.02888000  0.66534000  0.29844000  1.0
  C  C224  1  0.93574000  0.66932000  0.29932000  1.0
  C  C225  1  0.91678000  0.68165000  0.33660000  1.0
  C  C226  1  0.38185000  0.57876000  0.26275000  1.0
  C  C227  1  0.29614000  0.59416000  0.26159000  1.0
  C  C228  1  0.25372000  0.61854000  0.22695000  1.0
  C  C229  1  0.29888000  0.62533000  0.19442000  1.0
  C  C230  1  0.38534000  0.60938000  0.19812000  1.0
  C  C231  1  0.05365000  0.68902000  0.19659000  1.0
  C  C232  1  0.05861000  0.65974000  0.26020000  1.0
  C  C233  1  0.16570000  0.63970000  0.22637000  1.0
  C  C234  1  0.15958000  0.78649000  0.49057000  1.0
  C  C235  1  0.23899000  0.78187000  0.51924000  1.0
  C  C236  1  0.23828000  0.70610000  0.52357000  1.0
  C  C237  1  0.15670000  0.63735000  0.49923000  1.0
  C  C238  1  0.07838000  0.64692000  0.47224000  1.0
  C  C239  1  0.69323000  0.90840000  0.68489000  1.0
  C  C240  1  0.63207000  0.84022000  0.65589000  1.0
  C  C241  1  0.52804000  0.82321000  0.64024000  1.0
  C  C242  1  0.48916000  0.87439000  0.65513000  1.0
  C  C243  1  0.55509000  0.94052000  0.68446000  1.0
  C  C244  1  0.52421000  0.47618000  0.59262000  1.0
  C  C245  1  0.50564000  0.54375000  0.59919000  1.0
  C  C246  1  0.44398000  0.56123000  0.56733000  1.0
  C  C247  1  0.40306000  0.50978000  0.53016000  1.0
  C  C248  1  0.42547000  0.44315000  0.52612000  1.0
  C  C249  1  0.32409000  0.69964000  0.55266000  1.0
  C  C250  1  0.46068000  0.75442000  0.60749000  1.0
  C  C251  1  0.42110000  0.63201000  0.57319000  1.0
  I  I252  1  0.24964000  0.11304000  0.92022000  1.0
  I  I253  1  0.19288000  0.26403000  0.01543000  1.0
  I  I254  1  0.00118000  0.12199000  0.57483000  1.0
  I  I255  1  0.20296000  0.38181000  0.56624000  1.0
  I  I256  1  0.38590000  0.45149000  0.68811000  1.0
  I  I257  1  0.31288000  0.33671000  0.79558000  1.0
  I  I258  1  0.28419000  0.61314000  0.42040000  1.0
  I  I259  1  0.58737000  0.76419000  0.51552000  1.0
  I  I260  1  0.19600000  0.62200000  0.07481000  1.0
  I  I261  1  0.24498000  0.88184000  0.06641000  1.0
  I  I262  1  0.25359000  0.95159000  0.18810000  1.0
  I  I263  1  0.31960000  0.83672000  0.29549000  1.0
  I  I264  1  0.71581000  0.38686000  0.57960000  1.0
  I  I265  1  0.41263000  0.23581000  0.48448000  1.0
  I  I266  1  0.80399000  0.37800000  0.92519000  1.0
  I  I267  1  0.75502000  0.11816000  0.93359000  1.0
  I  I268  1  0.74641000  0.04840000  0.81190000  1.0
  I  I269  1  0.68041000  0.16328000  0.70451000  1.0
  I  I270  1  0.75036000  0.88696000  0.07977000  1.0
  I  I271  1  0.80713000  0.73597000  0.98457000  1.0
  I  I272  1  0.99883000  0.87801000  0.42517000  1.0
  I  I273  1  0.79704000  0.61819000  0.43376000  1.0
  I  I274  1  0.61411000  0.54850000  0.31189000  1.0
  I  I275  1  0.68712000  0.66329000  0.20442000  1.0
  N  N276  1  0.08205000  0.22457000  0.90200000  1.0
  N  N277  1  0.01391000  0.30790000  0.62824000  1.0
  N  N278  1  0.57357000  0.41325000  0.76828000  1.0
  N  N279  1  0.98354000  0.31260000  0.77068000  1.0
  N  N280  1  0.86974000  0.36818000  0.74039000  1.0
  N  N281  1  0.86947000  0.33205000  0.80600000  1.0
  N  N282  1  0.91958000  0.27990000  0.53233000  1.0
  N  N283  1  0.34421000  0.04202000  0.30119000  1.0
  N  N284  1  0.51466000  0.57299000  0.44331000  1.0
  N  N285  1  0.61802000  0.23785000  0.41734000  1.0
  N  N286  1  0.51617000  0.30905000  0.39557000  1.0
  N  N287  1  0.66054000  0.36711000  0.45315000  1.0
  N  N288  1  0.54484000  0.72445000  0.40200000  1.0
  N  N289  1  0.42222000  0.80790000  0.12825000  1.0
  N  N290  1  0.10790000  0.91319000  0.26828000  1.0
  N  N291  1  0.59962000  0.81248000  0.27058000  1.0
  N  N292  1  0.73885000  0.86838000  0.24034000  1.0
  N  N293  1  0.76833000  0.83168000  0.30582000  1.0
  N  N294  1  0.39274000  0.78012000  0.03234000  1.0
  N  N295  1  0.49892000  0.54211000  0.80122000  1.0
  N  N296  1  0.00194000  0.07296000  0.94310000  1.0
  N  N297  1  0.53727000  0.73824000  0.91731000  1.0
  N  N298  1  0.68872000  0.80914000  0.89559000  1.0
  N  N299  1  0.65990000  0.86748000  0.95310000  1.0
  N  N300  1  0.45517000  0.27555000  0.59800000  1.0
  N  N301  1  0.57778000  0.19209000  0.87175000  1.0
  N  N302  1  0.89210000  0.08681000  0.73172000  1.0
  N  N303  1  0.40038000  0.18752000  0.72942000  1.0
  N  N304  1  0.26115000  0.13162000  0.75966000  1.0
  N  N305  1  0.23167000  0.16832000  0.69418000  1.0
  N  N306  1  0.60726000  0.21988000  0.96766000  1.0
  N  N307  1  0.50108000  0.45790000  0.19878000  1.0
  N  N308  1  0.99807000  0.92704000  0.05690000  1.0
  N  N309  1  0.46273000  0.26176000  0.08269000  1.0
  N  N310  1  0.31128000  0.19086000  0.10441000  1.0
  N  N311  1  0.34011000  0.13252000  0.04690000  1.0
  N  N312  1  0.91796000  0.77543000  0.09801000  1.0
  N  N313  1  0.98610000  0.69210000  0.37176000  1.0
  N  N314  1  0.42643000  0.58675000  0.23172000  1.0
  N  N315  1  0.01646000  0.68740000  0.22932000  1.0
  N  N316  1  0.13026000  0.63182000  0.25961000  1.0
  N  N317  1  0.13052000  0.66795000  0.19400000  1.0
  N  N318  1  0.08041000  0.72010000  0.46767000  1.0
  N  N319  1  0.65579000  0.95798000  0.69881000  1.0
  N  N320  1  0.48534000  0.42701000  0.55669000  1.0
  N  N321  1  0.38197000  0.76215000  0.58266000  1.0
  N  N322  1  0.48383000  0.69095000  0.60443000  1.0
  N  N323  1  0.33946000  0.63289000  0.54685000  1.0
