# generated using pymatgen
data_ZnH16C16N6O5
_symmetry_space_group_name_H-M   'P 1'
_cell_length_a   9.04306000
_cell_length_b   10.38980000
_cell_length_c   12.66500000
_cell_angle_alpha   112.25900000
_cell_angle_beta   93.89440000
_cell_angle_gamma   113.18800000
_symmetry_Int_Tables_number   1
_chemical_formula_structural   ZnH16C16N6O5
_chemical_formula_sum   'Zn2 H32 C32 N12 O10'
_cell_volume   978.80239107
_cell_formula_units_Z   2
loop_
 _symmetry_equiv_pos_site_id
 _symmetry_equiv_pos_as_xyz
  1  'x, y, z'
loop_
 _atom_site_type_symbol
 _atom_site_label
 _atom_site_symmetry_multiplicity
 _atom_site_fract_x
 _atom_site_fract_y
 _atom_site_fract_z
 _atom_site_occupancy
  Zn  Zn0  1  0.12201000  0.08702000  0.17364000  1.0
  Zn  Zn1  1  0.87799000  0.91298000  0.82636000  1.0
  H  H2  1  0.08828000  0.59053000  0.21258000  1.0
  H  H3  1  0.91172000  0.40947000  0.78742000  1.0
  H  H4  1  0.28606000  0.33558000  0.96039000  1.0
  H  H5  1  0.71394000  0.66442000  0.03961000  1.0
  H  H6  1  0.30508000  0.76478000  0.97414000  1.0
  H  H7  1  0.69493000  0.23523000  0.02586000  1.0
  H  H8  1  0.31498000  0.64478000  0.78369000  1.0
  H  H9  1  0.68502000  0.35523000  0.21632000  1.0
  H  H10  1  0.47282000  0.58725000  0.74213000  1.0
  H  H11  1  0.52719000  0.41275000  0.25787000  1.0
  H  H12  1  0.51876000  0.74556000  0.88388000  1.0
  H  H13  1  0.48124000  0.25444000  0.11612000  1.0
  H  H14  1  0.89154000  0.84076000  0.25941000  1.0
  H  H15  1  0.10846000  0.15924000  0.74059000  1.0
  H  H16  1  0.79454000  0.15990000  0.17750000  1.0
  H  H17  1  0.20546000  0.84010000  0.82250000  1.0
  H  H18  1  0.62984000  0.71678000  0.31077000  1.0
  H  H19  1  0.37015000  0.28322000  0.68924000  1.0
  H  H20  1  0.46361000  0.68055000  0.20407000  1.0
  H  H21  1  0.53639000  0.31945000  0.79593000  1.0
  H  H22  1  0.39135000  0.86507000  0.34754000  1.0
  H  H23  1  0.60865000  0.13493000  0.65246000  1.0
  H  H24  1  0.58340000  0.94837000  0.45307000  1.0
  H  H25  1  0.41660000  0.05163000  0.54693000  1.0
  H  H26  1  0.32550000  0.76819000  0.49072000  1.0
  H  H27  1  0.67449000  0.23180000  0.50927000  1.0
  H  H28  1  0.31813000  0.60790000  0.36734000  1.0
  H  H29  1  0.68187000  0.39210000  0.63266000  1.0
  H  H30  1  0.53516000  0.88041000  0.68575000  1.0
  H  H31  1  0.46483000  0.11959000  0.31425000  1.0
  H  H32  1  0.80921000  0.63298000  0.56182000  1.0
  H  H33  1  0.19079000  0.36702000  0.43819000  1.0
  C  C34  1  0.19432000  0.69017000  0.09801000  1.0
  C  C35  1  0.80568000  0.30983000  0.90199000  1.0
  C  C36  1  0.14796000  0.57761000  0.14010000  1.0
  C  C37  1  0.85203000  0.42239000  0.85989000  1.0
  C  C38  1  0.18041000  0.44911000  0.08994000  1.0
  C  C39  1  0.81959000  0.55088000  0.91006000  1.0
  C  C40  1  0.25727000  0.43336000  0.99713000  1.0
  C  C41  1  0.74273000  0.56664000  0.00287000  1.0
  C  C42  1  0.30042000  0.54476000  0.95306000  1.0
  C  C43  1  0.69958000  0.45524000  0.04694000  1.0
  C  C44  1  0.27049000  0.67429000  0.00418000  1.0
  C  C45  1  0.72950000  0.32572000  0.99582000  1.0
  C  C46  1  0.16477000  0.83021000  0.15586000  1.0
  C  C47  1  0.83523000  0.16979000  0.84414000  1.0
  C  C48  1  0.13971000  0.33410000  0.14085000  1.0
  C  C49  1  0.86029000  0.66590000  0.85915000  1.0
  C  C50  1  0.42232000  0.63197000  0.81597000  1.0
  C  C51  1  0.57768000  0.36804000  0.18403000  1.0
  C  C52  1  0.83040000  0.90607000  0.24439000  1.0
  C  C53  1  0.16960000  0.09393000  0.75561000  1.0
  C  C54  1  0.77775000  0.06723000  0.20267000  1.0
  C  C55  1  0.22226000  0.93277000  0.79734000  1.0
  C  C56  1  0.56063000  0.77084000  0.28506000  1.0
  C  C57  1  0.43937000  0.22916000  0.71494000  1.0
  C  C58  1  0.48514000  0.83897000  0.38232000  1.0
  C  C59  1  0.51485000  0.16102000  0.61768000  1.0
  C  C60  1  0.40077000  0.72717000  0.43531000  1.0
  C  C61  1  0.59923000  0.27283000  0.56469000  1.0
  C  C62  1  0.58219000  0.80446000  0.62992000  1.0
  C  C63  1  0.41781000  0.19554000  0.37008000  1.0
  C  C64  1  0.71935000  0.67813000  0.56317000  1.0
  C  C65  1  0.28065000  0.32187000  0.43683000  1.0
  N  N66  1  0.89656000  0.01853000  0.20962000  1.0
  N  N67  1  0.10344000  0.98147000  0.79038000  1.0
  N  N68  1  0.67900000  0.88888000  0.25715000  1.0
  N  N69  1  0.32100000  0.11112000  0.74285000  1.0
  N  N70  1  0.64255000  0.99116000  0.23123000  1.0
  N  N71  1  0.35745000  0.00884000  0.76877000  1.0
  N  N72  1  0.52330000  0.72132000  0.51228000  1.0
  N  N73  1  0.47670000  0.27868000  0.48772000  1.0
  N  N74  1  0.61031000  0.64043000  0.46773000  1.0
  N  N75  1  0.38969000  0.35957000  0.53227000  1.0
  N  N76  1  0.70632000  0.77871000  0.66480000  1.0
  N  N77  1  0.29368000  0.22129000  0.33520000  1.0
  O  O78  1  0.12727000  0.85840000  0.25314000  1.0
  O  O79  1  0.87273000  0.14160000  0.74686000  1.0
  O  O80  1  0.18237000  0.91582000  0.10031000  1.0
  O  O81  1  0.81763000  0.08418000  0.89969000  1.0
  O  O82  1  0.09569000  0.36343000  0.23584000  1.0
  O  O83  1  0.90431000  0.63657000  0.76416000  1.0
  O  O84  1  0.15732000  0.20966000  0.08335000  1.0
  O  O85  1  0.84267000  0.79033000  0.91665000  1.0
  O  O86  1  0.37169000  0.51760000  0.86029000  1.0
  O  O87  1  0.62832000  0.48241000  0.13971000  1.0
