# generated using pymatgen
data_Al2H8C16S2NClO10
_symmetry_space_group_name_H-M   'P 1'
_cell_length_a   6.71622000
_cell_length_b   11.12540000
_cell_length_c   12.31263759
_cell_angle_alpha   113.80845684
_cell_angle_beta   93.92443114
_cell_angle_gamma   107.16700000
_symmetry_Int_Tables_number   1
_chemical_formula_structural   Al2H8C16S2NClO10
_chemical_formula_sum   'Al2 H8 C16 S2 N1 Cl1 O10'
_cell_volume   785.47927882
_cell_formula_units_Z   1
loop_
 _symmetry_equiv_pos_site_id
 _symmetry_equiv_pos_as_xyz
  1  'x, y, z'
loop_
 _atom_site_type_symbol
 _atom_site_label
 _atom_site_symmetry_multiplicity
 _atom_site_fract_x
 _atom_site_fract_y
 _atom_site_fract_z
 _atom_site_occupancy
  Al  Al0  1  0.50222000  0.00136000  0.50281000  1.0
  Al  Al1  1  0.00462000  0.00221000  0.49994000  1.0
  H  H2  1  0.22166000  0.92346000  0.59993000  1.0
  H  H3  1  0.76635000  0.06076000  0.38829000  1.0
  H  H4  1  0.17050000  0.41832000  0.56294000  1.0
  H  H5  1  0.70780000  0.33788000  0.41798000  1.0
  H  H6  1  0.30321000  0.65716000  0.57004000  1.0
  H  H7  1  0.63160000  0.34376000  0.82386000  1.0
  H  H8  1  0.51563000  0.60650000  0.15080000  1.0
  H  H9  1  0.49412000  0.75744000  0.26211000  1.0
  C  C10  1  0.86293000  0.17183000  0.71048000  1.0
  C  C11  1  0.64669000  0.77878000  0.50984000  1.0
  C  C12  1  0.14540000  0.83266000  0.28942000  1.0
  C  C13  1  0.36231000  0.22292000  0.48965000  1.0
  C  C14  1  0.57837000  0.63299000  0.49907000  1.0
  C  C15  1  0.43333000  0.36447000  0.49171000  1.0
  C  C16  1  0.68969000  0.53986000  0.45308000  1.0
  C  C17  1  0.31654000  0.45345000  0.53325000  1.0
  C  C18  1  0.61911000  0.40809000  0.45188000  1.0
  C  C19  1  0.39084000  0.58603000  0.53749000  1.0
  C  C20  1  0.22327000  0.62941000  0.13299000  1.0
  C  C21  1  0.79513000  0.37619000  0.87099000  1.0
  C  C22  1  0.08969000  0.70768000  0.17573000  1.0
  C  C23  1  0.92502000  0.29963000  0.82637000  1.0
  C  C24  1  0.90380000  0.49660000  0.98108000  1.0
  C  C25  1  0.11317000  0.50885000  0.02021000  1.0
  S  S26  1  0.83892000  0.63453000  0.07864000  1.0
  S  S27  1  0.17926000  0.37356000  0.91849000  1.0
  N  N28  1  0.42178000  0.65971000  0.19219000  1.0
  Cl  Cl29  1  0.90864000  0.57663000  0.38993000  1.0
  O  O30  1  0.66322000  0.11515000  0.66380000  1.0
  O  O31  1  0.84359000  0.84115000  0.51933000  1.0
  O  O32  1  0.00084000  0.87958000  0.33295000  1.0
  O  O33  1  0.50496000  0.16942000  0.49191000  1.0
  O  O34  1  0.34555000  0.88960000  0.34079000  1.0
  O  O35  1  0.16540000  0.16720000  0.48607000  1.0
  O  O36  1  0.00900000  0.12941000  0.66589000  1.0
  O  O37  1  0.50109000  0.83092000  0.51056000  1.0
  O  O38  1  0.25053000  0.98422000  0.56005000  1.0
  O  O39  1  0.75239000  0.01557000  0.44156000  1.0
