# generated using pymatgen
data_MnH10(C7N4)2
_symmetry_space_group_name_H-M   'P 1'
_cell_length_a   7.61370000
_cell_length_b   8.66333000
_cell_length_c   12.60050000
_cell_angle_alpha   90.00500000
_cell_angle_beta   90.00140000
_cell_angle_gamma   115.59300000
_symmetry_Int_Tables_number   1
_chemical_formula_structural   MnH10(C7N4)2
_chemical_formula_sum   'Mn2 H20 C28 N16'
_cell_volume   749.58296247
_cell_formula_units_Z   2
loop_
 _symmetry_equiv_pos_site_id
 _symmetry_equiv_pos_as_xyz
  1  'x, y, z'
loop_
 _atom_site_type_symbol
 _atom_site_label
 _atom_site_symmetry_multiplicity
 _atom_site_fract_x
 _atom_site_fract_y
 _atom_site_fract_z
 _atom_site_occupancy
  Mn  Mn0  1  0.00001000  0.00001000  0.00000000  1.0
  Mn  Mn1  1  0.49999000  0.49999000  0.50000000  1.0
  H  H2  1  0.95283000  0.68803000  0.13757000  1.0
  H  H3  1  0.45280000  0.18799000  0.36241000  1.0
  H  H4  1  0.04717000  0.31198000  0.86243000  1.0
  H  H5  1  0.54719000  0.81199000  0.63758000  1.0
  H  H6  1  0.77589000  0.36901000  0.14286000  1.0
  H  H7  1  0.27584000  0.86897000  0.35711000  1.0
  H  H8  1  0.22411000  0.63101000  0.85714000  1.0
  H  H9  1  0.72415000  0.13102000  0.64288000  1.0
  H  H10  1  0.56909000  0.21551000  0.98646000  1.0
  H  H11  1  0.06908000  0.71552000  0.51352000  1.0
  H  H12  1  0.43092000  0.78450000  0.01354000  1.0
  H  H13  1  0.93092000  0.28446000  0.48648000  1.0
  H  H14  1  0.55974000  0.38940000  0.82817000  1.0
  H  H15  1  0.05975000  0.88940000  0.67183000  1.0
  H  H16  1  0.44028000  0.61062000  0.17183000  1.0
  H  H17  1  0.94024000  0.11058000  0.32817000  1.0
  H  H18  1  0.74959000  0.70657000  0.83526000  1.0
  H  H19  1  0.24961000  0.20657000  0.66473000  1.0
  H  H20  1  0.25043000  0.29344000  0.16474000  1.0
  H  H21  1  0.75037000  0.79341000  0.33526000  1.0
  C  C22  1  0.64332000  0.99490000  0.84920000  1.0
  C  C23  1  0.14334000  0.49491000  0.65079000  1.0
  C  C24  1  0.35669000  0.00512000  0.15081000  1.0
  C  C25  1  0.85666000  0.50509000  0.34920000  1.0
  C  C26  1  0.34053000  0.99500000  0.84478000  1.0
  C  C27  1  0.84053000  0.49502000  0.65521000  1.0
  C  C28  1  0.65946000  0.00502000  0.15522000  1.0
  C  C29  1  0.15946000  0.50496000  0.34478000  1.0
  C  C30  1  0.86335000  0.61624000  0.07099000  1.0
  C  C31  1  0.36331000  0.11621000  0.42901000  1.0
  C  C32  1  0.13666000  0.38377000  0.92901000  1.0
  C  C33  1  0.63668000  0.88378000  0.57099000  1.0
  C  C34  1  0.76458000  0.43867000  0.07338000  1.0
  C  C35  1  0.26456000  0.93864000  0.42660000  1.0
  C  C36  1  0.23543000  0.56135000  0.92662000  1.0
  C  C37  1  0.73544000  0.06135000  0.57340000  1.0
  C  C38  1  0.65196000  0.35406000  0.98599000  1.0
  C  C39  1  0.15194000  0.85405000  0.51401000  1.0
  C  C40  1  0.34805000  0.64595000  0.01401000  1.0
  C  C41  1  0.84805000  0.14593000  0.48599000  1.0
  C  C42  1  0.64549000  0.44952000  0.89837000  1.0
  C  C43  1  0.14549000  0.94952000  0.60162000  1.0
  C  C44  1  0.35453000  0.55049000  0.10163000  1.0
  C  C45  1  0.85450000  0.05047000  0.39838000  1.0
  C  C46  1  0.75062000  0.62686000  0.90203000  1.0
  C  C47  1  0.25062000  0.12686000  0.59798000  1.0
  C  C48  1  0.24939000  0.37315000  0.09797000  1.0
  C  C49  1  0.74937000  0.87312000  0.40202000  1.0
  N  N50  1  0.79628000  0.01313000  0.88209000  1.0
  N  N51  1  0.29634000  0.51315000  0.61790000  1.0
  N  N52  1  0.20373000  0.98689000  0.11791000  1.0
  N  N53  1  0.70366000  0.48683000  0.38209000  1.0
  N  N54  1  0.48110000  0.96929000  0.80354000  1.0
  N  N55  1  0.98111000  0.46930000  0.69649000  1.0
  N  N56  1  0.51891000  0.03073000  0.19646000  1.0
  N  N57  1  0.01888000  0.53069000  0.30352000  1.0
  N  N58  1  0.20394000  0.01422000  0.87404000  1.0
  N  N59  1  0.70392000  0.51424000  0.62595000  1.0
  N  N60  1  0.79607000  0.98580000  0.12596000  1.0
  N  N61  1  0.29607000  0.48575000  0.37405000  1.0
  N  N62  1  0.85610000  0.70959000  0.98710000  1.0
  N  N63  1  0.35610000  0.20957000  0.51288000  1.0
  N  N64  1  0.14391000  0.29043000  0.01290000  1.0
  N  N65  1  0.64388000  0.79041000  0.48712000  1.0
