# generated using pymatgen
data_KCuH10C16(SN)6
_symmetry_space_group_name_H-M   'P 1'
_cell_length_a   7.86329000
_cell_length_b   8.45862000
_cell_length_c   8.84067000
_cell_angle_alpha   79.01250000
_cell_angle_beta   77.21300000
_cell_angle_gamma   74.36470000
_symmetry_Int_Tables_number   1
_chemical_formula_structural   KCuH10C16(SN)6
_chemical_formula_sum   'K1 Cu1 H10 C16 S6 N6'
_cell_volume   546.81949851
_cell_formula_units_Z   1
loop_
 _symmetry_equiv_pos_site_id
 _symmetry_equiv_pos_as_xyz
  1  'x, y, z'
loop_
 _atom_site_type_symbol
 _atom_site_label
 _atom_site_symmetry_multiplicity
 _atom_site_fract_x
 _atom_site_fract_y
 _atom_site_fract_z
 _atom_site_occupancy
  K  K0  1  0.49999000  0.00000000  0.99999000  1.0
  Cu  Cu1  1  0.50000000  0.00000000  0.50000000  1.0
  H  H2  1  0.09151000  0.87993000  0.99461000  1.0
  H  H3  1  0.90849000  0.12006000  0.00540000  1.0
  H  H4  1  0.52067000  0.41370000  0.72376000  1.0
  H  H5  1  0.47933000  0.58630000  0.27624000  1.0
  H  H6  1  0.20279000  0.61903000  0.47614000  1.0
  H  H7  1  0.79723000  0.38097000  0.52386000  1.0
  H  H8  1  0.97646000  0.71765000  0.45078000  1.0
  H  H9  1  0.02355000  0.28236000  0.54921000  1.0
  H  H10  1  0.07729000  0.78637000  0.58187000  1.0
  H  H11  1  0.92271000  0.21364000  0.41812000  1.0
  C  C12  1  0.29358000  0.81165000  0.79258000  1.0
  C  C13  1  0.70642000  0.18835000  0.20742000  1.0
  C  C14  1  0.41698000  0.67902000  0.71575000  1.0
  C  C15  1  0.58302000  0.32098000  0.28426000  1.0
  C  C16  1  0.18317000  0.78001000  0.93513000  1.0
  C  C17  1  0.81682000  0.21998000  0.06488000  1.0
  C  C18  1  0.42893000  0.51475000  0.78186000  1.0
  C  C19  1  0.57108000  0.48525000  0.21814000  1.0
  C  C20  1  0.31844000  0.48045000  0.92743000  1.0
  C  C21  1  0.68156000  0.51955000  0.07257000  1.0
  C  C22  1  0.19560000  0.61393000  0.00513000  1.0
  C  C23  1  0.80440000  0.38607000  0.99487000  1.0
  C  C24  1  0.16473000  0.85569000  0.34432000  1.0
  C  C25  1  0.83528000  0.14430000  0.65568000  1.0
  C  C26  1  0.10172000  0.73761000  0.47050000  1.0
  C  C27  1  0.89827000  0.26239000  0.52950000  1.0
  S  S28  1  0.28618000  0.01718000  0.70532000  1.0
  S  S29  1  0.71381000  0.98282000  0.29468000  1.0
  S  S30  1  0.55152000  0.72874000  0.53571000  1.0
  S  S31  1  0.44848000  0.27126000  0.46429000  1.0
  S  S32  1  0.16785000  0.36054000  0.16972000  1.0
  S  S33  1  0.83215000  0.63945000  0.83028000  1.0
  N  N34  1  0.31408000  0.32889000  0.01054000  1.0
  N  N35  1  0.68592000  0.67110000  0.98946000  1.0
  N  N36  1  0.10217000  0.56046000  0.14518000  1.0
  N  N37  1  0.89782000  0.43953000  0.85482000  1.0
  N  N38  1  0.21535000  0.95166000  0.24307000  1.0
  N  N39  1  0.78466000  0.04834000  0.75692000  1.0
