# generated using pymatgen
data_H6PbC2N8O3
_symmetry_space_group_name_H-M   'P 1'
_cell_length_a   6.71565000
_cell_length_b   9.35126000
_cell_length_c   14.09600000
_cell_angle_alpha   90.00030000
_cell_angle_beta   90.00080000
_cell_angle_gamma   75.36000000
_symmetry_Int_Tables_number   1
_chemical_formula_structural   H6PbC2N8O3
_chemical_formula_sum   'H24 Pb4 C8 N32 O12'
_cell_volume   856.48516375
_cell_formula_units_Z   4
loop_
 _symmetry_equiv_pos_site_id
 _symmetry_equiv_pos_as_xyz
  1  'x, y, z'
loop_
 _atom_site_type_symbol
 _atom_site_label
 _atom_site_symmetry_multiplicity
 _atom_site_fract_x
 _atom_site_fract_y
 _atom_site_fract_z
 _atom_site_occupancy
  H  H0  1  0.71555000  0.02327000  0.64516000  1.0
  H  H1  1  0.78444000  0.47674000  0.14516000  1.0
  H  H2  1  0.28446000  0.97674000  0.35485000  1.0
  H  H3  1  0.21557000  0.52326000  0.85485000  1.0
  H  H4  1  0.75293000  0.91006000  0.73134000  1.0
  H  H5  1  0.74706000  0.58993000  0.23135000  1.0
  H  H6  1  0.24706000  0.08994000  0.26866000  1.0
  H  H7  1  0.25294000  0.41005000  0.76866000  1.0
  H  H8  1  0.77763000  0.98098000  0.94741000  1.0
  H  H9  1  0.72238000  0.51902000  0.44742000  1.0
  H  H10  1  0.22238000  0.01902000  0.05258000  1.0
  H  H11  1  0.27761000  0.48099000  0.55257000  1.0
  H  H12  1  0.95747000  0.83190000  0.94186000  1.0
  H  H13  1  0.54253000  0.66811000  0.44187000  1.0
  H  H14  1  0.04255000  0.16810000  0.05814000  1.0
  H  H15  1  0.45746000  0.33189000  0.55813000  1.0
  H  H16  1  0.49203000  0.13504000  0.76613000  1.0
  H  H17  1  0.00795000  0.36497000  0.26613000  1.0
  H  H18  1  0.50795000  0.86498000  0.23386000  1.0
  H  H19  1  0.99205000  0.63502000  0.73387000  1.0
  H  H20  1  0.41275000  0.21401000  0.86451000  1.0
  H  H21  1  0.08725000  0.28600000  0.36451000  1.0
  H  H22  1  0.58724000  0.78600000  0.13549000  1.0
  H  H23  1  0.91276000  0.71400000  0.63549000  1.0
  Pb  Pb24  1  0.06518000  0.06802000  0.79519000  1.0
  Pb  Pb25  1  0.43482000  0.43197000  0.29520000  1.0
  Pb  Pb26  1  0.93481000  0.93198000  0.20481000  1.0
  Pb  Pb27  1  0.56518000  0.56802000  0.70481000  1.0
  C  C28  1  0.21638000  0.02916000  0.55499000  1.0
  C  C29  1  0.28364000  0.47083000  0.05499000  1.0
  C  C30  1  0.78364000  0.97084000  0.44501000  1.0
  C  C31  1  0.71637000  0.52914000  0.94501000  1.0
  C  C32  1  0.08156000  0.17651000  0.55692000  1.0
  C  C33  1  0.41844000  0.32351000  0.05692000  1.0
  C  C34  1  0.91844000  0.82351000  0.44308000  1.0
  C  C35  1  0.58154000  0.67650000  0.94308000  1.0
  N  N36  1  0.26797000  0.94792000  0.63446000  1.0
  N  N37  1  0.23201000  0.55208000  0.13447000  1.0
  N  N38  1  0.73203000  0.05209000  0.36554000  1.0
  N  N39  1  0.76797000  0.44791000  0.86554000  1.0
  N  N40  1  0.38859000  0.81902000  0.60483000  1.0
  N  N41  1  0.11137000  0.68098000  0.10483000  1.0
  N  N42  1  0.61139000  0.18099000  0.39517000  1.0
  N  N43  1  0.88863000  0.31901000  0.89517000  1.0
  N  N44  1  0.40897000  0.82169000  0.51175000  1.0
  N  N45  1  0.09103000  0.67832000  0.01174000  1.0
  N  N46  1  0.59105000  0.17833000  0.48825000  1.0
  N  N47  1  0.90898000  0.32167000  0.98827000  1.0
  N  N48  1  0.30167000  0.95236000  0.47808000  1.0
  N  N49  1  0.19836000  0.54765000  0.97807000  1.0
  N  N50  1  0.69835000  0.04765000  0.52192000  1.0
  N  N51  1  0.80166000  0.45236000  0.02193000  1.0
  N  N52  1  0.02078000  0.26763000  0.48276000  1.0
  N  N53  1  0.47925000  0.23237000  0.98275000  1.0
  N  N54  1  0.97925000  0.73237000  0.51724000  1.0
  N  N55  1  0.52076000  0.76762000  0.01723000  1.0
  N  N56  1  0.88806000  0.38629000  0.51945000  1.0
  N  N57  1  0.61196000  0.11370000  0.01945000  1.0
  N  N58  1  0.11196000  0.61371000  0.48055000  1.0
  N  N59  1  0.38805000  0.88629000  0.98054000  1.0
  N  N60  1  0.87009000  0.36812000  0.61155000  1.0
  N  N61  1  0.62991000  0.13188000  0.11155000  1.0
  N  N62  1  0.12988000  0.63188000  0.38844000  1.0
  N  N63  1  0.37009000  0.86811000  0.88844000  1.0
  N  N64  1  0.99005000  0.23732000  0.63753000  1.0
  N  N65  1  0.50995000  0.26269000  0.13752000  1.0
  N  N66  1  0.00991000  0.76268000  0.36247000  1.0
  N  N67  1  0.49006000  0.73729000  0.86247000  1.0
  O  O68  1  0.72302000  0.01680000  0.71645000  1.0
  O  O69  1  0.77697000  0.48319000  0.21645000  1.0
  O  O70  1  0.27698000  0.98320000  0.28355000  1.0
  O  O71  1  0.22303000  0.51680000  0.78355000  1.0
  O  O72  1  0.87874000  0.91696000  0.90344000  1.0
  O  O73  1  0.62125000  0.58304000  0.40344000  1.0
  O  O74  1  0.12127000  0.08304000  0.09657000  1.0
  O  O75  1  0.37873000  0.41695000  0.59656000  1.0
  O  O76  1  0.37003000  0.20184000  0.79710000  1.0
  O  O77  1  0.12996000  0.29817000  0.29710000  1.0
  O  O78  1  0.62996000  0.79818000  0.20290000  1.0
  O  O79  1  0.87003000  0.70183000  0.70290000  1.0
