# generated using pymatgen
data_Zn2H54C63N6O11
_symmetry_space_group_name_H-M   'P 1'
_cell_length_a   10.97960000
_cell_length_b   16.09920000
_cell_length_c   16.90270000
_cell_angle_alpha   88.21410000
_cell_angle_beta   88.68380000
_cell_angle_gamma   87.74330000
_symmetry_Int_Tables_number   1
_chemical_formula_structural   Zn2H54C63N6O11
_chemical_formula_sum   'Zn2 H54 C63 N6 O11'
_cell_volume   2983.29361774
_cell_formula_units_Z   1
loop_
 _symmetry_equiv_pos_site_id
 _symmetry_equiv_pos_as_xyz
  1  'x, y, z'
loop_
 _atom_site_type_symbol
 _atom_site_label
 _atom_site_symmetry_multiplicity
 _atom_site_fract_x
 _atom_site_fract_y
 _atom_site_fract_z
 _atom_site_occupancy
  Zn  Zn0  1  0.49422000  0.59439000  0.49902000  1.0
  Zn  Zn1  1  0.50971000  0.41037000  0.48916000  1.0
  H  H2  1  0.65018000  0.39360000  0.09246000  1.0
  H  H3  1  0.37599000  0.27620000  0.56918000  1.0
  H  H4  1  0.51312000  0.60098000  0.73529000  1.0
  H  H5  1  0.56877000  0.60766000  0.87845000  1.0
  H  H6  1  0.52878000  0.63857000  0.25164000  1.0
  H  H7  1  0.23411000  0.46933000  0.64110000  1.0
  H  H8  1  0.31331000  0.37057000  0.74380000  1.0
  H  H9  1  0.24591000  0.22425000  0.75048000  1.0
  H  H10  1  0.09796000  0.17863000  0.65201000  1.0
  H  H11  1  0.01843000  0.27761000  0.54963000  1.0
  H  H12  1  0.77449000  0.73673000  0.45663000  1.0
  H  H13  1  0.66532000  0.34648000  0.87804000  1.0
  H  H14  1  0.73931000  0.79993000  0.36988000  1.0
  H  H15  1  0.75618000  0.61008000  0.37353000  1.0
  H  H16  1  0.74546000  0.67558000  0.28816000  1.0
  H  H17  1  0.95316000  0.73353000  0.31914000  1.0
  H  H18  1  0.96253000  0.62473000  0.30578000  1.0
  H  H19  1  0.96125000  0.66414000  0.40291000  1.0
  H  H20  1  0.44498000  0.77824000  0.73920000  1.0
  H  H21  1  0.32851000  0.70936000  0.84839000  1.0
  H  H22  1  0.16303000  0.61425000  0.81794000  1.0
  H  H23  1  0.11580000  0.58905000  0.67713000  1.0
  H  H24  1  0.62078000  0.37813000  0.24032000  1.0
  H  H25  1  0.23456000  0.65547000  0.56828000  1.0
  H  H26  1  0.90976000  0.28897000  0.40543000  1.0
  H  H27  1  0.04091000  0.35015000  0.41312000  1.0
  H  H28  1  0.79332000  0.41334000  0.34892000  1.0
  H  H29  1  0.92354000  0.47350000  0.35554000  1.0
  H  H30  1  0.03940000  0.37966000  0.26010000  1.0
  H  H31  1  0.90403000  0.42298000  0.21700000  1.0
  H  H32  1  0.90912000  0.31848000  0.25323000  1.0
  H  H33  1  0.90963000  0.57035000  0.69687000  1.0
  H  H34  1  0.76297000  0.58454000  0.65413000  1.0
  H  H35  1  0.61006000  0.88927000  0.42918000  1.0
  H  H36  1  0.95788000  0.71551000  0.64234000  1.0
  H  H37  1  0.80544000  0.72684000  0.61025000  1.0
  H  H38  1  0.73058000  0.70717000  0.75361000  1.0
  H  H39  1  0.82531000  0.79387000  0.74145000  1.0
  H  H40  1  0.88425000  0.69906000  0.78412000  1.0
  H  H41  1  0.66811000  0.73757000  0.17607000  1.0
  H  H42  1  0.62995000  0.88030000  0.12049000  1.0
  H  H43  1  0.48663000  0.90491000  0.00898000  1.0
  H  H44  1  0.38257000  0.78542000  0.95425000  1.0
  H  H45  1  0.42283000  0.64231000  0.00901000  1.0
  H  H46  1  0.67822000  0.12385000  0.40302000  1.0
  H  H47  1  0.50359000  0.25225000  0.80968000  1.0
  H  H48  1  0.54905000  0.11267000  0.75492000  1.0
  H  H49  1  0.69908000  0.09633000  0.64310000  1.0
  H  H50  1  0.80085000  0.22159000  0.58553000  1.0
  H  H51  1  0.75200000  0.36021000  0.63796000  1.0
  H  H52  1  0.66251000  0.28172000  0.40599000  1.0
  H  H53  1  0.37828000  0.11935000  0.57260000  1.0
  H  H54  1  0.37729000  0.88482000  0.63742000  1.0
  H  H55  1  0.08530000  0.54769000  0.45173000  1.0
  C  C56  1  0.54862000  0.49774000  0.34167000  1.0
  C  C57  1  0.55486000  0.47088000  0.72720000  1.0
  C  C58  1  0.60217000  0.39760000  0.76567000  1.0
  C  C59  1  0.72937000  0.51823000  0.52298000  1.0
  C  C60  1  0.63127000  0.40202000  0.84572000  1.0
  C  C61  1  0.44076000  0.23961000  0.53337000  1.0
  C  C62  1  0.44280000  0.15343000  0.53561000  1.0
  C  C63  1  0.53022000  0.11103000  0.48862000  1.0
  C  C64  1  0.61087000  0.15629000  0.44036000  1.0
  C  C65  1  0.60279000  0.24252000  0.44199000  1.0
  C  C66  1  0.55679000  0.85545000  0.47355000  1.0
  C  C67  1  0.60854000  0.43829000  0.20966000  1.0
  C  C68  1  0.54474000  0.76979000  0.47077000  1.0
  C  C69  1  0.49340000  0.89733000  0.53364000  1.0
  C  C70  1  0.41776000  0.76622000  0.58350000  1.0
  C  C71  1  0.50588000  0.47336000  0.64488000  1.0
  C  C72  1  0.42619000  0.85241000  0.59010000  1.0
  C  C73  1  0.27003000  0.50278000  0.48045000  1.0
  C  C74  1  0.07068000  0.44347000  0.52903000  1.0
  C  C75  1  0.13510000  0.49927000  0.48581000  1.0
  C  C76  1  0.93627000  0.44600000  0.51991000  1.0
  C  C77  1  0.86201000  0.51171000  0.54130000  1.0
  C  C78  1  0.62432000  0.44665000  0.12849000  1.0
  C  C79  1  0.57300000  0.50788000  0.25412000  1.0
  C  C80  1  0.12157000  0.38079000  0.58696000  1.0
  C  C81  1  0.20439000  0.40550000  0.64310000  1.0
  C  C82  1  0.24853000  0.34979000  0.70140000  1.0
  C  C83  1  0.21113000  0.26782000  0.70491000  1.0
  C  C84  1  0.12878000  0.24230000  0.64959000  1.0
  C  C85  1  0.08385000  0.29813000  0.59151000  1.0
  C  C86  1  0.72949000  0.73822000  0.39901000  1.0
  C  C87  1  0.78373000  0.66998000  0.34774000  1.0
  C  C88  1  0.92275000  0.67347000  0.34362000  1.0
  C  C89  1  0.60327000  0.52436000  0.08942000  1.0
  C  C90  1  0.34742000  0.72151000  0.64625000  1.0
  C  C91  1  0.37182000  0.73723000  0.72570000  1.0
  C  C92  1  0.30627000  0.69851000  0.78709000  1.0
  C  C93  1  0.21414000  0.64481000  0.76996000  1.0
  C  C94  1  0.18813000  0.63030000  0.69120000  1.0
  C  C95  1  0.25438000  0.66804000  0.62948000  1.0
  C  C96  1  0.94036000  0.35260000  0.41216000  1.0
  C  C97  1  0.89359000  0.41022000  0.34563000  1.0
  C  C98  1  0.93923000  0.38135000  0.26459000  1.0
  C  C99  1  0.85805000  0.60361000  0.64933000  1.0
  C  C100  1  0.57044000  0.59583000  0.13351000  1.0
  C  C101  1  0.86394000  0.69714000  0.65595000  1.0
  C  C102  1  0.82370000  0.72587000  0.73822000  1.0
  C  C103  1  0.54830000  0.67977000  0.09654000  1.0
  C  C104  1  0.60507000  0.74807000  0.12745000  1.0
  C  C105  1  0.58384000  0.82841000  0.09600000  1.0
  C  C106  1  0.50405000  0.84216000  0.03341000  1.0
  C  C107  1  0.44624000  0.77485000  0.00251000  1.0
  C  C108  1  0.46835000  0.69443000  0.03333000  1.0
  C  C109  1  0.62472000  0.31584000  0.72806000  1.0
  C  C110  1  0.56879000  0.24520000  0.76039000  1.0
  C  C111  1  0.55701000  0.58566000  0.21597000  1.0
  C  C112  1  0.59446000  0.16677000  0.72963000  1.0
  C  C113  1  0.67832000  0.15769000  0.66680000  1.0
  C  C114  1  0.73517000  0.22767000  0.63464000  1.0
  C  C115  1  0.70828000  0.30618000  0.66457000  1.0
  C  C116  1  0.57764000  0.54989000  0.84659000  1.0
  C  C117  1  0.54752000  0.54599000  0.76791000  1.0
  C  C118  1  0.61599000  0.47605000  0.88697000  1.0
  N  N119  1  0.60687000  0.53438000  0.00636000  1.0
  N  N120  1  0.63138000  0.46804000  0.96942000  1.0
  N  N121  1  0.51939000  0.28286000  0.48750000  1.0
  N  N122  1  0.54095000  0.02349000  0.48434000  1.0
  N  N123  1  0.48849000  0.98502000  0.54095000  1.0
  N  N124  1  0.47494000  0.72571000  0.52287000  1.0
  O  O125  1  0.52569000  0.56325000  0.38000000  1.0
  O  O126  1  0.88983000  0.37654000  0.48842000  1.0
  O  O127  1  0.91182000  0.57964000  0.57386000  1.0
  O  O128  1  0.55300000  0.42336000  0.37033000  1.0
  O  O129  1  0.67982000  0.59123000  0.51825000  1.0
  O  O130  1  0.67646000  0.45079000  0.51333000  1.0
  O  O131  1  0.48362000  0.54553000  0.61382000  1.0
  O  O132  1  0.48849000  0.40504000  0.61231000  1.0
  O  O133  1  0.31324000  0.57532000  0.47913000  1.0
  O  O134  1  0.33056000  0.43412000  0.47611000  1.0
  O  O135  1  0.60063000  0.72371000  0.41442000  1.0
