# generated using pymatgen
data_Zn2H21RhC36(NO2)4
_symmetry_space_group_name_H-M   'P 1'
_cell_length_a   13.96770000
_cell_length_b   15.15110000
_cell_length_c   15.29300000
_cell_angle_alpha   85.37970000
_cell_angle_beta   86.19310000
_cell_angle_gamma   86.74510000
_symmetry_Int_Tables_number   1
_chemical_formula_structural   Zn2H21RhC36(NO2)4
_chemical_formula_sum   'Zn4 H42 Rh2 C72 N8 O16'
_cell_volume   3214.45521926
_cell_formula_units_Z   2
loop_
 _symmetry_equiv_pos_site_id
 _symmetry_equiv_pos_as_xyz
  1  'x, y, z'
loop_
 _atom_site_type_symbol
 _atom_site_label
 _atom_site_symmetry_multiplicity
 _atom_site_fract_x
 _atom_site_fract_y
 _atom_site_fract_z
 _atom_site_occupancy
  Zn  Zn0  1  0.89510000  0.60220000  0.83888000  1.0
  Zn  Zn1  1  0.69137000  0.61581000  0.84825000  1.0
  Zn  Zn2  1  0.10490000  0.39781000  0.16113000  1.0
  Zn  Zn3  1  0.30863000  0.38418000  0.15175000  1.0
  H  H4  1  0.20925000  0.63601000  0.98204000  1.0
  H  H5  1  0.06025000  0.59072000  0.70805000  1.0
  H  H6  1  0.23857000  0.59991000  0.70332000  1.0
  H  H7  1  0.03330000  0.62090000  0.97528000  1.0
  H  H8  1  0.63080000  0.61460000  0.29441000  1.0
  H  H9  1  0.63034000  0.61497000  0.13113000  1.0
  H  H10  1  0.93888000  0.60877000  0.12080000  1.0
  H  H11  1  0.65121000  0.65002000  0.57672000  1.0
  H  H12  1  0.64216000  0.65592000  0.41544000  1.0
  H  H13  1  0.94208000  0.57309000  0.38741000  1.0
  H  H14  1  0.95034000  0.56895000  0.55107000  1.0
  H  H15  1  0.64392000  0.32010000  0.87643000  1.0
  H  H16  1  0.65065000  0.91217000  0.86179000  1.0
  H  H17  1  0.94449000  0.34210000  0.80101000  1.0
  H  H18  1  0.96490000  0.17958000  0.78897000  1.0
  H  H19  1  0.95244000  0.86974000  0.79394000  1.0
  H  H20  1  0.96806000  0.03498000  0.79068000  1.0
  H  H21  1  0.54655000  0.67891000  0.71940000  1.0
  H  H22  1  0.53073000  0.57107000  0.97641000  1.0
  H  H23  1  0.35220000  0.56304000  0.97924000  1.0
  H  H24  1  0.36773000  0.68206000  0.71177000  1.0
  H  H25  1  0.79074000  0.36397000  0.01796000  1.0
  H  H26  1  0.93973000  0.40927000  0.29196000  1.0
  H  H27  1  0.76141000  0.40008000  0.29668000  1.0
  H  H28  1  0.96670000  0.37906000  0.02473000  1.0
  H  H29  1  0.36921000  0.38540000  0.70559000  1.0
  H  H30  1  0.36966000  0.38504000  0.86886000  1.0
  H  H31  1  0.06112000  0.39124000  0.87919000  1.0
  H  H32  1  0.34880000  0.35000000  0.42327000  1.0
  H  H33  1  0.35784000  0.34410000  0.58455000  1.0
  H  H34  1  0.05793000  0.42692000  0.61259000  1.0
  H  H35  1  0.04966000  0.43107000  0.44892000  1.0
  H  H36  1  0.35609000  0.67990000  0.12360000  1.0
  H  H37  1  0.34935000  0.08782000  0.13821000  1.0
  H  H38  1  0.05552000  0.65790000  0.19901000  1.0
  H  H39  1  0.03511000  0.82042000  0.21102000  1.0
  H  H40  1  0.04756000  0.13025000  0.20605000  1.0
  H  H41  1  0.03196000  0.96500000  0.20931000  1.0
  H  H42  1  0.45344000  0.32112000  0.28061000  1.0
  H  H43  1  0.46926000  0.42893000  0.02359000  1.0
  H  H44  1  0.64779000  0.43695000  0.02076000  1.0
  H  H45  1  0.63226000  0.31796000  0.28823000  1.0
  Rh  Rh46  1  0.62406000  0.11207000  0.87189000  1.0
  Rh  Rh47  1  0.37594000  0.88794000  0.12810000  1.0
  C  C48  1  0.23953000  0.61849000  0.84295000  1.0
  C  C49  1  0.18007000  0.62455000  0.91995000  1.0
  C  C50  1  0.79359000  0.33881000  0.84194000  1.0
  C  C51  1  0.09714000  0.60063000  0.76680000  1.0
  C  C52  1  0.78463000  0.61259000  0.11335000  1.0
  C  C53  1  0.80103000  0.60895000  0.57404000  1.0
  C  C54  1  0.19601000  0.60699000  0.76489000  1.0
  C  C55  1  0.08186000  0.61724000  0.91680000  1.0
  C  C56  1  0.78742000  0.61046000  0.01571000  1.0
  C  C57  1  0.78581000  0.43677000  0.85062000  1.0
  C  C58  1  0.69821000  0.61488000  0.25438000  1.0
  C  C59  1  0.79039000  0.78167000  0.83188000  1.0
  C  C60  1  0.69738000  0.61453000  0.16379000  1.0
  C  C61  1  0.86931000  0.61149000  0.15789000  1.0
  C  C62  1  0.80478000  0.60773000  0.67196000  1.0
  C  C63  1  0.34452000  0.62201000  0.84488000  1.0
  C  C64  1  0.78671000  0.61405000  0.29365000  1.0
  C  C65  1  0.79157000  0.61291000  0.39006000  1.0
  C  C66  1  0.71448000  0.63273000  0.53482000  1.0
  C  C67  1  0.80045000  0.87982000  0.82778000  1.0
  C  C68  1  0.70985000  0.63501000  0.44426000  1.0
  C  C69  1  0.87852000  0.58920000  0.42961000  1.0
  C  C70  1  0.88306000  0.58734000  0.52041000  1.0
  C  C71  1  0.71320000  0.28693000  0.85863000  1.0
  C  C72  1  0.72159000  0.93775000  0.84576000  1.0
  C  C73  1  0.88414000  0.30001000  0.81649000  1.0
  C  C74  1  0.72281000  0.19481000  0.85214000  1.0
  C  C75  1  0.81558000  0.15650000  0.82771000  1.0
  C  C76  1  0.81826000  0.06134000  0.82477000  1.0
  C  C77  1  0.89471000  0.20927000  0.80922000  1.0
  C  C78  1  0.89074000  0.91484000  0.80752000  1.0
  C  C79  1  0.89885000  0.00578000  0.80595000  1.0
  C  C80  1  0.49985000  0.65482000  0.77520000  1.0
  C  C81  1  0.49091000  0.59377000  0.91918000  1.0
  C  C82  1  0.39167000  0.59108000  0.92056000  1.0
  C  C83  1  0.40077000  0.65515000  0.77142000  1.0
  C  C84  1  0.76046000  0.38150000  0.15705000  1.0
  C  C85  1  0.81993000  0.37543000  0.08005000  1.0
  C  C86  1  0.20642000  0.66120000  0.15807000  1.0
  C  C87  1  0.90285000  0.39935000  0.23321000  1.0
  C  C88  1  0.21537000  0.38743000  0.88664000  1.0
  C  C89  1  0.19897000  0.39106000  0.42596000  1.0
  C  C90  1  0.80398000  0.39299000  0.23511000  1.0
  C  C91  1  0.91814000  0.38273000  0.08320000  1.0
  C  C92  1  0.21257000  0.38954000  0.98429000  1.0
  C  C93  1  0.21420000  0.56323000  0.14939000  1.0
  C  C94  1  0.30179000  0.38513000  0.74562000  1.0
  C  C95  1  0.20962000  0.21832000  0.16812000  1.0
  C  C96  1  0.30262000  0.38548000  0.83621000  1.0
  C  C97  1  0.13070000  0.38852000  0.84210000  1.0
  C  C98  1  0.19521000  0.39227000  0.32804000  1.0
  C  C99  1  0.65546000  0.37799000  0.15512000  1.0
  C  C100  1  0.21329000  0.38595000  0.70634000  1.0
  C  C101  1  0.20843000  0.38709000  0.60993000  1.0
  C  C102  1  0.28552000  0.36729000  0.46518000  1.0
  C  C103  1  0.19956000  0.12017000  0.17221000  1.0
  C  C104  1  0.29016000  0.36501000  0.55573000  1.0
  C  C105  1  0.12149000  0.41080000  0.57039000  1.0
  C  C106  1  0.11694000  0.41267000  0.47959000  1.0
  C  C107  1  0.28681000  0.71306000  0.14139000  1.0
  C  C108  1  0.27842000  0.06224000  0.15424000  1.0
  C  C109  1  0.11586000  0.69999000  0.18351000  1.0
  C  C110  1  0.27720000  0.80519000  0.14787000  1.0
  C  C111  1  0.18443000  0.84350000  0.17229000  1.0
  C  C112  1  0.18175000  0.93866000  0.17523000  1.0
  C  C113  1  0.10530000  0.79073000  0.19078000  1.0
  C  C114  1  0.10927000  0.08516000  0.19247000  1.0
  C  C115  1  0.10115000  0.99421000  0.19404000  1.0
  C  C116  1  0.50014000  0.34519000  0.22479000  1.0
  C  C117  1  0.50908000  0.40623000  0.08082000  1.0
  C  C118  1  0.60832000  0.40893000  0.07944000  1.0
  C  C119  1  0.59922000  0.34485000  0.22858000  1.0
  N  N120  1  0.04106000  0.60524000  0.84155000  1.0
  N  N121  1  0.54427000  0.62413000  0.84776000  1.0
  N  N122  1  0.87107000  0.61238000  0.24495000  1.0
  N  N123  1  0.72918000  0.02631000  0.84489000  1.0
  N  N124  1  0.95894000  0.39474000  0.15846000  1.0
  N  N125  1  0.45572000  0.37588000  0.15223000  1.0
  N  N126  1  0.12893000  0.38762000  0.75504000  1.0
  N  N127  1  0.27083000  0.97368000  0.15511000  1.0
  O  O128  1  0.86883000  0.61603000  0.97407000  1.0
  O  O129  1  0.72513000  0.62349000  0.71542000  1.0
  O  O130  1  0.70731000  0.60288000  0.98202000  1.0
  O  O131  1  0.70310000  0.47692000  0.85043000  1.0
  O  O132  1  0.88597000  0.59144000  0.70446000  1.0
  O  O133  1  0.86490000  0.47296000  0.85871000  1.0
  O  O134  1  0.70737000  0.75193000  0.84974000  1.0
  O  O135  1  0.86805000  0.73559000  0.81732000  1.0
  O  O136  1  0.13116000  0.38398000  0.02593000  1.0
  O  O137  1  0.27487000  0.37650000  0.28458000  1.0
  O  O138  1  0.29268000  0.39712000  0.01799000  1.0
  O  O139  1  0.29691000  0.52308000  0.14957000  1.0
  O  O140  1  0.11402000  0.40856000  0.29554000  1.0
  O  O141  1  0.13510000  0.52704000  0.14131000  1.0
  O  O142  1  0.29265000  0.24806000  0.15026000  1.0
  O  O143  1  0.13196000  0.26441000  0.18267000  1.0
