# generated using pymatgen
data_NiBH31C21(N3O2)2
_symmetry_space_group_name_H-M   'P 1'
_cell_length_a   8.21506000
_cell_length_b   16.04980000
_cell_length_c   19.30400000
_cell_angle_alpha   98.56150000
_cell_angle_beta   90.11560000
_cell_angle_gamma   90.50180000
_symmetry_Int_Tables_number   1
_chemical_formula_structural   NiBH31C21(N3O2)2
_chemical_formula_sum   'Ni4 B4 H124 C84 N24 O16'
_cell_volume   2516.76056695
_cell_formula_units_Z   4
loop_
 _symmetry_equiv_pos_site_id
 _symmetry_equiv_pos_as_xyz
  1  'x, y, z'
loop_
 _atom_site_type_symbol
 _atom_site_label
 _atom_site_symmetry_multiplicity
 _atom_site_fract_x
 _atom_site_fract_y
 _atom_site_fract_z
 _atom_site_occupancy
  Ni  Ni0  1  0.16387000  0.25522000  0.79402000  1.0
  Ni  Ni1  1  0.65930000  0.75406000  0.71050000  1.0
  Ni  Ni2  1  0.83627000  0.74486000  0.20600000  1.0
  Ni  Ni3  1  0.34050000  0.24592000  0.28952000  1.0
  B  B4  1  0.03430000  0.14359000  0.89589000  1.0
  B  B5  1  0.53372000  0.86162000  0.60639000  1.0
  B  B6  1  0.96571000  0.85641000  0.10409000  1.0
  B  B7  1  0.46638000  0.13843000  0.39362000  1.0
  H  H8  1  0.14584000  0.54126000  0.36683000  1.0
  H  H9  1  0.61350000  0.48409000  0.15124000  1.0
  H  H10  1  0.85431000  0.45869000  0.63313000  1.0
  H  H11  1  0.38704000  0.51580000  0.84879000  1.0
  H  H12  1  0.07224000  0.31364000  0.41977000  1.0
  H  H13  1  0.54259000  0.69475000  0.07170000  1.0
  H  H14  1  0.92686000  0.68645000  0.58033000  1.0
  H  H15  1  0.45677000  0.30501000  0.92833000  1.0
  H  H16  1  0.31561000  0.38462000  0.48775000  1.0
  H  H17  1  0.81101000  0.64076000  0.01654000  1.0
  H  H18  1  0.68433000  0.61502000  0.51206000  1.0
  H  H19  1  0.18877000  0.35941000  0.98360000  1.0
  H  H20  1  0.18230000  0.46025000  0.53201000  1.0
  H  H21  1  0.70384000  0.55260000  0.97204000  1.0
  H  H22  1  0.81837000  0.53965000  0.46793000  1.0
  H  H23  1  0.29644000  0.44743000  0.02804000  1.0
  H  H24  1  0.15375000  0.26957000  0.53330000  1.0
  H  H25  1  0.62947000  0.73726000  0.96091000  1.0
  H  H26  1  0.84554000  0.73040000  0.46668000  1.0
  H  H27  1  0.37016000  0.26269000  0.03913000  1.0
  H  H28  1  0.02708000  0.34716000  0.57933000  1.0
  H  H29  1  0.52534000  0.64896000  0.91509000  1.0
  H  H30  1  0.97307000  0.65308000  0.42082000  1.0
  H  H31  1  0.47445000  0.35091000  0.08500000  1.0
  H  H32  1  0.94775000  0.39444000  0.46203000  1.0
  H  H33  1  0.44919000  0.59869000  0.03270000  1.0
  H  H34  1  0.05216000  0.60596000  0.53820000  1.0
  H  H35  1  0.55078000  0.40091000  0.96728000  1.0
  H  H36  1  0.98323000  0.09875000  0.93570000  1.0
  H  H37  1  0.48699000  0.90263000  0.56313000  1.0
  H  H38  1  0.01673000  0.90121000  0.06423000  1.0
  H  H39  1  0.51321000  0.09745000  0.43688000  1.0
  H  H40  1  0.90550000  0.21281000  0.64582000  1.0
  H  H41  1  0.38805000  0.79856000  0.85300000  1.0
  H  H42  1  0.09465000  0.78758000  0.35427000  1.0
  H  H43  1  0.61121000  0.20155000  0.14706000  1.0
  H  H44  1  0.88616000  0.10801000  0.60023000  1.0
  H  H45  1  0.35517000  0.90236000  0.89794000  1.0
  H  H46  1  0.11346000  0.89244000  0.39979000  1.0
  H  H47  1  0.64544000  0.09784000  0.10216000  1.0
  H  H48  1  0.08157000  0.15250000  0.62331000  1.0
  H  H49  1  0.55616000  0.86504000  0.88008000  1.0
  H  H50  1  0.91823000  0.84768000  0.37669000  1.0
  H  H51  1  0.44395000  0.13456000  0.11974000  1.0
  H  H52  1  0.80048000  0.99552000  0.68723000  1.0
  H  H53  1  0.28684000  0.01732000  0.80743000  1.0
  H  H54  1  0.19913000  0.00478000  0.31271000  1.0
  H  H55  1  0.71309000  0.98266000  0.19259000  1.0
  H  H56  1  0.92611000  0.96489000  0.87650000  1.0
  H  H57  1  0.43151000  0.03893000  0.61770000  1.0
  H  H58  1  0.07428000  0.03484000  0.12312000  1.0
  H  H59  1  0.56821000  0.96094000  0.38221000  1.0
  H  H60  1  0.80943000  0.91606000  0.80381000  1.0
  H  H61  1  0.31937000  0.09406000  0.68849000  1.0
  H  H62  1  0.18974000  0.08416000  0.19602000  1.0
  H  H63  1  0.68086000  0.90598000  0.31151000  1.0
  H  H64  1  0.72128000  0.99542000  0.86542000  1.0
  H  H65  1  0.22296000  0.01401000  0.62906000  1.0
  H  H66  1  0.27922000  0.00481000  0.13482000  1.0
  H  H67  1  0.77675000  0.98607000  0.37108000  1.0
  H  H68  1  0.02999000  0.43163000  0.82025000  1.0
  H  H69  1  0.57961000  0.56960000  0.67750000  1.0
  H  H70  1  0.97014000  0.56837000  0.17978000  1.0
  H  H71  1  0.41974000  0.43047000  0.32258000  1.0
  H  H72  1  0.02484000  0.49604000  0.90450000  1.0
  H  H73  1  0.50344000  0.50474000  0.60038000  1.0
  H  H74  1  0.97541000  0.50396000  0.09554000  1.0
  H  H75  1  0.49687000  0.49535000  0.39952000  1.0
  H  H76  1  0.84174000  0.46734000  0.85834000  1.0
  H  H77  1  0.36856000  0.54858000  0.66765000  1.0
  H  H78  1  0.15845000  0.53273000  0.14172000  1.0
  H  H79  1  0.63095000  0.45130000  0.33199000  1.0
  H  H80  1  0.80128000  0.40327000  0.00082000  1.0
  H  H81  1  0.31033000  0.59438000  0.50803000  1.0
  H  H82  1  0.19867000  0.59671000  0.99918000  1.0
  H  H83  1  0.68970000  0.40574000  0.49182000  1.0
  H  H84  1  0.83010000  0.15646000  0.01284000  1.0
  H  H85  1  0.30392000  0.83916000  0.49346000  1.0
  H  H86  1  0.17037000  0.84353000  0.98724000  1.0
  H  H87  1  0.69545000  0.16088000  0.50656000  1.0
  H  H88  1  0.68681000  0.23807000  0.03559000  1.0
  H  H89  1  0.20003000  0.74444000  0.45929000  1.0
  H  H90  1  0.31293000  0.76166000  0.96417000  1.0
  H  H91  1  0.80099000  0.25532000  0.54015000  1.0
  H  H92  1  0.87856000  0.24277000  0.07814000  1.0
  H  H93  1  0.39937000  0.76455000  0.43014000  1.0
  H  H94  1  0.12087000  0.75744000  0.92192000  1.0
  H  H95  1  0.60183000  0.23609000  0.56999000  1.0
  H  H96  1  0.53078000  0.24238000  0.77648000  1.0
  H  H97  1  0.02998000  0.74361000  0.71711000  1.0
  H  H98  1  0.46926000  0.75764000  0.22356000  1.0
  H  H99  1  0.96965000  0.25648000  0.28315000  1.0
  H  H100  1  0.65494000  0.15372000  0.78292000  1.0
  H  H101  1  0.13841000  0.84142000  0.72790000  1.0
  H  H102  1  0.34516000  0.84634000  0.21711000  1.0
  H  H103  1  0.86203000  0.15841000  0.27206000  1.0
  H  H104  1  0.67875000  0.24568000  0.84502000  1.0
  H  H105  1  0.18412000  0.76297000  0.65638000  1.0
  H  H106  1  0.32120000  0.75435000  0.15504000  1.0
  H  H107  1  0.81545000  0.23656000  0.34369000  1.0
  H  H108  1  0.59940000  0.10482000  0.93324000  1.0
  H  H109  1  0.10254000  0.89288000  0.57099000  1.0
  H  H110  1  0.40060000  0.89510000  0.06673000  1.0
  H  H111  1  0.89763000  0.10712000  0.42919000  1.0
  H  H112  1  0.19089000  0.00909000  0.97382000  1.0
  H  H113  1  0.71139000  0.99967000  0.53254000  1.0
  H  H114  1  0.80903000  0.99083000  0.02610000  1.0
  H  H115  1  0.28915000  0.00049000  0.46761000  1.0
  H  H116  1  0.21263000  0.10137000  0.03567000  1.0
  H  H117  1  0.70647000  0.90556000  0.47212000  1.0
  H  H118  1  0.78752000  0.89849000  0.96431000  1.0
  H  H119  1  0.29376000  0.09464000  0.52801000  1.0
  H  H120  1  0.38106000  0.03365000  0.01670000  1.0
  H  H121  1  0.89007000  0.96447000  0.48537000  1.0
  H  H122  1  0.61895000  0.96616000  0.98316000  1.0
  H  H123  1  0.11033000  0.03555000  0.51478000  1.0
  H  H124  1  0.28363000  0.41638000  0.63961000  1.0
  H  H125  1  0.79723000  0.59713000  0.86113000  1.0
  H  H126  1  0.71759000  0.58329000  0.36015000  1.0
  H  H127  1  0.20259000  0.40283000  0.13895000  1.0
  H  H128  1  0.39252000  0.32518000  0.60365000  1.0
  H  H129  1  0.88658000  0.69408000  0.89937000  1.0
  H  H130  1  0.60753000  0.67411000  0.39605000  1.0
  H  H131  1  0.11311000  0.30594000  0.10067000  1.0
  C  C132  1  0.95492000  0.14891000  0.64075000  1.0
  C  C133  1  0.43151000  0.86411000  0.85926000  1.0
  C  C134  1  0.04489000  0.85141000  0.35928000  1.0
  C  C135  1  0.56848000  0.13586000  0.14073000  1.0
  C  C136  1  0.94461000  0.11558000  0.70862000  1.0
  C  C137  1  0.42659000  0.89671000  0.79096000  1.0
  C  C138  1  0.05516000  0.88466000  0.29138000  1.0
  C  C139  1  0.57336000  0.10328000  0.20904000  1.0
  C  C140  1  0.86648000  0.04195000  0.72340000  1.0
  C  C141  1  0.35371000  0.96986000  0.77344000  1.0
  C  C142  1  0.13323000  0.95830000  0.27656000  1.0
  C  C143  1  0.64623000  0.03012000  0.22656000  1.0
  C  C144  1  0.89048000  0.04009000  0.79454000  1.0
  C  C145  1  0.38460000  0.96939000  0.70245000  1.0
  C  C146  1  0.10939000  0.96005000  0.20539000  1.0
  C  C147  1  0.61535000  0.03060000  0.29756000  1.0
  C  C148  1  0.83445000  0.97592000  0.83756000  1.0
  C  C149  1  0.33765000  0.03225000  0.65688000  1.0
  C  C150  1  0.16554000  0.02416000  0.16233000  1.0
  C  C151  1  0.66225000  0.96775000  0.34314000  1.0
  C  C152  1  0.96338000  0.44465000  0.86974000  1.0
  C  C153  1  0.48020000  0.56064000  0.63916000  1.0
  C  C154  1  0.03678000  0.55537000  0.13030000  1.0
  C  C155  1  0.51957000  0.43938000  0.36072000  1.0
  C  C156  1  0.94830000  0.36731000  0.90358000  1.0
  C  C157  1  0.45963000  0.63650000  0.60406000  1.0
  C  C158  1  0.05178000  0.63270000  0.09645000  1.0
  C  C159  1  0.54028000  0.36356000  0.39584000  1.0
  C  C160  1  0.86543000  0.35593000  0.96535000  1.0
  C  C161  1  0.37261000  0.64425000  0.54245000  1.0
  C  C162  1  0.13456000  0.64406000  0.03466000  1.0
  C  C163  1  0.62743000  0.35585000  0.45744000  1.0
  C  C164  1  0.88292000  0.27124000  0.97240000  1.0
  C  C165  1  0.38584000  0.72865000  0.53334000  1.0
  C  C166  1  0.11707000  0.72875000  0.02760000  1.0
  C  C167  1  0.61431000  0.27146000  0.46658000  1.0
  C  C168  1  0.81665000  0.22460000  0.02748000  1.0
  C  C169  1  0.31911000  0.77153000  0.47624000  1.0
  C  C170  1  0.18325000  0.77537000  0.97250000  1.0
  C  C171  1  0.68135000  0.22860000  0.52365000  1.0
  C  C172  1  0.58841000  0.20592000  0.81326000  1.0
  C  C173  1  0.08451000  0.79143000  0.68929000  1.0
  C  C174  1  0.41161000  0.79409000  0.18677000  1.0
  C  C175  1  0.91538000  0.20843000  0.31080000  1.0
  C  C176  1  0.46368000  0.17267000  0.85821000  1.0
  C  C177  1  0.96096000  0.82738000  0.64588000  1.0
  C  C178  1  0.53633000  0.82729000  0.14177000  1.0
  C  C179  1  0.03903000  0.17259000  0.35425000  1.0
  C  C180  1  0.48503000  0.12504000  0.91344000  1.0
  C  C181  1  0.98617000  0.87504000  0.59097000  1.0
  C  C182  1  0.51499000  0.87489000  0.08652000  1.0
  C  C183  1  0.01399000  0.12496000  0.40918000  1.0
  C  C184  1  0.32950000  0.10833000  0.93689000  1.0
  C  C185  1  0.83244000  0.89493000  0.56804000  1.0
  C  C186  1  0.67049000  0.89159000  0.06306000  1.0
  C  C187  1  0.16775000  0.10510000  0.43208000  1.0
  C  C188  1  0.27577000  0.06062000  0.99348000  1.0
  C  C189  1  0.78260000  0.94375000  0.51182000  1.0
  C  C190  1  0.72426000  0.93925000  0.00644000  1.0
  C  C191  1  0.21775000  0.05635000  0.48832000  1.0
  C  C192  1  0.21910000  0.30795000  0.68285000  1.0
  C  C193  1  0.71917000  0.70137000  0.81645000  1.0
  C  C194  1  0.78116000  0.69198000  0.31711000  1.0
  C  C195  1  0.28051000  0.29856000  0.18359000  1.0
  C  C196  1  0.27158000  0.34846000  0.62067000  1.0
  C  C197  1  0.77180000  0.66397000  0.87954000  1.0
  C  C198  1  0.72883000  0.65122000  0.37918000  1.0
  C  C199  1  0.22794000  0.33599000  0.12051000  1.0
  C  C200  1  0.15129000  0.33559000  0.55918000  1.0
  C  C201  1  0.64393000  0.67075000  0.93772000  1.0
  C  C202  1  0.84867000  0.66439000  0.44082000  1.0
  C  C203  1  0.35583000  0.32920000  0.06235000  1.0
  C  C204  1  0.18956000  0.39460000  0.50596000  1.0
  C  C205  1  0.69160000  0.61924000  0.99498000  1.0
  C  C206  1  0.81055000  0.60529000  0.49398000  1.0
  C  C207  1  0.30832000  0.38076000  0.00512000  1.0
  C  C208  1  0.07263000  0.38000000  0.44353000  1.0
  C  C209  1  0.56383000  0.62783000  0.05353000  1.0
  C  C210  1  0.92706000  0.62009000  0.55655000  1.0
  C  C211  1  0.43594000  0.37197000  0.94652000  1.0
  C  C212  1  0.10298000  0.43083000  0.38538000  1.0
  C  C213  1  0.61257000  0.58850000  0.11600000  1.0
  C  C214  1  0.89690000  0.56916000  0.61466000  1.0
  C  C215  1  0.38747000  0.41137000  0.88405000  1.0
  N  N216  1  0.01261000  0.15616000  0.76773000  1.0
  N  N217  1  0.49734000  0.85425000  0.73394000  1.0
  N  N218  1  0.98730000  0.84400000  0.23227000  1.0
  N  N219  1  0.50265000  0.14576000  0.26606000  1.0
  N  N220  1  0.97768000  0.11052000  0.82045000  1.0
  N  N221  1  0.47015000  0.89812000  0.67967000  1.0
  N  N222  1  0.02230000  0.88957000  0.17951000  1.0
  N  N223  1  0.52985000  0.10188000  0.32034000  1.0
  N  N224  1  0.01520000  0.29370000  0.87568000  1.0
  N  N225  1  0.52409000  0.71223000  0.62995000  1.0
  N  N226  1  0.98492000  0.70634000  0.12435000  1.0
  N  N227  1  0.47585000  0.28780000  0.37000000  1.0
  N  N228  1  0.97400000  0.23506000  0.91731000  1.0
  N  N229  1  0.47726000  0.76859000  0.58736000  1.0
  N  N230  1  0.02608000  0.76496000  0.08271000  1.0
  N  N231  1  0.52281000  0.23148000  0.41260000  1.0
  N  N232  1  0.30321000  0.18495000  0.84992000  1.0
  N  N233  1  0.79897000  0.81859000  0.65476000  1.0
  N  N234  1  0.69679000  0.81503000  0.15007000  1.0
  N  N235  1  0.20101000  0.18141000  0.34532000  1.0
  N  N236  1  0.22209000  0.14509000  0.89743000  1.0
  N  N237  1  0.72153000  0.86051000  0.60778000  1.0
  N  N238  1  0.77792000  0.85485000  0.10253000  1.0
  N  N239  1  0.27857000  0.13953000  0.39229000  1.0
  O  O240  1  0.09006000  0.33260000  0.71643000  1.0
  O  O241  1  0.59478000  0.67281000  0.78000000  1.0
  O  O242  1  0.91029000  0.66752000  0.28351000  1.0
  O  O243  1  0.40500000  0.32705000  0.22001000  1.0
  O  O244  1  0.30611000  0.25020000  0.70310000  1.0
  O  O245  1  0.79975000  0.76223000  0.79621000  1.0
  O  O246  1  0.69400000  0.74974000  0.29695000  1.0
  O  O247  1  0.19984000  0.23773000  0.20385000  1.0
  O  O248  1  0.09534000  0.40441000  0.32269000  1.0
  O  O249  1  0.67510000  0.62407000  0.17043000  1.0
  O  O250  1  0.90458000  0.59554000  0.67736000  1.0
  O  O251  1  0.32508000  0.37587000  0.82957000  1.0
  O  O252  1  0.13732000  0.51391000  0.40894000  1.0
  O  O253  1  0.57987000  0.50424000  0.10783000  1.0
  O  O254  1  0.86268000  0.48608000  0.59104000  1.0
  O  O255  1  0.42041000  0.49560000  0.89223000  1.0
