# generated using pymatgen
data_Al3H19C54(O7F3)2
_symmetry_space_group_name_H-M   'P 1'
_cell_length_a   11.24295297
_cell_length_b   12.16300000
_cell_length_c   27.25800000
_cell_angle_alpha   89.64440000
_cell_angle_beta   89.89375526
_cell_angle_gamma   62.99014045
_symmetry_Int_Tables_number   1
_chemical_formula_structural   Al3H19C54(O7F3)2
_chemical_formula_sum   'Al6 H38 C108 O28 F12'
_cell_volume   3320.85005198
_cell_formula_units_Z   2
loop_
 _symmetry_equiv_pos_site_id
 _symmetry_equiv_pos_as_xyz
  1  'x, y, z'
loop_
 _atom_site_type_symbol
 _atom_site_label
 _atom_site_symmetry_multiplicity
 _atom_site_fract_x
 _atom_site_fract_y
 _atom_site_fract_z
 _atom_site_occupancy
  Al  Al0  1  0.45519000  0.78216000  0.74941000  1.0
  Al  Al1  1  0.75802000  0.73997000  0.75037000  1.0
  Al  Al2  1  0.71104000  0.51573000  0.74966000  1.0
  Al  Al3  1  0.23779000  0.21546000  0.25157000  1.0
  Al  Al4  1  0.49718000  0.26067000  0.25034000  1.0
  Al  Al5  1  0.22810000  0.48313000  0.24982000  1.0
  H  H6  1  0.01578000  0.18602000  0.03820000  1.0
  H  H7  1  0.20209000  0.79214000  0.44645000  1.0
  H  H8  1  0.82953000  0.01445000  0.04579000  1.0
  H  H9  1  0.02104000  0.18943000  0.46373000  1.0
  H  H10  1  0.20226000  0.79492000  0.05117000  1.0
  H  H11  1  0.82492000  0.01853000  0.45543000  1.0
  H  H12  1  0.20869000  0.80769000  0.53691000  1.0
  H  H13  1  0.99257000  0.20307000  0.94778000  1.0
  H  H14  1  0.84088000  0.98761000  0.54553000  1.0
  H  H15  1  0.20806000  0.80978000  0.96061000  1.0
  H  H16  1  0.99868000  0.20619000  0.55420000  1.0
  H  H17  1  0.84631000  0.98057000  0.95609000  1.0
  H  H18  1  0.05054000  0.61919000  0.12299000  1.0
  H  H19  1  0.62965000  0.31208000  0.37681000  1.0
  H  H20  1  0.31311000  0.06232000  0.12288000  1.0
  H  H21  1  0.04840000  0.62554000  0.37612000  1.0
  H  H22  1  0.62533000  0.31252000  0.12287000  1.0
  H  H23  1  0.31113000  0.06007000  0.37883000  1.0
  H  H24  1  0.67535000  0.37769000  0.62255000  1.0
  H  H25  1  0.93883000  0.68705000  0.87699000  1.0
  H  H26  1  0.37268000  0.93987000  0.62408000  1.0
  H  H27  1  0.66899000  0.37542000  0.87638000  1.0
  H  H28  1  0.93676000  0.69338000  0.62199000  1.0
  H  H29  1  0.37569000  0.93680000  0.87886000  1.0
  H  H30  1  0.00939000  0.74744000  0.04625000  1.0
  H  H31  1  0.75042000  0.23221000  0.45610000  1.0
  H  H32  1  0.22193000  0.02010000  0.04573000  1.0
  H  H33  1  0.00488000  0.75467000  0.45207000  1.0
  H  H34  1  0.74422000  0.23060000  0.04356000  1.0
  H  H35  1  0.22144000  0.01579000  0.45648000  1.0
  H  H36  1  0.76169000  0.25131000  0.54611000  1.0
  H  H37  1  0.97854000  0.76756000  0.95620000  1.0
  H  H38  1  0.23906000  0.98151000  0.54677000  1.0
  H  H39  1  0.75462000  0.24883000  0.95338000  1.0
  H  H40  1  0.97458000  0.77470000  0.54206000  1.0
  H  H41  1  0.24007000  0.98368000  0.95583000  1.0
  H  H42  1  0.23200000  0.86481000  0.77430000  1.0
  H  H43  1  0.11375000  0.11687000  0.22388000  1.0
  C  C44  1  0.58262000  0.88636000  0.82196000  1.0
  C  C45  1  0.88920000  0.54504000  0.68192000  1.0
  C  C46  1  0.51673000  0.57023000  0.82043000  1.0
  C  C47  1  0.57916000  0.89335000  0.68065000  1.0
  C  C48  1  0.88963000  0.54050000  0.81789000  1.0
  C  C49  1  0.52095000  0.57314000  0.67749000  1.0
  C  C50  1  0.46878000  0.10941000  0.32147000  1.0
  C  C51  1  0.43090000  0.45945000  0.18173000  1.0
  C  C52  1  0.09274000  0.42733000  0.32185000  1.0
  C  C53  1  0.47128000  0.10972000  0.17998000  1.0
  C  C54  1  0.43363000  0.45729000  0.31760000  1.0
  C  C55  1  0.09255000  0.42295000  0.17858000  1.0
  C  C56  1  0.99059000  0.48191000  0.97128000  1.0
  C  C57  1  0.48417000  0.52620000  0.52227000  1.0
  C  C58  1  0.54018000  0.98775000  0.97525000  1.0
  C  C59  1  0.99114000  0.48727000  0.52885000  1.0
  C  C60  1  0.48043000  0.52613000  0.97629000  1.0
  C  C61  1  0.53677000  0.99025000  0.52680000  1.0
  C  C62  1  0.47771000  0.51514000  0.47057000  1.0
  C  C63  1  0.00834000  0.47021000  0.02300000  1.0
  C  C64  1  0.52587000  0.01143000  0.47528000  1.0
  C  C65  1  0.47448000  0.51556000  0.02809000  1.0
  C  C66  1  0.00873000  0.47557000  0.47716000  1.0
  C  C67  1  0.52894000  0.01036000  0.02658000  1.0
  C  C68  1  0.98704000  0.68539000  0.97534000  1.0
  C  C69  1  0.68340000  0.32425000  0.52468000  1.0
  C  C70  1  0.31977000  0.99063000  0.97616000  1.0
  C  C71  1  0.98428000  0.69201000  0.52345000  1.0
  C  C72  1  0.67745000  0.32258000  0.97458000  1.0
  C  C73  1  0.31807000  0.98955000  0.52622000  1.0
  C  C74  1  0.67704000  0.31339000  0.47508000  1.0
  C  C75  1  0.00445000  0.67402000  0.02498000  1.0
  C  C76  1  0.30805000  0.00905000  0.47673000  1.0
  C  C77  1  0.67157000  0.31229000  0.02430000  1.0
  C  C78  1  0.00144000  0.68065000  0.47384000  1.0
  C  C79  1  0.30949000  0.01124000  0.02546000  1.0
  C  C80  1  0.95393000  0.60277000  0.89619000  1.0
  C  C81  1  0.59406000  0.44673000  0.60081000  1.0
  C  C82  1  0.45191000  0.94938000  0.89929000  1.0
  C  C83  1  0.95291000  0.60875000  0.60327000  1.0
  C  C84  1  0.58857000  0.44517000  0.89795000  1.0
  C  C85  1  0.44830000  0.95320000  0.60335000  1.0
  C  C86  1  0.56094000  0.39564000  0.39580000  1.0
  C  C87  1  0.03869000  0.54966000  0.10136000  1.0
  C  C88  1  0.39982000  0.04772000  0.39921000  1.0
  C  C89  1  0.55733000  0.39633000  0.10348000  1.0
  C  C90  1  0.03750000  0.55553000  0.39818000  1.0
  C  C91  1  0.40219000  0.04903000  0.10251000  1.0
  C  C92  1  0.05051000  0.44317000  0.12592000  1.0
  C  C93  1  0.45648000  0.48693000  0.36843000  1.0
  C  C94  1  0.50191000  0.06385000  0.12837000  1.0
  C  C95  1  0.05046000  0.44846000  0.37435000  1.0
  C  C96  1  0.45405000  0.48858000  0.13057000  1.0
  C  C97  1  0.49913000  0.06354000  0.37321000  1.0
  C  C98  1  0.49970000  0.55207000  0.62503000  1.0
  C  C99  1  0.94137000  0.51083000  0.86897000  1.0
  C  C100  1  0.56286000  0.93923000  0.62893000  1.0
  C  C101  1  0.49495000  0.55078000  0.87319000  1.0
  C  C102  1  0.94159000  0.51614000  0.63103000  1.0
  C  C103  1  0.56728000  0.93280000  0.87354000  1.0
  C  C104  1  0.97847000  0.59072000  0.94677000  1.0
  C  C105  1  0.58807000  0.43094000  0.55010000  1.0
  C  C106  1  0.43567000  0.97674000  0.94939000  1.0
  C  C107  1  0.97751000  0.59669000  0.55271000  1.0
  C  C108  1  0.58297000  0.42985000  0.94877000  1.0
  C  C109  1  0.43278000  0.97847000  0.55295000  1.0
  C  C110  1  0.57388000  0.40742000  0.44632000  1.0
  C  C111  1  0.01659000  0.56605000  0.05063000  1.0
  C  C112  1  0.41046000  0.02188000  0.44958000  1.0
  C  C113  1  0.56983000  0.40742000  0.05279000  1.0
  C  C114  1  0.01528000  0.57204000  0.44885000  1.0
  C  C115  1  0.41272000  0.02274000  0.05234000  1.0
  C  C116  1  0.96048000  0.40209000  0.89344000  1.0
  C  C117  1  0.39510000  0.64153000  0.59714000  1.0
  C  C118  1  0.66569000  0.94940000  0.89932000  1.0
  C  C119  1  0.96244000  0.40677000  0.60721000  1.0
  C  C120  1  0.39174000  0.64131000  0.90084000  1.0
  C  C121  1  0.66088000  0.95634000  0.60284000  1.0
  C  C122  1  0.36748000  0.59485000  0.39260000  1.0
  C  C123  1  0.03621000  0.35299000  0.09817000  1.0
  C  C124  1  0.61397000  0.04762000  0.39885000  1.0
  C  C125  1  0.36610000  0.59684000  0.10591000  1.0
  C  C126  1  0.03720000  0.35777000  0.40271000  1.0
  C  C127  1  0.61716000  0.04673000  0.10265000  1.0
  C  C128  1  0.98397000  0.38497000  0.94409000  1.0
  C  C129  1  0.38566000  0.63266000  0.54615000  1.0
  C  C130  1  0.65609000  0.97605000  0.94968000  1.0
  C  C131  1  0.98620000  0.38963000  0.55665000  1.0
  C  C132  1  0.38277000  0.63313000  0.95195000  1.0
  C  C133  1  0.65172000  0.98109000  0.55224000  1.0
  C  C134  1  0.37435000  0.61156000  0.44319000  1.0
  C  C135  1  0.01721000  0.36244000  0.04717000  1.0
  C  C136  1  0.63040000  0.02246000  0.44942000  1.0
  C  C137  1  0.37248000  0.61300000  0.05515000  1.0
  C  C138  1  0.01888000  0.36724000  0.45373000  1.0
  C  C139  1  0.63389000  0.02065000  0.05224000  1.0
  C  C140  1  0.00982000  0.26699000  0.01897000  1.0
  C  C141  1  0.27900000  0.71874000  0.46804000  1.0
  C  C142  1  0.74952000  0.00766000  0.02569000  1.0
  C  C143  1  0.01362000  0.27092000  0.48252000  1.0
  C  C144  1  0.27809000  0.72069000  0.02985000  1.0
  C  C145  1  0.74528000  0.01141000  0.47581000  1.0
  C  C146  1  0.28311000  0.72770000  0.51779000  1.0
  C  C147  1  0.99621000  0.27672000  0.96920000  1.0
  C  C148  1  0.75452000  0.99355000  0.52543000  1.0
  C  C149  1  0.28172000  0.72924000  0.98001000  1.0
  C  C150  1  0.00039000  0.28054000  0.53226000  1.0
  C  C151  1  0.75917000  0.98819000  0.97624000  1.0
  O  O152  1  0.44203000  0.67246000  0.80065000  1.0
  O  O153  1  0.69295000  0.86058000  0.70169000  1.0
  O  O154  1  0.84603000  0.47127000  0.79793000  1.0
  O  O155  1  0.45013000  0.67809000  0.69529000  1.0
  O  O156  1  0.69454000  0.85734000  0.79996000  1.0
  O  O157  1  0.84554000  0.47515000  0.70181000  1.0
  O  O158  1  0.12414000  0.32290000  0.30376000  1.0
  O  O159  1  0.55261000  0.14222000  0.20132000  1.0
  O  O160  1  0.32159000  0.52597000  0.29741000  1.0
  O  O161  1  0.12267000  0.31910000  0.19772000  1.0
  O  O162  1  0.55022000  0.14115000  0.29957000  1.0
  O  O163  1  0.31823000  0.52828000  0.20131000  1.0
  O  O164  1  0.48645000  0.87271000  0.80449000  1.0
  O  O165  1  0.88131000  0.64376000  0.70131000  1.0
  O  O166  1  0.61749000  0.48200000  0.79928000  1.0
  O  O167  1  0.48199000  0.88306000  0.69943000  1.0
  O  O168  1  0.88248000  0.63955000  0.79860000  1.0
  O  O169  1  0.61724000  0.48320000  0.70042000  1.0
  O  O170  1  0.36046000  0.12037000  0.30356000  1.0
  O  O171  1  0.52133000  0.36134000  0.20139000  1.0
  O  O172  1  0.10180000  0.51704000  0.29911000  1.0
  O  O173  1  0.36347000  0.12009000  0.19814000  1.0
  O  O174  1  0.52413000  0.35862000  0.29853000  1.0
  O  O175  1  0.10264000  0.51255000  0.20020000  1.0
  O  O176  1  0.64359000  0.67801000  0.75034000  1.0
  O  O177  1  0.32195000  0.32095000  0.25015000  1.0
  O  O178  1  0.28259000  0.87816000  0.74828000  1.0
  O  O179  1  0.16047000  0.11882000  0.25333000  1.0
  F  F180  1  0.04236000  0.24964000  0.11972000  1.0
  F  F181  1  0.26786000  0.68782000  0.36766000  1.0
  F  F182  1  0.71866000  0.05687000  0.12580000  1.0
  F  F183  1  0.04390000  0.25444000  0.38187000  1.0
  F  F184  1  0.26791000  0.69094000  0.13058000  1.0
  F  F185  1  0.71507000  0.05833000  0.37547000  1.0
  F  F186  1  0.29810000  0.74283000  0.61849000  1.0
  F  F187  1  0.95436000  0.30844000  0.86870000  1.0
  F  F188  1  0.77212000  0.94732000  0.62582000  1.0
  F  F189  1  0.29557000  0.74380000  0.87915000  1.0
  F  F190  1  0.95788000  0.31248000  0.63253000  1.0
  F  F191  1  0.77819000  0.93775000  0.87632000  1.0
