# generated using pymatgen
data_TbH8C6NO7
_symmetry_space_group_name_H-M   'P 1'
_cell_length_a   6.60947000
_cell_length_b   6.79663000
_cell_length_c   19.60040000
_cell_angle_alpha   93.27080000
_cell_angle_beta   89.99960000
_cell_angle_gamma   89.99940000
_symmetry_Int_Tables_number   1
_chemical_formula_structural   TbH8C6NO7
_chemical_formula_sum   'Tb4 H32 C24 N4 O28'
_cell_volume   879.05726175
_cell_formula_units_Z   4
loop_
 _symmetry_equiv_pos_site_id
 _symmetry_equiv_pos_as_xyz
  1  'x, y, z'
loop_
 _atom_site_type_symbol
 _atom_site_label
 _atom_site_symmetry_multiplicity
 _atom_site_fract_x
 _atom_site_fract_y
 _atom_site_fract_z
 _atom_site_occupancy
  Tb  Tb0  1  0.74193000  0.23007000  0.10203000  1.0
  Tb  Tb1  1  0.24193000  0.26993000  0.39797000  1.0
  Tb  Tb2  1  0.25807000  0.76993000  0.89797000  1.0
  Tb  Tb3  1  0.75807000  0.73007000  0.60203000  1.0
  H  H4  1  0.30703000  0.54173000  0.14485000  1.0
  H  H5  1  0.80703000  0.95828000  0.35515000  1.0
  H  H6  1  0.69297000  0.45828000  0.85515000  1.0
  H  H7  1  0.19297000  0.04172000  0.64485000  1.0
  H  H8  1  0.15397000  0.58183000  0.07278000  1.0
  H  H9  1  0.65399000  0.91819000  0.42722000  1.0
  H  H10  1  0.84602000  0.41817000  0.92721000  1.0
  H  H11  1  0.34601000  0.08181000  0.57278000  1.0
  H  H12  1  0.18625000  0.49794000  0.24613000  1.0
  H  H13  1  0.68627000  0.00207000  0.25387000  1.0
  H  H14  1  0.81375000  0.50206000  0.75387000  1.0
  H  H15  1  0.31374000  0.99793000  0.74613000  1.0
  H  H16  1  0.92386000  0.50901000  0.26424000  1.0
  H  H17  1  0.42389000  0.99099000  0.23576000  1.0
  H  H18  1  0.07614000  0.49099000  0.73576000  1.0
  H  H19  1  0.57612000  0.00901000  0.76424000  1.0
  H  H20  1  0.00709000  0.80963000  0.16004000  1.0
  H  H21  1  0.50711000  0.69037000  0.33997000  1.0
  H  H22  1  0.99290000  0.19037000  0.83996000  1.0
  H  H23  1  0.49289000  0.30963000  0.66003000  1.0
  H  H24  1  0.80569000  0.71275000  0.20585000  1.0
  H  H25  1  0.30572000  0.78725000  0.29415000  1.0
  H  H26  1  0.19430000  0.28724000  0.79415000  1.0
  H  H27  1  0.69428000  0.21276000  0.70585000  1.0
  H  H28  1  0.57894000  0.14926000  0.96108000  1.0
  H  H29  1  0.07895000  0.35073000  0.53892000  1.0
  H  H30  1  0.42106000  0.85074000  0.03892000  1.0
  H  H31  1  0.92106000  0.64927000  0.46108000  1.0
  H  H32  1  0.79094000  0.04200000  0.96631000  1.0
  H  H33  1  0.29094000  0.45798000  0.53369000  1.0
  H  H34  1  0.20906000  0.95799000  0.03369000  1.0
  H  H35  1  0.70906000  0.54202000  0.46631000  1.0
  C  C36  1  0.17435000  0.48615000  0.11574000  1.0
  C  C37  1  0.67435000  0.01386000  0.38426000  1.0
  C  C38  1  0.82564000  0.51385000  0.88426000  1.0
  C  C39  1  0.32565000  0.98614000  0.61574000  1.0
  C  C40  1  0.21994000  0.28194000  0.08377000  1.0
  C  C41  1  0.71994000  0.21808000  0.41623000  1.0
  C  C42  1  0.78005000  0.71806000  0.91623000  1.0
  C  C43  1  0.28006000  0.78193000  0.58377000  1.0
  C  C44  1  0.03715000  0.44210000  0.22903000  1.0
  C  C45  1  0.53716000  0.05790000  0.27097000  1.0
  C  C46  1  0.96285000  0.55789000  0.77097000  1.0
  C  C47  1  0.46284000  0.94210000  0.72903000  1.0
  C  C48  1  0.89592000  0.68950000  0.15895000  1.0
  C  C49  1  0.39593000  0.81050000  0.34105000  1.0
  C  C50  1  0.10407000  0.31049000  0.84105000  1.0
  C  C51  1  0.60407000  0.18950000  0.65895000  1.0
  C  C52  1  0.74686000  0.70873000  0.10058000  1.0
  C  C53  1  0.24686000  0.79128000  0.39942000  1.0
  C  C54  1  0.25313000  0.29128000  0.89942000  1.0
  C  C55  1  0.75314000  0.20871000  0.60058000  1.0
  C  C56  1  0.02709000  0.22154000  0.23836000  1.0
  C  C57  1  0.52707000  0.27848000  0.26165000  1.0
  C  C58  1  0.97292000  0.77846000  0.76164000  1.0
  C  C59  1  0.47294000  0.72151000  0.73835000  1.0
  N  N60  1  0.98978000  0.49316000  0.15876000  1.0
  N  N61  1  0.48979000  0.00685000  0.34124000  1.0
  N  N62  1  0.01021000  0.50684000  0.84124000  1.0
  N  N63  1  0.51021000  0.99315000  0.65876000  1.0
  O  O64  1  0.07143000  0.18130000  0.05819000  1.0
  O  O65  1  0.57144000  0.31871000  0.44180000  1.0
  O  O66  1  0.92856000  0.81870000  0.94180000  1.0
  O  O67  1  0.42856000  0.68129000  0.55820000  1.0
  O  O68  1  0.39917000  0.21984000  0.08143000  1.0
  O  O69  1  0.89917000  0.28017000  0.41856000  1.0
  O  O70  1  0.60083000  0.78016000  0.91857000  1.0
  O  O71  1  0.10083000  0.71983000  0.58143000  1.0
  O  O72  1  0.69490000  0.55267000  0.06648000  1.0
  O  O73  1  0.19491000  0.94732000  0.43351000  1.0
  O  O74  1  0.30509000  0.44732000  0.93352000  1.0
  O  O75  1  0.80509000  0.05268000  0.56649000  1.0
  O  O76  1  0.67347000  0.87916000  0.09152000  1.0
  O  O77  1  0.17348000  0.62083000  0.40848000  1.0
  O  O78  1  0.32652000  0.12083000  0.90848000  1.0
  O  O79  1  0.82652000  0.37918000  0.59152000  1.0
  O  O80  1  0.09019000  0.15901000  0.29430000  1.0
  O  O81  1  0.59020000  0.34100000  0.20569000  1.0
  O  O82  1  0.90982000  0.84099000  0.70570000  1.0
  O  O83  1  0.40981000  0.65900000  0.79431000  1.0
  O  O84  1  0.94880000  0.11250000  0.19086000  1.0
  O  O85  1  0.44880000  0.38750000  0.30913000  1.0
  O  O86  1  0.05121000  0.88750000  0.80914000  1.0
  O  O87  1  0.55122000  0.61250000  0.69087000  1.0
  O  O88  1  0.71574000  0.16371000  0.98132000  1.0
  O  O89  1  0.21574000  0.33628000  0.51867000  1.0
  O  O90  1  0.28425000  0.83630000  0.01868000  1.0
  O  O91  1  0.78426000  0.66372000  0.48133000  1.0
