# generated using pymatgen
data_H8PbC17N2(O2F3)2
_symmetry_space_group_name_H-M   'P 1'
_cell_length_a   8.71778000
_cell_length_b   10.30390000
_cell_length_c   11.03720000
_cell_angle_alpha   97.42660000
_cell_angle_beta   99.68320000
_cell_angle_gamma   111.07300000
_symmetry_Int_Tables_number   1
_chemical_formula_structural   H8PbC17N2(O2F3)2
_chemical_formula_sum   'H16 Pb2 C34 N4 O8 F12'
_cell_volume   892.34341080
_cell_formula_units_Z   2
loop_
 _symmetry_equiv_pos_site_id
 _symmetry_equiv_pos_as_xyz
  1  'x, y, z'
loop_
 _atom_site_type_symbol
 _atom_site_label
 _atom_site_symmetry_multiplicity
 _atom_site_fract_x
 _atom_site_fract_y
 _atom_site_fract_z
 _atom_site_occupancy
  H  H0  1  0.88765000  0.57616000  0.31509000  1.0
  H  H1  1  0.11238000  0.42388000  0.68490000  1.0
  H  H2  1  0.65977000  0.53173000  0.12453000  1.0
  H  H3  1  0.34019000  0.46824000  0.87549000  1.0
  H  H4  1  0.64876000  0.37260000  0.92572000  1.0
  H  H5  1  0.35123000  0.62741000  0.07430000  1.0
  H  H6  1  0.76890000  0.22169000  0.81614000  1.0
  H  H7  1  0.23111000  0.77833000  0.18388000  1.0
  H  H8  1  0.97931000  0.11005000  0.82155000  1.0
  H  H9  1  0.02065000  0.88993000  0.17845000  1.0
  H  H10  1  0.22246000  0.07058000  0.94345000  1.0
  H  H11  1  0.77766000  0.92946000  0.05656000  1.0
  H  H12  1  0.43548000  0.12497000  0.14758000  1.0
  H  H13  1  0.56456000  0.87503000  0.85240000  1.0
  H  H14  1  0.41941000  0.27957000  0.33333333  1.0
  H  H15  1  0.58059000  0.72040000  0.66666667  1.0
  Pb  Pb16  1  0.21797000  0.48399000  0.43223000  1.0
  Pb  Pb17  1  0.78161000  0.51595000  0.56764000  1.0
  C  C18  1  0.79275000  0.23541000  0.41643000  1.0
  C  C19  1  0.20720000  0.76456000  0.58357000  1.0
  C  C20  1  0.78544000  0.09332000  0.33933000  1.0
  C  C21  1  0.21455000  0.90668000  0.66065000  1.0
  C  C22  1  0.67158000  0.96054000  0.38246000  1.0
  C  C23  1  0.32846000  0.03946000  0.61757000  1.0
  C  C24  1  0.66571000  0.81188000  0.32455000  1.0
  C  C25  1  0.33429000  0.18810000  0.67547000  1.0
  C  C26  1  0.52832000  0.68829000  0.36256000  1.0
  C  C27  1  0.47166000  0.31167000  0.63743000  1.0
  C  C28  1  0.87421000  0.50352000  0.22911000  1.0
  C  C29  1  0.12581000  0.49652000  0.77088000  1.0
  C  C30  1  0.74819000  0.47957000  0.12116000  1.0
  C  C31  1  0.25179000  0.52042000  0.87885000  1.0
  C  C32  1  0.74171000  0.39240000  0.01262000  1.0
  C  C33  1  0.25828000  0.60759000  0.98739000  1.0
  C  C34  1  0.86032000  0.32812000  0.01249000  1.0
  C  C35  1  0.13968000  0.67188000  0.98752000  1.0
  C  C36  1  0.98158000  0.35612000  0.12656000  1.0
  C  C37  1  0.01847000  0.64392000  0.87343000  1.0
  C  C38  1  0.86174000  0.23847000  0.90241000  1.0
  C  C39  1  0.13824000  0.76152000  0.09761000  1.0
  C  C40  1  0.97787000  0.17773000  0.90565000  1.0
  C  C41  1  0.02211000  0.82225000  0.09436000  1.0
  C  C42  1  0.10356000  0.29116000  0.12983000  1.0
  C  C43  1  0.89649000  0.70887000  0.87016000  1.0
  C  C44  1  0.10079000  0.20198000  0.01895000  1.0
  C  C45  1  0.89923000  0.79801000  0.98105000  1.0
  C  C46  1  0.22248000  0.14049000  0.02636000  1.0
  C  C47  1  0.77758000  0.85954000  0.97364000  1.0
  C  C48  1  0.33912000  0.16939000  0.13802000  1.0
  C  C49  1  0.66095000  0.83065000  0.86197000  1.0
  C  C50  1  0.33157000  0.25753000  0.24335000  1.0
  C  C51  1  0.66847000  0.74248000  0.75665000  1.0
  N  N52  1  0.21775000  0.31604000  0.23905000  1.0
  N  N53  1  0.78229000  0.68398000  0.76094000  1.0
  N  N54  1  0.98632000  0.44324000  0.23206000  1.0
  N  N55  1  0.01374000  0.55683000  0.76791000  1.0
  O  O56  1  0.93175000  0.31584000  0.49185000  1.0
  O  O57  1  0.06817000  0.68411000  0.50819000  1.0
  O  O58  1  0.65799000  0.25488000  0.39532000  1.0
  O  O59  1  0.34196000  0.74510000  0.60467000  1.0
  O  O60  1  0.57715000  0.63527000  0.45008000  1.0
  O  O61  1  0.42283000  0.36476000  0.54995000  1.0
  O  O62  1  0.37823000  0.65394000  0.30161000  1.0
  O  O63  1  0.62176000  0.34598000  0.69835000  1.0
  F  F64  1  0.94353000  0.09157000  0.34837000  1.0
  F  F65  1  0.05648000  0.90847000  0.65157000  1.0
  F  F66  1  0.71939000  0.08288000  0.21328000  1.0
  F  F67  1  0.28057000  0.91710000  0.78670000  1.0
  F  F68  1  0.50975000  0.95439000  0.35674000  1.0
  F  F69  1  0.49029000  0.04562000  0.64334000  1.0
  F  F70  1  0.72724000  0.98212000  0.51040000  1.0
  F  F71  1  0.27287000  0.01791000  0.48962000  1.0
  F  F72  1  0.62923000  0.79359000  0.19479000  1.0
  F  F73  1  0.37080000  0.20644000  0.80522000  1.0
  F  F74  1  0.82192000  0.80822000  0.36049000  1.0
  F  F75  1  0.17808000  0.19175000  0.63951000  1.0
