# generated using pymatgen
data_Hf3H15C23NO16
_symmetry_space_group_name_H-M   'P 1'
_cell_length_a   7.79038000
_cell_length_b   18.18900000
_cell_length_c   23.02790000
_cell_angle_alpha   89.40800000
_cell_angle_beta   82.76050000
_cell_angle_gamma   89.77120000
_symmetry_Int_Tables_number   1
_chemical_formula_structural   Hf3H15C23NO16
_chemical_formula_sum   'Hf6 H30 C46 N2 O32'
_cell_volume   3236.83808826
_cell_formula_units_Z   2
loop_
 _symmetry_equiv_pos_site_id
 _symmetry_equiv_pos_as_xyz
  1  'x, y, z'
loop_
 _atom_site_type_symbol
 _atom_site_label
 _atom_site_symmetry_multiplicity
 _atom_site_fract_x
 _atom_site_fract_y
 _atom_site_fract_z
 _atom_site_occupancy
  Hf  Hf0  1  0.98553000  0.89952000  0.07405000  1.0
  Hf  Hf1  1  0.03734000  0.11038000  0.93089000  1.0
  Hf  Hf2  1  0.76401000  0.06574000  0.05998000  1.0
  Hf  Hf3  1  0.25197000  0.94315000  0.94356000  1.0
  Hf  Hf4  1  0.80473000  0.94171000  0.94107000  1.0
  Hf  Hf5  1  0.21664000  0.07103000  0.06261000  1.0
  H  H6  1  0.02912000  0.82507000  0.95345000  1.0
  H  H7  1  0.67763000  0.09287000  0.94604000  1.0
  H  H8  1  0.39035000  0.08655000  0.94514000  1.0
  H  H9  1  0.96240000  0.02968000  0.15137000  1.0
  H  H10  1  0.66301000  0.81753000  0.86496000  1.0
  H  H11  1  0.58497000  0.16505000  0.14254000  1.0
  H  H12  1  0.08249000  0.18660000  0.12041000  1.0
  H  H13  1  0.93740000  0.84047000  0.86056000  1.0
  H  H14  1  0.39517000  0.82815000  0.86879000  1.0
  H  H15  1  0.51431000  0.89619000  0.98288000  1.0
  H  H16  1  0.33075000  0.18845000  0.14126000  1.0
  H  H17  1  0.75982000  0.96975000  0.83148000  1.0
  H  H18  1  0.97515000  0.12403000  0.82248000  1.0
  H  H19  1  0.05343000  0.88578000  0.18358000  1.0
  H  H20  1  0.40444000  0.00464000  0.14402000  1.0
  H  H21  1  0.30418000  0.89272000  0.83453000  1.0
  H  H22  1  0.80219000  0.05294000  0.85647000  1.0
  H  H23  1  0.50282000  0.01266000  0.01982000  1.0
  H  H24  1  0.54582000  0.77302000  0.91159000  1.0
  H  H25  1  0.46825000  0.23282000  0.10005000  1.0
  H  H26  1  0.64879000  0.08872000  0.17257000  1.0
  H  H27  1  0.21884000  0.96120000  0.14676000  1.0
  H  H28  1  0.19789000  0.50326000  0.99281000  1.0
  H  H29  1  0.82532000  0.50430000  0.01810000  1.0
  H  H30  1  0.12831000  0.77387000  0.21413000  1.0
  H  H31  1  0.82202000  0.80086000  0.28110000  1.0
  H  H32  1  0.84967000  0.20511000  0.77640000  1.0
  H  H33  1  0.15719000  0.18215000  0.70831000  1.0
  H  H34  1  0.80515000  0.97972000  0.50244000  1.0
  H  H35  1  0.17995000  0.00153000  0.48795000  1.0
  C  C36  1  0.74759000  0.78274000  0.02002000  1.0
  C  C37  1  0.25652000  0.78193000  0.01504000  1.0
  C  C38  1  0.65031000  0.92426000  0.16839000  1.0
  C  C39  1  0.77741000  0.22726000  0.99947000  1.0
  C  C40  1  0.27110000  0.22617000  0.98453000  1.0
  C  C41  1  0.34430000  0.06013000  0.83230000  1.0
  C  C42  1  0.41810000  0.57047000  0.00462000  1.0
  C  C43  1  0.59906000  0.57076000  0.01110000  1.0
  C  C44  1  0.68868000  0.50410000  0.01248000  1.0
  C  C45  1  0.60473000  0.43722000  0.00676000  1.0
  C  C46  1  0.42480000  0.43694000  0.99907000  1.0
  C  C47  1  0.33460000  0.50361000  0.99836000  1.0
  C  C48  1  0.23377000  0.85099000  0.27314000  1.0
  C  C49  1  0.10680000  0.80784000  0.25278000  1.0
  C  C50  1  0.94815000  0.82234000  0.28725000  1.0
  C  C51  1  0.97619000  0.87249000  0.33063000  1.0
  C  C52  1  0.75048000  0.12430000  0.71911000  1.0
  C  C53  1  0.87398000  0.17037000  0.73826000  1.0
  C  C54  1  0.03274000  0.15813000  0.70320000  1.0
  C  C55  1  0.00760000  0.10666000  0.66045000  1.0
  C  C56  1  0.60656000  0.95990000  0.44791000  1.0
  C  C57  1  0.42470000  0.96584000  0.44390000  1.0
  C  C58  1  0.31771000  0.99640000  0.49122000  1.0
  C  C59  1  0.37858000  0.02120000  0.54252000  1.0
  C  C60  1  0.56023000  0.01482000  0.54665000  1.0
  C  C61  1  0.66738000  0.98475000  0.49920000  1.0
  C  C62  1  0.64319000  0.03805000  0.59455000  1.0
  C  C63  1  0.73806000  0.05688000  0.62996000  1.0
  C  C64  1  0.25420000  0.05106000  0.58593000  1.0
  C  C65  1  0.13120000  0.07596000  0.61840000  1.0
  C  C66  1  0.34168000  0.94123000  0.39642000  1.0
  C  C67  1  0.24723000  0.92037000  0.36153000  1.0
  C  C68  1  0.85361000  0.90433000  0.37240000  1.0
  C  C69  1  0.73074000  0.92981000  0.40461000  1.0
  C  C70  1  0.33488000  0.63966000  0.00606000  1.0
  C  C71  1  0.29463000  0.70443000  0.00943000  1.0
  C  C72  1  0.73664000  0.30450000  0.00599000  1.0
  C  C73  1  0.68877000  0.36835000  0.00723000  1.0
  C  C74  1  0.30851000  0.30354000  0.98787000  1.0
  C  C75  1  0.34805000  0.36780000  0.99235000  1.0
  C  C76  1  0.67663000  0.64006000  0.01594000  1.0
  C  C77  1  0.71300000  0.70502000  0.01790000  1.0
  C  C78  1  0.46630000  0.08173000  0.78262000  1.0
  C  C79  1  0.59095000  0.10310000  0.74921000  1.0
  C  C80  1  0.52505000  0.89287000  0.21351000  1.0
  C  C81  1  0.39631000  0.87069000  0.24444000  1.0
  N  N82  1  0.15550000  0.88865000  0.32300000  1.0
  N  N83  1  0.82993000  0.08743000  0.66906000  1.0
  O  O84  1  0.11979000  0.89527000  0.14566000  1.0
  O  O85  1  0.82473000  0.80414000  0.06210000  1.0
  O  O86  1  0.78478000  0.88698000  0.15140000  1.0
  O  O87  1  0.33027000  0.82453000  0.97513000  1.0
  O  O88  1  0.61505000  0.98729000  0.14780000  1.0
  O  O89  1  0.15147000  0.80117000  0.05863000  1.0
  O  O90  1  0.70043000  0.82284000  0.97918000  1.0
  O  O91  1  0.80597000  0.95951000  0.03193000  1.0
  O  O92  1  0.02067000  0.87510000  0.96775000  1.0
  O  O93  1  0.96303000  0.02037000  0.10985000  1.0
  O  O94  1  0.18629000  0.95998000  0.03178000  1.0
  O  O95  1  0.52219000  0.94221000  0.95966000  1.0
  O  O96  1  0.55594000  0.78567000  0.86986000  1.0
  O  O97  1  0.03717000  0.99726000  0.92126000  1.0
  O  O98  1  0.76568000  0.06450000  0.96253000  1.0
  O  O99  1  0.00355000  0.10209000  0.02179000  1.0
  O  O100  1  0.28576000  0.06115000  0.96129000  1.0
  O  O101  1  0.49601000  0.05456000  0.04728000  1.0
  O  O102  1  0.71143000  0.18436000  0.04042000  1.0
  O  O103  1  0.87102000  0.20905000  0.95286000  1.0
  O  O104  1  0.27958000  0.01283000  0.14137000  1.0
  O  O105  1  0.20263000  0.20507000  0.94009000  1.0
  O  O106  1  0.68646000  0.12470000  0.14187000  1.0
  O  O107  1  0.15474000  0.14526000  0.12917000  1.0
  O  O108  1  0.44523000  0.21560000  0.14065000  1.0
  O  O109  1  0.31100000  0.18576000  0.02616000  1.0
  O  O110  1  0.89897000  0.11954000  0.85917000  1.0
  O  O111  1  0.28240000  0.86143000  0.86946000  1.0
  O  O112  1  0.23628000  0.10938000  0.85219000  1.0
  O  O113  1  0.35851000  0.99586000  0.85399000  1.0
  O  O114  1  0.83553000  0.87115000  0.86958000  1.0
  O  O115  1  0.73124000  0.00335000  0.86402000  1.0
