# generated using pymatgen
data_CdH10C16S2(NO)4
_symmetry_space_group_name_H-M   'P 1'
_cell_length_a   8.43874000
_cell_length_b   9.76850000
_cell_length_c   10.86270000
_cell_angle_alpha   80.18070000
_cell_angle_beta   87.14890000
_cell_angle_gamma   75.44580000
_symmetry_Int_Tables_number   1
_chemical_formula_structural   CdH10C16S2(NO)4
_chemical_formula_sum   'Cd2 H20 C32 S4 N8 O8'
_cell_volume   853.99993910
_cell_formula_units_Z   2
loop_
 _symmetry_equiv_pos_site_id
 _symmetry_equiv_pos_as_xyz
  1  'x, y, z'
loop_
 _atom_site_type_symbol
 _atom_site_label
 _atom_site_symmetry_multiplicity
 _atom_site_fract_x
 _atom_site_fract_y
 _atom_site_fract_z
 _atom_site_occupancy
  Cd  Cd0  1  0.24809000  0.47390000  0.50764000  1.0
  Cd  Cd1  1  0.75191000  0.52610000  0.49236000  1.0
  H  H2  1  0.22571000  0.45558000  0.80003000  1.0
  H  H3  1  0.77429000  0.54441000  0.19997000  1.0
  H  H4  1  0.33625000  0.52959000  0.97996000  1.0
  H  H5  1  0.66375000  0.47041000  0.02004000  1.0
  H  H6  1  0.76403000  0.75853000  0.82932000  1.0
  H  H7  1  0.23597000  0.24147000  0.17068000  1.0
  H  H8  1  0.13184000  0.98038000  0.44849000  1.0
  H  H9  1  0.86816000  0.01962000  0.55151000  1.0
  H  H10  1  0.15152000  0.22093000  0.47666000  1.0
  H  H11  1  0.84848000  0.77908000  0.52334000  1.0
  H  H12  1  0.51593000  0.77826000  0.71478000  1.0
  H  H13  1  0.48407000  0.22175000  0.28522000  1.0
  H  H14  1  0.65371000  0.31861000  0.81004000  1.0
  H  H15  1  0.34629000  0.68140000  0.18996000  1.0
  H  H16  1  0.50250000  0.44853000  0.71509000  1.0
  H  H17  1  0.49750000  0.55148000  0.28491000  1.0
  H  H18  1  0.10488000  0.82666000  0.32629000  1.0
  H  H19  1  0.89512000  0.17334000  0.67371000  1.0
  H  H20  1  0.92091000  0.94330000  0.28455000  1.0
  H  H21  1  0.07909000  0.05670000  0.71545000  1.0
  C  C22  1  0.92438000  0.55358000  0.69998000  1.0
  C  C23  1  0.07562000  0.44642000  0.30002000  1.0
  C  C24  1  0.99027000  0.60431000  0.80314000  1.0
  C  C25  1  0.00973000  0.39568000  0.19686000  1.0
  C  C26  1  0.15134000  0.54131000  0.84519000  1.0
  C  C27  1  0.84866000  0.45869000  0.15481000  1.0
  C  C28  1  0.21312000  0.58218000  0.94549000  1.0
  C  C29  1  0.78689000  0.41781000  0.05451000  1.0
  C  C30  1  0.11222000  0.68781000  0.00671000  1.0
  C  C31  1  0.88779000  0.31218000  0.99329000  1.0
  C  C32  1  0.95052000  0.75325000  0.96180000  1.0
  C  C33  1  0.04948000  0.24674000  0.03820000  1.0
  C  C34  1  0.88910000  0.71250000  0.86155000  1.0
  C  C35  1  0.11090000  0.28749000  0.13845000  1.0
  C  C36  1  0.02655000  0.82667000  0.15157000  1.0
  C  C37  1  0.97345000  0.17333000  0.84843000  1.0
  C  C38  1  0.32184000  0.86563000  0.57993000  1.0
  C  C39  1  0.67816000  0.13437000  0.42007000  1.0
  C  C40  1  0.21995000  0.99073000  0.51370000  1.0
  C  C41  1  0.78005000  0.00928000  0.48629000  1.0
  C  C42  1  0.23114000  0.12591000  0.52885000  1.0
  C  C43  1  0.76886000  0.87409000  0.47115000  1.0
  C  C44  1  0.34651000  0.13806000  0.61213000  1.0
  C  C45  1  0.65349000  0.86195000  0.38786000  1.0
  C  C46  1  0.44511000  0.01196000  0.68218000  1.0
  C  C47  1  0.55489000  0.98804000  0.31782000  1.0
  C  C48  1  0.43551000  0.87589000  0.66614000  1.0
  C  C49  1  0.56449000  0.12411000  0.33386000  1.0
  C  C50  1  0.49343000  0.24245000  0.71787000  1.0
  C  C51  1  0.50657000  0.75755000  0.28214000  1.0
  C  C52  1  0.31007000  0.72419000  0.55420000  1.0
  C  C53  1  0.68993000  0.27582000  0.44580000  1.0
  S  S54  1  0.57517000  0.05976000  0.77807000  1.0
  S  S55  1  0.42483000  0.94025000  0.22193000  1.0
  S  S56  1  0.84978000  0.87400000  0.05812000  1.0
  S  S57  1  0.15023000  0.12599000  0.94188000  1.0
  N  N58  1  0.37676000  0.26464000  0.63278000  1.0
  N  N59  1  0.62324000  0.73537000  0.36723000  1.0
  N  N60  1  0.54634000  0.34436000  0.75774000  1.0
  N  N61  1  0.45366000  0.65564000  0.24227000  1.0
  N  N62  1  0.15171000  0.73260000  0.11227000  1.0
  N  N63  1  0.84829000  0.26739000  0.88773000  1.0
  N  N64  1  0.02888000  0.88557000  0.25458000  1.0
  N  N65  1  0.97112000  0.11443000  0.74541000  1.0
  O  O66  1  0.01889000  0.46872000  0.63505000  1.0
  O  O67  1  0.98111000  0.53128000  0.36495000  1.0
  O  O68  1  0.40985000  0.60862000  0.60345000  1.0
  O  O69  1  0.59015000  0.39138000  0.39655000  1.0
  O  O70  1  0.19745000  0.72054000  0.47996000  1.0
  O  O71  1  0.80255000  0.27946000  0.52005000  1.0
  O  O72  1  0.77011000  0.59781000  0.67725000  1.0
  O  O73  1  0.22989000  0.40218000  0.32276000  1.0
