# generated using pymatgen
data_AgH8C11SN3O2
_symmetry_space_group_name_H-M   'P 1'
_cell_length_a   7.58059000
_cell_length_b   9.23253000
_cell_length_c   18.32210000
_cell_angle_alpha   97.48030000
_cell_angle_beta   95.64400000
_cell_angle_gamma   93.86960000
_symmetry_Int_Tables_number   1
_chemical_formula_structural   AgH8C11SN3O2
_chemical_formula_sum   'Ag4 H32 C44 S4 N12 O8'
_cell_volume   1261.05504567
_cell_formula_units_Z   4
loop_
 _symmetry_equiv_pos_site_id
 _symmetry_equiv_pos_as_xyz
  1  'x, y, z'
loop_
 _atom_site_type_symbol
 _atom_site_label
 _atom_site_symmetry_multiplicity
 _atom_site_fract_x
 _atom_site_fract_y
 _atom_site_fract_z
 _atom_site_occupancy
  Ag  Ag0  1  0.07178000  0.54803000  0.07527000  1.0
  Ag  Ag1  1  0.92824000  0.45197000  0.92473000  1.0
  Ag  Ag2  1  0.49375000  0.04624000  0.43161000  1.0
  Ag  Ag3  1  0.50624000  0.95377000  0.56839000  1.0
  H  H4  1  0.19730000  0.53631000  0.25975000  1.0
  H  H5  1  0.80269000  0.46369000  0.74025000  1.0
  H  H6  1  0.11528000  0.89779000  0.15204000  1.0
  H  H7  1  0.88476000  0.10220000  0.84795000  1.0
  H  H8  1  0.26918000  0.06515000  0.26553000  1.0
  H  H9  1  0.73083000  0.93485000  0.73447000  1.0
  H  H10  1  0.37666000  0.37870000  0.43803000  1.0
  H  H11  1  0.62333000  0.62130000  0.56197000  1.0
  H  H12  1  0.68899000  0.16267000  0.29189000  1.0
  H  H13  1  0.31102000  0.83733000  0.70810000  1.0
  H  H14  1  0.40342000  0.39640000  0.15521000  1.0
  H  H15  1  0.59659000  0.60360000  0.84478000  1.0
  H  H16  1  0.42291000  0.73905000  0.02978000  1.0
  H  H17  1  0.57711000  0.26094000  0.97021000  1.0
  H  H18  1  0.76023000  0.73129000  0.03451000  1.0
  H  H19  1  0.23979000  0.26870000  0.96549000  1.0
  H  H20  1  0.98050000  0.77771000  0.39010000  1.0
  H  H21  1  0.01950000  0.22230000  0.60991000  1.0
  H  H22  1  0.08861000  0.86183000  0.47671000  1.0
  H  H23  1  0.91139000  0.13816000  0.52330000  1.0
  H  H24  1  0.02294000  0.72442000  0.59247000  1.0
  H  H25  1  0.97703000  0.27558000  0.40753000  1.0
  H  H26  1  0.04561000  0.47910000  0.63379000  1.0
  H  H27  1  0.95437000  0.52090000  0.36621000  1.0
  H  H28  1  0.94894000  0.98628000  0.05754000  1.0
  H  H29  1  0.05105000  0.01373000  0.94247000  1.0
  H  H30  1  0.86527000  0.09224000  0.13222000  1.0
  H  H31  1  0.13474000  0.90778000  0.86778000  1.0
  H  H32  1  0.55140000  0.12652000  0.12907000  1.0
  H  H33  1  0.44859000  0.87347000  0.87094000  1.0
  H  H34  1  0.75503000  0.92921000  0.93202000  1.0
  H  H35  1  0.24497000  0.07079000  0.06798000  1.0
  C  C36  1  0.21937000  0.65441000  0.25979000  1.0
  C  C37  1  0.78064000  0.34558000  0.74021000  1.0
  C  C38  1  0.16986000  0.85538000  0.20157000  1.0
  C  C39  1  0.83017000  0.14461000  0.79842000  1.0
  C  C40  1  0.25736000  0.94598000  0.26293000  1.0
  C  C41  1  0.74264000  0.05402000  0.73706000  1.0
  C  C42  1  0.31592000  0.74536000  0.32013000  1.0
  C  C43  1  0.68407000  0.25464000  0.67988000  1.0
  C  C44  1  0.48495000  0.51117000  0.35888000  1.0
  C  C45  1  0.51504000  0.48883000  0.64112000  1.0
  C  C46  1  0.46028000  0.38445000  0.39308000  1.0
  C  C47  1  0.53972000  0.61555000  0.60691000  1.0
  C  C48  1  0.62940000  0.26328000  0.31099000  1.0
  C  C49  1  0.37060000  0.73672000  0.68901000  1.0
  C  C50  1  0.64878000  0.38962000  0.27628000  1.0
  C  C51  1  0.35122000  0.61039000  0.72372000  1.0
  C  C52  1  0.67102000  0.48934000  0.14344000  1.0
  C  C53  1  0.32899000  0.51066000  0.85656000  1.0
  C  C54  1  0.48432000  0.47775000  0.13211000  1.0
  C  C55  1  0.51569000  0.52225000  0.86788000  1.0
  C  C56  1  0.49519000  0.66337000  0.05999000  1.0
  C  C57  1  0.50482000  0.33662000  0.94000000  1.0
  C  C58  1  0.67958000  0.66296000  0.06488000  1.0
  C  C59  1  0.32044000  0.33704000  0.93512000  1.0
  C  C60  1  0.80834000  0.86553000  0.46766000  1.0
  C  C61  1  0.19165000  0.13448000  0.53234000  1.0
  C  C62  1  0.97436000  0.78669000  0.45008000  1.0
  C  C63  1  0.02562000  0.21331000  0.54992000  1.0
  C  C64  1  0.98648000  0.63976000  0.47633000  1.0
  C  C65  1  0.01349000  0.36025000  0.52367000  1.0
  C  C66  1  0.01324000  0.62602000  0.55184000  1.0
  C  C67  1  0.98673000  0.37398000  0.44816000  1.0
  C  C68  1  0.02623000  0.48843000  0.57477000  1.0
  C  C69  1  0.97374000  0.51156000  0.42523000  1.0
  C  C70  1  0.94732000  0.21517000  0.04726000  1.0
  C  C71  1  0.05268000  0.78483000  0.95274000  1.0
  C  C72  1  0.86253000  0.07481000  0.07172000  1.0
  C  C73  1  0.13747000  0.92520000  0.92828000  1.0
  C  C74  1  0.67637000  0.03272000  0.03524000  1.0
  C  C75  1  0.32363000  0.96729000  0.96477000  1.0
  C  C76  1  0.52919000  0.07031000  0.07227000  1.0
  C  C77  1  0.47081000  0.92969000  0.92774000  1.0
  C  C78  1  0.64394000  0.96153000  0.96225000  1.0
  C  C79  1  0.35605000  0.03848000  0.03776000  1.0
  S  S80  1  0.40590000  0.67550000  0.39953000  1.0
  S  S81  1  0.59409000  0.32449000  0.60047000  1.0
  S  S82  1  0.78830000  0.38531000  0.20393000  1.0
  S  S83  1  0.21171000  0.61469000  0.79608000  1.0
  N  N84  1  0.14950000  0.70935000  0.20087000  1.0
  N  N85  1  0.85053000  0.29065000  0.79912000  1.0
  N  N86  1  0.33225000  0.89107000  0.32180000  1.0
  N  N87  1  0.66774000  0.10893000  0.67820000  1.0
  N  N88  1  0.57698000  0.51299000  0.30023000  1.0
  N  N89  1  0.42302000  0.48701000  0.69977000  1.0
  N  N90  1  0.53387000  0.26209000  0.36853000  1.0
  N  N91  1  0.46613000  0.73790000  0.63147000  1.0
  N  N92  1  0.39821000  0.56637000  0.09164000  1.0
  N  N93  1  0.60180000  0.43362000  0.90835000  1.0
  N  N94  1  0.76755000  0.57722000  0.10718000  1.0
  N  N95  1  0.23246000  0.42277000  0.89283000  1.0
  O  O96  1  0.75799000  0.95350000  0.42322000  1.0
  O  O97  1  0.24199000  0.04649000  0.57677000  1.0
  O  O98  1  0.73831000  0.84024000  0.52535000  1.0
  O  O99  1  0.26169000  0.15978000  0.47465000  1.0
  O  O100  1  0.05079000  0.29980000  0.09581000  1.0
  O  O101  1  0.94921000  0.70021000  0.90419000  1.0
  O  O102  1  0.90798000  0.23345000  0.98022000  1.0
  O  O103  1  0.09203000  0.76655000  0.01978000  1.0
