# generated using pymatgen
data_AlH20C23NO5
_symmetry_space_group_name_H-M   'P 1'
_cell_length_a   6.70579000
_cell_length_b   24.85010000
_cell_length_c   29.12210000
_cell_angle_alpha   89.60030000
_cell_angle_beta   88.28790000
_cell_angle_gamma   86.09850000
_symmetry_Int_Tables_number   1
_chemical_formula_structural   AlH20C23NO5
_chemical_formula_sum   'Al4 H80 C92 N4 O20'
_cell_volume   4839.42621125
_cell_formula_units_Z   4
loop_
 _symmetry_equiv_pos_site_id
 _symmetry_equiv_pos_as_xyz
  1  'x, y, z'
loop_
 _atom_site_type_symbol
 _atom_site_label
 _atom_site_symmetry_multiplicity
 _atom_site_fract_x
 _atom_site_fract_y
 _atom_site_fract_z
 _atom_site_occupancy
  Al  Al0  1  0.19344000  0.74994000  0.25366000  1.0
  Al  Al1  1  0.80079000  0.25231000  0.74937000  1.0
  Al  Al2  1  0.69252000  0.74852000  0.25353000  1.0
  Al  Al3  1  0.30180000  0.25105000  0.74966000  1.0
  H  H4  1  0.25814000  0.66666667  0.37458000  1.0
  H  H5  1  0.75905000  0.32777000  0.62226000  1.0
  H  H6  1  0.27228000  0.60173000  0.44078000  1.0
  H  H7  1  0.75066000  0.39068000  0.55460000  1.0
  H  H8  1  0.69345000  0.55070000  0.40707000  1.0
  H  H9  1  0.29758000  0.45404000  0.59705000  1.0
  H  H10  1  0.29384000  0.55310000  0.09711000  1.0
  H  H11  1  0.70357000  0.44462000  0.90626000  1.0
  H  H12  1  0.68395000  0.60425000  0.06702000  1.0
  H  H13  1  0.31737000  0.39592000  0.93486000  1.0
  H  H14  1  0.67030000  0.66609000  0.13398000  1.0
  H  H15  1  0.32981000  0.33304000  0.86848000  1.0
  H  H16  1  0.69382000  0.51247000  0.05109000  1.0
  H  H17  1  0.30562000  0.48677000  0.95138000  1.0
  H  H18  1  0.70144000  0.44916000  0.98620000  1.0
  H  H19  1  0.29825000  0.54995000  0.01635000  1.0
  H  H20  1  0.34225000  0.21092000  0.61468000  1.0
  H  H21  1  0.69889000  0.88586000  0.31347000  1.0
  H  H22  1  0.32504000  0.16327000  0.54180000  1.0
  H  H23  1  0.73154000  0.96314000  0.36265000  1.0
  H  H24  1  0.77000000  0.04397000  0.58846000  1.0
  H  H25  1  0.21209000  0.92030000  0.44161000  1.0
  H  H26  1  0.82448000  0.03353000  0.51906000  1.0
  H  H27  1  0.19404000  0.01923000  0.44312000  1.0
  H  H28  1  0.26399000  0.18170000  0.87100000  1.0
  H  H29  1  0.70736000  0.88022000  0.17216000  1.0
  H  H30  1  0.22898000  0.12046000  0.93853000  1.0
  H  H31  1  0.73482000  0.94821000  0.10996000  1.0
  H  H32  1  0.82510000  0.00897000  0.67004000  1.0
  H  H33  1  0.02214000  0.02333000  0.63049000  1.0
  H  H34  1  0.05934000  0.02656000  0.69024000  1.0
  H  H35  1  0.00260000  0.11965000  0.65715000  1.0
  H  H36  1  0.82708000  0.10541000  0.70009000  1.0
  H  H37  1  0.25754000  0.76056000  0.38600000  1.0
  H  H38  1  0.21722000  0.78666000  0.44253000  1.0
  H  H39  1  0.01546000  0.76197000  0.41228000  1.0
  H  H40  1  0.99268000  0.86274000  0.41144000  1.0
  H  H41  1  0.02858000  0.83621000  0.35542000  1.0
  H  H42  1  0.80199000  0.02905000  0.38086000  1.0
  H  H43  1  0.96283000  0.05859000  0.41776000  1.0
  H  H44  1  0.05802000  0.00475000  0.38123000  1.0
  H  H45  1  0.99313000  0.97619000  0.46689000  1.0
  H  H46  1  0.86997000  0.93889000  0.42637000  1.0
  H  H47  1  0.23656000  0.17262000  0.47867000  1.0
  H  H48  1  0.12693000  0.13313000  0.43745000  1.0
  H  H49  1  0.97352000  0.16609000  0.48109000  1.0
  H  H50  1  0.02154000  0.06911000  0.49697000  1.0
  H  H51  1  0.12602000  0.10474000  0.54096000  1.0
  H  H52  1  0.82573000  0.05171000  0.91015000  1.0
  H  H53  1  0.20070000  0.89421000  0.05227000  1.0
  H  H54  1  0.86138000  0.04011000  0.79712000  1.0
  H  H55  1  0.79043000  0.10275000  0.77055000  1.0
  H  H56  1  0.04719000  0.08001000  0.77188000  1.0
  H  H57  1  0.97748000  0.15087000  0.83008000  1.0
  H  H58  1  0.03550000  0.08850000  0.85802000  1.0
  H  H59  1  0.29737000  0.75948000  0.06194000  1.0
  H  H60  1  0.30826000  0.73838000  0.12042000  1.0
  H  H61  1  0.08792000  0.73121000  0.08953000  1.0
  H  H62  1  0.04548000  0.81077000  0.14252000  1.0
  H  H63  1  0.02297000  0.83075000  0.08439000  1.0
  H  H64  1  0.16808000  0.95759000  0.90775000  1.0
  H  H65  1  0.24957000  0.01853000  0.88369000  1.0
  H  H66  1  0.28658000  0.95755000  0.85216000  1.0
  H  H67  1  0.60640000  0.98161000  0.88658000  1.0
  H  H68  1  0.53005000  0.92007000  0.90949000  1.0
  H  H69  1  0.12101000  0.05964000  0.09628000  1.0
  H  H70  1  0.20684000  0.99767000  0.12206000  1.0
  H  H71  1  0.22076000  0.05908000  0.15232000  1.0
  H  H72  1  0.55774000  0.02760000  0.12014000  1.0
  H  H73  1  0.47538000  0.08977000  0.09555000  1.0
  H  H74  1  0.47833000  0.90722000  0.98787000  1.0
  H  H75  1  0.48884000  0.10213000  0.01807000  1.0
  H  H76  1  0.67425000  0.61878000  0.34299000  1.0
  H  H77  1  0.31081000  0.38897000  0.66311000  1.0
  H  H78  1  0.28153000  0.61751000  0.16231000  1.0
  H  H79  1  0.71494000  0.37886000  0.84180000  1.0
  H  H80  1  0.45737000  0.68122000  0.23764000  1.0
  H  H81  1  0.53329000  0.31914000  0.73146000  1.0
  H  H82  1  0.92674000  0.81529000  0.23352000  1.0
  H  H83  1  0.06737000  0.18684000  0.72772000  1.0
  C  C84  1  0.42570000  0.81687000  0.31244000  1.0
  C  C85  1  0.57090000  0.19006000  0.68451000  1.0
  C  C86  1  0.43273000  0.81229000  0.18878000  1.0
  C  C87  1  0.56609000  0.18883000  0.81252000  1.0
  C  C88  1  0.96243000  0.68288000  0.19217000  1.0
  C  C89  1  0.03422000  0.31431000  0.81186000  1.0
  C  C90  1  0.95712000  0.68628000  0.31647000  1.0
  C  C91  1  0.03761000  0.31735000  0.68702000  1.0
  C  C92  1  0.13455000  0.64154000  0.38243000  1.0
  C  C93  1  0.87666000  0.35540000  0.61623000  1.0
  C  C94  1  0.14296000  0.60527000  0.41892000  1.0
  C  C95  1  0.87149000  0.39041000  0.57881000  1.0
  C  C96  1  0.98378000  0.57224000  0.42786000  1.0
  C  C97  1  0.02286000  0.42643000  0.57193000  1.0
  C  C98  1  0.81508000  0.57679000  0.40011000  1.0
  C  C99  1  0.18138000  0.42591000  0.60258000  1.0
  C  C100  1  0.80495000  0.61429000  0.36444000  1.0
  C  C101  1  0.18819000  0.38990000  0.63932000  1.0
  C  C102  1  0.96503000  0.64666000  0.35523000  1.0
  C  C103  1  0.03499000  0.35485000  0.64673000  1.0
  C  C104  1  0.01449000  0.46456000  0.53312000  1.0
  C  C105  1  0.99533000  0.53298000  0.46577000  1.0
  C  C106  1  0.15118000  0.61412000  0.14132000  1.0
  C  C107  1  0.84594000  0.38315000  0.86243000  1.0
  C  C108  1  0.15798000  0.57864000  0.10449000  1.0
  C  C109  1  0.84002000  0.41932000  0.89878000  1.0
  C  C110  1  0.98956000  0.57386000  0.07746000  1.0
  C  C111  1  0.00978000  0.42500000  0.92519000  1.0
  C  C112  1  0.81396000  0.60605000  0.08848000  1.0
  C  C113  1  0.18614000  0.39327000  0.91393000  1.0
  C  C114  1  0.80598000  0.64097000  0.12562000  1.0
  C  C115  1  0.19348000  0.35764000  0.87730000  1.0
  C  C116  1  0.97450000  0.64527000  0.15245000  1.0
  C  C117  1  0.02328000  0.35227000  0.85128000  1.0
  C  C118  1  0.82733000  0.50766000  0.02876000  1.0
  C  C119  1  0.17205000  0.49158000  0.97368000  1.0
  C  C120  1  0.83159000  0.47195000  0.99216000  1.0
  C  C121  1  0.16794000  0.52724000  0.01032000  1.0
  C  C122  1  0.00414000  0.46314000  0.96384000  1.0
  C  C123  1  0.99534000  0.53603000  0.03862000  1.0
  C  C124  1  0.43994000  0.17474000  0.60811000  1.0
  C  C125  1  0.58788000  0.89485000  0.34094000  1.0
  C  C126  1  0.42581000  0.14663000  0.56749000  1.0
  C  C127  1  0.60879000  0.93797000  0.36996000  1.0
  C  C128  1  0.53968000  0.09762000  0.55991000  1.0
  C  C129  1  0.47509000  0.94825000  0.40761000  1.0
  C  C130  1  0.68080000  0.08191000  0.59320000  1.0
  C  C131  1  0.31461000  0.91465000  0.41208000  1.0
  C  C132  1  0.71041000  0.11196000  0.63263000  1.0
  C  C133  1  0.28148000  0.87322000  0.38130000  1.0
  C  C134  1  0.57898000  0.15805000  0.64121000  1.0
  C  C135  1  0.42635000  0.86217000  0.34582000  1.0
  C  C136  1  0.68306000  0.03131000  0.50210000  1.0
  C  C137  1  0.33387000  0.02230000  0.45989000  1.0
  C  C138  1  0.68251000  0.99856000  0.46341000  1.0
  C  C139  1  0.33715000  0.06020000  0.49516000  1.0
  C  C140  1  0.49882000  0.99017000  0.44312000  1.0
  C  C141  1  0.51663000  0.06334000  0.51911000  1.0
  C  C142  1  0.38747000  0.15338000  0.88037000  1.0
  C  C143  1  0.59529000  0.88403000  0.14581000  1.0
  C  C144  1  0.36786000  0.11907000  0.91793000  1.0
  C  C145  1  0.60976000  0.92232000  0.11118000  1.0
  C  C146  1  0.52423000  0.08094000  0.92826000  1.0
  C  C147  1  0.46489000  0.92708000  0.07732000  1.0
  C  C148  1  0.70208000  0.08066000  0.90166000  1.0
  C  C149  1  0.31207000  0.89122000  0.07896000  1.0
  C  C150  1  0.72827000  0.11594000  0.86460000  1.0
  C  C151  1  0.29302000  0.85241000  0.11367000  1.0
  C  C152  1  0.56428000  0.15200000  0.85324000  1.0
  C  C153  1  0.43729000  0.84960000  0.14836000  1.0
  C  C154  1  0.49556000  0.98556000  0.95688000  1.0
  C  C155  1  0.47341000  0.02376000  0.04919000  1.0
  C  C156  1  0.48105000  0.95043000  0.99437000  1.0
  C  C157  1  0.48737000  0.05888000  0.01165000  1.0
  C  C158  1  0.47377000  0.96795000  0.04010000  1.0
  C  C159  1  0.50229000  0.04111000  0.96604000  1.0
  C  C160  1  0.87568000  0.09460000  0.66491000  1.0
  C  C161  1  0.94908000  0.03507000  0.66354000  1.0
  C  C162  1  0.10127000  0.84049000  0.38837000  1.0
  C  C163  1  0.15124000  0.78420000  0.40857000  1.0
  C  C164  1  0.87705000  0.97924000  0.44103000  1.0
  C  C165  1  0.92960000  0.01984000  0.40293000  1.0
  C  C166  1  0.14486000  0.09400000  0.50450000  1.0
  C  C167  1  0.11947000  0.14447000  0.47391000  1.0
  C  C168  1  0.92331000  0.11094000  0.83724000  1.0
  C  C169  1  0.90456000  0.08162000  0.79159000  1.0
  C  C170  1  0.12892000  0.81403000  0.10977000  1.0
  C  C171  1  0.21065000  0.75750000  0.09449000  1.0
  C  C172  1  0.49169000  0.96383000  0.90857000  1.0
  C  C173  1  0.28695000  0.97495000  0.88676000  1.0
  C  C174  1  0.44643000  0.04673000  0.09713000  1.0
  C  C175  1  0.23642000  0.04043000  0.11817000  1.0
  N  N176  1  0.85751000  0.49554000  0.46840000  1.0
  N  N177  1  0.15573000  0.50100000  0.52973000  1.0
  N  N178  1  0.86706000  0.46085000  0.50270000  1.0
  N  N179  1  0.14576000  0.53584000  0.49558000  1.0
  O  O180  1  0.59918000  0.80101000  0.20811000  1.0
  O  O181  1  0.40008000  0.19842000  0.79279000  1.0
  O  O182  1  0.26153000  0.80425000  0.29591000  1.0
  O  O183  1  0.73270000  0.19887000  0.70435000  1.0
  O  O184  1  0.12058000  0.70648000  0.30469000  1.0
  O  O185  1  0.87076000  0.29876000  0.69875000  1.0
  O  O186  1  0.26496000  0.79536000  0.20230000  1.0
  O  O187  1  0.73023000  0.20819000  0.79989000  1.0
  O  O188  1  0.12520000  0.69392000  0.21054000  1.0
  O  O189  1  0.87256000  0.30549000  0.79217000  1.0
  O  O190  1  0.59782000  0.79482000  0.30162000  1.0
  O  O191  1  0.39510000  0.20686000  0.69852000  1.0
  O  O192  1  0.44989000  0.71573000  0.25310000  1.0
  O  O193  1  0.54218000  0.28533000  0.74831000  1.0
  O  O194  1  0.78670000  0.70099000  0.20474000  1.0
  O  O195  1  0.20746000  0.29368000  0.80039000  1.0
  O  O196  1  0.78925000  0.69653000  0.29789000  1.0
  O  O197  1  0.20397000  0.30726000  0.70650000  1.0
  O  O198  1  0.93477000  0.78217000  0.25135000  1.0
  O  O199  1  0.05902000  0.21823000  0.74750000  1.0
