# generated using pymatgen
data_LaH9(C2O3)3
_symmetry_space_group_name_H-M   'P 1'
_cell_length_a   9.69544845
_cell_length_b   9.69561000
_cell_length_c   16.15730000
_cell_angle_alpha   89.99690000
_cell_angle_beta   89.99139987
_cell_angle_gamma   60.00034646
_symmetry_Int_Tables_number   1
_chemical_formula_structural   LaH9(C2O3)3
_chemical_formula_sum   'La4 H36 C24 O36'
_cell_volume   1315.35800220
_cell_formula_units_Z   4
loop_
 _symmetry_equiv_pos_site_id
 _symmetry_equiv_pos_as_xyz
  1  'x, y, z'
loop_
 _atom_site_type_symbol
 _atom_site_label
 _atom_site_symmetry_multiplicity
 _atom_site_fract_x
 _atom_site_fract_y
 _atom_site_fract_z
 _atom_site_occupancy
  La  La0  1  0.66666667  0.66666667  0.74998000  1.0
  La  La1  1  0.33333333  0.33333333  0.24998000  1.0
  La  La2  1  0.00000000  0.00003000  0.99998000  1.0
  La  La3  1  0.00000000  0.99996000  0.49998000  1.0
  H  H4  1  0.05374000  0.49668000  0.75029000  1.0
  H  H5  1  0.44956000  0.05375000  0.74988000  1.0
  H  H6  1  0.49668000  0.44958000  0.74997000  1.0
  H  H7  1  0.55045000  0.50331000  0.25011000  1.0
  H  H8  1  0.94627000  0.55041000  0.25000000  1.0
  H  H9  1  0.50333000  0.94625000  0.25002000  1.0
  H  H10  1  0.05431000  0.65921000  0.75033000  1.0
  H  H11  1  0.28646000  0.05431000  0.74990000  1.0
  H  H12  1  0.65921000  0.28650000  0.74996000  1.0
  H  H13  1  0.71355000  0.34077000  0.25012000  1.0
  H  H14  1  0.94572000  0.71349000  0.25002000  1.0
  H  H15  1  0.34080000  0.94570000  0.25003000  1.0
  H  H16  1  0.81339000  0.68688000  0.98996000  1.0
  H  H17  1  0.49975000  0.81338000  0.51008000  1.0
  H  H18  1  0.68689000  0.49975000  0.98995000  1.0
  H  H19  1  0.81339000  0.68684000  0.51004000  1.0
  H  H20  1  0.49973000  0.81340000  0.98996000  1.0
  H  H21  1  0.68687000  0.49972000  0.51006000  1.0
  H  H22  1  0.50025000  0.31310000  0.48996000  1.0
  H  H23  1  0.18664000  0.50029000  0.01008000  1.0
  H  H24  1  0.31313000  0.18661000  0.48997000  1.0
  H  H25  1  0.50024000  0.31315000  0.01005000  1.0
  H  H26  1  0.18661000  0.50025000  0.48996000  1.0
  H  H27  1  0.31315000  0.18661000  0.01006000  1.0
  H  H28  1  0.96006000  0.60223000  0.91061000  1.0
  H  H29  1  0.43765000  0.96002000  0.58944000  1.0
  H  H30  1  0.60231000  0.43774000  0.91056000  1.0
  H  H31  1  0.95997000  0.60236000  0.58946000  1.0
  H  H32  1  0.43773000  0.96000000  0.91057000  1.0
  H  H33  1  0.60227000  0.43764000  0.58942000  1.0
  H  H34  1  0.56227000  0.39771000  0.41058000  1.0
  H  H35  1  0.03998000  0.56236000  0.08945000  1.0
  H  H36  1  0.39775000  0.03999000  0.41059000  1.0
  H  H37  1  0.56235000  0.39769000  0.08942000  1.0
  H  H38  1  0.04001000  0.56226000  0.41059000  1.0
  H  H39  1  0.39768000  0.03997000  0.08943000  1.0
  C  C40  1  0.79553000  0.85228000  0.89533000  1.0
  C  C41  1  0.35216000  0.79547000  0.60467000  1.0
  C  C42  1  0.85234000  0.35224000  0.89532000  1.0
  C  C43  1  0.79537000  0.85237000  0.60462000  1.0
  C  C44  1  0.35223000  0.79547000  0.89534000  1.0
  C  C45  1  0.85229000  0.35217000  0.60465000  1.0
  C  C46  1  0.64778000  0.14768000  0.39532000  1.0
  C  C47  1  0.20452000  0.64786000  0.10467000  1.0
  C  C48  1  0.14773000  0.20451000  0.39534000  1.0
  C  C49  1  0.64780000  0.14768000  0.10464000  1.0
  C  C50  1  0.20456000  0.64775000  0.39533000  1.0
  C  C51  1  0.14764000  0.20455000  0.10466000  1.0
  C  C52  1  0.89422000  0.70768000  0.95037000  1.0
  C  C53  1  0.39810000  0.89419000  0.54965000  1.0
  C  C54  1  0.70769000  0.39816000  0.95035000  1.0
  C  C55  1  0.89415000  0.70769000  0.54963000  1.0
  C  C56  1  0.39815000  0.89418000  0.95036000  1.0
  C  C57  1  0.70767000  0.39809000  0.54963000  1.0
  C  C58  1  0.60186000  0.29230000  0.45036000  1.0
  C  C59  1  0.10580000  0.60192000  0.04964000  1.0
  C  C60  1  0.29234000  0.10581000  0.45038000  1.0
  C  C61  1  0.60188000  0.29233000  0.04961000  1.0
  C  C62  1  0.10582000  0.60185000  0.45037000  1.0
  C  C63  1  0.29231000  0.10581000  0.04963000  1.0
  O  O64  1  0.69541000  0.84394000  0.84788000  1.0
  O  O65  1  0.46059000  0.69532000  0.65211000  1.0
  O  O66  1  0.84410000  0.46071000  0.84789000  1.0
  O  O67  1  0.69517000  0.84411000  0.65206000  1.0
  O  O68  1  0.46072000  0.69528000  0.84792000  1.0
  O  O69  1  0.84397000  0.46062000  0.65209000  1.0
  O  O70  1  0.53933000  0.15598000  0.34788000  1.0
  O  O71  1  0.30466000  0.53942000  0.15210000  1.0
  O  O72  1  0.15602000  0.30469000  0.34792000  1.0
  O  O73  1  0.53932000  0.15597000  0.15206000  1.0
  O  O74  1  0.30475000  0.53929000  0.34791000  1.0
  O  O75  1  0.15594000  0.30468000  0.15209000  1.0
  O  O76  1  0.81703000  0.97018000  0.90029000  1.0
  O  O77  1  0.21277000  0.81698000  0.59967000  1.0
  O  O78  1  0.97021000  0.21283000  0.90028000  1.0
  O  O79  1  0.81689000  0.97025000  0.59964000  1.0
  O  O80  1  0.21283000  0.81700000  0.90029000  1.0
  O  O81  1  0.97018000  0.21276000  0.59968000  1.0
  O  O82  1  0.78719000  0.02978000  0.40030000  1.0
  O  O83  1  0.18299000  0.78724000  0.09968000  1.0
  O  O84  1  0.02984000  0.18298000  0.40030000  1.0
  O  O85  1  0.78721000  0.02982000  0.09968000  1.0
  O  O86  1  0.18303000  0.78715000  0.40029000  1.0
  O  O87  1  0.02977000  0.18304000  0.09967000  1.0
  O  O88  1  0.00001000  0.73450000  1.00000000  1.0
  O  O89  1  0.26552000  0.99999000  0.50000000  1.0
  O  O90  1  0.73447000  0.26553000  0.99996000  1.0
  O  O91  1  0.99998000  0.73448000  0.49999000  1.0
  O  O92  1  0.26551000  0.00002000  0.99998000  1.0
  O  O93  1  0.73448000  0.26550000  0.49997000  1.0
  O  O94  1  0.98633000  0.61189000  0.74961000  1.0
  O  O95  1  0.40176000  0.98633000  0.75021000  1.0
  O  O96  1  0.61190000  0.40180000  0.75009000  1.0
  O  O97  1  0.59824000  0.38810000  0.24982000  1.0
  O  O98  1  0.01371000  0.59819000  0.25001000  1.0
  O  O99  1  0.38811000  0.01370000  0.25001000  1.0
