# generated using pymatgen
data_Cd3H8C14(S3N5)2
_symmetry_space_group_name_H-M   'P 1'
_cell_length_a   6.75023000
_cell_length_b   9.24692000
_cell_length_c   10.78490000
_cell_angle_alpha   108.53800000
_cell_angle_beta   91.25830000
_cell_angle_gamma   104.04300000
_symmetry_Int_Tables_number   1
_chemical_formula_structural   Cd3H8C14(S3N5)2
_chemical_formula_sum   'Cd3 H8 C14 S6 N10'
_cell_volume   615.57186860
_cell_formula_units_Z   1
loop_
 _symmetry_equiv_pos_site_id
 _symmetry_equiv_pos_as_xyz
  1  'x, y, z'
loop_
 _atom_site_type_symbol
 _atom_site_label
 _atom_site_symmetry_multiplicity
 _atom_site_fract_x
 _atom_site_fract_y
 _atom_site_fract_z
 _atom_site_occupancy
  Cd  Cd0  1  0.00000000  0.50000000  0.50000000  1.0
  Cd  Cd1  1  0.00000000  0.00000000  0.00000000  1.0
  Cd  Cd2  1  0.50001000  0.50000000  0.00000000  1.0
  H  H3  1  0.21071000  0.52553000  0.77858000  1.0
  H  H4  1  0.78931000  0.47448000  0.22142000  1.0
  H  H5  1  0.46031000  0.15160000  0.76084000  1.0
  H  H6  1  0.53969000  0.84840000  0.23916000  1.0
  H  H7  1  0.30907000  0.01368000  0.52398000  1.0
  H  H8  1  0.69092000  0.98632000  0.47603000  1.0
  H  H9  1  0.11684000  0.15943000  0.42131000  1.0
  H  H10  1  0.88316000  0.84057000  0.57869000  1.0
  C  C11  1  0.25774000  0.83506000  0.74969000  1.0
  C  C12  1  0.74226000  0.16493000  0.25030000  1.0
  C  C13  1  0.23975000  0.36320000  0.22593000  1.0
  C  C14  1  0.76024000  0.63679000  0.77406000  1.0
  C  C15  1  0.19377000  0.73637000  0.10034000  1.0
  C  C16  1  0.80624000  0.26363000  0.89967000  1.0
  C  C17  1  0.23538000  0.41217000  0.72057000  1.0
  C  C18  1  0.76463000  0.58783000  0.27943000  1.0
  C  C19  1  0.37138000  0.20444000  0.71067000  1.0
  C  C20  1  0.62862000  0.79556000  0.28934000  1.0
  C  C21  1  0.28919000  0.12910000  0.57986000  1.0
  C  C22  1  0.71081000  0.87090000  0.42014000  1.0
  C  C23  1  0.18201000  0.20792000  0.52413000  1.0
  C  C24  1  0.81799000  0.79208000  0.47588000  1.0
  S  S25  1  0.33464000  0.75241000  0.60845000  1.0
  S  S26  1  0.66536000  0.24758000  0.39155000  1.0
  S  S27  1  0.33516000  0.26128000  0.09955000  1.0
  S  S28  1  0.66484000  0.73872000  0.90044000  1.0
  S  S29  1  0.13051000  0.89399000  0.18898000  1.0
  S  S30  1  0.86950000  0.10601000  0.81102000  1.0
  N  N31  1  0.20551000  0.89683000  0.85277000  1.0
  N  N32  1  0.79448000  0.10316000  0.14721000  1.0
  N  N33  1  0.17515000  0.43675000  0.31903000  1.0
  N  N34  1  0.82483000  0.56324000  0.68097000  1.0
  N  N35  1  0.24142000  0.62149000  0.03842000  1.0
  N  N36  1  0.75859000  0.37853000  0.96159000  1.0
  N  N37  1  0.15482000  0.34887000  0.59481000  1.0
  N  N38  1  0.84518000  0.65113000  0.40519000  1.0
  N  N39  1  0.34530000  0.34632000  0.78040000  1.0
  N  N40  1  0.65471000  0.65368000  0.21961000  1.0
