# generated using pymatgen
data_Cu2H7C9I2N3
_symmetry_space_group_name_H-M   'P 1'
_cell_length_a   7.37045000
_cell_length_b   9.17730417
_cell_length_c   9.76441000
_cell_angle_alpha   80.74758708
_cell_angle_beta   81.64130000
_cell_angle_gamma   67.10920732
_symmetry_Int_Tables_number   1
_chemical_formula_structural   Cu2H7C9I2N3
_chemical_formula_sum   'Cu4 H14 C18 I4 N6'
_cell_volume   598.04626874
_cell_formula_units_Z   2
loop_
 _symmetry_equiv_pos_site_id
 _symmetry_equiv_pos_as_xyz
  1  'x, y, z'
loop_
 _atom_site_type_symbol
 _atom_site_label
 _atom_site_symmetry_multiplicity
 _atom_site_fract_x
 _atom_site_fract_y
 _atom_site_fract_z
 _atom_site_occupancy
  Cu  Cu0  1  0.79043000  0.30053000  0.19930000  1.0
  Cu  Cu1  1  0.20956000  0.69947000  0.80070000  1.0
  Cu  Cu2  1  0.18633000  0.90943000  0.97979000  1.0
  Cu  Cu3  1  0.81367000  0.09057000  0.02021000  1.0
  H  H4  1  0.06859000  0.10950000  0.43646000  1.0
  H  H5  1  0.93141000  0.89049000  0.56355000  1.0
  H  H6  1  0.10289000  0.16000000  0.67303000  1.0
  H  H7  1  0.89710000  0.84000000  0.32698000  1.0
  H  H8  1  0.89544000  0.42833000  0.75294000  1.0
  H  H9  1  0.10455000  0.57167000  0.24706000  1.0
  H  H10  1  0.66468000  0.63229000  0.59307000  1.0
  H  H11  1  0.33531000  0.36772000  0.40692000  1.0
  H  H12  1  0.48931000  0.79648000  0.44744000  1.0
  H  H13  1  0.51070000  0.20352000  0.55256000  1.0
  H  H14  1  0.26916000  0.96386000  0.26147000  1.0
  H  H15  1  0.73085000  0.03614000  0.73853000  1.0
  H  H16  1  0.51746000  0.60342000  0.00693000  1.0
  H  H17  1  0.48254000  0.39658000  0.99307000  1.0
  C  C18  1  0.98165000  0.22436000  0.47438000  1.0
  C  C19  1  0.01835000  0.77564000  0.52563000  1.0
  C  C20  1  0.99995000  0.25326000  0.60636000  1.0
  C  C21  1  0.00004000  0.74674000  0.39364000  1.0
  C  C22  1  0.88483000  0.40221000  0.64994000  1.0
  C  C23  1  0.11517000  0.59779000  0.35006000  1.0
  C  C24  1  0.75683000  0.51582000  0.56018000  1.0
  C  C25  1  0.24317000  0.48418000  0.43982000  1.0
  C  C26  1  0.74729000  0.47858000  0.42850000  1.0
  C  C27  1  0.25271000  0.52142000  0.57150000  1.0
  C  C28  1  0.61802000  0.59343000  0.32688000  1.0
  C  C29  1  0.38198000  0.40657000  0.67312000  1.0
  C  C30  1  0.49487000  0.74905000  0.35075000  1.0
  C  C31  1  0.50515000  0.25094000  0.64924000  1.0
  C  C32  1  0.37263000  0.84283000  0.24874000  1.0
  C  C33  1  0.62738000  0.15717000  0.75126000  1.0
  C  C34  1  0.50712000  0.64191000  0.10866000  1.0
  C  C35  1  0.49289000  0.35809000  0.89133000  1.0
  I  I36  1  0.08370000  0.21508000  0.01321000  1.0
  I  I37  1  0.91631000  0.78492000  0.98679000  1.0
  I  I38  1  0.57919000  0.12654000  0.25743000  1.0
  I  I39  1  0.42081000  0.87346000  0.74256000  1.0
  N  N40  1  0.85830667  0.33333333  0.38651000  1.0
  N  N41  1  0.14173000  0.66663000  0.61349000  1.0
  N  N42  1  0.62298000  0.54054000  0.20301000  1.0
  N  N43  1  0.37703000  0.45945000  0.79699000  1.0
  N  N44  1  0.37644000  0.78926000  0.12710000  1.0
  N  N45  1  0.62357000  0.21074000  0.87290000  1.0
