# generated using pymatgen
data_Zr6H25C50Cl5O34
_symmetry_space_group_name_H-M   'P 1'
_cell_length_a   14.78290000
_cell_length_b   14.78670000
_cell_length_c   14.78596925
_cell_angle_alpha   89.86827108
_cell_angle_beta   60.12115187
_cell_angle_gamma   60.09470000
_symmetry_Int_Tables_number   1
_chemical_formula_structural   Zr6H25C50Cl5O34
_chemical_formula_sum   'Zr6 H25 C50 Cl5 O34'
_cell_volume   2295.44247784
_cell_formula_units_Z   1
loop_
 _symmetry_equiv_pos_site_id
 _symmetry_equiv_pos_as_xyz
  1  'x, y, z'
loop_
 _atom_site_type_symbol
 _atom_site_label
 _atom_site_symmetry_multiplicity
 _atom_site_fract_x
 _atom_site_fract_y
 _atom_site_fract_z
 _atom_site_occupancy
  Zr  Zr0  1  0.50197000  0.11830000  0.61840000  1.0
  Zr  Zr1  1  0.49789000  0.88222000  0.38198000  1.0
  Zr  Zr2  1  0.26350000  0.11856000  0.61845000  1.0
  Zr  Zr3  1  0.73952000  0.87992000  0.37983000  1.0
  Zr  Zr4  1  0.50212000  0.11861000  0.37870000  1.0
  Zr  Zr5  1  0.50188000  0.87868000  0.61842000  1.0
  H  H6  1  0.31450000  0.28091000  0.59288000  1.0
  H  H7  1  0.68698000  0.90627000  0.21791000  1.0
  H  H8  1  0.31210000  0.90603000  0.59418000  1.0
  H  H9  1  0.68962000  0.90454000  0.59332000  1.0
  H  H10  1  0.50824000  0.41466000  0.64145000  1.0
  H  H11  1  0.50012000  0.40976000  0.35502000  1.0
  H  H12  1  0.50604000  0.58541000  0.63505000  1.0
  H  H13  1  0.49415000  0.14831000  0.92149000  1.0
  H  H14  1  0.49006000  0.85982000  0.91473000  1.0
  H  H15  1  0.49192000  0.14197000  0.09224000  1.0
  H  H16  1  0.77662000  0.14833000  0.08226000  1.0
  H  H17  1  0.05526000  0.85697000  0.09244000  1.0
  H  H18  1  0.95315000  0.14071000  0.91317000  1.0
  H  H19  1  0.77684000  0.57488000  0.64108000  1.0
  H  H20  1  0.05474000  0.58776000  0.35193000  1.0
  H  H21  1  0.95381000  0.40597000  0.63330000  1.0
  H  H22  1  0.29794000  0.37189000  0.95928000  1.0
  H  H23  1  0.29648000  0.45712000  0.87352000  1.0
  H  H24  1  0.12771000  0.62644000  0.04228000  1.0
  H  H25  1  0.12933000  0.54117000  0.12800000  1.0
  H  H26  1  0.06509000  0.85848000  0.35148000  1.0
  H  H27  1  0.76602000  0.14640000  0.64116000  1.0
  H  H28  1  0.22652000  0.86675000  0.35981000  1.0
  H  H29  1  0.69560000  0.64947000  0.15523000  1.0
  H  H30  1  0.00361000  0.34185000  0.84869000  1.0
  C  C31  1  0.50821000  0.29931000  0.49720000  1.0
  C  C32  1  0.49205000  0.00109000  0.19981000  1.0
  C  C33  1  0.50449000  0.69368000  0.49476000  1.0
  C  C34  1  0.49518000  0.00334000  0.80566000  1.0
  C  C35  1  0.19784000  0.30056000  0.80668000  1.0
  C  C36  1  0.80608000  0.00119000  0.49457000  1.0
  C  C37  1  0.80518000  0.69290000  0.19821000  1.0
  C  C38  1  0.19271000  0.00713000  0.50074000  1.0
  C  C39  1  0.20119000  0.30026000  0.49293000  1.0
  C  C40  1  0.20086000  0.99941000  0.80629000  1.0
  C  C41  1  0.80326000  0.69194000  0.49734000  1.0
  C  C42  1  0.80356000  0.00399000  0.19852000  1.0
  C  C43  1  0.50318000  0.59323000  0.49197000  1.0
  C  C44  1  0.50606000  0.40137000  0.49729000  1.0
  C  C45  1  0.49993000  0.54343000  0.41294000  1.0
  C  C46  1  0.50653000  0.45094000  0.57765000  1.0
  C  C47  1  0.50205000  0.44813000  0.41615000  1.0
  C  C48  1  0.50532000  0.54525000  0.57397000  1.0
  C  C49  1  0.49068000  0.99811000  0.09935000  1.0
  C  C50  1  0.49222000  0.00400000  0.90814000  1.0
  C  C51  1  0.49004000  0.91771000  0.04831000  1.0
  C  C52  1  0.49271000  0.08437000  0.95763000  1.0
  C  C53  1  0.49061000  0.92168000  0.95375000  1.0
  C  C54  1  0.49175000  0.08059000  0.05184000  1.0
  C  C55  1  0.10307000  0.99596000  0.90731000  1.0
  C  C56  1  0.90573000  0.00306000  0.09781000  1.0
  C  C57  1  0.13132000  0.91484000  0.95878000  1.0
  C  C58  1  0.87596000  0.08349000  0.04737000  1.0
  C  C59  1  0.03295000  0.91936000  0.05306000  1.0
  C  C60  1  0.97392000  0.07909000  0.95378000  1.0
  C  C61  1  0.10334000  0.40110000  0.48929000  1.0
  C  C62  1  0.90556000  0.59087000  0.49600000  1.0
  C  C63  1  0.13129000  0.45386000  0.40943000  1.0
  C  C64  1  0.87607000  0.54032000  0.57637000  1.0
  C  C65  1  0.03269000  0.54748000  0.41349000  1.0
  C  C66  1  0.97426000  0.44691000  0.57198000  1.0
  C  C67  1  0.09812000  0.39934000  0.90515000  1.0
  C  C68  1  0.90339000  0.59414000  0.09949000  1.0
  C  C69  1  0.12718000  0.45119000  0.95569000  1.0
  C  C70  1  0.87059000  0.54450000  0.05003000  1.0
  C  C71  1  0.03440000  0.54407000  0.04837000  1.0
  C  C72  1  0.96687000  0.44811000  0.95403000  1.0
  C  C73  1  0.23612000  0.44556000  0.94795000  1.0
  C  C74  1  0.12981000  0.55216000  0.05423000  1.0
  C  C75  1  0.08843000  0.01021000  0.50389000  1.0
  C  C76  1  0.90576000  0.00278000  0.49579000  1.0
  C  C77  1  0.95674000  0.08954000  0.58437000  1.0
  C  C78  1  0.03578000  0.92289000  0.41601000  1.0
  C  C79  1  0.86721000  0.08519000  0.57934000  1.0
  C  C80  1  0.12479000  0.92754000  0.42082000  1.0
  Cl  Cl81  1  0.49286000  0.59181000  0.30851000  1.0
  Cl  Cl82  1  0.49002000  0.80973000  0.09337000  1.0
  Cl  Cl83  1  0.28360000  0.80540000  0.91306000  1.0
  Cl  Cl84  1  0.28348000  0.41143000  0.30311000  1.0
  Cl  Cl85  1  0.89413000  0.19557000  0.69363000  1.0
  O  O86  1  0.50708000  0.26092000  0.57496000  1.0
  O  O87  1  0.49149000  0.92634000  0.24284000  1.0
  O  O88  1  0.50357000  0.73676000  0.42013000  1.0
  O  O89  1  0.49768000  0.07930000  0.76540000  1.0
  O  O90  1  0.16092000  0.25994000  0.76514000  1.0
  O  O91  1  0.84394000  0.92347000  0.41868000  1.0
  O  O92  1  0.84070000  0.73404000  0.23837000  1.0
  O  O93  1  0.16081000  0.08182000  0.57538000  1.0
  O  O94  1  0.31820000  0.25780000  0.41760000  1.0
  O  O95  1  0.31773000  0.92365000  0.76356000  1.0
  O  O96  1  0.68779000  0.73094000  0.57489000  1.0
  O  O97  1  0.68808000  0.07999000  0.23591000  1.0
  O  O98  1  0.16074000  0.07734000  0.76860000  1.0
  O  O99  1  0.83946000  0.73264000  0.42131000  1.0
  O  O100  1  0.83975000  0.92743000  0.23871000  1.0
  O  O101  1  0.16102000  0.26402000  0.57215000  1.0
  O  O102  1  0.31399000  0.26039000  0.76608000  1.0
  O  O103  1  0.30723000  0.92898000  0.42410000  1.0
  O  O104  1  0.68688000  0.73391000  0.23854000  1.0
  O  O105  1  0.69020000  0.07709000  0.57094000  1.0
  O  O106  1  0.49710000  0.92581000  0.76507000  1.0
  O  O107  1  0.50922000  0.25900000  0.42014000  1.0
  O  O108  1  0.49568000  0.07720000  0.23515000  1.0
  O  O109  1  0.50535000  0.73057000  0.57222000  1.0
  O  O110  1  0.63623000  0.93134000  0.56633000  1.0
  O  O111  1  0.36577000  0.93271000  0.56749000  1.0
  O  O112  1  0.63436000  0.93301000  0.29794000  1.0
  O  O113  1  0.36781000  0.20085000  0.56626000  1.0
  O  O114  1  0.40124000  0.05009000  0.45024000  1.0
  O  O115  1  0.60059000  0.04877000  0.44945000  1.0
  O  O116  1  0.59947000  0.85084000  0.45015000  1.0
  O  O117  1  0.40289000  0.04822000  0.64794000  1.0
  O  O118  1  0.74959000  0.58353000  0.08893000  1.0
  O  O119  1  0.92472000  0.40794000  0.91442000  1.0
