# generated using pymatgen
data_MnH19C18N6O5
_symmetry_space_group_name_H-M   'P 1'
_cell_length_a   8.95852000
_cell_length_b   10.24140000
_cell_length_c   12.01330000
_cell_angle_alpha   101.05400000
_cell_angle_beta   110.59300000
_cell_angle_gamma   103.48100000
_symmetry_Int_Tables_number   1
_chemical_formula_structural   MnH19C18N6O5
_chemical_formula_sum   'Mn2 H38 C36 N12 O10'
_cell_volume   956.90278773
_cell_formula_units_Z   2
loop_
 _symmetry_equiv_pos_site_id
 _symmetry_equiv_pos_as_xyz
  1  'x, y, z'
loop_
 _atom_site_type_symbol
 _atom_site_label
 _atom_site_symmetry_multiplicity
 _atom_site_fract_x
 _atom_site_fract_y
 _atom_site_fract_z
 _atom_site_occupancy
  Mn  Mn0  1  0.15892000  0.36212000  0.01858000  1.0
  Mn  Mn1  1  0.84108000  0.63788000  0.98142000  1.0
  H  H2  1  0.14181000  0.90658000  0.04855000  1.0
  H  H3  1  0.85819000  0.09342000  0.95146000  1.0
  H  H4  1  0.57865000  0.77535000  0.18483000  1.0
  H  H5  1  0.42135000  0.22465000  0.81517000  1.0
  H  H6  1  0.63707000  0.20676000  0.18611000  1.0
  H  H7  1  0.36293000  0.79324000  0.81389000  1.0
  H  H8  1  0.00194000  0.14071000  0.41785000  1.0
  H  H9  1  0.99806000  0.85929000  0.58215000  1.0
  H  H10  1  0.82682000  0.20500000  0.38622000  1.0
  H  H11  1  0.17318000  0.79499000  0.61378000  1.0
  H  H12  1  0.07191000  0.54720000  0.24526000  1.0
  H  H13  1  0.92809000  0.45280000  0.75474000  1.0
  H  H14  1  0.02706000  0.11785000  0.15546000  1.0
  H  H15  1  0.97293000  0.88215000  0.84454000  1.0
  H  H16  1  0.98229000  0.15698000  0.71981000  1.0
  H  H17  1  0.01771000  0.84302000  0.28019000  1.0
  H  H18  1  0.39814000  0.53083000  0.88017000  1.0
  H  H19  1  0.60186000  0.46917000  0.11983000  1.0
  H  H20  1  0.38705000  0.57306000  0.67274000  1.0
  H  H21  1  0.61294000  0.42694000  0.32726000  1.0
  H  H22  1  0.23799000  0.44116000  0.53070000  1.0
  H  H23  1  0.76201000  0.55884000  0.46930000  1.0
  H  H24  1  0.55257000  0.47660000  0.58295000  1.0
  H  H25  1  0.44743000  0.52340000  0.41705000  1.0
  H  H26  1  0.56706000  0.42175000  0.71500000  1.0
  H  H27  1  0.43294000  0.57825000  0.28500000  1.0
  H  H28  1  0.34454000  0.23960000  0.44273000  1.0
  H  H29  1  0.65546000  0.76040000  0.55727000  1.0
  H  H30  1  0.35136000  0.18491000  0.57468000  1.0
  H  H31  1  0.64864000  0.81509000  0.42532000  1.0
  H  H32  1  0.65128000  0.27606000  0.50652000  1.0
  H  H33  1  0.34872000  0.72393000  0.49348000  1.0
  H  H34  1  0.66516000  0.22713000  0.64163000  1.0
  H  H35  1  0.33484000  0.77287000  0.35837000  1.0
  H  H36  1  0.44497000  0.03147000  0.37421000  1.0
  H  H37  1  0.55503000  0.96853000  0.62580000  1.0
  H  H38  1  0.65039000  0.03757000  0.46527000  1.0
  H  H39  1  0.34961000  0.96242000  0.53473000  1.0
  C  C40  1  0.38261000  0.06449000  0.10845000  1.0
  C  C41  1  0.61740000  0.93551000  0.89155000  1.0
  C  C42  1  0.27769000  0.92909000  0.08600000  1.0
  C  C43  1  0.72231000  0.07091000  0.91401000  1.0
  C  C44  1  0.34816000  0.82430000  0.11256000  1.0
  C  C45  1  0.65184000  0.17570000  0.88744000  1.0
  C  C46  1  0.52322000  0.85640000  0.16445000  1.0
  C  C47  1  0.47678000  0.14360000  0.83555000  1.0
  C  C48  1  0.62694000  0.99475000  0.19633000  1.0
  C  C49  1  0.37306000  0.00525000  0.80367000  1.0
  C  C50  1  0.55857000  0.09926000  0.16667000  1.0
  C  C51  1  0.44143000  0.90074000  0.83333000  1.0
  C  C52  1  0.30558000  0.17289000  0.07109000  1.0
  C  C53  1  0.69442000  0.82711000  0.92891000  1.0
  C  C54  1  0.23813000  0.67960000  0.09233000  1.0
  C  C55  1  0.76187000  0.32040000  0.90767000  1.0
  C  C56  1  0.89698000  0.15337000  0.34416000  1.0
  C  C57  1  0.10302000  0.84663000  0.65584000  1.0
  C  C58  1  0.04630000  0.43859000  0.24615000  1.0
  C  C59  1  0.95370000  0.56141000  0.75385000  1.0
  C  C60  1  0.02749000  0.22151000  0.19875000  1.0
  C  C61  1  0.97251000  0.77849000  0.80125000  1.0
  C  C62  1  0.08440000  0.24674000  0.73084000  1.0
  C  C63  1  0.91560000  0.75326000  0.26916000  1.0
  C  C64  1  0.29533000  0.43608000  0.81630000  1.0
  C  C65  1  0.70466000  0.56392000  0.18370000  1.0
  C  C66  1  0.33660000  0.45983000  0.62347000  1.0
  C  C67  1  0.66340000  0.54017000  0.37653000  1.0
  C  C68  1  0.48060000  0.40643000  0.61858000  1.0
  C  C69  1  0.51940000  0.59357000  0.38142000  1.0
  C  C70  1  0.42739000  0.25348000  0.54039000  1.0
  C  C71  1  0.57261000  0.74652000  0.45961000  1.0
  C  C72  1  0.57938000  0.20756000  0.54368000  1.0
  C  C73  1  0.42062000  0.79244000  0.45632000  1.0
  C  C74  1  0.53560000  0.05332000  0.47129000  1.0
  C  C75  1  0.46440000  0.94668000  0.52871000  1.0
  N  N76  1  0.96419000  0.24874000  0.28366000  1.0
  N  N77  1  0.03581000  0.75126000  0.71634000  1.0
  N  N78  1  0.97489000  0.38692000  0.31536000  1.0
  N  N79  1  0.02511000  0.61308000  0.68464000  1.0
  N  N80  1  0.08034000  0.34068000  0.17262000  1.0
  N  N81  1  0.91966000  0.65933000  0.82738000  1.0
  N  N82  1  0.18987000  0.34465000  0.84318000  1.0
  N  N83  1  0.81013000  0.65534000  0.15682000  1.0
  N  N84  1  0.11872000  0.27239000  0.63667000  1.0
  N  N85  1  0.88128000  0.72761000  0.36334000  1.0
  N  N86  1  0.25346000  0.39367000  0.69309000  1.0
  N  N87  1  0.74654000  0.60633000  0.30691000  1.0
  O  O88  1  0.39614000  0.30290000  0.11509000  1.0
  O  O89  1  0.60385000  0.69710000  0.88491000  1.0
  O  O90  1  0.14931000  0.13252000  0.99726000  1.0
  O  O91  1  0.85069000  0.86749000  0.00274000  1.0
  O  O92  1  0.09429000  0.66526000  0.09474000  1.0
  O  O93  1  0.90571000  0.33474000  0.90527000  1.0
  O  O94  1  0.29772000  0.57889000  0.07822000  1.0
  O  O95  1  0.70228000  0.42111000  0.92178000  1.0
  O  O96  1  0.79795000  0.01889000  0.26010000  1.0
  O  O97  1  0.20205000  0.98111000  0.73990000  1.0
