# generated using pymatgen
data_CdH7C5O7
_symmetry_space_group_name_H-M   'P 1'
_cell_length_a   5.58317000
_cell_length_b   7.63222000
_cell_length_c   9.63129000
_cell_angle_alpha   110.47700000
_cell_angle_beta   102.21900000
_cell_angle_gamma   97.79530000
_symmetry_Int_Tables_number   1
_chemical_formula_structural   CdH7C5O7
_chemical_formula_sum   'Cd2 H14 C10 O14'
_cell_volume   365.77976704
_cell_formula_units_Z   2
loop_
 _symmetry_equiv_pos_site_id
 _symmetry_equiv_pos_as_xyz
  1  'x, y, z'
loop_
 _atom_site_type_symbol
 _atom_site_label
 _atom_site_symmetry_multiplicity
 _atom_site_fract_x
 _atom_site_fract_y
 _atom_site_fract_z
 _atom_site_occupancy
  Cd  Cd0  1  0.52649000  0.58113000  0.33981000  1.0
  Cd  Cd1  1  0.47351000  0.41887000  0.66020000  1.0
  H  H2  1  0.64250000  0.05219000  0.83000000  1.0
  H  H3  1  0.35750000  0.94780000  0.17000000  1.0
  H  H4  1  0.05205000  0.63036000  0.18228000  1.0
  H  H5  1  0.94795000  0.36964000  0.81772000  1.0
  H  H6  1  0.24389000  0.60249000  0.07648000  1.0
  H  H7  1  0.75611000  0.39750000  0.92352000  1.0
  H  H8  1  0.67881000  0.72719000  0.13257000  1.0
  H  H9  1  0.32119000  0.27281000  0.86743000  1.0
  H  H10  1  0.88127000  0.87331000  0.29460000  1.0
  H  H11  1  0.11873000  0.12669000  0.70540000  1.0
  H  H12  1  0.28160000  0.78017000  0.56861000  1.0
  H  H13  1  0.71839000  0.21984000  0.43139000  1.0
  H  H14  1  0.26230000  0.90775000  0.46992000  1.0
  H  H15  1  0.73770000  0.09226000  0.53008000  1.0
  C  C16  1  0.06123000  0.09985000  0.16083000  1.0
  C  C17  1  0.93877000  0.90016000  0.83917000  1.0
  C  C18  1  0.85828000  0.12962000  0.06434000  1.0
  C  C19  1  0.14172000  0.87037000  0.93566000  1.0
  C  C20  1  0.80052000  0.02942000  0.90469000  1.0
  C  C21  1  0.19948000  0.97058000  0.09531000  1.0
  C  C22  1  0.70505000  0.26896000  0.12669000  1.0
  C  C23  1  0.29496000  0.73104000  0.87331000  1.0
  C  C24  1  0.13407000  0.19056000  0.33406000  1.0
  C  C25  1  0.86593000  0.80944000  0.66593000  1.0
  O  O26  1  0.57722000  0.33095000  0.03593000  1.0
  O  O27  1  0.42278000  0.66905000  0.96407000  1.0
  O  O28  1  0.71467000  0.32262000  0.26965000  1.0
  O  O29  1  0.28533000  0.67738000  0.73035000  1.0
  O  O30  1  0.07477000  0.08282000  0.40195000  1.0
  O  O31  1  0.92523000  0.91718000  0.59805000  1.0
  O  O32  1  0.26363000  0.36303000  0.40596000  1.0
  O  O33  1  0.73638000  0.63697000  0.59404000  1.0
  O  O34  1  0.18449000  0.56219000  0.15335000  1.0
  O  O35  1  0.81551000  0.43781000  0.84665000  1.0
  O  O36  1  0.78894000  0.73490000  0.23088000  1.0
  O  O37  1  0.21106000  0.26510000  0.76912000  1.0
  O  O38  1  0.36148000  0.82457000  0.50157000  1.0
  O  O39  1  0.63852000  0.17543000  0.49843000  1.0
