# generated using pymatgen
data_Cu3H10C12N2(ClO3)2
_symmetry_space_group_name_H-M   'P 1'
_cell_length_a   6.94476000
_cell_length_b   10.02140000
_cell_length_c   12.99300000
_cell_angle_alpha   90.00150000
_cell_angle_beta   90.00340000
_cell_angle_gamma   70.27100000
_symmetry_Int_Tables_number   1
_chemical_formula_structural   Cu3H10C12N2(ClO3)2
_chemical_formula_sum   'Cu6 H20 C24 N4 Cl4 O12'
_cell_volume   851.18320408
_cell_formula_units_Z   2
loop_
 _symmetry_equiv_pos_site_id
 _symmetry_equiv_pos_as_xyz
  1  'x, y, z'
loop_
 _atom_site_type_symbol
 _atom_site_label
 _atom_site_symmetry_multiplicity
 _atom_site_fract_x
 _atom_site_fract_y
 _atom_site_fract_z
 _atom_site_occupancy
  Cu  Cu0  1  0.26027000  0.80957000  0.67674000  1.0
  Cu  Cu1  1  0.23975000  0.19043000  0.17673000  1.0
  Cu  Cu2  1  0.73973000  0.19043000  0.32322000  1.0
  Cu  Cu3  1  0.76027000  0.80955000  0.82328000  1.0
  Cu  Cu4  1  0.99989000  0.00001000  0.49997000  1.0
  Cu  Cu5  1  0.50001000  0.99997000  0.00000000  1.0
  H  H6  1  0.28800000  0.01603000  0.59527000  1.0
  H  H7  1  0.21207000  0.98394000  0.09532000  1.0
  H  H8  1  0.71191000  0.98399000  0.40469000  1.0
  H  H9  1  0.78798000  0.01603000  0.90470000  1.0
  H  H10  1  0.34477000  0.20767000  0.39640000  1.0
  H  H11  1  0.15521000  0.79235000  0.89642000  1.0
  H  H12  1  0.65526000  0.79235000  0.60360000  1.0
  H  H13  1  0.84485000  0.20765000  0.10359000  1.0
  H  H14  1  0.32220000  0.40306000  0.52165000  1.0
  H  H15  1  0.17774000  0.59695000  0.02166000  1.0
  H  H16  1  0.67770000  0.59695000  0.47836000  1.0
  H  H17  1  0.82228000  0.40306000  0.97834000  1.0
  H  H18  1  0.99283000  0.70232000  0.29067000  1.0
  H  H19  1  0.50722000  0.29765000  0.79065000  1.0
  H  H20  1  0.00708000  0.29766000  0.70933000  1.0
  H  H21  1  0.49279000  0.70235000  0.20936000  1.0
  H  H22  1  0.04434000  0.49524000  0.17142000  1.0
  H  H23  1  0.45579000  0.50474000  0.67141000  1.0
  H  H24  1  0.95572000  0.50475000  0.82856000  1.0
  H  H25  1  0.54424000  0.49525000  0.32861000  1.0
  C  C26  1  0.27195000  0.31874000  0.37573000  1.0
  C  C27  1  0.22806000  0.68127000  0.87572000  1.0
  C  C28  1  0.72806000  0.68126000  0.62427000  1.0
  C  C29  1  0.77198000  0.31872000  0.12428000  1.0
  C  C30  1  0.25608000  0.42769000  0.44516000  1.0
  C  C31  1  0.24392000  0.57231000  0.94518000  1.0
  C  C32  1  0.74391000  0.57230000  0.55483000  1.0
  C  C33  1  0.75612000  0.42768000  0.05483000  1.0
  C  C34  1  0.15541000  0.56798000  0.41517000  1.0
  C  C35  1  0.34458000  0.43202000  0.91519000  1.0
  C  C36  1  0.84452000  0.43199000  0.58481000  1.0
  C  C37  1  0.65544000  0.56798000  0.08482000  1.0
  C  C38  1  0.07299000  0.59410000  0.31602000  1.0
  C  C39  1  0.42706000  0.40589000  0.81604000  1.0
  C  C40  1  0.92695000  0.40590000  0.68396000  1.0
  C  C41  1  0.57297000  0.59411000  0.18399000  1.0
  C  C42  1  0.09930000  0.48025000  0.25032000  1.0
  C  C43  1  0.40077000  0.51975000  0.75030000  1.0
  C  C44  1  0.90072000  0.51977000  0.74967000  1.0
  C  C45  1  0.59924000  0.48023000  0.24970000  1.0
  C  C46  1  0.13669000  0.69109000  0.48551000  1.0
  C  C47  1  0.36331000  0.30889000  0.98554000  1.0
  C  C48  1  0.86322000  0.30890000  0.51446000  1.0
  C  C49  1  0.63675000  0.69109000  0.01447000  1.0
  N  N50  1  0.19764000  0.34521000  0.27918000  1.0
  N  N51  1  0.30243000  0.65480000  0.77917000  1.0
  N  N52  1  0.80242000  0.65483000  0.72082000  1.0
  N  N53  1  0.69762000  0.34518000  0.22083000  1.0
  Cl  Cl54  1  0.36474000  0.94822000  0.78992000  1.0
  Cl  Cl55  1  0.13523000  0.05181000  0.28991000  1.0
  Cl  Cl56  1  0.63532000  0.05176000  0.21009000  1.0
  Cl  Cl57  1  0.86474000  0.94824000  0.71012000  1.0
  O  O58  1  0.01719000  0.81021000  0.45372000  1.0
  O  O59  1  0.48288000  0.18983000  0.95368000  1.0
  O  O60  1  0.98279000  0.18983000  0.54631000  1.0
  O  O61  1  0.51713000  0.81016000  0.04631000  1.0
  O  O62  1  0.24028000  0.66505000  0.56795000  1.0
  O  O63  1  0.25968000  0.33498000  0.06797000  1.0
  O  O64  1  0.75958000  0.33504000  0.43204000  1.0
  O  O65  1  0.74038000  0.66501000  0.93204000  1.0
  O  O66  1  0.26876000  0.93273000  0.56389000  1.0
  O  O67  1  0.23127000  0.06727000  0.06391000  1.0
  O  O68  1  0.73122000  0.06729000  0.43614000  1.0
  O  O69  1  0.76881000  0.93269000  0.93610000  1.0
