# generated using pymatgen
data_FeH10Pd(C7N3)2
_symmetry_space_group_name_H-M   'P 1'
_cell_length_a   7.03603000
_cell_length_b   7.20850000
_cell_length_c   8.50890080
_cell_angle_alpha   65.05554319
_cell_angle_beta   89.99951466
_cell_angle_gamma   89.99990000
_symmetry_Int_Tables_number   1
_chemical_formula_structural   FeH10Pd(C7N3)2
_chemical_formula_sum   'Fe1 H10 Pd1 C14 N6'
_cell_volume   391.30719136
_cell_formula_units_Z   1
loop_
 _symmetry_equiv_pos_site_id
 _symmetry_equiv_pos_as_xyz
  1  'x, y, z'
loop_
 _atom_site_type_symbol
 _atom_site_label
 _atom_site_symmetry_multiplicity
 _atom_site_fract_x
 _atom_site_fract_y
 _atom_site_fract_z
 _atom_site_occupancy
  Fe  Fe0  1  0.50000000  0.49985000  0.00029000  1.0
  H  H1  1  0.79346000  0.34946000  0.30141000  1.0
  H  H2  1  0.79345000  0.65059000  0.69855000  1.0
  H  H3  1  0.20656000  0.34947000  0.30137000  1.0
  H  H4  1  0.20656000  0.65059000  0.69854000  1.0
  H  H5  1  0.49997000  0.10279000  0.79399000  1.0
  H  H6  1  0.50002000  0.89724000  0.20594000  1.0
  H  H7  1  0.80656000  0.18563000  0.62866000  1.0
  H  H8  1  0.80660000  0.81441000  0.37127000  1.0
  H  H9  1  0.19341000  0.18565000  0.62862000  1.0
  H  H10  1  0.19343000  0.81441000  0.37126000  1.0
  Pd  Pd11  1  0.00000000  0.00000000  0.99998000  1.0
  C  C12  1  0.80415000  0.19580000  0.99995000  1.0
  C  C13  1  0.80415000  0.80416000  0.00009000  1.0
  C  C14  1  0.19584000  0.80417000  0.00011000  1.0
  C  C15  1  0.19583000  0.19579000  0.99996000  1.0
  C  C16  1  0.66513000  0.30999000  0.38050000  1.0
  C  C17  1  0.66514000  0.69006000  0.61942000  1.0
  C  C18  1  0.33487000  0.30999000  0.38049000  1.0
  C  C19  1  0.33487000  0.69007000  0.61941000  1.0
  C  C20  1  0.49999000  0.17350000  0.65296000  1.0
  C  C21  1  0.50002000  0.82653000  0.34696000  1.0
  C  C22  1  0.67054000  0.21970000  0.56080000  1.0
  C  C23  1  0.67058000  0.78035000  0.43912000  1.0
  C  C24  1  0.32943000  0.21970000  0.56078000  1.0
  C  C25  1  0.32944000  0.78035000  0.43912000  1.0
  N  N26  1  0.50001000  0.35360000  0.29338000  1.0
  N  N27  1  0.50001000  0.64647000  0.70649000  1.0
  N  N28  1  0.68928000  0.31339000  0.00005000  1.0
  N  N29  1  0.68927000  0.68644000  0.00024000  1.0
  N  N30  1  0.31073000  0.68643000  0.00026000  1.0
  N  N31  1  0.31073000  0.31339000  0.00006000  1.0
