# generated using pymatgen
data_V2CoH21C15(NO)6
_symmetry_space_group_name_H-M   'P 1'
_cell_length_a   8.95399000
_cell_length_b   10.57250000
_cell_length_c   11.85040000
_cell_angle_alpha   87.76920000
_cell_angle_beta   82.30810000
_cell_angle_gamma   85.05270000
_symmetry_Int_Tables_number   1
_chemical_formula_structural   V2CoH21C15(NO)6
_chemical_formula_sum   'V4 Co2 H42 C30 N12 O12'
_cell_volume   1107.16869246
_cell_formula_units_Z   2
loop_
 _symmetry_equiv_pos_site_id
 _symmetry_equiv_pos_as_xyz
  1  'x, y, z'
loop_
 _atom_site_type_symbol
 _atom_site_label
 _atom_site_symmetry_multiplicity
 _atom_site_fract_x
 _atom_site_fract_y
 _atom_site_fract_z
 _atom_site_occupancy
  V  V0  1  0.09122000  0.13521000  0.85049000  1.0
  V  V1  1  0.90879000  0.86479000  0.14950000  1.0
  V  V2  1  0.17237000  0.09982000  0.10400000  1.0
  V  V3  1  0.82763000  0.90018000  0.89600000  1.0
  Co  Co4  1  0.46212000  0.00322000  0.86515000  1.0
  Co  Co5  1  0.53788000  0.99678000  0.13485000  1.0
  H  H6  1  0.74012000  0.18264000  0.88967000  1.0
  H  H7  1  0.25988000  0.81737000  0.11033000  1.0
  H  H8  1  0.17084000  0.84352000  0.85382000  1.0
  H  H9  1  0.82916000  0.15648000  0.14618000  1.0
  H  H10  1  0.61053000  0.70704000  0.91243000  1.0
  H  H11  1  0.38946000  0.29296000  0.08757000  1.0
  H  H12  1  0.32979000  0.27474000  0.75534000  1.0
  H  H13  1  0.67021000  0.72526000  0.24466000  1.0
  H  H14  1  0.76185000  0.40868000  0.76281000  1.0
  H  H15  1  0.23815000  0.59132000  0.23719000  1.0
  H  H16  1  0.15849000  0.50506000  0.82126000  1.0
  H  H17  1  0.84151000  0.49494000  0.17874000  1.0
  H  H18  1  0.04304000  0.64819000  0.85242000  1.0
  H  H19  1  0.95695000  0.35181000  0.14758000  1.0
  H  H20  1  0.43155000  0.50271000  0.92041000  1.0
  H  H21  1  0.56845000  0.49730000  0.07959000  1.0
  H  H22  1  0.66922000  0.82097000  0.45263000  1.0
  H  H23  1  0.33078000  0.17903000  0.54737000  1.0
  H  H24  1  0.49220000  0.78529000  0.66376000  1.0
  H  H25  1  0.50781000  0.21471000  0.33625000  1.0
  H  H26  1  0.06481000  0.60274000  0.06264000  1.0
  H  H27  1  0.93519000  0.39726000  0.93736000  1.0
  H  H28  1  0.15865000  0.45176000  0.02551000  1.0
  H  H29  1  0.84135000  0.54824000  0.97449000  1.0
  H  H30  1  0.68579000  0.13485000  0.65789000  1.0
  H  H31  1  0.31421000  0.86515000  0.34211000  1.0
  H  H32  1  0.46935000  0.35994000  0.52432000  1.0
  H  H33  1  0.53065000  0.64006000  0.47568000  1.0
  H  H34  1  0.64880000  0.42048000  0.51552000  1.0
  H  H35  1  0.35120000  0.57952000  0.48449000  1.0
  H  H36  1  0.55539000  0.55934000  0.68122000  1.0
  H  H37  1  0.44461000  0.44066000  0.31878000  1.0
  H  H38  1  0.37242000  0.50682000  0.68545000  1.0
  H  H39  1  0.62757000  0.49318000  0.31455000  1.0
  H  H40  1  0.80204000  0.15270000  0.45523000  1.0
  H  H41  1  0.19797000  0.84730000  0.54478000  1.0
  H  H42  1  0.77102000  0.03614000  0.35839000  1.0
  H  H43  1  0.22898000  0.96386000  0.64161000  1.0
  H  H44  1  0.04210000  0.03879000  0.37330000  1.0
  H  H45  1  0.95790000  0.96120000  0.62670000  1.0
  H  H46  1  0.97689000  0.89096000  0.42260000  1.0
  H  H47  1  0.02311000  0.10904000  0.57740000  1.0
  C  C48  1  0.65763000  0.23587000  0.84384000  1.0
  C  C49  1  0.34236000  0.76413000  0.15616000  1.0
  C  C50  1  0.26751000  0.78018000  0.87050000  1.0
  C  C51  1  0.73249000  0.21982000  0.12950000  1.0
  C  C52  1  0.49245000  0.70509000  0.90210000  1.0
  C  C53  1  0.50754000  0.29492000  0.09789000  1.0
  C  C54  1  0.44392000  0.27854000  0.77630000  1.0
  C  C55  1  0.55608000  0.72146000  0.22370000  1.0
  C  C56  1  0.67028000  0.34718000  0.78072000  1.0
  C  C57  1  0.32972000  0.65282000  0.21928000  1.0
  C  C58  1  0.13121000  0.58177000  0.88279000  1.0
  C  C59  1  0.86880000  0.41823000  0.11721000  1.0
  C  C60  1  0.40577000  0.60339000  0.90557000  1.0
  C  C61  1  0.59424000  0.39661000  0.09443000  1.0
  C  C62  1  0.64427000  0.87877000  0.52739000  1.0
  C  C63  1  0.35573000  0.12123000  0.47261000  1.0
  C  C64  1  0.55786000  0.86323000  0.63132000  1.0
  C  C65  1  0.44214000  0.13676000  0.36868000  1.0
  C  C66  1  0.07592000  0.52716000  0.00020000  1.0
  C  C67  1  0.92409000  0.47284000  0.99980000  1.0
  C  C68  1  0.65267000  0.04503000  0.63256000  1.0
  C  C69  1  0.34733000  0.95497000  0.36744000  1.0
  C  C70  1  0.52656000  0.44505000  0.53795000  1.0
  C  C71  1  0.47344000  0.55495000  0.46205000  1.0
  C  C72  1  0.49355000  0.47875000  0.66319000  1.0
  C  C73  1  0.50645000  0.52125000  0.33681000  1.0
  C  C74  1  0.80943000  0.05007000  0.44093000  1.0
  C  C75  1  0.19057000  0.94993000  0.55908000  1.0
  C  C76  1  0.97113000  0.99225000  0.44311000  1.0
  C  C77  1  0.02887000  0.00775000  0.55689000  1.0
  N  N78  1  0.40449000  0.81494000  0.88090000  1.0
  N  N79  1  0.59551000  0.18506000  0.11910000  1.0
  N  N80  1  0.51661000  0.19362000  0.84008000  1.0
  N  N81  1  0.48339000  0.80639000  0.15993000  1.0
  N  N82  1  0.70303000  0.99488000  0.52969000  1.0
  N  N83  1  0.29697000  0.00512000  0.47031000  1.0
  N  N84  1  0.56367000  0.96768000  0.69639000  1.0
  N  N85  1  0.43634000  0.03233000  0.30361000  1.0
  N  N86  1  0.26400000  0.65236000  0.88420000  1.0
  N  N87  1  0.73600000  0.34764000  0.11580000  1.0
  N  N88  1  0.53347000  0.37336000  0.73901000  1.0
  N  N89  1  0.46653000  0.62664000  0.26099000  1.0
  O  O90  1  0.35532000  0.04381000  0.05607000  1.0
  O  O91  1  0.64469000  0.95619000  0.94393000  1.0
  O  O92  1  0.26143000  0.05373000  0.81750000  1.0
  O  O93  1  0.73858000  0.94627000  0.18249000  1.0
  O  O94  1  0.09281000  0.19206000  0.99220000  1.0
  O  O95  1  0.90719000  0.80794000  0.00779000  1.0
  O  O96  1  0.16339000  0.19339000  0.21110000  1.0
  O  O97  1  0.83661000  0.80661000  0.78889000  1.0
  O  O98  1  0.94113000  0.03116000  0.85497000  1.0
  O  O99  1  0.05887000  0.96885000  0.14503000  1.0
  O  O100  1  0.07451000  0.25734000  0.76184000  1.0
  O  O101  1  0.92548000  0.74267000  0.23816000  1.0
