# generated using pymatgen
data_CoCu2H30C15S6Br2N3
_symmetry_space_group_name_H-M   'P 1'
_cell_length_a   11.60610000
_cell_length_b   11.63890000
_cell_length_c   13.70500000
_cell_angle_alpha   66.94540000
_cell_angle_beta   66.87660000
_cell_angle_gamma   74.88070000
_symmetry_Int_Tables_number   1
_chemical_formula_structural   CoCu2H30C15S6Br2N3
_chemical_formula_sum   'Co2 Cu4 H60 C30 S12 Br4 N6'
_cell_volume   1554.00611767
_cell_formula_units_Z   2
loop_
 _symmetry_equiv_pos_site_id
 _symmetry_equiv_pos_as_xyz
  1  'x, y, z'
loop_
 _atom_site_type_symbol
 _atom_site_label
 _atom_site_symmetry_multiplicity
 _atom_site_fract_x
 _atom_site_fract_y
 _atom_site_fract_z
 _atom_site_occupancy
  Co  Co0  1  0.89896000  0.10093000  0.75007000  1.0
  Co  Co1  1  0.10105000  0.89908000  0.24992000  1.0
  Cu  Cu2  1  0.61943000  0.03348000  0.92470000  1.0
  Cu  Cu3  1  0.96641000  0.38003000  0.57576000  1.0
  Cu  Cu4  1  0.38059000  0.96655000  0.07531000  1.0
  Cu  Cu5  1  0.03360000  0.61997000  0.42424000  1.0
  H  H6  1  0.72249000  0.52050000  0.72100000  1.0
  H  H7  1  0.47844000  0.27835000  0.77869000  1.0
  H  H8  1  0.27752000  0.47949000  0.27901000  1.0
  H  H9  1  0.52155000  0.72166000  0.22131000  1.0
  H  H10  1  0.58112000  0.58575000  0.68952000  1.0
  H  H11  1  0.41332000  0.41935000  0.81036000  1.0
  H  H12  1  0.41889000  0.41425000  0.31048000  1.0
  H  H13  1  0.58667000  0.58067000  0.18964000  1.0
  H  H14  1  0.45536000  0.51428000  0.89812000  1.0
  H  H15  1  0.48576000  0.54445000  0.60171000  1.0
  H  H16  1  0.54464000  0.48570000  0.10189000  1.0
  H  H17  1  0.51424000  0.45555000  0.39829000  1.0
  H  H18  1  0.59942000  0.45324000  0.92708000  1.0
  H  H19  1  0.54663000  0.40071000  0.57267000  1.0
  H  H20  1  0.40059000  0.54675000  0.07292000  1.0
  H  H21  1  0.45336000  0.59930000  0.42732000  1.0
  H  H22  1  0.56186000  0.61870000  0.86610000  1.0
  H  H23  1  0.38054000  0.43876000  0.63362000  1.0
  H  H24  1  0.43814000  0.38128000  0.13391000  1.0
  H  H25  1  0.61945000  0.56125000  0.36638000  1.0
  H  H26  1  0.99662000  0.66630000  0.82438000  1.0
  H  H27  1  0.33560000  0.00457000  0.67382000  1.0
  H  H28  1  0.00338000  0.33369000  0.17563000  1.0
  H  H29  1  0.66438000  0.99544000  0.32619000  1.0
  H  H30  1  0.94708000  0.55330000  0.95966000  1.0
  H  H31  1  0.44844000  0.05555000  0.53841000  1.0
  H  H32  1  0.05291000  0.44670000  0.04035000  1.0
  H  H33  1  0.55155000  0.94443000  0.46160000  1.0
  H  H34  1  0.73289000  0.57692000  0.94329000  1.0
  H  H35  1  0.42334000  0.26815000  0.55673000  1.0
  H  H36  1  0.26711000  0.42307000  0.05671000  1.0
  H  H37  1  0.57664000  0.73185000  0.44327000  1.0
  H  H38  1  0.78136000  0.69165000  0.80885000  1.0
  H  H39  1  0.30866000  0.21857000  0.69124000  1.0
  H  H40  1  0.21864000  0.30834000  0.19115000  1.0
  H  H41  1  0.69133000  0.78143000  0.30876000  1.0
  H  H42  1  0.85483000  0.53266000  0.83047000  1.0
  H  H43  1  0.46849000  0.14629000  0.66876000  1.0
  H  H44  1  0.14518000  0.46733000  0.16952000  1.0
  H  H45  1  0.53151000  0.85372000  0.33123000  1.0
  H  H46  1  0.74435000  0.77190000  0.09785000  1.0
  H  H47  1  0.22837000  0.25633000  0.40162000  1.0
  H  H48  1  0.25566000  0.22809000  0.90214000  1.0
  H  H49  1  0.77162000  0.74366000  0.59838000  1.0
  H  H50  1  0.78269000  0.61158000  0.10647000  1.0
  H  H51  1  0.38935000  0.21794000  0.39240000  1.0
  H  H52  1  0.21731000  0.38841000  0.89353000  1.0
  H  H53  1  0.61064000  0.78207000  0.60760000  1.0
  H  H54  1  0.00748000  0.61949000  0.09108000  1.0
  H  H55  1  0.38069000  0.99383000  0.40833000  1.0
  H  H56  1  0.99253000  0.38051000  0.90891000  1.0
  H  H57  1  0.61932000  0.00617000  0.59167000  1.0
  H  H58  1  0.96139000  0.77724000  0.09189000  1.0
  H  H59  1  0.22229000  0.03996000  0.40812000  1.0
  H  H60  1  0.03863000  0.22276000  0.90810000  1.0
  H  H61  1  0.77772000  0.96004000  0.59188000  1.0
  H  H62  1  0.89303000  0.65181000  0.21179000  1.0
  H  H63  1  0.34802000  0.10754000  0.28774000  1.0
  H  H64  1  0.10698000  0.34819000  0.78819000  1.0
  H  H65  1  0.65198000  0.89246000  0.71226000  1.0
  C  C66  1  0.70267000  0.29694000  0.75020000  1.0
  C  C67  1  0.29733000  0.70306000  0.24980000  1.0
  C  C68  1  0.62132000  0.51217000  0.75151000  1.0
  C  C69  1  0.48711000  0.37909000  0.74829000  1.0
  C  C70  1  0.37868000  0.48783000  0.24849000  1.0
  C  C71  1  0.51288000  0.62092000  0.25170000  1.0
  C  C72  1  0.55580000  0.52557000  0.86733000  1.0
  C  C73  1  0.47406000  0.44444000  0.63241000  1.0
  C  C74  1  0.44420000  0.47442000  0.13267000  1.0
  C  C75  1  0.52593000  0.55557000  0.36758000  1.0
  C  C76  1  0.87030000  0.85646000  0.88602000  1.0
  C  C77  1  0.14393000  0.13033000  0.61352000  1.0
  C  C78  1  0.12970000  0.14354000  0.11397000  1.0
  C  C79  1  0.85606000  0.86967000  0.38648000  1.0
  C  C80  1  0.91405000  0.63700000  0.89929000  1.0
  C  C81  1  0.36429000  0.08745000  0.59941000  1.0
  C  C82  1  0.08595000  0.36301000  0.10071000  1.0
  C  C83  1  0.63571000  0.91254000  0.40060000  1.0
  C  C84  1  0.81469000  0.60765000  0.86871000  1.0
  C  C85  1  0.39307000  0.18614000  0.63087000  1.0
  C  C86  1  0.18531000  0.39234000  0.13129000  1.0
  C  C87  1  0.60692000  0.81386000  0.36913000  1.0
  C  C88  1  0.82238000  0.70048000  0.07361000  1.0
  C  C89  1  0.30002000  0.17853000  0.42561000  1.0
  C  C90  1  0.17762000  0.29951000  0.92638000  1.0
  C  C91  1  0.69997000  0.82147000  0.57439000  1.0
  C  C92  1  0.92718000  0.68657000  0.11957000  1.0
  C  C93  1  0.31345000  0.07387000  0.37995000  1.0
  C  C94  1  0.07283000  0.31343000  0.88042000  1.0
  C  C95  1  0.68656000  0.92612000  0.62006000  1.0
  S  S96  1  0.70150000  0.15634000  0.73618000  1.0
  S  S97  1  0.84373000  0.29760000  0.76433000  1.0
  S  S98  1  0.29850000  0.84365000  0.26382000  1.0
  S  S99  1  0.15627000  0.70240000  0.23566000  1.0
  S  S100  1  0.82242000  0.98354000  0.93503000  1.0
  S  S101  1  0.01623000  0.17786000  0.56498000  1.0
  S  S102  1  0.17760000  0.01646000  0.06496000  1.0
  S  S103  1  0.98376000  0.82216000  0.43503000  1.0
  S  S104  1  0.92540000  0.90667000  0.74350000  1.0
  S  S105  1  0.09403000  0.07471000  0.75602000  1.0
  S  S106  1  0.07459000  0.09335000  0.25649000  1.0
  S  S107  1  0.90596000  0.92529000  0.24398000  1.0
  Br  Br108  1  0.52747000  0.85060000  0.94976000  1.0
  Br  Br109  1  0.14954000  0.47282000  0.54970000  1.0
  Br  Br110  1  0.47254000  0.14940000  0.05027000  1.0
  Br  Br111  1  0.85045000  0.52722000  0.45031000  1.0
  N  N112  1  0.60861000  0.39120000  0.74994000  1.0
  N  N113  1  0.39140000  0.60880000  0.25006000  1.0
  N  N114  1  0.86680000  0.73625000  0.95104000  1.0
  N  N115  1  0.26443000  0.13445000  0.54814000  1.0
  N  N116  1  0.13321000  0.26375000  0.04895000  1.0
  N  N117  1  0.73556000  0.86555000  0.45186000  1.0
