# generated using pymatgen
data_HgTeH13C11S2N
_symmetry_space_group_name_H-M   'P 1'
_cell_length_a   6.40264000
_cell_length_b   9.36478000
_cell_length_c   22.43000000
_cell_angle_alpha   94.45040000
_cell_angle_beta   90.00000000
_cell_angle_gamma   90.00000000
_symmetry_Int_Tables_number   1
_chemical_formula_structural   HgTeH13C11S2N
_chemical_formula_sum   'Hg4 Te4 H52 C44 S8 N4'
_cell_volume   1340.83244009
_cell_formula_units_Z   4
loop_
 _symmetry_equiv_pos_site_id
 _symmetry_equiv_pos_as_xyz
  1  'x, y, z'
loop_
 _atom_site_type_symbol
 _atom_site_label
 _atom_site_symmetry_multiplicity
 _atom_site_fract_x
 _atom_site_fract_y
 _atom_site_fract_z
 _atom_site_occupancy
  Hg  Hg0  1  0.77364000  0.48278000  0.69332000  1.0
  Hg  Hg1  1  0.27364000  0.51722000  0.80668000  1.0
  Hg  Hg2  1  0.22635000  0.51722000  0.30668000  1.0
  Hg  Hg3  1  0.72636000  0.48278000  0.19332000  1.0
  Te  Te4  1  0.44760000  0.67159000  0.71470000  1.0
  Te  Te5  1  0.94760000  0.32842000  0.78530000  1.0
  Te  Te6  1  0.55240000  0.32842000  0.28530000  1.0
  Te  Te7  1  0.05241000  0.67158000  0.21470000  1.0
  H  H8  1  0.42974000  0.40239000  0.54598000  1.0
  H  H9  1  0.92974000  0.59761000  0.95401000  1.0
  H  H10  1  0.57026000  0.59761000  0.45401000  1.0
  H  H11  1  0.07025000  0.40239000  0.04599000  1.0
  H  H12  1  0.26882000  0.50403000  0.49993000  1.0
  H  H13  1  0.76881000  0.49598000  0.00007000  1.0
  H  H14  1  0.73118000  0.49597000  0.50007000  1.0
  H  H15  1  0.23117000  0.50403000  0.99993000  1.0
  H  H16  1  0.79603000  0.10785000  0.89934000  1.0
  H  H17  1  0.29604000  0.89214000  0.60067000  1.0
  H  H18  1  0.20398000  0.89213000  0.10067000  1.0
  H  H19  1  0.70397000  0.10785000  0.39933000  1.0
  H  H20  1  0.95872000  0.19036000  0.46976000  1.0
  H  H21  1  0.45872000  0.80965000  0.03024000  1.0
  H  H22  1  0.04128000  0.80964000  0.53024000  1.0
  H  H23  1  0.54125000  0.19035000  0.96976000  1.0
  H  H24  1  0.04009000  0.10823000  0.53511000  1.0
  H  H25  1  0.54008000  0.89177000  0.96489000  1.0
  H  H26  1  0.95992000  0.89177000  0.46489000  1.0
  H  H27  1  0.45989000  0.10823000  0.03511000  1.0
  H  H28  1  0.29370000  0.32995000  0.41651000  1.0
  H  H29  1  0.79369000  0.67006000  0.08349000  1.0
  H  H30  1  0.70630000  0.67005000  0.58349000  1.0
  H  H31  1  0.20629000  0.32996000  0.91651000  1.0
  H  H32  1  0.54237000  0.30149000  0.44851000  1.0
  H  H33  1  0.04237000  0.69852000  0.05149000  1.0
  H  H34  1  0.45763000  0.69851000  0.55149000  1.0
  H  H35  1  0.95762000  0.30150000  0.94851000  1.0
  H  H36  1  0.33319000  0.97051000  0.76792000  1.0
  H  H37  1  0.83319000  0.02949000  0.73208000  1.0
  H  H38  1  0.66683000  0.02949000  0.23208000  1.0
  H  H39  1  0.16682000  0.97052000  0.26791000  1.0
  H  H40  1  0.99142000  0.88054000  0.87677000  1.0
  H  H41  1  0.49143000  0.11946000  0.62324000  1.0
  H  H42  1  0.00859000  0.11944000  0.12323000  1.0
  H  H43  1  0.50859000  0.88054000  0.37677000  1.0
  H  H44  1  0.85777000  0.69648000  0.80086000  1.0
  H  H45  1  0.35777000  0.30353000  0.69915000  1.0
  H  H46  1  0.14224000  0.30351000  0.19914000  1.0
  H  H47  1  0.64224000  0.69648000  0.30085000  1.0
  H  H48  1  0.46732000  0.15322000  0.84425000  1.0
  H  H49  1  0.96732000  0.84678000  0.65575000  1.0
  H  H50  1  0.53271000  0.84678000  0.15575000  1.0
  H  H51  1  0.03268000  0.15322000  0.34425000  1.0
  H  H52  1  0.40300000  0.10357000  0.50351000  1.0
  H  H53  1  0.90299000  0.89643000  0.99649000  1.0
  H  H54  1  0.59701000  0.89643000  0.49649000  1.0
  H  H55  1  0.09698000  0.10358000  0.00351000  1.0
  H  H56  1  0.27865000  0.07197000  0.43265000  1.0
  H  H57  1  0.77864000  0.92804000  0.06735000  1.0
  H  H58  1  0.72135000  0.92803000  0.56735000  1.0
  H  H59  1  0.22133000  0.07198000  0.93265000  1.0
  C  C60  1  0.30858000  0.39508000  0.51095000  1.0
  C  C61  1  0.80858000  0.60492000  0.98905000  1.0
  C  C62  1  0.69142000  0.60492000  0.48905000  1.0
  C  C63  1  0.19141000  0.39509000  0.01095000  1.0
  C  C64  1  0.73653000  0.02742000  0.86592000  1.0
  C  C65  1  0.23654000  0.97259000  0.63409000  1.0
  C  C66  1  0.26347000  0.97257000  0.13409000  1.0
  C  C67  1  0.76347000  0.02741000  0.36591000  1.0
  C  C68  1  0.08643000  0.18347000  0.50236000  1.0
  C  C69  1  0.58642000  0.81653000  0.99764000  1.0
  C  C70  1  0.91358000  0.81653000  0.49764000  1.0
  C  C71  1  0.41356000  0.18347000  0.00236000  1.0
  C  C72  1  0.37364000  0.29682000  0.45652000  1.0
  C  C73  1  0.87364000  0.70319000  0.04347000  1.0
  C  C74  1  0.62635000  0.70319000  0.54348000  1.0
  C  C75  1  0.12634000  0.29682000  0.95653000  1.0
  C  C76  1  0.58744000  0.82215000  0.77950000  1.0
  C  C77  1  0.08744000  0.17785000  0.72050000  1.0
  C  C78  1  0.41257000  0.17785000  0.22050000  1.0
  C  C79  1  0.91258000  0.82215000  0.27950000  1.0
  C  C80  1  0.47732000  0.95043000  0.79180000  1.0
  C  C81  1  0.97733000  0.04958000  0.70820000  1.0
  C  C82  1  0.52269000  0.04957000  0.20821000  1.0
  C  C83  1  0.02268000  0.95043000  0.29179000  1.0
  C  C84  1  0.84631000  0.89983000  0.85323000  1.0
  C  C85  1  0.34632000  0.10017000  0.64678000  1.0
  C  C86  1  0.15370000  0.10015000  0.14678000  1.0
  C  C87  1  0.65370000  0.89983000  0.35322000  1.0
  C  C88  1  0.77222000  0.79653000  0.81005000  1.0
  C  C89  1  0.27223000  0.20347000  0.68995000  1.0
  C  C90  1  0.22778000  0.20346000  0.18995000  1.0
  C  C91  1  0.72779000  0.79652000  0.31005000  1.0
  C  C92  1  0.55221000  0.05286000  0.83507000  1.0
  C  C93  1  0.05222000  0.94714000  0.66494000  1.0
  C  C94  1  0.44780000  0.94714000  0.16494000  1.0
  C  C95  1  0.94780000  0.05286000  0.33506000  1.0
  C  C96  1  0.29561000  0.14917000  0.47171000  1.0
  C  C97  1  0.79560000  0.85084000  0.02828000  1.0
  C  C98  1  0.70439000  0.85083000  0.52829000  1.0
  C  C99  1  0.20437000  0.14917000  0.97171000  1.0
  C  C100  1  0.00755000  0.38048000  0.57932000  1.0
  C  C101  1  0.50755000  0.61952000  0.92068000  1.0
  C  C102  1  0.99245000  0.61952000  0.42068000  1.0
  C  C103  1  0.49244000  0.38048000  0.07932000  1.0
  S  S104  1  0.08735000  0.53768000  0.61808000  1.0
  S  S105  1  0.58734000  0.46231000  0.88192000  1.0
  S  S106  1  0.91266000  0.46231000  0.38193000  1.0
  S  S107  1  0.41266000  0.53769000  0.11807000  1.0
  S  S108  1  0.78246000  0.29494000  0.59845000  1.0
  S  S109  1  0.28245000  0.70506000  0.90155000  1.0
  S  S110  1  0.21755000  0.70506000  0.40155000  1.0
  S  S111  1  0.71754000  0.29493000  0.09845000  1.0
  N  N112  1  0.12246000  0.32507000  0.53362000  1.0
  N  N113  1  0.62245000  0.67494000  0.96638000  1.0
  N  N114  1  0.87755000  0.67493000  0.46638000  1.0
  N  N115  1  0.37753000  0.32507000  0.03362000  1.0
