# generated using pymatgen
data_GdAgH8C14(NO4)2
_symmetry_space_group_name_H-M   'P 1'
_cell_length_a   9.51741000
_cell_length_b   12.01990000
_cell_length_c   16.82800000
_cell_angle_alpha   96.52050000
_cell_angle_beta   90.00000000
_cell_angle_gamma   113.32300000
_symmetry_Int_Tables_number   1
_chemical_formula_structural   GdAgH8C14(NO4)2
_chemical_formula_sum   'Gd4 Ag4 H32 C56 N8 O32'
_cell_volume   1754.22140293
_cell_formula_units_Z   4
loop_
 _symmetry_equiv_pos_site_id
 _symmetry_equiv_pos_as_xyz
  1  'x, y, z'
loop_
 _atom_site_type_symbol
 _atom_site_label
 _atom_site_symmetry_multiplicity
 _atom_site_fract_x
 _atom_site_fract_y
 _atom_site_fract_z
 _atom_site_occupancy
  Gd  Gd0  1  0.70711000  0.00967000  0.93263000  1.0
  Gd  Gd1  1  0.69747000  0.99034000  0.56739000  1.0
  Gd  Gd2  1  0.29289000  0.99033000  0.06737000  1.0
  Gd  Gd3  1  0.30252000  0.00966000  0.43261000  1.0
  Ag  Ag4  1  0.04313000  0.32028000  0.08571000  1.0
  Ag  Ag5  1  0.72279000  0.67967000  0.41425000  1.0
  Ag  Ag6  1  0.95687000  0.67972000  0.91429000  1.0
  Ag  Ag7  1  0.27722000  0.32033000  0.58575000  1.0
  H  H8  1  0.76220000  0.71515000  0.04933000  1.0
  H  H9  1  0.04708000  0.28489000  0.45064000  1.0
  H  H10  1  0.23780000  0.28485000  0.95067000  1.0
  H  H11  1  0.95292000  0.71511000  0.54936000  1.0
  H  H12  1  0.88296000  0.90867000  0.16463000  1.0
  H  H13  1  0.97414000  0.09128000  0.33529000  1.0
  H  H14  1  0.11704000  0.09133000  0.83537000  1.0
  H  H15  1  0.02586000  0.90872000  0.66471000  1.0
  H  H16  1  0.83795000  0.41183000  0.95051000  1.0
  H  H17  1  0.42620000  0.58817000  0.54947000  1.0
  H  H18  1  0.16205000  0.58817000  0.04949000  1.0
  H  H19  1  0.57380000  0.41183000  0.45053000  1.0
  H  H20  1  0.49135000  0.36064000  0.12264000  1.0
  H  H21  1  0.13074000  0.63944000  0.37741000  1.0
  H  H22  1  0.50866000  0.63936000  0.87736000  1.0
  H  H23  1  0.86925000  0.36056000  0.62259000  1.0
  H  H24  1  0.40901000  0.80962000  0.21989000  1.0
  H  H25  1  0.59934000  0.19046000  0.28006000  1.0
  H  H26  1  0.59099000  0.19038000  0.78011000  1.0
  H  H27  1  0.40066000  0.80954000  0.71994000  1.0
  H  H28  1  0.56114000  0.58967000  0.13584000  1.0
  H  H29  1  0.97148000  0.41044000  0.36419000  1.0
  H  H30  1  0.43886000  0.41033000  0.86416000  1.0
  H  H31  1  0.02852000  0.58956000  0.63581000  1.0
  H  H32  1  0.45099000  0.69682000  0.32679000  1.0
  H  H33  1  0.75414000  0.30324000  0.17318000  1.0
  H  H34  1  0.54901000  0.30318000  0.67321000  1.0
  H  H35  1  0.24586000  0.69676000  0.82682000  1.0
  H  H36  1  0.91009000  0.79871000  0.27741000  1.0
  H  H37  1  0.11125000  0.20129000  0.22257000  1.0
  H  H38  1  0.08991000  0.20129000  0.72259000  1.0
  H  H39  1  0.88875000  0.79871000  0.77743000  1.0
  C  C40  1  0.73127000  0.61741000  0.04757000  1.0
  C  C41  1  0.11390000  0.38263000  0.45241000  1.0
  C  C42  1  0.26873000  0.38259000  0.95244000  1.0
  C  C43  1  0.88610000  0.61737000  0.54759000  1.0
  C  C44  1  0.64409000  0.87040000  0.18465000  1.0
  C  C45  1  0.77350000  0.12953000  0.31527000  1.0
  C  C46  1  0.35591000  0.12960000  0.81535000  1.0
  C  C47  1  0.22649000  0.87047000  0.68473000  1.0
  C  C48  1  0.62624000  0.23742000  0.02522000  1.0
  C  C49  1  0.38873000  0.76262000  0.47489000  1.0
  C  C50  1  0.37376000  0.76258000  0.97479000  1.0
  C  C51  1  0.61127000  0.23738000  0.52511000  1.0
  C  C52  1  0.62284000  0.94320000  0.12146000  1.0
  C  C53  1  0.67949000  0.05662000  0.37845000  1.0
  C  C54  1  0.37716000  0.05680000  0.87854000  1.0
  C  C55  1  0.32052000  0.94338000  0.62155000  1.0
  C  C56  1  0.66225000  0.37186000  0.03653000  1.0
  C  C57  1  0.29037000  0.62820000  0.46353000  1.0
  C  C58  1  0.33775000  0.62814000  0.96347000  1.0
  C  C59  1  0.70962000  0.37179000  0.53647000  1.0
  C  C60  1  0.78504000  0.86402000  0.19994000  1.0
  C  C61  1  0.92083000  0.13590000  0.29998000  1.0
  C  C62  1  0.21496000  0.13598000  0.80006000  1.0
  C  C63  1  0.07917000  0.86410000  0.70002000  1.0
  C  C64  1  0.77471000  0.44901000  0.99181000  1.0
  C  C65  1  0.32574000  0.55102000  0.50820000  1.0
  C  C66  1  0.22529000  0.55099000  0.00819000  1.0
  C  C67  1  0.67426000  0.44898000  0.49180000  1.0
  C  C68  1  0.58154000  0.42131000  0.08877000  1.0
  C  C69  1  0.16024000  0.57877000  0.41129000  1.0
  C  C70  1  0.41846000  0.57869000  0.91123000  1.0
  C  C71  1  0.83976000  0.42123000  0.58871000  1.0
  C  C72  1  0.52103000  0.80795000  0.23018000  1.0
  C  C73  1  0.71300000  0.19205000  0.26975000  1.0
  C  C74  1  0.47896000  0.19205000  0.76982000  1.0
  C  C75  1  0.28700000  0.80795000  0.73025000  1.0
  C  C76  1  0.61919000  0.54653000  0.09524000  1.0
  C  C77  1  0.07265000  0.45356000  0.40479000  1.0
  C  C78  1  0.38082000  0.45347000  0.90476000  1.0
  C  C79  1  0.92735000  0.54644000  0.59521000  1.0
  C  C80  1  0.54444000  0.74581000  0.29015000  1.0
  C  C81  1  0.79857000  0.25421000  0.20979000  1.0
  C  C82  1  0.45557000  0.25419000  0.70985000  1.0
  C  C83  1  0.20143000  0.74580000  0.79021000  1.0
  C  C84  1  0.70807000  0.92906000  0.74467000  1.0
  C  C85  1  0.77908000  0.07099000  0.75535000  1.0
  C  C86  1  0.29193000  0.07094000  0.25533000  1.0
  C  C87  1  0.22092000  0.92900000  0.24465000  1.0
  C  C88  1  0.80048000  0.80187000  0.26204000  1.0
  C  C89  1  0.99848000  0.19810000  0.23791000  1.0
  C  C90  1  0.19952000  0.19813000  0.73796000  1.0
  C  C91  1  0.00152000  0.80190000  0.76209000  1.0
  C  C92  1  0.03406000  0.06975000  0.01197000  1.0
  C  C93  1  0.96433000  0.93024000  0.48804000  1.0
  C  C94  1  0.96594000  0.93024000  0.98803000  1.0
  C  C95  1  0.03567000  0.06977000  0.51196000  1.0
  N  N96  1  0.68222000  0.74437000  0.30739000  1.0
  N  N97  1  0.93779000  0.25563000  0.19255000  1.0
  N  N98  1  0.31778000  0.25563000  0.69261000  1.0
  N  N99  1  0.06222000  0.74437000  0.80744000  1.0
  N  N100  1  0.80709000  0.56931000  0.99599000  1.0
  N  N101  1  0.23784000  0.43073000  0.50398000  1.0
  N  N102  1  0.19291000  0.43069000  0.00401000  1.0
  N  N103  1  0.76216000  0.56927000  0.49602000  1.0
  O  O104  1  0.66599000  0.87815000  0.80732000  1.0
  O  O105  1  0.78780000  0.12192000  0.69271000  1.0
  O  O106  1  0.33400000  0.12185000  0.19269000  1.0
  O  O107  1  0.21220000  0.87808000  0.30729000  1.0
  O  O108  1  0.72904000  0.98218000  0.07351000  1.0
  O  O109  1  0.74673000  0.01762000  0.42636000  1.0
  O  O110  1  0.27097000  0.01782000  0.92649000  1.0
  O  O111  1  0.25327000  0.98238000  0.57363000  1.0
  O  O112  1  0.96854000  0.12892000  0.98067000  1.0
  O  O113  1  0.83966000  0.87103000  0.51932000  1.0
  O  O114  1  0.03145000  0.87108000  0.01933000  1.0
  O  O115  1  0.16034000  0.12897000  0.48068000  1.0
  O  O116  1  0.72826000  0.20440000  0.99558000  1.0
  O  O117  1  0.52374000  0.79562000  0.50455000  1.0
  O  O118  1  0.27174000  0.79560000  0.00442000  1.0
  O  O119  1  0.47625000  0.20438000  0.49544000  1.0
  O  O120  1  0.49592000  0.16849000  0.04568000  1.0
  O  O121  1  0.32740000  0.83156000  0.45436000  1.0
  O  O122  1  0.50409000  0.83151000  0.95432000  1.0
  O  O123  1  0.67259000  0.16844000  0.54563000  1.0
  O  O124  1  0.49874000  0.95865000  0.12165000  1.0
  O  O125  1  0.53989000  0.04106000  0.37826000  1.0
  O  O126  1  0.50126000  0.04135000  0.87835000  1.0
  O  O127  1  0.46011000  0.95894000  0.62174000  1.0
  O  O128  1  0.69760000  0.87584000  0.67403000  1.0
  O  O129  1  0.82181000  0.12422000  0.82599000  1.0
  O  O130  1  0.30240000  0.12416000  0.32597000  1.0
  O  O131  1  0.17820000  0.87578000  0.17401000  1.0
  O  O132  1  0.14893000  0.11539000  0.06089000  1.0
  O  O133  1  0.03359000  0.88464000  0.43909000  1.0
  O  O134  1  0.85107000  0.88461000  0.93911000  1.0
  O  O135  1  0.96642000  0.11536000  0.56091000  1.0
