# generated using pymatgen
data_KNdH4C5O9
_symmetry_space_group_name_H-M   'P 1'
_cell_length_a   7.34141000
_cell_length_b   9.02696000
_cell_length_c   16.71710000
_cell_angle_alpha   90.00020000
_cell_angle_beta   90.00010000
_cell_angle_gamma   89.99990000
_symmetry_Int_Tables_number   1
_chemical_formula_structural   KNdH4C5O9
_chemical_formula_sum   'K4 Nd4 H16 C20 O36'
_cell_volume   1107.85248820
_cell_formula_units_Z   4
loop_
 _symmetry_equiv_pos_site_id
 _symmetry_equiv_pos_as_xyz
  1  'x, y, z'
loop_
 _atom_site_type_symbol
 _atom_site_label
 _atom_site_symmetry_multiplicity
 _atom_site_fract_x
 _atom_site_fract_y
 _atom_site_fract_z
 _atom_site_occupancy
  K  K0  1  0.00000000  0.96024000  0.22380000  1.0
  K  K1  1  0.99999000  0.03976000  0.77619000  1.0
  K  K2  1  1.00000000  0.53976000  0.72381000  1.0
  K  K3  1  0.00001000  0.46024000  0.27619000  1.0
  Nd  Nd4  1  0.50000000  0.01077000  0.11935000  1.0
  Nd  Nd5  1  0.49999000  0.98923000  0.88065000  1.0
  Nd  Nd6  1  0.50000000  0.48923000  0.61935000  1.0
  Nd  Nd7  1  0.50001000  0.51077000  0.38065000  1.0
  H  H8  1  0.10391000  0.75262000  0.38203000  1.0
  H  H9  1  0.10391000  0.24739000  0.61797000  1.0
  H  H10  1  0.89609000  0.74741000  0.88204000  1.0
  H  H11  1  0.89610000  0.25260000  0.11796000  1.0
  H  H12  1  0.89609000  0.24739000  0.61797000  1.0
  H  H13  1  0.89609000  0.75263000  0.38203000  1.0
  H  H14  1  0.10392000  0.25261000  0.11796000  1.0
  H  H15  1  0.10390000  0.74741000  0.88204000  1.0
  H  H16  1  0.61917000  0.42499000  0.93539000  1.0
  H  H17  1  0.61917000  0.57500000  0.06461000  1.0
  H  H18  1  0.38083000  0.07499000  0.43539000  1.0
  H  H19  1  0.38083000  0.92499000  0.56462000  1.0
  H  H20  1  0.38083000  0.57500000  0.06461000  1.0
  H  H21  1  0.38083000  0.42500000  0.93538000  1.0
  H  H22  1  0.61918000  0.92500000  0.56462000  1.0
  H  H23  1  0.61918000  0.07499000  0.43539000  1.0
  C  C24  1  0.10694000  0.00000000  0.00000000  1.0
  C  C25  1  0.89306000  0.49999000  0.50000000  1.0
  C  C26  1  0.89305000  0.99999000  0.00000000  1.0
  C  C27  1  0.10695000  0.49999000  0.50000000  1.0
  C  C28  1  0.39404000  0.71688000  0.22674000  1.0
  C  C29  1  0.39403000  0.28313000  0.77327000  1.0
  C  C30  1  0.60596000  0.78312000  0.72673000  1.0
  C  C31  1  0.60597000  0.21688000  0.27326000  1.0
  C  C32  1  0.60597000  0.28312000  0.77327000  1.0
  C  C33  1  0.60597000  0.71688000  0.22673000  1.0
  C  C34  1  0.39403000  0.21688000  0.27326000  1.0
  C  C35  1  0.39403000  0.78312000  0.72673000  1.0
  C  C36  1  0.49999000  0.28994000  0.02484000  1.0
  C  C37  1  0.50000000  0.71006000  0.97516000  1.0
  C  C38  1  0.50000000  0.21005000  0.52484000  1.0
  C  C39  1  0.50001000  0.78994000  0.47516000  1.0
  C  C40  1  0.49999000  0.42936000  0.97525000  1.0
  C  C41  1  0.50000000  0.57063000  0.02475000  1.0
  C  C42  1  0.50001000  0.07062000  0.47525000  1.0
  C  C43  1  0.50000000  0.92936000  0.52475000  1.0
  O  O44  1  0.18383000  0.03138000  0.06575000  1.0
  O  O45  1  0.18383000  0.96861000  0.93424000  1.0
  O  O46  1  0.81617000  0.46860000  0.56575000  1.0
  O  O47  1  0.81617000  0.53139000  0.43425000  1.0
  O  O48  1  0.81615000  0.96860000  0.93425000  1.0
  O  O49  1  0.81616000  0.03139000  0.06575000  1.0
  O  O50  1  0.18384000  0.53139000  0.43425000  1.0
  O  O51  1  0.18385000  0.46859000  0.56575000  1.0
  O  O52  1  0.31571000  0.81102000  0.18247000  1.0
  O  O53  1  0.31571000  0.18898000  0.81753000  1.0
  O  O54  1  0.68429000  0.68897000  0.68248000  1.0
  O  O55  1  0.68429000  0.31103000  0.31752000  1.0
  O  O56  1  0.68429000  0.18898000  0.81753000  1.0
  O  O57  1  0.68429000  0.81103000  0.18247000  1.0
  O  O58  1  0.31571000  0.31103000  0.31752000  1.0
  O  O59  1  0.31571000  0.68897000  0.68248000  1.0
  O  O60  1  0.49998000  0.29345000  0.10046000  1.0
  O  O61  1  0.50000000  0.70655000  0.89954000  1.0
  O  O62  1  0.50000000  0.20656000  0.60046000  1.0
  O  O63  1  0.50002000  0.79345000  0.39954000  1.0
  O  O64  1  0.31575000  0.62288000  0.27119000  1.0
  O  O65  1  0.31575000  0.37713000  0.72882000  1.0
  O  O66  1  0.68425000  0.87714000  0.77118000  1.0
  O  O67  1  0.68426000  0.12287000  0.22881000  1.0
  O  O68  1  0.68426000  0.37712000  0.72882000  1.0
  O  O69  1  0.68426000  0.62288000  0.27118000  1.0
  O  O70  1  0.31575000  0.12287000  0.22882000  1.0
  O  O71  1  0.31574000  0.87713000  0.77118000  1.0
  O  O72  1  0.49999000  0.16417000  0.98806000  1.0
  O  O73  1  0.49999000  0.83583000  0.01194000  1.0
  O  O74  1  0.50001000  0.33583000  0.48806000  1.0
  O  O75  1  0.50000000  0.66417000  0.51195000  1.0
  O  O76  1  1.00000000  0.81547000  0.36857000  1.0
  O  O77  1  1.00000000  0.18455000  0.63143000  1.0
  O  O78  1  1.00000000  0.68457000  0.86858000  1.0
  O  O79  1  1.00000000  0.31545000  0.13143000  1.0
