# generated using pymatgen
data_MnH2C6(NO2)2
_symmetry_space_group_name_H-M   'P 1'
_cell_length_a   5.30587000
_cell_length_b   10.31890000
_cell_length_c   12.08180000
_cell_angle_alpha   73.14100000
_cell_angle_beta   89.99900000
_cell_angle_gamma   89.99970000
_symmetry_Int_Tables_number   1
_chemical_formula_structural   MnH2C6(NO2)2
_chemical_formula_sum   'Mn4 H8 C24 N8 O16'
_cell_volume   633.05768097
_cell_formula_units_Z   4
loop_
 _symmetry_equiv_pos_site_id
 _symmetry_equiv_pos_as_xyz
  1  'x, y, z'
loop_
 _atom_site_type_symbol
 _atom_site_label
 _atom_site_symmetry_multiplicity
 _atom_site_fract_x
 _atom_site_fract_y
 _atom_site_fract_z
 _atom_site_occupancy
  Mn  Mn0  1  0.21754000  0.76472000  0.76520000  1.0
  Mn  Mn1  1  0.28251000  0.76471000  0.26520000  1.0
  Mn  Mn2  1  0.78245000  0.23528000  0.23479000  1.0
  Mn  Mn3  1  0.71751000  0.23529000  0.73480000  1.0
  H  H4  1  0.82061000  0.77321000  0.54957000  1.0
  H  H5  1  0.67943000  0.77320000  0.04957000  1.0
  H  H6  1  0.17937000  0.22681000  0.45043000  1.0
  H  H7  1  0.32056000  0.22678000  0.95043000  1.0
  H  H8  1  0.11584000  0.60269000  0.04813000  1.0
  H  H9  1  0.38415000  0.60271000  0.54813000  1.0
  H  H10  1  0.88414000  0.39730000  0.95187000  1.0
  H  H11  1  0.61587000  0.39730000  0.45188000  1.0
  C  C12  1  0.18768000  0.02271000  0.56665000  1.0
  C  C13  1  0.31229000  0.02268000  0.06665000  1.0
  C  C14  1  0.81231000  0.97731000  0.43334000  1.0
  C  C15  1  0.68770000  0.97730000  0.93335000  1.0
  C  C16  1  0.90351000  0.87376000  0.52655000  1.0
  C  C17  1  0.59650000  0.87377000  0.02654000  1.0
  C  C18  1  0.09648000  0.12625000  0.47345000  1.0
  C  C19  1  0.40349000  0.12623000  0.97345000  1.0
  C  C20  1  0.39221000  0.04472000  0.64560000  1.0
  C  C21  1  0.10776000  0.04466000  0.14562000  1.0
  C  C22  1  0.60778000  0.95529000  0.35439000  1.0
  C  C23  1  0.89224000  0.95532000  0.85438000  1.0
  C  C24  1  0.60677000  0.55833000  0.89638000  1.0
  C  C25  1  0.89326000  0.55832000  0.39637000  1.0
  C  C26  1  0.39321000  0.44167000  0.10362000  1.0
  C  C27  1  0.10677000  0.44169000  0.60363000  1.0
  C  C28  1  0.28508000  0.55570000  0.02585000  1.0
  C  C29  1  0.21492000  0.55570000  0.52586000  1.0
  C  C30  1  0.71491000  0.44429000  0.97415000  1.0
  C  C31  1  0.78509000  0.44429000  0.47415000  1.0
  C  C32  1  0.70969000  0.62466000  0.77755000  1.0
  C  C33  1  0.79036000  0.62465000  0.27754000  1.0
  C  C34  1  0.29030000  0.37533000  0.22246000  1.0
  C  C35  1  0.20967000  0.37535000  0.72247000  1.0
  N  N36  1  0.09086000  0.89678000  0.59256000  1.0
  N  N37  1  0.40913000  0.89676000  0.09256000  1.0
  N  N38  1  0.90912000  0.10323000  0.40744000  1.0
  N  N39  1  0.59085000  0.10323000  0.90744000  1.0
  N  N40  1  0.39232000  0.61299000  0.92291000  1.0
  N  N41  1  0.10770000  0.61298000  0.42290000  1.0
  N  N42  1  0.60767000  0.38700000  0.07709000  1.0
  N  N43  1  0.89232000  0.38702000  0.57710000  1.0
  O  O44  1  0.45340000  0.94362000  0.72903000  1.0
  O  O45  1  0.04661000  0.94360000  0.22904000  1.0
  O  O46  1  0.54660000  0.05639000  0.27096000  1.0
  O  O47  1  0.95339000  0.05640000  0.77096000  1.0
  O  O48  1  0.48690000  0.16305000  0.62211000  1.0
  O  O49  1  0.01304000  0.16303000  0.12210000  1.0
  O  O50  1  0.51310000  0.83696000  0.37789000  1.0
  O  O51  1  0.98696000  0.83697000  0.87790000  1.0
  O  O52  1  0.54942000  0.68475000  0.70208000  1.0
  O  O53  1  0.95063000  0.68473000  0.20207000  1.0
  O  O54  1  0.45056000  0.31526000  0.29792000  1.0
  O  O55  1  0.04941000  0.31528000  0.79793000  1.0
  O  O56  1  0.94559000  0.61722000  0.76094000  1.0
  O  O57  1  0.55445000  0.61720000  0.26093000  1.0
  O  O58  1  0.05441000  0.38278000  0.23906000  1.0
  O  O59  1  0.44558000  0.38280000  0.73907000  1.0
