# generated using pymatgen
data_Zn4H12C54N12O37
_symmetry_space_group_name_H-M   'P 1'
_cell_length_a   24.41780000
_cell_length_b   24.41787381
_cell_length_c   24.41776309
_cell_angle_alpha   119.99985000
_cell_angle_beta   90.00000000
_cell_angle_gamma   120.00010000
_symmetry_Int_Tables_number   1
_chemical_formula_structural   Zn4H12C54N12O37
_chemical_formula_sum   'Zn8 H24 C108 N24 O74'
_cell_volume   10294.50771607
_cell_formula_units_Z   2
loop_
 _symmetry_equiv_pos_site_id
 _symmetry_equiv_pos_as_xyz
  1  'x, y, z'
loop_
 _atom_site_type_symbol
 _atom_site_label
 _atom_site_symmetry_multiplicity
 _atom_site_fract_x
 _atom_site_fract_y
 _atom_site_fract_z
 _atom_site_occupancy
  Zn  Zn0  1  0.46716000  0.56566000  0.53283000  1.0
  Zn  Zn1  1  0.46716000  0.43433000  0.40150000  1.0
  Zn  Zn2  1  0.46716000  0.43433000  0.53283000  1.0
  Zn  Zn3  1  0.59852000  0.56568000  0.53284000  1.0
  Zn  Zn4  1  0.03284000  0.43434000  0.96717000  1.0
  Zn  Zn5  1  0.03284000  0.56567000  0.96717000  1.0
  Zn  Zn6  1  0.03284000  0.56567000  0.09850000  1.0
  Zn  Zn7  1  0.90150000  0.43433000  0.96717000  1.0
  H  H8  1  0.56354000  0.80224000  0.65196000  1.0
  H  H9  1  0.73869000  0.80224000  0.65028000  1.0
  H  H10  1  0.93646000  0.19776000  0.84972000  1.0
  H  H11  1  0.76131000  0.19776000  0.84804000  1.0
  H  H12  1  0.34971000  0.19775000  0.26130000  1.0
  H  H13  1  0.34803000  0.19775000  0.43645000  1.0
  H  H14  1  0.15196000  0.80224000  0.23870000  1.0
  H  H15  1  0.15028000  0.80224000  0.06354000  1.0
  H  H16  1  0.34803000  0.58673000  0.65028000  1.0
  H  H17  1  0.34972000  0.41326000  0.65196000  1.0
  H  H18  1  0.15028000  0.41158000  0.84804000  1.0
  H  H19  1  0.15196000  0.58841000  0.84972000  1.0
  H  H20  1  0.56354000  0.41326000  0.26130000  1.0
  H  H21  1  0.73869000  0.58673000  0.43645000  1.0
  H  H22  1  0.93646000  0.58842000  0.23870000  1.0
  H  H23  1  0.76131000  0.41159000  0.06355000  1.0
  H  H24  1  0.34804000  0.41158000  0.26130000  1.0
  H  H25  1  0.34972000  0.58841000  0.43645000  1.0
  H  H26  1  0.15029000  0.58674000  0.23870000  1.0
  H  H27  1  0.15196000  0.41326000  0.06354000  1.0
  H  H28  1  0.73869000  0.58841000  0.65196000  1.0
  H  H29  1  0.56354000  0.41158000  0.65028000  1.0
  H  H30  1  0.76130000  0.41326000  0.84972000  1.0
  H  H31  1  0.93646000  0.58674000  0.84804000  1.0
  C  C32  1  0.39551000  0.50000000  0.39551000  1.0
  C  C33  1  0.39551000  0.29102000  0.39551000  1.0
  C  C34  1  0.39551000  0.50000000  0.60449000  1.0
  C  C35  1  0.60449000  0.50000000  0.60449000  1.0
  C  C36  1  0.60449000  0.70898000  0.60449000  1.0
  C  C37  1  0.60449000  0.50000000  0.39551000  1.0
  C  C38  1  0.10449000  0.50000000  0.89551000  1.0
  C  C39  1  0.10449000  0.70898000  0.10449000  1.0
  C  C40  1  0.10449000  0.50000000  0.10449000  1.0
  C  C41  1  0.89551000  0.50000000  0.10449000  1.0
  C  C42  1  0.89551000  0.29102000  0.89551000  1.0
  C  C43  1  0.89551000  0.50000000  0.89551000  1.0
  C  C44  1  0.61798000  0.83545000  0.66834000  1.0
  C  C45  1  0.65776000  0.91660000  0.70815000  1.0
  C  C46  1  0.62981000  0.96048000  0.72997000  1.0
  C  C47  1  0.71747000  0.83545000  0.66711000  1.0
  C  C48  1  0.75884000  0.91660000  0.70845000  1.0
  C  C49  1  0.83067000  0.96047000  0.73051000  1.0
  C  C50  1  0.88203000  0.16455000  0.83289000  1.0
  C  C51  1  0.84224000  0.08340000  0.79155000  1.0
  C  C52  1  0.87019000  0.03952000  0.76949000  1.0
  C  C53  1  0.78253000  0.16455000  0.83166000  1.0
  C  C54  1  0.74116000  0.08340000  0.79185000  1.0
  C  C55  1  0.66933000  0.03953000  0.77004000  1.0
  C  C56  1  0.64785000  0.79570000  0.64785000  1.0
  C  C57  1  0.72938000  0.95876000  0.72938000  1.0
  C  C58  1  0.85215000  0.20430000  0.85215000  1.0
  C  C59  1  0.77062000  0.04124000  0.77062000  1.0
  C  C60  1  0.33289000  0.16455000  0.28253000  1.0
  C  C61  1  0.29155000  0.08340000  0.24116000  1.0
  C  C62  1  0.26950000  0.03953000  0.16933000  1.0
  C  C63  1  0.33166000  0.16455000  0.38202000  1.0
  C  C64  1  0.29185000  0.08340000  0.34224000  1.0
  C  C65  1  0.27004000  0.03953000  0.37020000  1.0
  C  C66  1  0.16834000  0.83545000  0.21747000  1.0
  C  C67  1  0.20815000  0.91660000  0.25884000  1.0
  C  C68  1  0.22996000  0.96047000  0.33067000  1.0
  C  C69  1  0.16711000  0.83545000  0.11798000  1.0
  C  C70  1  0.20845000  0.91660000  0.15776000  1.0
  C  C71  1  0.23051000  0.96047000  0.12980000  1.0
  C  C72  1  0.35215000  0.20430000  0.35215000  1.0
  C  C73  1  0.27062000  0.04124000  0.27062000  1.0
  C  C74  1  0.14785000  0.79570000  0.14785000  1.0
  C  C75  1  0.22938000  0.95876000  0.22938000  1.0
  C  C76  1  0.33166000  0.54913000  0.66711000  1.0
  C  C77  1  0.29185000  0.55069000  0.70845000  1.0
  C  C78  1  0.27004000  0.60071000  0.73051000  1.0
  C  C79  1  0.33289000  0.45087000  0.66834000  1.0
  C  C80  1  0.29155000  0.44931000  0.70815000  1.0
  C  C81  1  0.26950000  0.39930000  0.72997000  1.0
  C  C82  1  0.16712000  0.44964000  0.83166000  1.0
  C  C83  1  0.20846000  0.44961000  0.79185000  1.0
  C  C84  1  0.23051000  0.39983000  0.77003000  1.0
  C  C85  1  0.16834000  0.55036000  0.83289000  1.0
  C  C86  1  0.20815000  0.55039000  0.79155000  1.0
  C  C87  1  0.22996000  0.60016000  0.76949000  1.0
  C  C88  1  0.35215000  0.50000000  0.64785000  1.0
  C  C89  1  0.27062000  0.50000000  0.72938000  1.0
  C  C90  1  0.14785000  0.50000000  0.85215000  1.0
  C  C91  1  0.22939000  0.50000000  0.77062000  1.0
  C  C92  1  0.61798000  0.45087000  0.28253000  1.0
  C  C93  1  0.65776000  0.44931000  0.24116000  1.0
  C  C94  1  0.62980000  0.39929000  0.16933000  1.0
  C  C95  1  0.71747000  0.54913000  0.38202000  1.0
  C  C96  1  0.75884000  0.55069000  0.34224000  1.0
  C  C97  1  0.83068000  0.60071000  0.37020000  1.0
  C  C98  1  0.88202000  0.55036000  0.21747000  1.0
  C  C99  1  0.84224000  0.55039000  0.25884000  1.0
  C  C100  1  0.87019000  0.60016000  0.33067000  1.0
  C  C101  1  0.78252000  0.44963000  0.11798000  1.0
  C  C102  1  0.74116000  0.44961000  0.15776000  1.0
  C  C103  1  0.66932000  0.39983000  0.12980000  1.0
  C  C104  1  0.64785000  0.50000000  0.35215000  1.0
  C  C105  1  0.72938000  0.50000000  0.27062000  1.0
  C  C106  1  0.85215000  0.50000000  0.14785000  1.0
  C  C107  1  0.77062000  0.50000000  0.22938000  1.0
  C  C108  1  0.33166000  0.44964000  0.28253000  1.0
  C  C109  1  0.29185000  0.44961000  0.24116000  1.0
  C  C110  1  0.27004000  0.39984000  0.16933000  1.0
  C  C111  1  0.33289000  0.55036000  0.38202000  1.0
  C  C112  1  0.29155000  0.55039000  0.34224000  1.0
  C  C113  1  0.26949000  0.60016000  0.37020000  1.0
  C  C114  1  0.16711000  0.54913000  0.21747000  1.0
  C  C115  1  0.20845000  0.55069000  0.25884000  1.0
  C  C116  1  0.23050000  0.60070000  0.33067000  1.0
  C  C117  1  0.16834000  0.45087000  0.11798000  1.0
  C  C118  1  0.20815000  0.44931000  0.15776000  1.0
  C  C119  1  0.22996000  0.39929000  0.12980000  1.0
  C  C120  1  0.35215000  0.50000000  0.35215000  1.0
  C  C121  1  0.27062000  0.50000000  0.27062000  1.0
  C  C122  1  0.14785000  0.50000000  0.14785000  1.0
  C  C123  1  0.22937000  0.49999000  0.22938000  1.0
  C  C124  1  0.71747000  0.55036000  0.66834000  1.0
  C  C125  1  0.75884000  0.55039000  0.70815000  1.0
  C  C126  1  0.83067000  0.60016000  0.72996000  1.0
  C  C127  1  0.61799000  0.44964000  0.66711000  1.0
  C  C128  1  0.65776000  0.44961000  0.70845000  1.0
  C  C129  1  0.62981000  0.39984000  0.73051000  1.0
  C  C130  1  0.78253000  0.45087000  0.83289000  1.0
  C  C131  1  0.74116000  0.44931000  0.79155000  1.0
  C  C132  1  0.66933000  0.39929000  0.76949000  1.0
  C  C133  1  0.88202000  0.54913000  0.83166000  1.0
  C  C134  1  0.84224000  0.55069000  0.79185000  1.0
  C  C135  1  0.87019000  0.60070000  0.77003000  1.0
  C  C136  1  0.64785000  0.50000000  0.64785000  1.0
  C  C137  1  0.72938000  0.50000000  0.72938000  1.0
  C  C138  1  0.85215000  0.50000000  0.85215000  1.0
  C  C139  1  0.77062000  0.50000000  0.77062000  1.0
  N  N140  1  0.63763000  0.08177000  0.79049000  1.0
  N  N141  1  0.55585000  0.91822000  0.70951000  1.0
  N  N142  1  0.94414000  0.08177000  0.79128000  1.0
  N  N143  1  0.86236000  0.91822000  0.70872000  1.0
  N  N144  1  0.20872000  0.91823000  0.05586000  1.0
  N  N145  1  0.29128000  0.08177000  0.13763000  1.0
  N  N146  1  0.20952000  0.91823000  0.36237000  1.0
  N  N147  1  0.29049000  0.08177000  0.44414000  1.0
  N  N148  1  0.20950000  0.65364000  0.79128000  1.0
  N  N149  1  0.29048000  0.65285000  0.70871000  1.0
  N  N150  1  0.20872000  0.34636000  0.79050000  1.0
  N  N151  1  0.29128000  0.34714000  0.70951000  1.0
  N  N152  1  0.63764000  0.34636000  0.05586000  1.0
  N  N153  1  0.55586000  0.34714000  0.13763000  1.0
  N  N154  1  0.94413000  0.65364000  0.36236000  1.0
  N  N155  1  0.86236000  0.65286000  0.44414000  1.0
  N  N156  1  0.20951000  0.34714000  0.05586000  1.0
  N  N157  1  0.29050000  0.34636000  0.13764000  1.0
  N  N158  1  0.20872000  0.65286000  0.36237000  1.0
  N  N159  1  0.29128000  0.65364000  0.44414000  1.0
  N  N160  1  0.94415000  0.65286000  0.79049000  1.0
  N  N161  1  0.86236000  0.65364000  0.70950000  1.0
  N  N162  1  0.63763000  0.34714000  0.79128000  1.0
  N  N163  1  0.55586000  0.34635000  0.70872000  1.0
  O  O164  1  0.50000000  0.50000000  0.50000000  1.0
  O  O165  1  0.41263000  0.54725000  0.45869000  1.0
  O  O166  1  0.41262000  0.32406000  0.36537000  1.0
  O  O167  1  0.41263000  0.45394000  0.58856000  1.0
  O  O168  1  0.41144000  0.45275000  0.36537000  1.0
  O  O169  1  0.41144000  0.54607000  0.58738000  1.0
  O  O170  1  0.41144000  0.32406000  0.45869000  1.0
  O  O171  1  0.54132000  0.45276000  0.58738000  1.0
  O  O172  1  0.63463000  0.67594000  0.58738000  1.0
  O  O173  1  0.63463000  0.54725000  0.58856000  1.0
  O  O174  1  0.54131000  0.67594000  0.58856000  1.0
  O  O175  1  0.54131000  0.45393000  0.36538000  1.0
  O  O176  1  0.63463000  0.54607000  0.45869000  1.0
  O  O177  1  0.00000000  0.50000000  1.00000000  1.0
  O  O178  1  0.08739000  0.45276000  0.91145000  1.0
  O  O179  1  0.08739000  0.67594000  0.04131000  1.0
  O  O180  1  0.08739000  0.54608000  0.13463000  1.0
  O  O181  1  0.08856000  0.54724000  0.91262000  1.0
  O  O182  1  0.08855000  0.45393000  0.04131000  1.0
  O  O183  1  0.08855000  0.67593000  0.13462000  1.0
  O  O184  1  0.95869000  0.54724000  0.13462000  1.0
  O  O185  1  0.86537000  0.32406000  0.91144000  1.0
  O  O186  1  0.86537000  0.45275000  0.04131000  1.0
  O  O187  1  0.95868000  0.32406000  0.91262000  1.0
  O  O188  1  0.95868000  0.54606000  0.91144000  1.0
  O  O189  1  0.86537000  0.45393000  0.91262000  1.0
  O  O190  1  0.65241000  0.12762000  0.85137000  1.0
  O  O191  1  0.60019000  0.06846000  0.74486000  1.0
  O  O192  1  0.52479000  0.87238000  0.64863000  1.0
  O  O193  1  0.53173000  0.93154000  0.75514000  1.0
  O  O194  1  0.97521000  0.12762000  0.77625000  1.0
  O  O195  1  0.96827000  0.06846000  0.82360000  1.0
  O  O196  1  0.84758000  0.87237000  0.72375000  1.0
  O  O197  1  0.89980000  0.93153000  0.67640000  1.0
  O  O198  1  0.22375000  0.87238000  0.02479000  1.0
  O  O199  1  0.17640000  0.93154000  0.03173000  1.0
  O  O200  1  0.27625000  0.12762000  0.15241000  1.0
  O  O201  1  0.32359000  0.06845000  0.10019000  1.0
  O  O202  1  0.14862000  0.87237000  0.34759000  1.0
  O  O203  1  0.25514000  0.93154000  0.39981000  1.0
  O  O204  1  0.35138000  0.12763000  0.47522000  1.0
  O  O205  1  0.24486000  0.06845000  0.46826000  1.0
  O  O206  1  0.14863000  0.62384000  0.77625000  1.0
  O  O207  1  0.25514000  0.72341000  0.82360000  1.0
  O  O208  1  0.35137000  0.69896000  0.72375000  1.0
  O  O209  1  0.24485000  0.64466000  0.67640000  1.0
  O  O210  1  0.22375000  0.37616000  0.85137000  1.0
  O  O211  1  0.17640000  0.27659000  0.74486000  1.0
  O  O212  1  0.27626000  0.30104000  0.64863000  1.0
  O  O213  1  0.32360000  0.35533000  0.75514000  1.0
  O  O214  1  0.65241000  0.37616000  0.02479000  1.0
  O  O215  1  0.60019000  0.27659000  0.03173000  1.0
  O  O216  1  0.52479000  0.30104000  0.15241000  1.0
  O  O217  1  0.53173000  0.35533000  0.10019000  1.0
  O  O218  1  0.97521000  0.62384000  0.34759000  1.0
  O  O219  1  0.96827000  0.72341000  0.39981000  1.0
  O  O220  1  0.84759000  0.69896000  0.47521000  1.0
  O  O221  1  0.89981000  0.64467000  0.46827000  1.0
  O  O222  1  0.14862000  0.30103000  0.02478000  1.0
  O  O223  1  0.25513000  0.35532000  0.03173000  1.0
  O  O224  1  0.35137000  0.37616000  0.15241000  1.0
  O  O225  1  0.24486000  0.27659000  0.10019000  1.0
  O  O226  1  0.22375000  0.69896000  0.34759000  1.0
  O  O227  1  0.17641000  0.64467000  0.39981000  1.0
  O  O228  1  0.27625000  0.62384000  0.47521000  1.0
  O  O229  1  0.32360000  0.72341000  0.46827000  1.0
  O  O230  1  0.97521000  0.69896000  0.85137000  1.0
  O  O231  1  0.96827000  0.64467000  0.74486000  1.0
  O  O232  1  0.84759000  0.62384000  0.64863000  1.0
  O  O233  1  0.89981000  0.72341000  0.75514000  1.0
  O  O234  1  0.65241000  0.30104000  0.77625000  1.0
  O  O235  1  0.60019000  0.35533000  0.82360000  1.0
  O  O236  1  0.52479000  0.37616000  0.72375000  1.0
  O  O237  1  0.53173000  0.27659000  0.67640000  1.0
