# generated using pymatgen
data_CdH28C36Br4(N2O)4
_symmetry_space_group_name_H-M   'P 1'
_cell_length_a   8.91908000
_cell_length_b   9.98634000
_cell_length_c   11.76750000
_cell_angle_alpha   108.94100000
_cell_angle_beta   105.04500000
_cell_angle_gamma   91.84400000
_symmetry_Int_Tables_number   1
_chemical_formula_structural   CdH28C36Br4(N2O)4
_chemical_formula_sum   'Cd1 H28 C36 Br4 N8 O4'
_cell_volume   949.57504454
_cell_formula_units_Z   1
loop_
 _symmetry_equiv_pos_site_id
 _symmetry_equiv_pos_as_xyz
  1  'x, y, z'
loop_
 _atom_site_type_symbol
 _atom_site_label
 _atom_site_symmetry_multiplicity
 _atom_site_fract_x
 _atom_site_fract_y
 _atom_site_fract_z
 _atom_site_occupancy
  Cd  Cd0  1  0.99999000  0.50001000  0.00000000  1.0
  H  H1  1  0.25925000  0.98782000  0.18595000  1.0
  H  H2  1  0.74075000  0.01217000  0.81401000  1.0
  H  H3  1  0.27232000  0.16071000  0.29588000  1.0
  H  H4  1  0.72768000  0.83926000  0.70411000  1.0
  H  H5  1  0.47998000  0.27868000  0.14590000  1.0
  H  H6  1  0.52005000  0.72132000  0.85411000  1.0
  H  H7  1  0.81094000  0.01314000  0.38421000  1.0
  H  H8  1  0.18905000  0.98686000  0.61580000  1.0
  H  H9  1  0.08639000  0.15813000  0.82676000  1.0
  H  H10  1  0.91360000  0.84191000  0.17325000  1.0
  H  H11  1  0.60356000  0.77280000  0.12455000  1.0
  H  H12  1  0.39645000  0.22719000  0.87545000  1.0
  H  H13  1  0.15059000  0.34632000  0.21514000  1.0
  H  H14  1  0.84942000  0.65371000  0.78488000  1.0
  H  H15  1  0.41457000  0.96526000  0.38366000  1.0
  H  H16  1  0.58543000  0.03474000  0.61633000  1.0
  H  H17  1  0.59757000  0.89741000  0.40076000  1.0
  H  H18  1  0.40242000  0.10258000  0.59924000  1.0
  H  H19  1  0.20844000  0.76687000  0.26230000  1.0
  H  H20  1  0.79155000  0.23313000  0.73768000  1.0
  H  H21  1  0.93529000  0.19066000  0.31896000  1.0
  H  H22  1  0.06472000  0.80933000  0.68106000  1.0
  H  H23  1  0.37437000  0.55003000  0.95563000  1.0
  H  H24  1  0.62563000  0.44996000  0.04437000  1.0
  H  H25  1  0.76887000  0.31979000  0.19511000  1.0
  H  H26  1  0.23116000  0.68020000  0.80490000  1.0
  H  H27  1  0.24413000  0.98148000  0.94840000  1.0
  H  H28  1  0.75587000  0.01855000  0.05160000  1.0
  C  C29  1  0.13597000  0.52153000  0.46784000  1.0
  C  C30  1  0.86401000  0.47846000  0.53216000  1.0
  C  C31  1  0.86468000  0.54770000  0.44618000  1.0
  C  C32  1  0.13531000  0.45229000  0.55382000  1.0
  C  C33  1  0.30368000  0.10041000  0.21045000  1.0
  C  C34  1  0.69633000  0.89958000  0.78954000  1.0
  C  C35  1  0.99959000  0.56859000  0.41151000  1.0
  C  C36  1  0.00040000  0.43141000  0.58848000  1.0
  C  C37  1  0.55191000  0.21937000  0.19759000  1.0
  C  C38  1  0.44811000  0.78062000  0.80241000  1.0
  C  C39  1  0.73819000  0.07132000  0.33156000  1.0
  C  C40  1  0.26181000  0.92867000  0.66845000  1.0
  C  C41  1  0.99583000  0.63185000  0.30865000  1.0
  C  C42  1  0.00416000  0.36814000  0.69134000  1.0
  C  C43  1  0.57515000  0.04484000  0.30145000  1.0
  C  C44  1  0.42485000  0.95515000  0.69855000  1.0
  C  C45  1  0.12365000  0.16986000  0.92555000  1.0
  C  C46  1  0.87635000  0.83017000  0.07446000  1.0
  C  C47  1  0.48920000  0.73658000  0.12741000  1.0
  C  C48  1  0.51080000  0.26342000  0.87260000  1.0
  C  C49  1  0.15340000  0.27197000  0.12530000  1.0
  C  C50  1  0.84662000  0.72805000  0.87472000  1.0
  C  C51  1  0.48033000  0.12133000  0.23537000  1.0
  C  C52  1  0.51968000  0.87866000  0.76463000  1.0
  C  C53  1  0.50514000  0.92993000  0.33656000  1.0
  C  C54  1  0.49486000  0.07006000  0.66343000  1.0
  C  C55  1  0.28409000  0.73562000  0.20117000  1.0
  C  C56  1  0.71591000  0.26437000  0.79882000  1.0
  C  C57  1  0.80810000  0.17065000  0.29450000  1.0
  C  C58  1  0.19191000  0.82934000  0.70551000  1.0
  C  C59  1  0.37494000  0.62751000  0.04516000  1.0
  C  C60  1  0.62505000  0.37249000  0.95484000  1.0
  C  C61  1  0.71475000  0.24326000  0.22568000  1.0
  C  C62  1  0.28526000  0.75672000  0.77432000  1.0
  C  C63  1  0.20067000  0.08220000  0.98404000  1.0
  C  C64  1  0.79933000  0.91783000  0.01596000  1.0
  Br  Br65  1  0.68017000  0.61297000  0.36858000  1.0
  Br  Br66  1  0.31983000  0.38704000  0.63141000  1.0
  Br  Br67  1  0.32383000  0.55846000  0.42950000  1.0
  Br  Br68  1  0.67616000  0.44153000  0.57050000  1.0
  N  N69  1  0.21854000  0.14852000  0.11065000  1.0
  N  N70  1  0.78147000  0.85150000  0.88936000  1.0
  N  N71  1  0.24854000  0.62826000  0.09237000  1.0
  N  N72  1  0.75145000  0.37174000  0.90763000  1.0
  N  N73  1  0.09545000  0.28779000  0.01516000  1.0
  N  N74  1  0.90456000  0.71224000  0.98486000  1.0
  N  N75  1  0.42954000  0.80400000  0.22602000  1.0
  N  N76  1  0.57046000  0.19599000  0.77398000  1.0
  O  O77  1  0.96237000  0.53569000  0.20034000  1.0
  O  O78  1  0.03762000  0.46430000  0.79966000  1.0
  O  O79  1  0.02539000  0.76430000  0.33940000  1.0
  O  O80  1  0.97459000  0.23569000  0.66059000  1.0
