# generated using pymatgen
data_Cu3H13C14SI3N5
_symmetry_space_group_name_H-M   'P 1'
_cell_length_a   9.23816000
_cell_length_b   10.62640000
_cell_length_c   11.08500000
_cell_angle_alpha   76.95560000
_cell_angle_beta   86.15260000
_cell_angle_gamma   69.69840000
_symmetry_Int_Tables_number   1
_chemical_formula_structural   Cu3H13C14SI3N5
_chemical_formula_sum   'Cu6 H26 C28 S2 I6 N10'
_cell_volume   994.18603478
_cell_formula_units_Z   2
loop_
 _symmetry_equiv_pos_site_id
 _symmetry_equiv_pos_as_xyz
  1  'x, y, z'
loop_
 _atom_site_type_symbol
 _atom_site_label
 _atom_site_symmetry_multiplicity
 _atom_site_fract_x
 _atom_site_fract_y
 _atom_site_fract_z
 _atom_site_occupancy
  Cu  Cu0  1  0.41250000  0.27808000  0.76120000  1.0
  Cu  Cu1  1  0.58750000  0.72192000  0.23880000  1.0
  Cu  Cu2  1  0.10173000  0.49492000  0.58110000  1.0
  Cu  Cu3  1  0.89827000  0.50508000  0.41890000  1.0
  Cu  Cu4  1  0.21016000  0.18576000  0.68949000  1.0
  Cu  Cu5  1  0.78984000  0.81423000  0.31051000  1.0
  H  H6  1  0.46817000  0.17079000  0.03292000  1.0
  H  H7  1  0.53183000  0.82920000  0.96708000  1.0
  H  H8  1  0.60257000  0.20627000  0.20148000  1.0
  H  H9  1  0.39743000  0.79373000  0.79852000  1.0
  H  H10  1  0.74974000  0.37421000  0.14819000  1.0
  H  H11  1  0.25025000  0.62579000  0.85181000  1.0
  H  H12  1  0.77135000  0.47929000  0.92551000  1.0
  H  H13  1  0.22865000  0.52072000  0.07449000  1.0
  H  H14  1  0.73204000  0.49141000  0.71296000  1.0
  H  H15  1  0.26796000  0.50859000  0.28704000  1.0
  H  H16  1  0.70978000  0.34115000  0.68461000  1.0
  H  H17  1  0.29022000  0.65885000  0.31539000  1.0
  H  H18  1  0.52233000  0.71782000  0.61324000  1.0
  H  H19  1  0.47767000  0.28218000  0.38676000  1.0
  H  H20  1  0.08357000  0.80819000  0.49889000  1.0
  H  H21  1  0.91643000  0.19181000  0.50111000  1.0
  H  H22  1  0.23704000  0.83231000  0.40158000  1.0
  H  H23  1  0.76296000  0.16769000  0.59842000  1.0
  H  H24  1  0.02675000  0.78099000  0.68307000  1.0
  H  H25  1  0.97325000  0.21901000  0.31693000  1.0
  H  H26  1  0.84854000  0.81673000  0.85850000  1.0
  H  H27  1  0.15147000  0.18327000  0.14150000  1.0
  H  H28  1  0.81287000  0.01979000  0.95381000  1.0
  H  H29  1  0.18714000  0.98021000  0.04619000  1.0
  H  H30  1  0.97083000  0.16994000  0.87333000  1.0
  H  H31  1  0.02917000  0.83006000  0.12667000  1.0
  C  C32  1  0.53622000  0.23882000  0.01249000  1.0
  C  C33  1  0.46378000  0.76118000  0.98751000  1.0
  C  C34  1  0.61032000  0.26086000  0.10685000  1.0
  C  C35  1  0.38968000  0.73914000  0.89315000  1.0
  C  C36  1  0.69314000  0.35103000  0.07706000  1.0
  C  C37  1  0.30685000  0.64897000  0.92294000  1.0
  C  C38  1  0.70460000  0.41086000  0.95287000  1.0
  C  C39  1  0.29539000  0.58914000  0.04712000  1.0
  C  C40  1  0.63222000  0.37944000  0.86309000  1.0
  C  C41  1  0.36778000  0.62056000  0.13691000  1.0
  C  C42  1  0.65584000  0.43012000  0.72712000  1.0
  C  C43  1  0.34416000  0.56987000  0.27288000  1.0
  C  C44  1  0.45645000  0.65106000  0.61329000  1.0
  C  C45  1  0.54355000  0.34894000  0.38672000  1.0
  C  C46  1  0.31147000  0.67658000  0.56637000  1.0
  C  C47  1  0.68853000  0.32343000  0.43363000  1.0
  C  C48  1  0.20199000  0.80942000  0.49883000  1.0
  C  C49  1  0.79801000  0.19058000  0.50118000  1.0
  C  C50  1  0.09133000  0.95916000  0.68287000  1.0
  C  C51  1  0.90868000  0.04084000  0.31713000  1.0
  C  C52  1  0.01257000  0.86657000  0.72643000  1.0
  C  C53  1  0.98743000  0.13343000  0.27357000  1.0
  C  C54  1  0.91156000  0.88715000  0.82444000  1.0
  C  C55  1  0.08844000  0.11285000  0.17556000  1.0
  C  C56  1  0.89217000  0.99902000  0.87786000  1.0
  C  C57  1  0.10783000  0.00098000  0.12214000  1.0
  C  C58  1  0.97818000  0.08338000  0.83283000  1.0
  C  C59  1  0.02182000  0.91662000  0.16717000  1.0
  S  S60  1  0.21055000  0.95571000  0.55304000  1.0
  S  S61  1  0.78945000  0.04429000  0.44696000  1.0
  I  I62  1  0.50890000  0.04336000  0.70643000  1.0
  I  I63  1  0.49110000  0.95664000  0.29357000  1.0
  I  I64  1  0.11703000  0.37238000  0.83394000  1.0
  I  I65  1  0.88296000  0.62762000  0.16606000  1.0
  I  I66  1  0.16314000  0.30986000  0.44765000  1.0
  I  I67  1  0.83686000  0.69014000  0.55235000  1.0
  N  N68  1  0.54556000  0.29744000  0.89233000  1.0
  N  N69  1  0.45444000  0.70256000  0.10766000  1.0
  N  N70  1  0.51240000  0.51393000  0.65977000  1.0
  N  N71  1  0.48760000  0.48607000  0.34023000  1.0
  N  N72  1  0.40961000  0.45473000  0.64398000  1.0
  N  N73  1  0.59039000  0.54527000  0.35602000  1.0
  N  N74  1  0.28616000  0.55395000  0.58746000  1.0
  N  N75  1  0.71383000  0.44605000  0.41254000  1.0
  N  N76  1  0.07730000  0.06525000  0.73759000  1.0
  N  N77  1  0.92270000  0.93475000  0.26241000  1.0
