# generated using pymatgen
data_CuH14PdC16(N3O)2
_symmetry_space_group_name_H-M   'P 1'
_cell_length_a   7.37575000
_cell_length_b   7.89786000
_cell_length_c   8.89357000
_cell_angle_alpha   106.28500000
_cell_angle_beta   100.43000000
_cell_angle_gamma   110.73000000
_symmetry_Int_Tables_number   1
_chemical_formula_structural   CuH14PdC16(N3O)2
_chemical_formula_sum   'Cu1 H14 Pd1 C16 N6 O2'
_cell_volume   441.84298263
_cell_formula_units_Z   1
loop_
 _symmetry_equiv_pos_site_id
 _symmetry_equiv_pos_as_xyz
  1  'x, y, z'
loop_
 _atom_site_type_symbol
 _atom_site_label
 _atom_site_symmetry_multiplicity
 _atom_site_fract_x
 _atom_site_fract_y
 _atom_site_fract_z
 _atom_site_occupancy
  Cu  Cu0  1  0.00000000  0.49999000  0.50000000  1.0
  H  H1  1  0.69218000  0.48420000  0.22528000  1.0
  H  H2  1  0.30782000  0.51580000  0.77472000  1.0
  H  H3  1  0.90334000  0.52343000  0.08470000  1.0
  H  H4  1  0.09666000  0.47657000  0.91530000  1.0
  H  H5  1  0.94801000  0.76944000  0.17928000  1.0
  H  H6  1  0.05198000  0.23056000  0.82072000  1.0
  H  H7  1  0.28685000  0.83039000  0.12436000  1.0
  H  H8  1  0.71315000  0.16962000  0.87565000  1.0
  H  H9  1  0.64973000  0.91054000  0.25974000  1.0
  H  H10  1  0.35027000  0.08948000  0.74027000  1.0
  H  H11  1  0.73325000  0.82078000  0.50600000  1.0
  H  H12  1  0.26675000  0.17922000  0.49400000  1.0
  H  H13  1  0.44879000  0.65880000  0.60523000  1.0
  H  H14  1  0.55121000  0.34117000  0.39476000  1.0
  Pd  Pd15  1  0.00001000  0.00001000  0.00000000  1.0
  C  C16  1  0.02894000  0.83620000  0.80061000  1.0
  C  C17  1  0.97108000  0.16382000  0.19939000  1.0
  C  C18  1  0.29057000  0.18872000  0.06841000  1.0
  C  C19  1  0.70944000  0.81128000  0.93159000  1.0
  C  C20  1  0.95549000  0.64281000  0.20595000  1.0
  C  C21  1  0.04451000  0.35719000  0.79405000  1.0
  C  C22  1  0.17602000  0.69727000  0.29031000  1.0
  C  C23  1  0.82398000  0.30272000  0.70969000  1.0
  C  C24  1  0.32828000  0.79197000  0.23007000  1.0
  C  C25  1  0.67171000  0.20804000  0.76994000  1.0
  C  C26  1  0.53051000  0.83759000  0.30628000  1.0
  C  C27  1  0.46948000  0.16242000  0.69373000  1.0
  C  C28  1  0.57756000  0.78992000  0.44344000  1.0
  C  C29  1  0.42244000  0.21009000  0.55656000  1.0
  C  C30  1  0.41970000  0.69741000  0.49794000  1.0
  C  C31  1  0.58030000  0.30258000  0.50205000  1.0
  N  N32  1  0.04125000  0.73528000  0.68208000  1.0
  N  N33  1  0.95875000  0.26471000  0.31790000  1.0
  N  N34  1  0.46116000  0.30207000  0.10976000  1.0
  N  N35  1  0.53885000  0.69793000  0.89024000  1.0
  N  N36  1  0.22375000  0.65214000  0.42257000  1.0
  N  N37  1  0.77625000  0.34785000  0.57743000  1.0
  O  O38  1  0.82939000  0.58827000  0.30197000  1.0
  O  O39  1  0.17062000  0.41173000  0.69804000  1.0
