# generated using pymatgen
data_ZnH8(C2O)4
_symmetry_space_group_name_H-M   'P 1'
_cell_length_a   4.87312000
_cell_length_b   6.71144000
_cell_length_c   12.96320000
_cell_angle_alpha   98.85170000
_cell_angle_beta   100.07700000
_cell_angle_gamma   95.38760000
_symmetry_Int_Tables_number   1
_chemical_formula_structural   ZnH8(C2O)4
_chemical_formula_sum   'Zn2 H16 C16 O8'
_cell_volume   409.26491293
_cell_formula_units_Z   2
loop_
 _symmetry_equiv_pos_site_id
 _symmetry_equiv_pos_as_xyz
  1  'x, y, z'
loop_
 _atom_site_type_symbol
 _atom_site_label
 _atom_site_symmetry_multiplicity
 _atom_site_fract_x
 _atom_site_fract_y
 _atom_site_fract_z
 _atom_site_occupancy
  Zn  Zn0  1  0.75931000  0.69792000  0.07886000  1.0
  Zn  Zn1  1  0.24069000  0.30208000  0.92114000  1.0
  H  H2  1  0.03827000  0.09916000  0.19958000  1.0
  H  H3  1  0.96173000  0.90085000  0.80042000  1.0
  H  H4  1  0.65258000  0.26088000  0.29855000  1.0
  H  H5  1  0.34743000  0.73912000  0.70145000  1.0
  H  H6  1  0.47510000  0.57850000  0.34924000  1.0
  H  H7  1  0.52491000  0.42150000  0.65077000  1.0
  H  H8  1  0.13598000  0.48963000  0.27362000  1.0
  H  H9  1  0.86403000  0.51037000  0.72638000  1.0
  H  H10  1  0.20204000  0.48511000  0.48167000  1.0
  H  H11  1  0.79798000  0.51489000  0.51833000  1.0
  H  H12  1  0.14602000  0.13149000  0.49949000  1.0
  H  H13  1  0.85398000  0.86851000  0.50051000  1.0
  H  H14  1  0.06300000  0.87991000  0.32962000  1.0
  H  H15  1  0.93698000  0.12009000  0.67037000  1.0
  H  H16  1  0.43027000  0.93585000  0.36939000  1.0
  H  H17  1  0.56972000  0.06415000  0.63060000  1.0
  C  C18  1  0.34663000  0.90963000  0.16208000  1.0
  C  C19  1  0.65337000  0.09037000  0.83793000  1.0
  C  C20  1  0.48212000  0.35003000  0.15287000  1.0
  C  C21  1  0.51788000  0.64997000  0.84712000  1.0
  C  C22  1  0.25126000  0.07599000  0.23577000  1.0
  C  C23  1  0.74874000  0.92401000  0.76423000  1.0
  C  C24  1  0.44320000  0.27744000  0.25518000  1.0
  C  C25  1  0.55680000  0.72256000  0.74481000  1.0
  C  C26  1  0.31909000  0.44266000  0.32279000  1.0
  C  C27  1  0.68093000  0.55734000  0.67721000  1.0
  C  C28  1  0.23408000  0.36938000  0.41737000  1.0
  C  C29  1  0.76593000  0.63061000  0.58264000  1.0
  C  C30  1  0.20175000  0.17318000  0.42686000  1.0
  C  C31  1  0.79825000  0.82683000  0.57314000  1.0
  C  C32  1  0.23776000  0.00327000  0.34229000  1.0
  C  C33  1  0.76223000  0.99673000  0.65771000  1.0
  O  O34  1  0.60788000  0.92577000  0.15821000  1.0
  O  O35  1  0.39211000  0.07424000  0.84179000  1.0
  O  O36  1  0.17737000  0.75608000  0.11082000  1.0
  O  O37  1  0.82263000  0.24392000  0.88918000  1.0
  O  O38  1  0.29347000  0.28264000  0.07083000  1.0
  O  O39  1  0.70653000  0.71735000  0.92917000  1.0
  O  O40  1  0.69631000  0.47872000  0.15864000  1.0
  O  O41  1  0.30369000  0.52128000  0.84135000  1.0
