# generated using pymatgen
data_CuH10C6(N4Cl)2
_symmetry_space_group_name_H-M   'P 1'
_cell_length_a   6.71853000
_cell_length_b   11.49040000
_cell_length_c   14.58380000
_cell_angle_alpha   90.00010000
_cell_angle_beta   90.00000000
_cell_angle_gamma   89.98530000
_symmetry_Int_Tables_number   1
_chemical_formula_structural   CuH10C6(N4Cl)2
_chemical_formula_sum   'Cu4 H40 C24 N32 Cl8'
_cell_volume   1125.84886351
_cell_formula_units_Z   4
loop_
 _symmetry_equiv_pos_site_id
 _symmetry_equiv_pos_as_xyz
  1  'x, y, z'
loop_
 _atom_site_type_symbol
 _atom_site_label
 _atom_site_symmetry_multiplicity
 _atom_site_fract_x
 _atom_site_fract_y
 _atom_site_fract_z
 _atom_site_occupancy
  Cu  Cu0  1  0.83101000  0.12578000  1.00000000  1.0
  Cu  Cu1  1  0.33092000  0.37413000  0.50000000  1.0
  Cu  Cu2  1  0.66895000  0.62586000  0.50000000  1.0
  Cu  Cu3  1  0.16912000  0.87423000  1.00000000  1.0
  H  H4  1  0.88725000  0.12804000  0.57787000  1.0
  H  H5  1  0.88726000  0.12804000  0.42213000  1.0
  H  H6  1  0.38725000  0.37198000  0.07785000  1.0
  H  H7  1  0.61275000  0.62804000  0.07784000  1.0
  H  H8  1  0.11274000  0.87198000  0.42211000  1.0
  H  H9  1  0.11274000  0.87198000  0.57789000  1.0
  H  H10  1  0.61275000  0.62804000  0.92216000  1.0
  H  H11  1  0.38724000  0.37198000  0.92215000  1.0
  H  H12  1  0.63127000  0.15300000  0.60615000  1.0
  H  H13  1  0.63127000  0.15300000  0.39385000  1.0
  H  H14  1  0.13129000  0.34704000  0.10613000  1.0
  H  H15  1  0.86872000  0.65296000  0.10612000  1.0
  H  H16  1  0.36871000  0.84700000  0.39384000  1.0
  H  H17  1  0.36871000  0.84700000  0.60616000  1.0
  H  H18  1  0.86872000  0.65297000  0.89388000  1.0
  H  H19  1  0.13129000  0.34704000  0.89387000  1.0
  H  H20  1  0.73134000  0.00700000  0.60777000  1.0
  H  H21  1  0.73134000  0.00700000  0.39223000  1.0
  H  H22  1  0.23126000  0.49303000  0.10777000  1.0
  H  H23  1  0.76873000  0.50697000  0.10775000  1.0
  H  H24  1  0.26867000  0.99301000  0.39220000  1.0
  H  H25  1  0.26867000  0.99301000  0.60780000  1.0
  H  H26  1  0.76873000  0.50697000  0.89225000  1.0
  H  H27  1  0.23125000  0.49303000  0.89223000  1.0
  H  H28  1  0.43105000  0.10543000  0.74202000  1.0
  H  H29  1  0.43105000  0.10543000  0.25798000  1.0
  H  H30  1  0.93103000  0.39461000  0.24201000  1.0
  H  H31  1  0.06896000  0.60540000  0.24202000  1.0
  H  H32  1  0.56895000  0.89458000  0.25798000  1.0
  H  H33  1  0.56895000  0.89458000  0.74202000  1.0
  H  H34  1  0.06896000  0.60540000  0.75798000  1.0
  H  H35  1  0.93103000  0.39461000  0.75799000  1.0
  H  H36  1  0.44669000  0.10200000  0.86340000  1.0
  H  H37  1  0.44669000  0.10199000  0.13660000  1.0
  H  H38  1  0.94666000  0.39802000  0.36340000  1.0
  H  H39  1  0.05332000  0.60199000  0.36340000  1.0
  H  H40  1  0.55335000  0.89801000  0.13660000  1.0
  H  H41  1  0.55335000  0.89801000  0.86340000  1.0
  H  H42  1  0.05331000  0.60199000  0.63660000  1.0
  H  H43  1  0.94666000  0.39802000  0.63660000  1.0
  C  C44  1  0.72286000  0.10255000  0.79396000  1.0
  C  C45  1  0.72286000  0.10255000  0.20604000  1.0
  C  C46  1  0.22284000  0.39739000  0.29395000  1.0
  C  C47  1  0.77714000  0.60259000  0.29394000  1.0
  C  C48  1  0.27716000  0.89744000  0.20602000  1.0
  C  C49  1  0.27716000  0.89744000  0.79398000  1.0
  C  C50  1  0.77714000  0.60259000  0.70606000  1.0
  C  C51  1  0.22284000  0.39739000  0.70605000  1.0
  C  C52  1  0.76260000  0.09939000  0.62063000  1.0
  C  C53  1  0.76260000  0.09939000  0.37937000  1.0
  C  C54  1  0.26258000  0.40064000  0.12062000  1.0
  C  C55  1  0.73742000  0.59936000  0.12060000  1.0
  C  C56  1  0.23739000  0.90062000  0.37935000  1.0
  C  C57  1  0.23739000  0.90062000  0.62065000  1.0
  C  C58  1  0.73742000  0.59936000  0.87940000  1.0
  C  C59  1  0.26258000  0.40064000  0.87938000  1.0
  C  C60  1  0.51186000  0.06698000  0.80012000  1.0
  C  C61  1  0.51185000  0.06698000  0.19988000  1.0
  C  C62  1  0.01184000  0.43302000  0.30012000  1.0
  C  C63  1  0.98815000  0.56698000  0.30012000  1.0
  C  C64  1  0.48816000  0.93302000  0.19988000  1.0
  C  C65  1  0.48815000  0.93302000  0.80012000  1.0
  C  C66  1  0.98815000  0.56698000  0.69988000  1.0
  C  C67  1  0.01184000  0.43302000  0.69988000  1.0
  N  N68  1  0.82507000  0.11633000  0.71506000  1.0
  N  N69  1  0.82507000  0.11633000  0.28494000  1.0
  N  N70  1  0.32508000  0.38367000  0.21505000  1.0
  N  N71  1  0.67493000  0.61632000  0.21503000  1.0
  N  N72  1  0.17492000  0.88366000  0.28491000  1.0
  N  N73  1  0.17492000  0.88366000  0.71509000  1.0
  N  N74  1  0.67493000  0.61632000  0.78497000  1.0
  N  N75  1  0.32508000  0.38367000  0.78495000  1.0
  N  N76  1  0.01269000  0.15121000  0.73473000  1.0
  N  N77  1  0.01268000  0.15121000  0.26527000  1.0
  N  N78  1  0.51275000  0.34883000  0.23472000  1.0
  N  N79  1  0.48726000  0.65116000  0.23468000  1.0
  N  N80  1  0.98731000  0.84878000  0.26523000  1.0
  N  N81  1  0.98731000  0.84878000  0.73477000  1.0
  N  N82  1  0.48726000  0.65116000  0.76532000  1.0
  N  N83  1  0.51275000  0.34883000  0.76528000  1.0
  N  N84  1  0.02535000  0.15867000  0.82327000  1.0
  N  N85  1  0.02535000  0.15867000  0.17673000  1.0
  N  N86  1  0.52542000  0.34130000  0.32326000  1.0
  N  N87  1  0.47455000  0.65867000  0.32322000  1.0
  N  N88  1  0.97468000  0.84131000  0.17668000  1.0
  N  N89  1  0.97468000  0.84131000  0.82332000  1.0
  N  N90  1  0.47455000  0.65867000  0.67678000  1.0
  N  N91  1  0.52542000  0.34131000  0.67674000  1.0
  N  N92  1  0.84951000  0.12821000  0.86184000  1.0
  N  N93  1  0.84951000  0.12821000  0.13816000  1.0
  N  N94  1  0.34950000  0.37172000  0.36184000  1.0
  N  N95  1  0.65045000  0.62826000  0.36182000  1.0
  N  N96  1  0.15054000  0.87178000  0.13813000  1.0
  N  N97  1  0.15054000  0.87178000  0.86187000  1.0
  N  N98  1  0.65045000  0.62826000  0.63818000  1.0
  N  N99  1  0.34951000  0.37172000  0.63816000  1.0
  Cl  Cl100  1  0.75976000  0.93131000  1.00000000  1.0
  Cl  Cl101  1  0.26007000  0.56865000  0.50000000  1.0
  Cl  Cl102  1  0.74000000  0.43139000  0.50000000  1.0
  Cl  Cl103  1  0.24018000  0.06874000  1.00000000  1.0
  Cl  Cl104  1  0.77903000  0.32231000  1.00000000  1.0
  Cl  Cl105  1  0.27898000  0.17758000  0.50000000  1.0
  Cl  Cl106  1  0.72109000  0.82241000  0.50000000  1.0
  Cl  Cl107  1  0.22093000  0.67769000  0.00000000  1.0
