# generated using pymatgen
data_ZnH12C23Br2(NO)4
_symmetry_space_group_name_H-M   'P 1'
_cell_length_a   21.54930000
_cell_length_b   21.55030000
_cell_length_c   21.69100000
_cell_angle_alpha   116.84830000
_cell_angle_beta   119.75660000
_cell_angle_gamma   90.00640000
_symmetry_Int_Tables_number   1
_chemical_formula_structural   ZnH12C23Br2(NO)4
_chemical_formula_sum   'Zn4 H48 C92 Br8 N16 O16'
_cell_volume   7468.08599923
_cell_formula_units_Z   4
loop_
 _symmetry_equiv_pos_site_id
 _symmetry_equiv_pos_as_xyz
  1  'x, y, z'
loop_
 _atom_site_type_symbol
 _atom_site_label
 _atom_site_symmetry_multiplicity
 _atom_site_fract_x
 _atom_site_fract_y
 _atom_site_fract_z
 _atom_site_occupancy
  Zn  Zn0  1  0.04623000  0.54282000  0.09340000  1.0
  Zn  Zn1  1  0.95293000  0.45698000  0.90652000  1.0
  Zn  Zn2  1  0.45484000  0.95782000  0.90943000  1.0
  Zn  Zn3  1  0.54534000  0.04196000  0.09074000  1.0
  H  H4  1  0.38707000  0.80714000  0.77984000  1.0
  H  H5  1  0.31516000  0.72886000  0.62372000  1.0
  H  H6  1  0.19882000  0.57945000  0.38720000  1.0
  H  H7  1  0.19335000  0.77787000  0.38385000  1.0
  H  H8  1  0.60761000  0.19230000  0.22004000  1.0
  H  H9  1  0.69227000  0.27095000  0.37640000  1.0
  H  H10  1  0.81105000  0.42056000  0.61241000  1.0
  H  H11  1  0.81039000  0.22206000  0.61547000  1.0
  H  H12  1  0.07211000  0.57635000  0.86656000  1.0
  H  H13  1  0.10289000  0.61144000  0.78874000  1.0
  H  H14  1  0.20293000  0.69981000  0.13323000  1.0
  H  H15  1  0.42853000  0.91994000  0.13259000  1.0
  H  H16  1  0.39607000  0.88656000  0.21077000  1.0
  H  H17  1  0.29335000  0.80057000  0.86598000  1.0
  H  H18  1  0.79386000  0.30289000  0.86781000  1.0
  H  H19  1  0.68399000  0.19805000  0.79051000  1.0
  H  H20  1  0.93089000  0.42133000  0.13444000  1.0
  H  H21  1  0.70597000  0.20183000  0.13602000  1.0
  H  H22  1  0.81665000  0.30552000  0.21325000  1.0
  H  H23  1  0.57311000  0.07858000  0.86964000  1.0
  H  H24  1  0.07062000  0.29939000  0.86547000  1.0
  H  H25  1  0.10354000  0.19476000  0.78832000  1.0
  H  H26  1  0.20402000  0.42320000  0.13213000  1.0
  H  H27  1  0.42647000  0.19961000  0.13486000  1.0
  H  H28  1  0.39474000  0.30493000  0.21155000  1.0
  H  H29  1  0.29765000  0.07982000  0.86829000  1.0
  H  H30  1  0.79301000  0.57690000  0.86396000  1.0
  H  H31  1  0.68304000  0.61089000  0.78686000  1.0
  H  H32  1  0.92656000  0.69588000  0.13066000  1.0
  H  H33  1  0.70657000  0.92258000  0.13240000  1.0
  H  H34  1  0.81493000  0.88640000  0.20987000  1.0
  H  H35  1  0.56897000  0.79871000  0.86610000  1.0
  H  H36  1  0.40954000  0.03996000  0.84271000  1.0
  H  H37  1  0.40074000  0.03829000  0.75833000  1.0
  H  H38  1  0.27233000  0.90330000  0.54670000  1.0
  H  H39  1  0.29653000  0.98273000  0.63582000  1.0
  H  H40  1  0.06468000  0.46657000  0.16267000  1.0
  H  H41  1  0.12307000  0.46965000  0.25522000  1.0
  H  H42  1  0.09495000  0.68227000  0.15947000  1.0
  H  H43  1  0.13100000  0.76424000  0.25074000  1.0
  H  H44  1  0.56329000  0.96035000  0.15803000  1.0
  H  H45  1  0.63864000  0.96108000  0.24198000  1.0
  H  H46  1  0.72623000  0.09734000  0.45423000  1.0
  H  H47  1  0.66036000  0.01809000  0.36608000  1.0
  H  H48  1  0.90130000  0.53312000  0.83710000  1.0
  H  H49  1  0.86676000  0.53007000  0.74435000  1.0
  H  H50  1  0.93555000  0.31758000  0.84010000  1.0
  H  H51  1  0.88078000  0.23553000  0.74850000  1.0
  C  C52  1  0.91550000  0.41497000  0.00039000  1.0
  C  C53  1  0.08420000  0.41477000  0.99944000  1.0
  C  C54  1  0.08364000  0.58454000  0.99910000  1.0
  C  C55  1  0.91363000  0.58360000  0.99788000  1.0
  C  C56  1  0.41654000  0.08736000  0.00327000  1.0
  C  C57  1  0.58613000  0.08702000  0.00311000  1.0
  C  C58  1  0.58421000  0.91393000  0.99934000  1.0
  C  C59  1  0.41364000  0.91266000  0.99760000  1.0
  C  C60  1  0.36902000  0.83039000  0.74052000  1.0
  C  C61  1  0.33006000  0.78782000  0.65547000  1.0
  C  C62  1  0.30777000  0.82204000  0.60856000  1.0
  C  C63  1  0.32714000  0.89844000  0.65029000  1.0
  C  C64  1  0.36910000  0.93866000  0.73942000  1.0
  C  C65  1  0.18023000  0.60738000  0.35293000  1.0
  C  C66  1  0.20114000  0.68308000  0.39556000  1.0
  C  C67  1  0.17696000  0.71891000  0.35157000  1.0
  C  C68  1  0.13264000  0.67713000  0.26452000  1.0
  C  C69  1  0.13360000  0.56820000  0.26547000  1.0
  C  C70  1  0.62848000  0.16930000  0.25965000  1.0
  C  C71  1  0.67487000  0.21201000  0.34464000  1.0
  C  C72  1  0.69921000  0.17786000  0.39160000  1.0
  C  C73  1  0.67629000  0.10153000  0.35021000  1.0
  C  C74  1  0.62822000  0.06128000  0.26120000  1.0
  C  C75  1  0.82713000  0.39266000  0.64672000  1.0
  C  C76  1  0.80594000  0.31700000  0.60409000  1.0
  C  C77  1  0.82605000  0.28102000  0.64791000  1.0
  C  C78  1  0.86848000  0.32271000  0.73492000  1.0
  C  C79  1  0.86790000  0.43168000  0.73417000  1.0
  C  C80  1  0.11890000  0.62197000  0.92453000  1.0
  C  C81  1  0.16415000  0.66776000  0.92357000  1.0
  C  C82  1  0.14999000  0.65651000  0.84690000  1.0
  C  C83  1  0.19282000  0.69176000  0.07537000  1.0
  C  C84  1  0.24020000  0.73821000  0.07738000  1.0
  C  C85  1  0.30337000  0.79787000  0.15278000  1.0
  C  C86  1  0.38067000  0.87543000  0.07453000  1.0
  C  C87  1  0.33468000  0.83062000  0.07583000  1.0
  C  C88  1  0.34862000  0.84188000  0.15250000  1.0
  C  C89  1  0.30413000  0.80763000  0.92371000  1.0
  C  C90  1  0.25749000  0.76083000  0.92201000  1.0
  C  C91  1  0.19455000  0.70105000  0.84650000  1.0
  C  C92  1  0.13301000  0.63409000  0.99978000  1.0
  C  C93  1  0.22594000  0.72657000  0.00037000  1.0
  C  C94  1  0.36520000  0.86411000  0.99900000  1.0
  C  C95  1  0.27231000  0.77228000  0.99914000  1.0
  C  C96  1  0.80523000  0.31000000  0.92588000  1.0
  C  C97  1  0.75894000  0.26370000  0.92526000  1.0
  C  C98  1  0.69570000  0.20569000  0.84886000  1.0
  C  C99  1  0.88289000  0.37700000  0.07668000  1.0
  C  C100  1  0.83765000  0.33264000  0.07905000  1.0
  C  C101  1  0.85063000  0.34153000  0.15475000  1.0
  C  C102  1  0.69545000  0.19355000  0.07784000  1.0
  C  C103  1  0.74231000  0.23928000  0.07846000  1.0
  C  C104  1  0.80543000  0.29737000  0.15488000  1.0
  C  C105  1  0.61998000  0.12427000  0.92710000  1.0
  C  C106  1  0.66425000  0.16956000  0.92468000  1.0
  C  C107  1  0.65089000  0.16118000  0.84905000  1.0
  C  C108  1  0.86677000  0.36605000  0.00103000  1.0
  C  C109  1  0.77444000  0.27461000  0.00223000  1.0
  C  C110  1  0.63509000  0.13629000  0.00280000  1.0
  C  C111  1  0.72709000  0.22799000  0.00148000  1.0
  C  C112  1  0.11804000  0.30778000  0.92385000  1.0
  C  C113  1  0.16412000  0.26187000  0.92319000  1.0
  C  C114  1  0.15073000  0.20332000  0.84689000  1.0
  C  C115  1  0.19370000  0.37764000  0.07470000  1.0
  C  C116  1  0.24036000  0.33236000  0.07705000  1.0
  C  C117  1  0.30294000  0.34148000  0.15292000  1.0
  C  C118  1  0.37988000  0.19212000  0.07657000  1.0
  C  C119  1  0.33417000  0.23830000  0.07684000  1.0
  C  C120  1  0.34774000  0.29681000  0.15317000  1.0
  C  C121  1  0.30693000  0.12426000  0.92577000  1.0
  C  C122  1  0.25910000  0.16846000  0.92306000  1.0
  C  C123  1  0.19613000  0.15919000  0.84730000  1.0
  C  C124  1  0.13300000  0.36532000  0.99900000  1.0
  C  C125  1  0.22607000  0.27351000  0.00025000  1.0
  C  C126  1  0.36657000  0.13583000  0.00175000  1.0
  C  C127  1  0.27266000  0.22687000  0.99968000  1.0
  C  C128  1  0.80401000  0.62160000  0.92239000  1.0
  C  C129  1  0.75716000  0.66677000  0.92172000  1.0
  C  C130  1  0.69433000  0.65571000  0.84534000  1.0
  C  C131  1  0.87929000  0.68908000  0.07327000  1.0
  C  C132  1  0.83476000  0.73632000  0.07557000  1.0
  C  C133  1  0.84776000  0.79624000  0.15128000  1.0
  C  C134  1  0.69470000  0.87654000  0.07430000  1.0
  C  C135  1  0.74069000  0.83050000  0.07505000  1.0
  C  C136  1  0.80334000  0.84131000  0.15141000  1.0
  C  C137  1  0.61718000  0.80668000  0.92360000  1.0
  C  C138  1  0.66225000  0.75999000  0.92126000  1.0
  C  C139  1  0.64930000  0.70019000  0.84548000  1.0
  C  C140  1  0.86429000  0.63253000  0.99751000  1.0
  C  C141  1  0.77222000  0.72524000  0.99878000  1.0
  C  C142  1  0.63329000  0.86451000  0.99922000  1.0
  C  C143  1  0.72510000  0.77143000  0.99806000  1.0
  Br  Br144  1  0.17236000  0.68261000  0.74200000  1.0
  Br  Br145  1  0.32546000  0.81665000  0.25756000  1.0
  Br  Br146  1  0.56718000  0.08548000  0.74457000  1.0
  Br  Br147  1  0.93375000  0.41772000  0.25917000  1.0
  Br  Br148  1  0.17446000  0.08231000  0.74293000  1.0
  Br  Br149  1  0.32460000  0.41842000  0.25703000  1.0
  Br  Br150  1  0.56672000  0.68200000  0.74124000  1.0
  Br  Br151  1  0.92987000  0.81378000  0.25554000  1.0
  N  N152  1  0.38892000  0.90456000  0.78202000  1.0
  N  N153  1  0.26348000  0.78665000  0.52171000  1.0
  N  N154  1  0.24736000  0.71778000  0.48343000  1.0
  N  N155  1  0.11085000  0.60263000  0.22182000  1.0
  N  N156  1  0.60605000  0.09523000  0.21848000  1.0
  N  N157  1  0.74207000  0.21343000  0.47838000  1.0
  N  N158  1  0.76421000  0.28225000  0.51630000  1.0
  N  N159  1  0.88903000  0.39716000  0.77768000  1.0
  N  N160  1  0.38479000  0.01270000  0.77980000  1.0
  N  N161  1  0.30822000  0.93581000  0.60945000  1.0
  N  N162  1  0.11117000  0.49430000  0.22220000  1.0
  N  N163  1  0.10817000  0.70990000  0.21907000  1.0
  N  N164  1  0.60194000  0.98735000  0.22096000  1.0
  N  N165  1  0.69856000  0.06447000  0.39142000  1.0
  N  N166  1  0.88835000  0.50561000  0.77751000  1.0
  N  N167  1  0.88939000  0.28981000  0.78029000  1.0
  O  O168  1  0.97920000  0.45462000  0.06819000  1.0
  O  O169  1  0.89032000  0.41360000  0.93298000  1.0
  O  O170  1  0.02052000  0.39230000  0.93137000  1.0
  O  O171  1  0.10897000  0.47484000  0.06644000  1.0
  O  O172  1  0.04150000  0.52448000  0.93183000  1.0
  O  O173  1  0.08764000  0.60677000  0.06686000  1.0
  O  O174  1  0.95587000  0.58464000  0.06499000  1.0
  O  O175  1  0.90943000  0.54410000  0.92987000  1.0
  O  O176  1  0.40977000  0.04450000  0.93472000  1.0
  O  O177  1  0.46171000  0.09225000  0.07234000  1.0
  O  O178  1  0.59503000  0.10698000  0.07267000  1.0
  O  O179  1  0.53971000  0.02955000  0.93391000  1.0
  O  O180  1  0.60720000  0.97138000  0.06879000  1.0
  O  O181  1  0.52351000  0.89418000  0.93005000  1.0
  O  O182  1  0.38999000  0.90809000  0.92881000  1.0
  O  O183  1  0.47542000  0.95553000  0.06635000  1.0
