# generated using pymatgen
data_BaH8C9SN4O7
_symmetry_space_group_name_H-M   'P 1'
_cell_length_a   6.80934000
_cell_length_b   7.31072000
_cell_length_c   14.92660000
_cell_angle_alpha   86.26360000
_cell_angle_beta   87.33560000
_cell_angle_gamma   63.91170000
_symmetry_Int_Tables_number   1
_chemical_formula_structural   BaH8C9SN4O7
_chemical_formula_sum   'Ba2 H16 C18 S2 N8 O14'
_cell_volume   665.80815600
_cell_formula_units_Z   2
loop_
 _symmetry_equiv_pos_site_id
 _symmetry_equiv_pos_as_xyz
  1  'x, y, z'
loop_
 _atom_site_type_symbol
 _atom_site_label
 _atom_site_symmetry_multiplicity
 _atom_site_fract_x
 _atom_site_fract_y
 _atom_site_fract_z
 _atom_site_occupancy
  Ba  Ba0  1  0.68836000  0.67985000  0.56428000  1.0
  Ba  Ba1  1  0.31164000  0.32015000  0.43571000  1.0
  H  H2  1  0.61218000  0.85502000  0.35579000  1.0
  H  H3  1  0.38782000  0.14498000  0.64421000  1.0
  H  H4  1  0.78500000  0.91861000  0.38985000  1.0
  H  H5  1  0.21500000  0.08138000  0.61015000  1.0
  H  H6  1  0.60599000  0.84119000  0.95193000  1.0
  H  H7  1  0.39401000  0.15882000  0.04807000  1.0
  H  H8  1  0.50669000  0.78823000  0.79711000  1.0
  H  H9  1  0.49331000  0.21178000  0.20290000  1.0
  H  H10  1  0.35677000  0.66294000  0.95317000  1.0
  H  H11  1  0.64323000  0.33705000  0.04682000  1.0
  H  H12  1  0.48643000  0.69687000  0.10535000  1.0
  H  H13  1  0.51356000  0.30314000  0.89465000  1.0
  H  H14  1  0.21154000  0.80503000  0.23195000  1.0
  H  H15  1  0.78845000  0.19498000  0.76805000  1.0
  H  H16  1  0.82530000  0.87577000  0.20373000  1.0
  H  H17  1  0.17469000  0.12425000  0.79627000  1.0
  C  C18  1  0.02971000  0.64012000  0.76848000  1.0
  C  C19  1  0.97030000  0.35987000  0.23152000  1.0
  C  C20  1  0.94909000  0.73067000  0.91360000  1.0
  C  C21  1  0.05092000  0.26932000  0.08640000  1.0
  C  C22  1  0.72859000  0.78143000  0.89868000  1.0
  C  C23  1  0.27141000  0.21858000  0.10133000  1.0
  C  C24  1  0.67407000  0.75491000  0.81367000  1.0
  C  C25  1  0.32594000  0.24509000  0.18633000  1.0
  C  C26  1  0.02679000  0.75194000  0.00144000  1.0
  C  C27  1  0.97322000  0.24806000  0.99856000  1.0
  C  C28  1  0.24647000  0.71016000  0.01116000  1.0
  C  C29  1  0.75352000  0.28984000  0.98884000  1.0
  C  C30  1  0.31656000  0.72902000  0.09471000  1.0
  C  C31  1  0.68346000  0.27098000  0.90529000  1.0
  C  C32  1  0.16389000  0.78971000  0.16535000  1.0
  C  C33  1  0.83610000  0.21030000  0.83466000  1.0
  C  C34  1  0.94755000  0.82965000  0.14935000  1.0
  C  C35  1  0.05246000  0.17035000  0.85065000  1.0
  S  S36  1  0.24465000  0.52914000  0.68381000  1.0
  S  S37  1  0.75535000  0.47086000  0.31619000  1.0
  N  N38  1  0.82514000  0.68398000  0.74677000  1.0
  N  N39  1  0.17484000  0.31603000  0.25323000  1.0
  N  N40  1  0.10036000  0.65892000  0.84698000  1.0
  N  N41  1  0.89963000  0.34108000  0.15303000  1.0
  N  N42  1  0.87783000  0.81170000  0.06943000  1.0
  N  N43  1  0.12216000  0.18831000  0.93058000  1.0
  N  N44  1  0.19197000  0.82915000  0.42010000  1.0
  N  N45  1  0.80804000  0.17083000  0.57989000  1.0
  O  O46  1  0.13154000  0.53499000  0.60075000  1.0
  O  O47  1  0.86845000  0.46501000  0.39924000  1.0
  O  O48  1  0.37736000  0.31954000  0.71931000  1.0
  O  O49  1  0.62263000  0.68045000  0.28069000  1.0
  O  O50  1  0.36246000  0.65549000  0.67769000  1.0
  O  O51  1  0.63754000  0.34451000  0.32231000  1.0
  O  O52  1  0.36217000  0.69635000  0.45824000  1.0
  O  O53  1  0.63783000  0.30363000  0.54175000  1.0
  O  O54  1  0.06788000  0.76530000  0.38463000  1.0
  O  O55  1  0.93212000  0.23470000  0.61536000  1.0
  O  O56  1  0.14618000  0.01475000  0.41648000  1.0
  O  O57  1  0.85383000  0.98524000  0.58351000  1.0
  O  O58  1  0.63145000  0.94068000  0.40051000  1.0
  O  O59  1  0.36855000  0.05931000  0.59948000  1.0
