# generated using pymatgen
data_CuH9C8N2ClO2
_symmetry_space_group_name_H-M   'P 1'
_cell_length_a   7.21193000
_cell_length_b   8.86765000
_cell_length_c   15.63950000
_cell_angle_alpha   75.80500000
_cell_angle_beta   82.36160000
_cell_angle_gamma   89.82440000
_symmetry_Int_Tables_number   1
_chemical_formula_structural   CuH9C8N2ClO2
_chemical_formula_sum   'Cu4 H36 C32 N8 Cl4 O8'
_cell_volume   960.59384344
_cell_formula_units_Z   4
loop_
 _symmetry_equiv_pos_site_id
 _symmetry_equiv_pos_as_xyz
  1  'x, y, z'
loop_
 _atom_site_type_symbol
 _atom_site_label
 _atom_site_symmetry_multiplicity
 _atom_site_fract_x
 _atom_site_fract_y
 _atom_site_fract_z
 _atom_site_occupancy
  Cu  Cu0  1  0.83308000  0.78111000  0.28483000  1.0
  Cu  Cu1  1  0.16720000  0.21888000  0.71528000  1.0
  Cu  Cu2  1  0.33351000  0.96342000  0.28619000  1.0
  Cu  Cu3  1  0.66681000  0.03649000  0.71389000  1.0
  H  H4  1  0.13989000  0.72579000  0.20821000  1.0
  H  H5  1  0.86018000  0.27416000  0.79176000  1.0
  H  H6  1  0.63905000  0.08558000  0.20879000  1.0
  H  H7  1  0.36102000  0.91447000  0.79115000  1.0
  H  H8  1  0.66204000  0.52549000  0.44516000  1.0
  H  H9  1  0.33807000  0.47459000  0.55494000  1.0
  H  H10  1  0.64743000  0.23405000  0.48055000  1.0
  H  H11  1  0.35246000  0.76605000  0.51950000  1.0
  H  H12  1  0.78656000  0.10147000  0.36189000  1.0
  H  H13  1  0.21326000  0.89863000  0.63814000  1.0
  H  H14  1  0.93365000  0.26653000  0.21509000  1.0
  H  H15  1  0.06613000  0.73354000  0.78494000  1.0
  H  H16  1  0.06881000  0.53461000  0.13217000  1.0
  H  H17  1  0.93105000  0.46534000  0.86786000  1.0
  H  H18  1  0.84351000  0.61465000  0.12260000  1.0
  H  H19  1  0.15642000  0.38540000  0.87744000  1.0
  H  H20  1  0.93221000  0.85953000  0.06093000  1.0
  H  H21  1  0.06778000  0.14050000  0.93910000  1.0
  H  H22  1  0.17213000  0.88404000  0.06808000  1.0
  H  H23  1  0.82790000  0.11602000  0.93194000  1.0
  H  H24  1  0.16741000  0.07859000  0.44873000  1.0
  H  H25  1  0.83270000  0.92128000  0.55128000  1.0
  H  H26  1  0.14204000  0.33841000  0.48265000  1.0
  H  H27  1  0.85785000  0.66146000  0.51733000  1.0
  H  H28  1  0.27561000  0.57605000  0.36360000  1.0
  H  H29  1  0.72425000  0.42384000  0.63638000  1.0
  H  H30  1  0.42616000  0.53848000  0.21714000  1.0
  H  H31  1  0.57371000  0.46142000  0.78285000  1.0
  H  H32  1  0.34027000  0.27106000  0.12470000  1.0
  H  H33  1  0.65972000  0.72892000  0.87530000  1.0
  H  H34  1  0.56527000  0.34276000  0.13381000  1.0
  H  H35  1  0.43472000  0.65727000  0.86619000  1.0
  H  H36  1  0.67027000  0.04882000  0.06862000  1.0
  H  H37  1  0.32984000  0.95120000  0.93132000  1.0
  H  H38  1  0.42995000  0.08086000  0.06200000  1.0
  H  H39  1  0.57005000  0.91913000  0.93798000  1.0
  C  C40  1  0.72112000  0.46182000  0.39709000  1.0
  C  C41  1  0.27890000  0.53828000  0.60298000  1.0
  C  C42  1  0.71322000  0.30032000  0.41551000  1.0
  C  C43  1  0.28669000  0.69979000  0.58454000  1.0
  C  C44  1  0.79009000  0.22801000  0.34976000  1.0
  C  C45  1  0.20978000  0.77210000  0.65029000  1.0
  C  C46  1  0.87158000  0.31968000  0.26767000  1.0
  C  C47  1  0.12832000  0.68039000  0.73238000  1.0
  C  C48  1  0.87406000  0.48083000  0.25359000  1.0
  C  C49  1  0.12588000  0.51924000  0.74646000  1.0
  C  C50  1  0.95357000  0.58904000  0.16634000  1.0
  C  C51  1  0.04636000  0.41098000  0.83369000  1.0
  C  C52  1  0.03173000  0.87262000  0.10655000  1.0
  C  C53  1  0.96830000  0.12741000  0.89346000  1.0
  C  C54  1  0.98543000  0.02051000  0.13801000  1.0
  C  C55  1  0.01462000  0.97954000  0.86201000  1.0
  C  C56  1  0.22252000  0.18384000  0.39976000  1.0
  C  C57  1  0.77753000  0.81602000  0.60025000  1.0
  C  C58  1  0.20982000  0.32983000  0.41766000  1.0
  C  C59  1  0.79011000  0.67003000  0.58233000  1.0
  C  C60  1  0.28299000  0.45973000  0.35181000  1.0
  C  C61  1  0.71695000  0.54015000  0.64818000  1.0
  C  C62  1  0.36590000  0.43939000  0.26972000  1.0
  C  C63  1  0.63405000  0.56049000  0.73028000  1.0
  C  C64  1  0.37197000  0.29044000  0.25574000  1.0
  C  C65  1  0.62808000  0.70944000  0.74427000  1.0
  C  C66  1  0.45095000  0.25850000  0.16808000  1.0
  C  C67  1  0.54908000  0.74147000  0.83190000  1.0
  C  C68  1  0.53001000  0.02744000  0.10724000  1.0
  C  C69  1  0.47008000  0.97258000  0.89271000  1.0
  C  C70  1  0.48409000  0.85231000  0.13824000  1.0
  C  C71  1  0.51609000  0.14767000  0.86171000  1.0
  N  N72  1  0.80003000  0.55011000  0.31790000  1.0
  N  N73  1  0.20005000  0.44998000  0.68217000  1.0
  N  N74  1  0.01370000  0.73646000  0.18268000  1.0
  N  N75  1  0.98634000  0.26354000  0.81732000  1.0
  N  N76  1  0.30111000  0.16490000  0.32032000  1.0
  N  N77  1  0.69900000  0.83495000  0.67970000  1.0
  N  N78  1  0.51244000  0.09709000  0.18366000  1.0
  N  N79  1  0.48765000  0.90293000  0.81628000  1.0
  Cl  Cl80  1  0.59619000  0.83794000  0.38097000  1.0
  Cl  Cl81  1  0.40339000  0.16240000  0.61883000  1.0
  Cl  Cl82  1  0.09362000  0.82615000  0.38127000  1.0
  Cl  Cl83  1  0.90601000  0.17367000  0.61851000  1.0
  O  O84  1  0.87373000  0.99953000  0.21308000  1.0
  O  O85  1  0.12651000  0.00053000  0.78697000  1.0
  O  O86  1  0.04548000  0.15038000  0.09197000  1.0
  O  O87  1  0.95448000  0.84967000  0.90799000  1.0
  O  O88  1  0.37352000  0.80797000  0.21364000  1.0
  O  O89  1  0.62684000  0.19197000  0.78634000  1.0
  O  O90  1  0.54331000  0.76276000  0.09159000  1.0
  O  O91  1  0.45681000  0.23729000  0.90830000  1.0
