# generated using pymatgen
data_CdH24C28(N2O3)2
_symmetry_space_group_name_H-M   'P 1'
_cell_length_a   9.78145000
_cell_length_b   11.34900000
_cell_length_c   12.21800000
_cell_angle_alpha   102.33500000
_cell_angle_beta   106.85600000
_cell_angle_gamma   99.32900000
_symmetry_Int_Tables_number   1
_chemical_formula_structural   CdH24C28(N2O3)2
_chemical_formula_sum   'Cd2 H48 C56 N8 O12'
_cell_volume   1231.13022108
_cell_formula_units_Z   2
loop_
 _symmetry_equiv_pos_site_id
 _symmetry_equiv_pos_as_xyz
  1  'x, y, z'
loop_
 _atom_site_type_symbol
 _atom_site_label
 _atom_site_symmetry_multiplicity
 _atom_site_fract_x
 _atom_site_fract_y
 _atom_site_fract_z
 _atom_site_occupancy
  Cd  Cd0  1  0.35316000  0.08433000  0.88223000  1.0
  Cd  Cd1  1  0.64684000  0.91567000  0.11776000  1.0
  H  H2  1  0.91041000  0.16724000  0.37382000  1.0
  H  H3  1  0.08959000  0.83277000  0.62619000  1.0
  H  H4  1  0.80651000  0.26782000  0.22076000  1.0
  H  H5  1  0.19349000  0.73219000  0.77924000  1.0
  H  H6  1  0.83717000  0.49804000  0.27069000  1.0
  H  H7  1  0.16282000  0.50197000  0.72932000  1.0
  H  H8  1  0.15305000  0.15743000  0.51373000  1.0
  H  H9  1  0.84695000  0.84258000  0.48627000  1.0
  H  H10  1  0.98015000  0.10234000  0.52759000  1.0
  H  H11  1  0.01985000  0.89766000  0.47241000  1.0
  H  H12  1  0.22731000  0.43489000  0.42703000  1.0
  H  H13  1  0.77271000  0.56511000  0.57297000  1.0
  H  H14  1  0.37115000  0.35016000  0.58053000  1.0
  H  H15  1  0.62887000  0.64985000  0.41948000  1.0
  H  H16  1  0.69904000  0.31185000  0.62674000  1.0
  H  H17  1  0.30096000  0.68815000  0.37326000  1.0
  H  H18  1  0.78299000  0.46122000  0.72635000  1.0
  H  H19  1  0.21702000  0.53878000  0.27366000  1.0
  H  H20  1  0.56516000  0.15900000  0.69757000  1.0
  H  H21  1  0.43485000  0.84100000  0.30243000  1.0
  H  H22  1  0.49767000  0.38684000  0.98849000  1.0
  H  H23  1  0.50233000  0.61315000  0.01152000  1.0
  H  H24  1  0.61715000  0.53765000  0.86900000  1.0
  H  H25  1  0.38286000  0.46236000  0.13100000  1.0
  H  H26  1  0.76646000  0.14676000  0.51620000  1.0
  H  H27  1  0.23353000  0.85324000  0.48379000  1.0
  H  H28  1  0.87998000  0.05656000  0.67823000  1.0
  H  H29  1  0.12002000  0.94344000  0.32176000  1.0
  H  H30  1  0.72752000  0.90274000  0.73769000  1.0
  H  H31  1  0.27248000  0.09726000  0.26230000  1.0
  H  H32  1  0.58640000  0.72199000  0.70372000  1.0
  H  H33  1  0.41360000  0.27801000  0.29628000  1.0
  H  H34  1  0.40355000  0.67228000  0.70086000  1.0
  H  H35  1  0.59646000  0.32772000  0.29914000  1.0
  H  H36  1  0.30384000  0.90750000  0.06909000  1.0
  H  H37  1  0.69615000  0.09250000  0.93091000  1.0
  H  H38  1  0.84413000  0.80346000  0.88966000  1.0
  H  H39  1  0.15587000  0.19654000  0.11034000  1.0
  H  H40  1  0.98308000  0.94302000  0.77062000  1.0
  H  H41  1  0.01692000  0.05698000  0.22938000  1.0
  H  H42  1  0.95782000  0.79005000  0.11598000  1.0
  H  H43  1  0.04218000  0.20994000  0.88402000  1.0
  H  H44  1  0.14960000  0.80282000  0.16544000  1.0
  H  H45  1  0.85039000  0.19716000  0.83455000  1.0
  H  H46  1  0.15183000  0.63631000  0.92303000  1.0
  H  H47  1  0.84816000  0.36368000  0.07696000  1.0
  H  H48  1  0.11152000  0.40562000  0.85436000  1.0
  H  H49  1  0.88847000  0.59436000  0.14563000  1.0
  C  C50  1  0.01063000  0.33978000  0.51287000  1.0
  C  C51  1  0.98937000  0.66023000  0.48713000  1.0
  C  C52  1  0.93127000  0.26816000  0.39769000  1.0
  C  C53  1  0.06873000  0.73184000  0.60232000  1.0
  C  C54  1  0.86976000  0.32645000  0.31049000  1.0
  C  C55  1  0.13024000  0.67355000  0.68951000  1.0
  C  C56  1  0.88646000  0.45338000  0.33743000  1.0
  C  C57  1  0.11354000  0.54662000  0.66257000  1.0
  C  C58  1  0.96820000  0.52810000  0.45485000  1.0
  C  C59  1  0.03179000  0.47190000  0.54516000  1.0
  C  C60  1  0.08836000  0.16839000  0.57413000  1.0
  C  C61  1  0.91164000  0.83162000  0.42587000  1.0
  C  C62  1  0.16576000  0.13551000  0.68666000  1.0
  C  C63  1  0.83424000  0.86450000  0.31334000  1.0
  C  C64  1  0.34727000  0.46372000  0.45880000  1.0
  C  C65  1  0.65275000  0.53629000  0.54121000  1.0
  C  C66  1  0.42856000  0.41564000  0.54544000  1.0
  C  C67  1  0.57145000  0.58438000  0.45457000  1.0
  C  C68  1  0.58248000  0.45118000  0.58727000  1.0
  C  C69  1  0.41754000  0.54883000  0.41274000  1.0
  C  C70  1  0.67597000  0.39560000  0.67509000  1.0
  C  C71  1  0.32405000  0.60441000  0.32492000  1.0
  C  C72  1  0.56333000  0.23992000  0.76245000  1.0
  C  C73  1  0.43668000  0.76008000  0.23755000  1.0
  C  C74  1  0.52987000  0.36258000  0.91057000  1.0
  C  C75  1  0.47014000  0.63742000  0.08942000  1.0
  C  C76  1  0.58781000  0.43747000  0.85235000  1.0
  C  C77  1  0.41218000  0.56251000  0.14766000  1.0
  C  C78  1  0.54524000  0.04505000  0.48423000  1.0
  C  C79  1  0.45475000  0.95495000  0.51577000  1.0
  C  C80  1  0.69944000  0.08066000  0.54365000  1.0
  C  C81  1  0.30055000  0.91934000  0.45635000  1.0
  C  C82  1  0.76137000  0.02879000  0.63251000  1.0
  C  C83  1  0.23862000  0.97121000  0.36749000  1.0
  C  C84  1  0.67490000  0.94023000  0.66602000  1.0
  C  C85  1  0.32509000  0.05977000  0.33398000  1.0
  C  C86  1  0.52405000  0.90245000  0.60787000  1.0
  C  C87  1  0.47594000  0.09755000  0.39213000  1.0
  C  C88  1  0.49085000  0.75466000  0.71713000  1.0
  C  C89  1  0.50915000  0.24534000  0.28287000  1.0
  C  C90  1  0.53040000  0.83157000  0.84621000  1.0
  C  C91  1  0.46960000  0.16843000  0.15379000  1.0
  C  C92  1  0.19887000  0.89838000  0.00247000  1.0
  C  C93  1  0.80113000  0.10162000  0.99754000  1.0
  C  C94  1  0.95873000  0.84496000  0.90595000  1.0
  C  C95  1  0.04126000  0.15503000  0.09405000  1.0
  C  C96  1  0.02850000  0.91523000  0.85021000  1.0
  C  C97  1  0.97150000  0.08477000  0.14978000  1.0
  C  C98  1  0.04912000  0.76767000  0.08694000  1.0
  C  C99  1  0.95087000  0.23231000  0.91305000  1.0
  C  C100  1  0.02230000  0.62911000  0.03874000  1.0
  C  C101  1  0.97768000  0.37087000  0.96124000  1.0
  C  C102  1  0.08438000  0.57657000  0.95630000  1.0
  C  C103  1  0.91561000  0.42342000  0.04368000  1.0
  C  C104  1  0.06248000  0.44810000  0.91776000  1.0
  C  C105  1  0.93751000  0.55189000  0.08222000  1.0
  N  N106  1  0.51546000  0.23952000  0.85403000  1.0
  N  N107  1  0.48455000  0.76048000  0.14598000  1.0
  N  N108  1  0.60909000  0.35843000  0.75884000  1.0
  N  N109  1  0.39092000  0.64157000  0.24116000  1.0
  N  N110  1  0.17796000  0.94814000  0.91128000  1.0
  N  N111  1  0.82204000  0.05186000  0.08872000  1.0
  N  N112  1  0.06865000  0.83583000  0.00225000  1.0
  N  N113  1  0.93135000  0.16416000  0.99775000  1.0
  O  O114  1  0.49654000  0.93460000  0.86887000  1.0
  O  O115  1  0.50346000  0.06540000  0.13113000  1.0
  O  O116  1  0.59704000  0.78204000  0.92385000  1.0
  O  O117  1  0.40295000  0.21796000  0.07615000  1.0
  O  O118  1  0.18608000  0.20726000  0.78769000  1.0
  O  O119  1  0.81392000  0.79275000  0.21231000  1.0
  O  O120  1  0.20674000  0.03390000  0.67075000  1.0
  O  O121  1  0.79326000  0.96611000  0.32925000  1.0
  O  O122  1  0.43090000  0.81491000  0.62966000  1.0
  O  O123  1  0.56910000  0.18509000  0.37034000  1.0
  O  O124  1  0.07412000  0.29334000  0.60430000  1.0
  O  O125  1  0.92587000  0.70667000  0.39570000  1.0
