# generated using pymatgen
data_Cu2H24C19(NO)6
_symmetry_space_group_name_H-M   'P 1'
_cell_length_a   12.99700000
_cell_length_b   13.95270000
_cell_length_c   16.42510000
_cell_angle_alpha   89.99950000
_cell_angle_beta   90.00140000
_cell_angle_gamma   89.99960000
_symmetry_Int_Tables_number   1
_chemical_formula_structural   Cu2H24C19(NO)6
_chemical_formula_sum   'Cu8 H96 C76 N24 O24'
_cell_volume   2978.58088146
_cell_formula_units_Z   4
loop_
 _symmetry_equiv_pos_site_id
 _symmetry_equiv_pos_as_xyz
  1  'x, y, z'
loop_
 _atom_site_type_symbol
 _atom_site_label
 _atom_site_symmetry_multiplicity
 _atom_site_fract_x
 _atom_site_fract_y
 _atom_site_fract_z
 _atom_site_occupancy
  Cu  Cu0  1  0.27689000  0.20868000  0.65385000  1.0
  Cu  Cu1  1  0.22309000  0.79133000  0.15384000  1.0
  Cu  Cu2  1  0.77690000  0.29133000  0.34616000  1.0
  Cu  Cu3  1  0.72311000  0.70868000  0.84616000  1.0
  Cu  Cu4  1  0.55502000  0.47708000  0.58956000  1.0
  Cu  Cu5  1  0.94497000  0.52292000  0.08956000  1.0
  Cu  Cu6  1  0.05503000  0.02292000  0.41044000  1.0
  Cu  Cu7  1  0.44497000  0.97708000  0.91044000  1.0
  H  H8  1  0.28240000  0.12913000  0.82285000  1.0
  H  H9  1  0.21760000  0.87087000  0.32285000  1.0
  H  H10  1  0.78240000  0.37087000  0.17715000  1.0
  H  H11  1  0.71760000  0.62913000  0.67715000  1.0
  H  H12  1  0.34582000  0.24884000  0.43492000  1.0
  H  H13  1  0.15416000  0.75117000  0.93493000  1.0
  H  H14  1  0.84585000  0.25116000  0.56507000  1.0
  H  H15  1  0.65417000  0.74885000  0.06508000  1.0
  H  H16  1  0.45744000  0.46158000  0.80074000  1.0
  H  H17  1  0.04256000  0.53842000  0.30073000  1.0
  H  H18  1  0.95744000  0.03841000  0.19926000  1.0
  H  H19  1  0.54256000  0.96159000  0.69927000  1.0
  H  H20  1  0.50733000  0.16209000  0.47979000  1.0
  H  H21  1  0.99264000  0.83792000  0.97977000  1.0
  H  H22  1  0.00737000  0.33789000  0.52021000  1.0
  H  H23  1  0.49266000  0.66210000  0.02021000  1.0
  H  H24  1  0.42314000  0.08443000  0.42386000  1.0
  H  H25  1  0.07684000  0.91558000  0.92384000  1.0
  H  H26  1  0.92319000  0.41556000  0.57614000  1.0
  H  H27  1  0.57685000  0.58443000  0.07613000  1.0
  H  H28  1  0.42975000  0.07752000  0.53292000  1.0
  H  H29  1  0.07022000  0.92251000  0.03289000  1.0
  H  H30  1  0.92981000  0.42248000  0.46709000  1.0
  H  H31  1  0.57023000  0.57752000  0.96709000  1.0
  H  H32  1  0.88396000  0.21524000  0.81387000  1.0
  H  H33  1  0.61604000  0.78474000  0.31387000  1.0
  H  H34  1  0.38396000  0.28475000  0.18615000  1.0
  H  H35  1  0.11605000  0.71523000  0.68615000  1.0
  H  H36  1  0.92007000  0.16840000  0.90877000  1.0
  H  H37  1  0.57994000  0.83160000  0.40876000  1.0
  H  H38  1  0.42005000  0.33161000  0.09126000  1.0
  H  H39  1  0.07994000  0.66838000  0.59125000  1.0
  H  H40  1  0.05541000  0.28768000  0.06656000  1.0
  H  H41  1  0.44459000  0.71232000  0.56656000  1.0
  H  H42  1  0.55540000  0.21232000  0.93344000  1.0
  H  H43  1  0.94459000  0.78768000  0.43344000  1.0
  H  H44  1  0.95714000  0.20581000  0.03943000  1.0
  H  H45  1  0.54287000  0.79420000  0.53943000  1.0
  H  H46  1  0.45713000  0.29422000  0.96058000  1.0
  H  H47  1  0.04286000  0.70578000  0.46057000  1.0
  H  H48  1  0.93137000  0.30056000  0.10917000  1.0
  H  H49  1  0.56862000  0.69944000  0.60918000  1.0
  H  H50  1  0.43137000  0.19946000  0.89083000  1.0
  H  H51  1  0.06862000  0.80054000  0.39084000  1.0
  H  H52  1  0.83062000  0.49911000  0.77524000  1.0
  H  H53  1  0.66938000  0.50090000  0.27526000  1.0
  H  H54  1  0.33062000  0.00090000  0.22474000  1.0
  H  H55  1  0.16938000  0.99910000  0.72475000  1.0
  H  H56  1  0.82915000  0.37627000  0.74822000  1.0
  H  H57  1  0.67085000  0.62373000  0.24824000  1.0
  H  H58  1  0.32915000  0.12373000  0.25177000  1.0
  H  H59  1  0.17085000  0.87627000  0.75178000  1.0
  H  H60  1  0.94510000  0.44263000  0.74094000  1.0
  H  H61  1  0.55491000  0.55737000  0.24095000  1.0
  H  H62  1  0.44509000  0.05736000  0.25905000  1.0
  H  H63  1  0.05492000  0.94264000  0.75906000  1.0
  H  H64  1  0.21147000  0.08052000  0.96020000  1.0
  H  H65  1  0.28854000  0.91948000  0.46019000  1.0
  H  H66  1  0.71146000  0.41948000  0.03981000  1.0
  H  H67  1  0.78853000  0.58051000  0.53981000  1.0
  H  H68  1  0.07944000  0.10049000  0.98203000  1.0
  H  H69  1  0.42058000  0.89951000  0.48203000  1.0
  H  H70  1  0.57942000  0.39951000  0.01798000  1.0
  H  H71  1  0.92058000  0.60048000  0.51797000  1.0
  H  H72  1  0.16996000  0.19398000  0.99652000  1.0
  H  H73  1  0.33005000  0.80602000  0.49652000  1.0
  H  H74  1  0.66994000  0.30602000  0.00349000  1.0
  H  H75  1  0.83005000  0.69397000  0.50348000  1.0
  H  H76  1  0.06222000  0.30924000  0.64754000  1.0
  H  H77  1  0.43779000  0.69076000  0.14754000  1.0
  H  H78  1  0.56223000  0.19074000  0.35246000  1.0
  H  H79  1  0.93777000  0.80925000  0.85246000  1.0
  H  H80  1  0.94467000  0.27316000  0.69298000  1.0
  H  H81  1  0.55533000  0.72685000  0.19298000  1.0
  H  H82  1  0.44469000  0.22683000  0.30704000  1.0
  H  H83  1  0.05532000  0.77316000  0.80704000  1.0
  H  H84  1  0.01453000  0.19277000  0.62944000  1.0
  H  H85  1  0.48547000  0.80723000  0.12944000  1.0
  H  H86  1  0.51454000  0.30722000  0.37057000  1.0
  H  H87  1  0.98547000  0.69277000  0.87056000  1.0
  H  H88  1  0.87211000  0.54509000  0.92048000  1.0
  H  H89  1  0.62791000  0.45490000  0.42050000  1.0
  H  H90  1  0.37210000  0.95492000  0.07951000  1.0
  H  H91  1  0.12789000  0.04507000  0.57951000  1.0
  H  H92  1  0.54008000  0.30020000  0.81087000  1.0
  H  H93  1  0.95992000  0.69979000  0.31088000  1.0
  H  H94  1  0.04008000  0.19979000  0.18912000  1.0
  H  H95  1  0.45992000  0.80021000  0.68911000  1.0
  H  H96  1  0.61435000  0.38879000  0.86380000  1.0
  H  H97  1  0.88567000  0.61120000  0.36381000  1.0
  H  H98  1  0.11434000  0.11121000  0.13619000  1.0
  H  H99  1  0.38566000  0.88880000  0.63618000  1.0
  H  H100  1  0.65459000  0.34648000  0.76623000  1.0
  H  H101  1  0.84542000  0.65352000  0.26624000  1.0
  H  H102  1  0.15458000  0.15351000  0.23377000  1.0
  H  H103  1  0.34542000  0.84648000  0.73376000  1.0
  C  C104  1  0.41719000  0.32602000  0.57665000  1.0
  C  C105  1  0.08279000  0.67399000  0.07665000  1.0
  C  C106  1  0.91721000  0.17398000  0.42334000  1.0
  C  C107  1  0.58280000  0.82602000  0.92334000  1.0
  C  C108  1  0.04605000  0.20105000  0.82972000  1.0
  C  C109  1  0.45395000  0.79894000  0.32972000  1.0
  C  C110  1  0.54605000  0.29895000  0.17029000  1.0
  C  C111  1  0.95395000  0.70104000  0.67029000  1.0
  C  C112  1  0.42308000  0.35046000  0.66621000  1.0
  C  C113  1  0.07691000  0.64956000  0.16620000  1.0
  C  C114  1  0.92309000  0.14955000  0.33379000  1.0
  C  C115  1  0.57691000  0.85045000  0.83379000  1.0
  C  C116  1  0.24253000  0.14722000  0.49132000  1.0
  C  C117  1  0.25745000  0.85278000  0.99133000  1.0
  C  C118  1  0.74257000  0.35276000  0.50867000  1.0
  C  C119  1  0.75745000  0.64724000  0.00868000  1.0
  C  C120  1  0.59108000  0.53390000  0.75429000  1.0
  C  C121  1  0.90891000  0.46609000  0.25430000  1.0
  C  C122  1  0.09109000  0.96608000  0.24571000  1.0
  C  C123  1  0.40891000  0.03392000  0.74571000  1.0
  C  C124  1  0.07940000  0.21448000  0.74862000  1.0
  C  C125  1  0.42060000  0.78552000  0.24861000  1.0
  C  C126  1  0.57941000  0.28552000  0.25139000  1.0
  C  C127  1  0.92059000  0.71447000  0.75138000  1.0
  C  C128  1  0.92861000  0.32075000  0.90135000  1.0
  C  C129  1  0.57139000  0.67925000  0.40136000  1.0
  C  C130  1  0.42860000  0.17926000  0.09864000  1.0
  C  C131  1  0.07139000  0.82073000  0.59865000  1.0
  C  C132  1  0.34573000  0.20053000  0.48791000  1.0
  C  C133  1  0.15425000  0.79949000  0.98790000  1.0
  C  C134  1  0.84576000  0.29948000  0.51209000  1.0
  C  C135  1  0.65426000  0.70053000  0.01209000  1.0
  C  C136  1  0.94253000  0.34412000  0.98439000  1.0
  C  C137  1  0.55747000  0.65588000  0.48441000  1.0
  C  C138  1  0.44253000  0.15589000  0.01560000  1.0
  C  C139  1  0.05747000  0.84410000  0.51561000  1.0
  C  C140  1  0.13223000  0.16498000  0.87132000  1.0
  C  C141  1  0.36778000  0.83502000  0.37131000  1.0
  C  C142  1  0.63222000  0.33502000  0.12868000  1.0
  C  C143  1  0.86778000  0.66497000  0.62868000  1.0
  C  C144  1  0.52468000  0.44378000  0.76255000  1.0
  C  C145  1  0.97532000  0.55621000  0.26255000  1.0
  C  C146  1  0.02468000  0.05621000  0.23744000  1.0
  C  C147  1  0.47532000  0.94379000  0.73744000  1.0
  C  C148  1  0.43244000  0.12585000  0.48019000  1.0
  C  C149  1  0.06753000  0.87418000  0.98017000  1.0
  C  C150  1  0.93249000  0.37415000  0.51982000  1.0
  C  C151  1  0.56754000  0.62585000  0.01981000  1.0
  C  C152  1  0.90074000  0.40718000  0.86345000  1.0
  C  C153  1  0.59926000  0.59282000  0.36347000  1.0
  C  C154  1  0.40073000  0.09283000  0.13654000  1.0
  C  C155  1  0.09926000  0.90716000  0.63654000  1.0
  C  C156  1  0.94067000  0.22307000  0.86321000  1.0
  C  C157  1  0.55933000  0.77692000  0.36322000  1.0
  C  C158  1  0.44066000  0.27693000  0.13680000  1.0
  C  C159  1  0.05934000  0.72306000  0.63680000  1.0
  C  C160  1  0.97275000  0.28120000  0.05343000  1.0
  C  C161  1  0.52725000  0.71881000  0.55344000  1.0
  C  C162  1  0.47275000  0.21883000  0.94657000  1.0
  C  C163  1  0.02725000  0.78117000  0.44657000  1.0
  C  C164  1  0.87512000  0.43240000  0.77765000  1.0
  C  C165  1  0.62488000  0.56760000  0.27767000  1.0
  C  C166  1  0.37512000  0.06761000  0.22234000  1.0
  C  C167  1  0.12488000  0.93239000  0.72234000  1.0
  C  C168  1  0.14913000  0.13345000  0.95695000  1.0
  C  C169  1  0.35089000  0.86655000  0.45694000  1.0
  C  C170  1  0.64911000  0.36655000  0.04306000  1.0
  C  C171  1  0.85088000  0.63343000  0.54306000  1.0
  C  C172  1  0.02179000  0.24889000  0.67609000  1.0
  C  C173  1  0.47821000  0.75111000  0.17608000  1.0
  C  C174  1  0.52180000  0.25111000  0.32392000  1.0
  C  C175  1  0.97820000  0.74890000  0.82392000  1.0
  C  C176  1  0.58758000  0.36444000  0.80395000  1.0
  C  C177  1  0.91243000  0.63555000  0.30396000  1.0
  C  C178  1  0.08757000  0.13555000  0.19604000  1.0
  C  C179  1  0.41243000  0.86446000  0.69604000  1.0
  N  N180  1  0.90063000  0.47507000  0.92213000  1.0
  N  N181  1  0.59938000  0.52493000  0.42215000  1.0
  N  N182  1  0.40062000  0.02494000  0.07785000  1.0
  N  N183  1  0.09937000  0.97505000  0.57786000  1.0
  N  N184  1  0.20970000  0.16064000  0.81670000  1.0
  N  N185  1  0.29030000  0.83935000  0.31669000  1.0
  N  N186  1  0.70971000  0.33936000  0.18330000  1.0
  N  N187  1  0.79029000  0.66064000  0.68330000  1.0
  N  N188  1  0.17922000  0.18952000  0.74205000  1.0
  N  N189  1  0.32078000  0.81048000  0.24204000  1.0
  N  N190  1  0.67922000  0.31048000  0.25796000  1.0
  N  N191  1  0.82078000  0.68952000  0.75795000  1.0
  N  N192  1  0.49307000  0.41536000  0.68171000  1.0
  N  N193  1  0.00693000  0.58465000  0.18171000  1.0
  N  N194  1  0.99307000  0.08463000  0.31829000  1.0
  N  N195  1  0.50693000  0.91537000  0.81828000  1.0
  N  N196  1  0.92469000  0.43841000  0.99583000  1.0
  N  N197  1  0.57531000  0.56159000  0.49584000  1.0
  N  N198  1  0.42469000  0.06161000  0.00416000  1.0
  N  N199  1  0.07530000  0.93838000  0.50417000  1.0
  N  N200  1  0.35677000  0.25250000  0.56344000  1.0
  N  N201  1  0.14319000  0.74752000  0.06344000  1.0
  N  N202  1  0.85681000  0.24751000  0.43656000  1.0
  N  N203  1  0.64321000  0.75250000  0.93655000  1.0
  O  O204  1  0.19764000  0.14444000  0.56218000  1.0
  O  O205  1  0.30234000  0.85556000  0.06218000  1.0
  O  O206  1  0.69767000  0.35555000  0.43781000  1.0
  O  O207  1  0.80235000  0.64446000  0.93781000  1.0
  O  O208  1  0.36601000  0.30564000  0.71712000  1.0
  O  O209  1  0.13397000  0.69438000  0.21711000  1.0
  O  O210  1  0.86603000  0.19438000  0.28289000  1.0
  O  O211  1  0.63398000  0.80562000  0.78289000  1.0
  O  O212  1  0.61074000  0.56290000  0.68055000  1.0
  O  O213  1  0.88923000  0.43710000  0.18055000  1.0
  O  O214  1  0.11075000  0.93709000  0.31944000  1.0
  O  O215  1  0.38925000  0.06291000  0.81944000  1.0
  O  O216  1  0.47124000  0.37329000  0.52550000  1.0
  O  O217  1  0.02874000  0.62672000  0.02550000  1.0
  O  O218  1  0.97126000  0.12672000  0.47450000  1.0
  O  O219  1  0.52875000  0.87328000  0.97449000  1.0
  O  O220  1  0.20944000  0.10663000  0.42888000  1.0
  O  O221  1  0.29056000  0.89335000  0.92887000  1.0
  O  O222  1  0.70945000  0.39336000  0.57112000  1.0
  O  O223  1  0.79056000  0.60666000  0.07112000  1.0
  O  O224  1  0.62531000  0.57291000  0.81702000  1.0
  O  O225  1  0.87468000  0.42709000  0.31701000  1.0
  O  O226  1  0.12534000  0.92708000  0.18297000  1.0
  O  O227  1  0.37466000  0.07293000  0.68298000  1.0
