# generated using pymatgen
data_CoH16C16N2(ClO)6
_symmetry_space_group_name_H-M   'P 1'
_cell_length_a   7.09235000
_cell_length_b   9.25777000
_cell_length_c   9.34725000
_cell_angle_alpha   106.76000000
_cell_angle_beta   92.32200000
_cell_angle_gamma   111.19700000
_symmetry_Int_Tables_number   1
_chemical_formula_structural   CoH16C16N2(ClO)6
_chemical_formula_sum   'Co1 H16 C16 N2 Cl6 O6'
_cell_volume   540.65057905
_cell_formula_units_Z   1
loop_
 _symmetry_equiv_pos_site_id
 _symmetry_equiv_pos_as_xyz
  1  'x, y, z'
loop_
 _atom_site_type_symbol
 _atom_site_label
 _atom_site_symmetry_multiplicity
 _atom_site_fract_x
 _atom_site_fract_y
 _atom_site_fract_z
 _atom_site_occupancy
  Co  Co0  1  0.00000000  0.00000000  0.00000000  1.0
  H  H1  1  0.72804000  0.89830000  0.17167000  1.0
  H  H2  1  0.27197000  0.10170000  0.82833000  1.0
  H  H3  1  0.73351000  0.16578000  0.29213000  1.0
  H  H4  1  0.26648000  0.83422000  0.70787000  1.0
  H  H5  1  0.48319000  0.03131000  0.18583000  1.0
  H  H6  1  0.51681000  0.96869000  0.81417000  1.0
  H  H7  1  0.66273000  0.16538000  0.10590000  1.0
  H  H8  1  0.33726000  0.83462000  0.89410000  1.0
  H  H9  1  0.66714000  0.68617000  0.95219000  1.0
  H  H10  1  0.33286000  0.31382000  0.04781000  1.0
  H  H11  1  0.43322000  0.45941000  0.73639000  1.0
  H  H12  1  0.56678000  0.54059000  0.26361000  1.0
  H  H13  1  0.75220000  0.72274000  0.44457000  1.0
  H  H14  1  0.24780000  0.27725000  0.55543000  1.0
  H  H15  1  0.97226000  0.93634000  0.67197000  1.0
  H  H16  1  0.02773000  0.06366000  0.32803000  1.0
  C  C17  1  0.64627000  0.08885000  0.17831000  1.0
  C  C18  1  0.35374000  0.91114000  0.82169000  1.0
  C  C19  1  0.68060000  0.68967000  0.83778000  1.0
  C  C20  1  0.31940000  0.31033000  0.16222000  1.0
  C  C21  1  0.54910000  0.56232000  0.71460000  1.0
  C  C22  1  0.45090000  0.43768000  0.28540000  1.0
  C  C23  1  0.56785000  0.56719000  0.56682000  1.0
  C  C24  1  0.43214000  0.43281000  0.43318000  1.0
  C  C25  1  0.72437000  0.70676000  0.55382000  1.0
  C  C26  1  0.27563000  0.29323000  0.44618000  1.0
  C  C27  1  0.85018000  0.82920000  0.68216000  1.0
  C  C28  1  0.14981000  0.17079000  0.31784000  1.0
  C  C29  1  0.01173000  0.22466000  0.82805000  1.0
  C  C30  1  0.98827000  0.77534000  0.17195000  1.0
  C  C31  1  0.87591000  0.30308000  0.76608000  1.0
  C  C32  1  0.12409000  0.69693000  0.23391000  1.0
  N  N33  1  0.83050000  0.82322000  0.82406000  1.0
  N  N34  1  0.16950000  0.17679000  0.17595000  1.0
  Cl  Cl35  1  0.71467000  0.35084000  0.89533000  1.0
  Cl  Cl36  1  0.28534000  0.64917000  0.10468000  1.0
  Cl  Cl37  1  0.71964000  0.14759000  0.59396000  1.0
  Cl  Cl38  1  0.28035000  0.85241000  0.40604000  1.0
  Cl  Cl39  1  0.02452000  0.47985000  0.72251000  1.0
  Cl  Cl40  1  0.97549000  0.52015000  0.27749000  1.0
  O  O41  1  0.72235000  0.96610000  0.10783000  1.0
  O  O42  1  0.27765000  0.03390000  0.89217000  1.0
  O  O43  1  0.93134000  0.15316000  0.92056000  1.0
  O  O44  1  0.06865000  0.84684000  0.07944000  1.0
  O  O45  1  0.17359000  0.23316000  0.77493000  1.0
  O  O46  1  0.82642000  0.76686000  0.22508000  1.0
