# generated using pymatgen
data_Zn2H7C22(N4F5)2
_symmetry_space_group_name_H-M   'P 1'
_cell_length_a   14.78920000
_cell_length_b   14.93340000
_cell_length_c   22.87890000
_cell_angle_alpha   89.27020000
_cell_angle_beta   89.50500000
_cell_angle_gamma   80.50680000
_symmetry_Int_Tables_number   1
_chemical_formula_structural   Zn2H7C22(N4F5)2
_chemical_formula_sum   'Zn8 H28 C88 N32 F40'
_cell_volume   4983.16261064
_cell_formula_units_Z   4
loop_
 _symmetry_equiv_pos_site_id
 _symmetry_equiv_pos_as_xyz
  1  'x, y, z'
loop_
 _atom_site_type_symbol
 _atom_site_label
 _atom_site_symmetry_multiplicity
 _atom_site_fract_x
 _atom_site_fract_y
 _atom_site_fract_z
 _atom_site_occupancy
  Zn  Zn0  1  0.06552000  0.07168000  0.57300000  1.0
  Zn  Zn1  1  0.93370000  0.90580000  0.57645000  1.0
  Zn  Zn2  1  0.58237000  0.56755000  0.07047000  1.0
  Zn  Zn3  1  0.43697000  0.41501000  0.07141000  1.0
  Zn  Zn4  1  0.92988000  0.91127000  0.43314000  1.0
  Zn  Zn5  1  0.07101000  0.06289000  0.43000000  1.0
  Zn  Zn6  1  0.43461000  0.42420000  0.92839000  1.0
  Zn  Zn7  1  0.58927000  0.56450000  0.92669000  1.0
  H  H8  1  0.03421000  0.14161000  0.29435000  1.0
  H  H9  1  0.87756000  0.17961000  0.78742000  1.0
  H  H10  1  0.75181000  0.16012000  0.12515000  1.0
  H  H11  1  0.40384000  0.68020000  0.28867000  1.0
  H  H12  1  0.57039000  0.10277000  0.54728000  1.0
  H  H13  1  0.42004000  0.18737000  0.54493000  1.0
  H  H14  1  0.08771000  0.63549000  0.04682000  1.0
  H  H15  1  0.93633000  0.68627000  0.04608000  1.0
  H  H16  1  0.73811000  0.04073000  0.60009000  1.0
  H  H17  1  0.25060000  0.16829000  0.59378000  1.0
  H  H18  1  0.25394000  0.56475000  0.09681000  1.0
  H  H19  1  0.07745000  0.72613000  0.41987000  1.0
  H  H20  1  0.77116000  0.65605000  0.09369000  1.0
  H  H21  1  0.75118000  0.06444000  0.41112000  1.0
  H  H22  1  0.26607000  0.13338000  0.40618000  1.0
  H  H23  1  0.26128000  0.58561000  0.90757000  1.0
  H  H24  1  0.78282000  0.64326000  0.90471000  1.0
  H  H25  1  0.90090000  0.23555000  0.59464000  1.0
  H  H26  1  0.88405000  0.69616000  0.59963000  1.0
  H  H27  1  0.42955000  0.74354000  0.09189000  1.0
  H  H28  1  0.38567000  0.20762000  0.09239000  1.0
  H  H29  1  0.55474000  0.64943000  0.79178000  1.0
  H  H30  1  0.57087000  0.23223000  0.92101000  1.0
  H  H31  1  0.77886000  0.43247000  0.41780000  1.0
  H  H32  1  0.93217000  0.52635000  0.41157000  1.0
  H  H33  1  0.28753000  0.93391000  0.92075000  1.0
  H  H34  1  0.43173000  0.03640000  0.90039000  1.0
  H  H35  1  0.26964000  0.67180000  0.62046000  1.0
  C  C36  1  0.97391000  0.09751000  0.69580000  1.0
  C  C37  1  0.29842000  0.16186000  0.49976000  1.0
  C  C38  1  0.21792000  0.59962000  0.00250000  1.0
  C  C39  1  0.81580000  0.66327000  0.99939000  1.0
  C  C40  1  0.89163000  0.28122000  0.50055000  1.0
  C  C41  1  0.86873000  0.66201000  0.50511000  1.0
  C  C42  1  0.41917000  0.78863000  0.99759000  1.0
  C  C43  1  0.37735000  0.17238000  0.99752000  1.0
  C  C44  1  0.81818000  0.45039000  0.45479000  1.0
  C  C45  1  0.90273000  0.50161000  0.45132000  1.0
  C  C46  1  0.33211000  0.95483000  0.95395000  1.0
  C  C47  1  0.12726000  0.79616000  0.58124000  1.0
  C  C48  1  0.41157000  0.01115000  0.94270000  1.0
  C  C49  1  0.77777000  0.51307000  0.50624000  1.0
  C  C50  1  0.95424000  0.43418000  0.49686000  1.0
  C  C51  1  0.29868000  0.01671000  0.00715000  1.0
  C  C52  1  0.47472000  0.94638000  0.98460000  1.0
  C  C53  1  0.86256000  0.56555000  0.50321000  1.0
  C  C54  1  0.87014000  0.38040000  0.50063000  1.0
  C  C55  1  0.37819000  0.07441000  0.99620000  1.0
  C  C56  1  0.39587000  0.88776000  0.99639000  1.0
  C  C57  1  0.91375000  0.49529000  0.54889000  1.0
  C  C58  1  0.49258000  0.59677000  0.19442000  1.0
  C  C59  1  0.82934000  0.44343000  0.55214000  1.0
  C  C60  1  0.44145000  0.00702000  0.03846000  1.0
  C  C61  1  0.36211000  0.95036000  0.04951000  1.0
  C  C62  1  0.36594000  0.75080000  0.64369000  1.0
  C  C63  1  0.80967000  0.08064000  0.82246000  1.0
  C  C64  1  0.86264000  0.22512000  0.14047000  1.0
  C  C65  1  0.32200000  0.58832000  0.31849000  1.0
  C  C66  1  0.28754000  0.73949000  0.61693000  1.0
  C  C67  1  0.86599000  0.10998000  0.78232000  1.0
  C  C68  1  0.77898000  0.22278000  0.11775000  1.0
  C  C69  1  0.62359000  0.29141000  0.07977000  1.0
  C  C70  1  0.38455000  0.61412000  0.28106000  1.0
  C  C71  1  0.91162000  0.16280000  0.18271000  1.0
  C  C72  1  0.26809000  0.64297000  0.36229000  1.0
  C  C73  1  0.41862000  0.68957000  0.68489000  1.0
  C  C74  1  0.75706000  0.13623000  0.86629000  1.0
  C  C75  1  0.89293000  0.99676000  0.30883000  1.0
  C  C76  1  0.20593000  0.88418000  0.41972000  1.0
  C  C77  1  0.40315000  0.51511000  0.80643000  1.0
  C  C78  1  0.71270000  0.37806000  0.92282000  1.0
  C  C79  1  0.87760000  0.10602000  0.22089000  1.0
  C  C80  1  0.92063000  0.06425000  0.27263000  1.0
  C  C81  1  0.27333000  0.72845000  0.38027000  1.0
  C  C82  1  0.38834000  0.62779000  0.72106000  1.0
  C  C83  1  0.77107000  0.21705000  0.88806000  1.0
  C  C84  1  0.55384000  0.14170000  0.46018000  1.0
  C  C85  1  0.45432000  0.15916000  0.45782000  1.0
  C  C86  1  0.06732000  0.66612000  0.95862000  1.0
  C  C87  1  0.96774000  0.67932000  0.95714000  1.0
  C  C88  1  0.60681000  0.11001000  0.50630000  1.0
  C  C89  1  0.39311000  0.17380000  0.50231000  1.0
  C  C90  1  0.12216000  0.63879000  0.00472000  1.0
  C  C91  1  0.20357000  0.79193000  0.40858000  1.0
  C  C92  1  0.90842000  0.68079000  0.00257000  1.0
  C  C93  1  0.75644000  0.03844000  0.55397000  1.0
  C  C94  1  0.23906000  0.15718000  0.54781000  1.0
  C  C95  1  0.27053000  0.56088000  0.05045000  1.0
  C  C96  1  0.75915000  0.64919000  0.04732000  1.0
  C  C97  1  0.92621000  0.22678000  0.45342000  1.0
  C  C98  1  0.87506000  0.72212000  0.45845000  1.0
  C  C99  1  0.44999000  0.73270000  0.95044000  1.0
  C  C100  1  0.38100000  0.23390000  0.95125000  1.0
  C  C101  1  0.76317000  0.05109000  0.45735000  1.0
  C  C102  1  0.43336000  0.58218000  0.77103000  1.0
  C  C103  1  0.24739000  0.13870000  0.45205000  1.0
  C  C104  1  0.27432000  0.57196000  0.95366000  1.0
  C  C105  1  0.76540000  0.64225000  0.95079000  1.0
  C  C106  1  0.91359000  0.22213000  0.54848000  1.0
  C  C107  1  0.88133000  0.71532000  0.55368000  1.0
  C  C108  1  0.44055000  0.72955000  0.04567000  1.0
  C  C109  1  0.38366000  0.22700000  0.04646000  1.0
  C  C110  1  0.99298000  0.08987000  0.30488000  1.0
  C  C111  1  0.11128000  0.78511000  0.42170000  1.0
  C  C112  1  0.51013000  0.60062000  0.80216000  1.0
  C  C113  1  0.70398000  0.28678000  0.91328000  1.0
  C  C114  1  0.60927000  0.28792000  0.92296000  1.0
  C  C115  1  0.89633000  0.98749000  0.69976000  1.0
  C  C116  1  0.21024000  0.90231000  0.58116000  1.0
  C  C117  1  0.40341000  0.49632000  0.19543000  1.0
  C  C118  1  0.71555000  0.38960000  0.08163000  1.0
  C  C119  1  0.90934000  0.06409000  0.73215000  1.0
  C  C120  1  0.21828000  0.80810000  0.59192000  1.0
  C  C121  1  0.42408000  0.56806000  0.22983000  1.0
  C  C122  1  0.71597000  0.29610000  0.09193000  1.0
  C  C123  1  0.70363000  0.07440000  0.50540000  1.0
  N  N124  1  0.99727000  0.04797000  0.64860000  1.0
  N  N125  1  0.16048000  0.13198000  0.53044000  1.0
  N  N126  1  0.34988000  0.51278000  0.03124000  1.0
  N  N127  1  0.68254000  0.62130000  0.02894000  1.0
  N  N128  1  0.96525000  0.14354000  0.47046000  1.0
  N  N129  1  0.88956000  0.80322000  0.47603000  1.0
  N  N130  1  0.48646000  0.64864000  0.96747000  1.0
  N  N131  1  0.38875000  0.31682000  0.96938000  1.0
  N  N132  1  0.84293000  0.00358000  0.47648000  1.0
  N  N133  1  0.16595000  0.12074000  0.47065000  1.0
  N  N134  1  0.35190000  0.51929000  0.97183000  1.0
  N  N135  1  0.07169000  0.87297000  0.56736000  1.0
  N  N136  1  0.68662000  0.61708000  0.96879000  1.0
  N  N137  1  0.95749000  0.14061000  0.53015000  1.0
  N  N138  1  0.89366000  0.79874000  0.53636000  1.0
  N  N139  1  0.48054000  0.64669000  0.02728000  1.0
  N  N140  1  0.39054000  0.31222000  0.02984000  1.0
  N  N141  1  0.00548000  0.04186000  0.35476000  1.0
  N  N142  1  0.06550000  0.86641000  0.43780000  1.0
  N  N143  1  0.52247000  0.54929000  0.85081000  1.0
  N  N144  1  0.56807000  0.37234000  0.93582000  1.0
  N  N145  1  0.94687000  0.97711000  0.65109000  1.0
  N  N146  1  0.51107000  0.54909000  0.14589000  1.0
  N  N147  1  0.12498000  0.94063000  0.56703000  1.0
  N  N148  1  0.45342000  0.48432000  0.14664000  1.0
  N  N149  1  0.63303000  0.43379000  0.06616000  1.0
  N  N150  1  0.57401000  0.37123000  0.06519000  1.0
  N  N151  1  0.94249000  0.98297000  0.35742000  1.0
  N  N152  1  0.12408000  0.92838000  0.43656000  1.0
  N  N153  1  0.45497000  0.49527000  0.85357000  1.0
  N  N154  1  0.63200000  0.42886000  0.93560000  1.0
  N  N155  1  0.83907000  0.99629000  0.53583000  1.0
  F  F156  1  0.01113000  0.17247000  0.70443000  1.0
  F  F157  1  0.79130000  0.99414000  0.82085000  1.0
  F  F158  1  0.90514000  0.29861000  0.13054000  1.0
  F  F159  1  0.29730000  0.50475000  0.31330000  1.0
  F  F160  1  0.00140000  0.17176000  0.19035000  1.0
  F  F161  1  0.19406000  0.60727000  0.38241000  1.0
  F  F162  1  0.50640000  0.70440000  0.69381000  1.0
  F  F163  1  0.67498000  0.10962000  0.88012000  1.0
  F  F164  1  0.78893000  0.09329000  0.21374000  1.0
  F  F165  1  0.34917000  0.76373000  0.36310000  1.0
  F  F166  1  0.30107000  0.61137000  0.71313000  1.0
  F  F167  1  0.09464000  0.71769000  0.58567000  1.0
  F  F168  1  0.85487000  0.24180000  0.87779000  1.0
  F  F169  1  0.59470000  0.14988000  0.40679000  1.0
  F  F170  1  0.42283000  0.14674000  0.40270000  1.0
  F  F171  1  0.10633000  0.67082000  0.90441000  1.0
  F  F172  1  0.93498000  0.67630000  0.90147000  1.0
  F  F173  1  0.82589000  0.94804000  0.30022000  1.0
  F  F174  1  0.27697000  0.92880000  0.41417000  1.0
  F  F175  1  0.33180000  0.47179000  0.79845000  1.0
  F  F176  1  0.78824000  0.41637000  0.91922000  1.0
  F  F177  1  0.92491000  0.25082000  0.39644000  1.0
  F  F178  1  0.53759000  0.66598000  0.20501000  1.0
  F  F179  1  0.86984000  0.70650000  0.40078000  1.0
  F  F180  1  0.44694000  0.75616000  0.89335000  1.0
  F  F181  1  0.37913000  0.21818000  0.89341000  1.0
  F  F182  1  0.83902000  0.92842000  0.71058000  1.0
  F  F183  1  0.27543000  0.95445000  0.58327000  1.0
  F  F184  1  0.33991000  0.44303000  0.20446000  1.0
  F  F185  1  0.78483000  0.43643000  0.08604000  1.0
  F  F186  1  0.68858000  0.55412000  0.51120000  1.0
  F  F187  1  0.04239000  0.39013000  0.49213000  1.0
  F  F188  1  0.20971000  0.05335000  0.01870000  1.0
  F  F189  1  0.58464000  0.21654000  0.08333000  1.0
  F  F190  1  0.56294000  0.90720000  0.97312000  1.0
  F  F191  1  0.96072000  0.51995000  0.59555000  1.0
  F  F192  1  0.79156000  0.41412000  0.60212000  1.0
  F  F193  1  0.49503000  0.03537000  0.08037000  1.0
  F  F194  1  0.33653000  0.91958000  0.10268000  1.0
  F  F195  1  0.39709000  0.83207000  0.63975000  1.0
