# generated using pymatgen
data_CuH12C15N2ClO2
_symmetry_space_group_name_H-M   'P 1'
_cell_length_a   7.01419000
_cell_length_b   10.19000000
_cell_length_c   11.21280000
_cell_angle_alpha   70.35760000
_cell_angle_beta   77.56600000
_cell_angle_gamma   79.76470000
_symmetry_Int_Tables_number   1
_chemical_formula_structural   CuH12C15N2ClO2
_chemical_formula_sum   'Cu2 H24 C30 N4 Cl2 O4'
_cell_volume   732.24217033
_cell_formula_units_Z   2
loop_
 _symmetry_equiv_pos_site_id
 _symmetry_equiv_pos_as_xyz
  1  'x, y, z'
loop_
 _atom_site_type_symbol
 _atom_site_label
 _atom_site_symmetry_multiplicity
 _atom_site_fract_x
 _atom_site_fract_y
 _atom_site_fract_z
 _atom_site_occupancy
  Cu  Cu0  1  0.65834000  0.35594000  0.06406000  1.0
  Cu  Cu1  1  0.34167000  0.64406000  0.93594000  1.0
  H  H2  1  0.87864000  0.54237000  0.80158000  1.0
  H  H3  1  0.12137000  0.45762000  0.19841000  1.0
  H  H4  1  0.04821000  0.49415000  0.59802000  1.0
  H  H5  1  0.95179000  0.50584000  0.40198000  1.0
  H  H6  1  0.07633000  0.25134000  0.58135000  1.0
  H  H7  1  0.92368000  0.74866000  0.41865000  1.0
  H  H8  1  0.01114000  0.99088000  0.69902000  1.0
  H  H9  1  0.98887000  0.00911000  0.30100000  1.0
  H  H10  1  0.87327000  0.81545000  0.89305000  1.0
  H  H11  1  0.12674000  0.18455000  0.10696000  1.0
  H  H12  1  0.67414000  0.75831000  0.12327000  1.0
  H  H13  1  0.32586000  0.24170000  0.87674000  1.0
  H  H14  1  0.49644000  0.84890000  0.30460000  1.0
  H  H15  1  0.50353000  0.15111000  0.69540000  1.0
  H  H16  1  0.48734000  0.10559000  0.28009000  1.0
  H  H17  1  0.51267000  0.89441000  0.71991000  1.0
  H  H18  1  0.73803000  0.30581000  0.49864000  1.0
  H  H19  1  0.26196000  0.69419000  0.50136000  1.0
  H  H20  1  0.50216000  0.26399000  0.49883000  1.0
  H  H21  1  0.49783000  0.73601000  0.50116000  1.0
  H  H22  1  0.62566000  0.55984000  0.36795000  1.0
  H  H23  1  0.37433000  0.44015000  0.63206000  1.0
  H  H24  1  0.39080000  0.50892000  0.39130000  1.0
  H  H25  1  0.60919000  0.49108000  0.60870000  1.0
  C  C26  1  0.88845000  0.43870000  0.79110000  1.0
  C  C27  1  0.11156000  0.56131000  0.20890000  1.0
  C  C28  1  0.98464000  0.40945000  0.67720000  1.0
  C  C29  1  0.01538000  0.59054000  0.32280000  1.0
  C  C30  1  0.99967000  0.27567000  0.66845000  1.0
  C  C31  1  0.00033000  0.72432000  0.33155000  1.0
  C  C32  1  0.91814000  0.16821000  0.77513000  1.0
  C  C33  1  0.08186000  0.83178000  0.22487000  1.0
  C  C34  1  0.93336000  0.02393000  0.78136000  1.0
  C  C35  1  0.06665000  0.97607000  0.21864000  1.0
  C  C36  1  0.85642000  0.92499000  0.89017000  1.0
  C  C37  1  0.14358000  0.07500000  0.10985000  1.0
  C  C38  1  0.75390000  0.96315000  0.00111000  1.0
  C  C39  1  0.24611000  0.03685000  0.99889000  1.0
  C  C40  1  0.66601000  0.86875000  0.11603000  1.0
  C  C41  1  0.33399000  0.13125000  0.88397000  1.0
  C  C42  1  0.56898000  0.91857000  0.21619000  1.0
  C  C43  1  0.43101000  0.08143000  0.78381000  1.0
  C  C44  1  0.56153000  0.06115000  0.20399000  1.0
  C  C45  1  0.43848000  0.93885000  0.79601000  1.0
  C  C46  1  0.73742000  0.10504000  0.99702000  1.0
  C  C47  1  0.26259000  0.89496000  0.00298000  1.0
  C  C48  1  0.82169000  0.20762000  0.88474000  1.0
  C  C49  1  0.17832000  0.79238000  0.11526000  1.0
  C  C50  1  0.68833000  0.31443000  0.31419000  1.0
  C  C51  1  0.31166000  0.68558000  0.68580000  1.0
  C  C52  1  0.61419000  0.33558000  0.44552000  1.0
  C  C53  1  0.38579000  0.66442000  0.55448000  1.0
  C  C54  1  0.52378000  0.48658000  0.43513000  1.0
  C  C55  1  0.47621000  0.51342000  0.56487000  1.0
  N  N56  1  0.80787000  0.33989000  0.89153000  1.0
  N  N57  1  0.19214000  0.66010000  0.10847000  1.0
  N  N58  1  0.64487000  0.15113000  0.09739000  1.0
  N  N59  1  0.35513000  0.84887000  0.90262000  1.0
  Cl  Cl60  1  0.69954000  0.58297000  0.01773000  1.0
  Cl  Cl61  1  0.30048000  0.41704000  0.98227000  1.0
  O  O62  1  0.55124000  0.34172000  0.24448000  1.0
  O  O63  1  0.44875000  0.65829000  0.75551000  1.0
  O  O64  1  0.86550000  0.27682000  0.28075000  1.0
  O  O65  1  0.13448000  0.72321000  0.71924000  1.0
