# generated using pymatgen
data_ZnH8C9NO4
_symmetry_space_group_name_H-M   'P 1'
_cell_length_a   6.27622000
_cell_length_b   7.89310000
_cell_length_c   10.02370000
_cell_angle_alpha   101.36400000
_cell_angle_beta   103.97200000
_cell_angle_gamma   104.74200000
_symmetry_Int_Tables_number   1
_chemical_formula_structural   ZnH8C9NO4
_chemical_formula_sum   'Zn2 H16 C18 N2 O8'
_cell_volume   447.98395741
_cell_formula_units_Z   2
loop_
 _symmetry_equiv_pos_site_id
 _symmetry_equiv_pos_as_xyz
  1  'x, y, z'
loop_
 _atom_site_type_symbol
 _atom_site_label
 _atom_site_symmetry_multiplicity
 _atom_site_fract_x
 _atom_site_fract_y
 _atom_site_fract_z
 _atom_site_occupancy
  Zn  Zn0  1  0.55048000  0.57925000  0.15263000  1.0
  Zn  Zn1  1  0.44952000  0.42075000  0.84737000  1.0
  H  H2  1  0.86476000  0.85343000  0.42056000  1.0
  H  H3  1  0.13524000  0.14657000  0.57944000  1.0
  H  H4  1  0.84750000  0.99829000  0.66413000  1.0
  H  H5  1  0.15250000  0.00170000  0.33586000  1.0
  H  H6  1  0.47724000  0.88556000  0.72195000  1.0
  H  H7  1  0.52276000  0.11443000  0.27805000  1.0
  H  H8  1  0.14322000  0.64038000  0.53651000  1.0
  H  H9  1  0.85677000  0.35962000  0.46348000  1.0
  H  H10  1  0.18499000  0.51891000  0.29572000  1.0
  H  H11  1  0.81501000  0.48109000  0.70427000  1.0
  H  H12  1  0.70981000  0.02419000  0.11090000  1.0
  H  H13  1  0.29020000  0.97582000  0.88911000  1.0
  H  H14  1  0.97769000  0.19510000  0.20751000  1.0
  H  H15  1  0.02232000  0.80490000  0.79249000  1.0
  H  H16  1  0.80588000  0.01826000  0.88327000  1.0
  H  H17  1  0.19412000  0.98174000  0.11673000  1.0
  C  C18  1  0.70911000  0.81152000  0.45202000  1.0
  C  C19  1  0.29089000  0.18847000  0.54798000  1.0
  C  C20  1  0.69847000  0.88990000  0.58630000  1.0
  C  C21  1  0.30153000  0.11010000  0.41370000  1.0
  C  C22  1  0.49262000  0.82805000  0.61799000  1.0
  C  C23  1  0.50738000  0.17195000  0.38201000  1.0
  C  C24  1  0.30532000  0.69194000  0.51431000  1.0
  C  C25  1  0.69468000  0.30806000  0.48569000  1.0
  C  C26  1  0.32787000  0.62236000  0.38152000  1.0
  C  C27  1  0.67212000  0.37764000  0.61847000  1.0
  C  C28  1  0.72952000  0.28236000  0.07431000  1.0
  C  C29  1  0.27049000  0.71764000  0.92569000  1.0
  C  C30  1  0.84352000  0.13989000  0.10313000  1.0
  C  C31  1  0.15649000  0.86011000  0.89688000  1.0
  C  C32  1  0.94429000  0.07460000  0.98570000  1.0
  C  C33  1  0.05571000  0.92540000  0.01430000  1.0
  C  C34  1  0.12740000  0.23409000  0.97135000  1.0
  C  C35  1  0.87261000  0.76590000  0.02865000  1.0
  N  N36  1  0.52783000  0.68067000  0.35154000  1.0
  N  N37  1  0.47216000  0.31933000  0.64845000  1.0
  O  O38  1  0.73680000  0.40250000  0.18239000  1.0
  O  O39  1  0.26321000  0.59750000  0.81762000  1.0
  O  O40  1  0.62882000  0.26754000  0.94412000  1.0
  O  O41  1  0.37119000  0.73246000  0.05589000  1.0
  O  O42  1  0.14905000  0.23058000  0.84771000  1.0
  O  O43  1  0.85095000  0.76943000  0.15229000  1.0
  O  O44  1  0.25114000  0.35620000  0.08667000  1.0
  O  O45  1  0.74886000  0.64381000  0.91334000  1.0
