# generated using pymatgen
data_CdH15C24N3O4F3
_symmetry_space_group_name_H-M   'P 1'
_cell_length_a   11.71170000
_cell_length_b   11.82570000
_cell_length_c   19.86690000
_cell_angle_alpha   102.48100000
_cell_angle_beta   90.00000000
_cell_angle_gamma   119.68200000
_symmetry_Int_Tables_number   1
_chemical_formula_structural   CdH15C24N3O4F3
_chemical_formula_sum   'Cd4 H60 C96 N12 O16 F12'
_cell_volume   2315.36573442
_cell_formula_units_Z   4
loop_
 _symmetry_equiv_pos_site_id
 _symmetry_equiv_pos_as_xyz
  1  'x, y, z'
loop_
 _atom_site_type_symbol
 _atom_site_label
 _atom_site_symmetry_multiplicity
 _atom_site_fract_x
 _atom_site_fract_y
 _atom_site_fract_z
 _atom_site_occupancy
  Cd  Cd0  1  0.39261000  0.49549000  0.81925000  1.0
  Cd  Cd1  1  0.89711000  0.50450000  0.68075000  1.0
  Cd  Cd2  1  0.60740000  0.50450000  0.18075000  1.0
  Cd  Cd3  1  0.10289000  0.49549000  0.31925000  1.0
  H  H4  1  0.18719000  0.19528000  0.82412000  1.0
  H  H5  1  0.99191000  0.80472000  0.67587000  1.0
  H  H6  1  0.81281000  0.80472000  0.17588000  1.0
  H  H7  1  0.00809000  0.19528000  0.32412000  1.0
  H  H8  1  0.16432000  0.97499000  0.82773000  1.0
  H  H9  1  0.18933000  0.02501000  0.67227000  1.0
  H  H10  1  0.83569000  0.02501000  0.17227000  1.0
  H  H11  1  0.81067000  0.97498000  0.32773000  1.0
  H  H12  1  0.58797000  0.19008000  0.89010000  1.0
  H  H13  1  0.39788000  0.80992000  0.60991000  1.0
  H  H14  1  0.41204000  0.80992000  0.10990000  1.0
  H  H15  1  0.60212000  0.19008000  0.39009000  1.0
  H  H16  1  0.59075000  0.39935000  0.88449000  1.0
  H  H17  1  0.19141000  0.60066000  0.61551000  1.0
  H  H18  1  0.40925000  0.60066000  0.11551000  1.0
  H  H19  1  0.80860000  0.39934000  0.38449000  1.0
  H  H20  1  0.20692000  0.81593000  0.77145000  1.0
  H  H21  1  0.39099000  0.18408000  0.72855000  1.0
  H  H22  1  0.79309000  0.18408000  0.22855000  1.0
  H  H23  1  0.60901000  0.81592000  0.27145000  1.0
  H  H24  1  0.22521000  0.61107000  0.75704000  1.0
  H  H25  1  0.61414000  0.38894000  0.74296000  1.0
  H  H26  1  0.77480000  0.38894000  0.24296000  1.0
  H  H27  1  0.38586000  0.61106000  0.25704000  1.0
  H  H28  1  0.53259000  0.79874000  0.91774000  1.0
  H  H29  1  0.73385000  0.20126000  0.58227000  1.0
  H  H30  1  0.46741000  0.20126000  0.08226000  1.0
  H  H31  1  0.26615000  0.79874000  0.41773000  1.0
  H  H32  1  0.53347000  0.01519000  0.93661000  1.0
  H  H33  1  0.51828000  0.98481000  0.56340000  1.0
  H  H34  1  0.46654000  0.98481000  0.06340000  1.0
  H  H35  1  0.48172000  0.01519000  0.43660000  1.0
  H  H36  1  0.34950000  0.51623000  0.97750000  1.0
  H  H37  1  0.83327000  0.48377000  0.52250000  1.0
  H  H38  1  0.65050000  0.48376000  0.02249000  1.0
  H  H39  1  0.16674000  0.51623000  0.47750000  1.0
  H  H40  1  0.20098000  0.54848000  0.05919000  1.0
  H  H41  1  0.65251000  0.45152000  0.44081000  1.0
  H  H42  1  0.79902000  0.45152000  0.94081000  1.0
  H  H43  1  0.34749000  0.54848000  0.55919000  1.0
  H  H44  1  0.91889000  0.42361000  0.87869000  1.0
  H  H45  1  0.49527000  0.57638000  0.62131000  1.0
  H  H46  1  0.08111000  0.57638000  0.12131000  1.0
  H  H47  1  0.50473000  0.42361000  0.37869000  1.0
  H  H48  1  0.07628000  0.39252000  0.80624000  1.0
  H  H49  1  0.68376000  0.60748000  0.69376000  1.0
  H  H50  1  0.92372000  0.60748000  0.19376000  1.0
  H  H51  1  0.31624000  0.39252000  0.30624000  1.0
  H  H52  1  0.33951000  0.23399000  0.59617000  1.0
  H  H53  1  0.10553000  0.76602000  0.90383000  1.0
  H  H54  1  0.66049000  0.76602000  0.40383000  1.0
  H  H55  1  0.89447000  0.23398000  0.09617000  1.0
  H  H56  1  0.05185000  0.09544000  0.41803000  1.0
  H  H57  1  0.95641000  0.90456000  0.08197000  1.0
  H  H58  1  0.94815000  0.90457000  0.58197000  1.0
  H  H59  1  0.04359000  0.09544000  0.91803000  1.0
  H  H60  1  0.95056000  0.21908000  0.48664000  1.0
  H  H61  1  0.73148000  0.78092000  0.01336000  1.0
  H  H62  1  0.04944000  0.78092000  0.51336000  1.0
  H  H63  1  0.26852000  0.21909000  0.98664000  1.0
  C  C64  1  0.27274000  0.18902000  0.83962000  1.0
  C  C65  1  0.08372000  0.81098000  0.66038000  1.0
  C  C66  1  0.72726000  0.81098000  0.16038000  1.0
  C  C67  1  0.91628000  0.18901000  0.33962000  1.0
  C  C68  1  0.26120000  0.06670000  0.84103000  1.0
  C  C69  1  0.19449000  0.93329000  0.65897000  1.0
  C  C70  1  0.73881000  0.93329000  0.15897000  1.0
  C  C71  1  0.80551000  0.06671000  0.34103000  1.0
  C  C72  1  0.37551000  0.06331000  0.85844000  1.0
  C  C73  1  0.31220000  0.93670000  0.64157000  1.0
  C  C74  1  0.62450000  0.93670000  0.14157000  1.0
  C  C75  1  0.68780000  0.06330000  0.35843000  1.0
  C  C76  1  0.49562000  0.18613000  0.87667000  1.0
  C  C77  1  0.30949000  0.81387000  0.62334000  1.0
  C  C78  1  0.50438000  0.81387000  0.12334000  1.0
  C  C79  1  0.69051000  0.18614000  0.37667000  1.0
  C  C80  1  0.49789000  0.30356000  0.87359000  1.0
  C  C81  1  0.19433000  0.69645000  0.62641000  1.0
  C  C82  1  0.50212000  0.69645000  0.12641000  1.0
  C  C83  1  0.80567000  0.30355000  0.37359000  1.0
  C  C84  1  0.37250000  0.93564000  0.85382000  1.0
  C  C85  1  0.43686000  0.06436000  0.64619000  1.0
  C  C86  1  0.62751000  0.06436000  0.14619000  1.0
  C  C87  1  0.56314000  0.93564000  0.35381000  1.0
  C  C88  1  0.28208000  0.81783000  0.80461000  1.0
  C  C89  1  0.46425000  0.18218000  0.69539000  1.0
  C  C90  1  0.71793000  0.18218000  0.19539000  1.0
  C  C91  1  0.53575000  0.81782000  0.30461000  1.0
  C  C92  1  0.29097000  0.70272000  0.79667000  1.0
  C  C93  1  0.58825000  0.29728000  0.70333000  1.0
  C  C94  1  0.70903000  0.29728000  0.20333000  1.0
  C  C95  1  0.41175000  0.70272000  0.29666000  1.0
  C  C96  1  0.46417000  0.80882000  0.88577000  1.0
  C  C97  1  0.65535000  0.19118000  0.61424000  1.0
  C  C98  1  0.53583000  0.19118000  0.11423000  1.0
  C  C99  1  0.34465000  0.80882000  0.38576000  1.0
  C  C100  1  0.46358000  0.92858000  0.89595000  1.0
  C  C101  1  0.53500000  0.07142000  0.60406000  1.0
  C  C102  1  0.53643000  0.07143000  0.10406000  1.0
  C  C103  1  0.46499000  0.92857000  0.39594000  1.0
  C  C104  1  0.25190000  0.49548000  0.95846000  1.0
  C  C105  1  0.75642000  0.50452000  0.54154000  1.0
  C  C106  1  0.74810000  0.50452000  0.04154000  1.0
  C  C107  1  0.24358000  0.49548000  0.45846000  1.0
  C  C108  1  0.16885000  0.51456000  0.00351000  1.0
  C  C109  1  0.65430000  0.48544000  0.49649000  1.0
  C  C110  1  0.83115000  0.48544000  0.99648000  1.0
  C  C111  1  0.34570000  0.51456000  0.50351000  1.0
  C  C112  1  0.04507000  0.48919000  0.97687000  1.0
  C  C113  1  0.55588000  0.51081000  0.52313000  1.0
  C  C114  1  0.95492000  0.51081000  0.02313000  1.0
  C  C115  1  0.44412000  0.48919000  0.47687000  1.0
  C  C116  1  0.01114000  0.44298000  0.90439000  1.0
  C  C117  1  0.56816000  0.55701000  0.59561000  1.0
  C  C118  1  0.98885000  0.55701000  0.09561000  1.0
  C  C119  1  0.43184000  0.44299000  0.40439000  1.0
  C  C120  1  0.09972000  0.42621000  0.86278000  1.0
  C  C121  1  0.67350000  0.57378000  0.63721000  1.0
  C  C122  1  0.90028000  0.57378000  0.13721000  1.0
  C  C123  1  0.32650000  0.42621000  0.36278000  1.0
  C  C124  1  0.25866000  0.37064000  0.68432000  1.0
  C  C125  1  0.88803000  0.62937000  0.81567000  1.0
  C  C126  1  0.74134000  0.62937000  0.31568000  1.0
  C  C127  1  0.11197000  0.37062000  0.18433000  1.0
  C  C128  1  0.19454000  0.29589000  0.61079000  1.0
  C  C129  1  0.89864000  0.70411000  0.88921000  1.0
  C  C130  1  0.80546000  0.70411000  0.38921000  1.0
  C  C131  1  0.10135000  0.29589000  0.11079000  1.0
  C  C132  1  0.25321000  0.22943000  0.57196000  1.0
  C  C133  1  0.02379000  0.77058000  0.92804000  1.0
  C  C134  1  0.74679000  0.77057000  0.42804000  1.0
  C  C135  1  0.97621000  0.22942000  0.07196000  1.0
  C  C136  1  0.20246000  0.15837000  0.50291000  1.0
  C  C137  1  0.04409000  0.84163000  0.99709000  1.0
  C  C138  1  0.79754000  0.84163000  0.49709000  1.0
  C  C139  1  0.95591000  0.15837000  0.00291000  1.0
  C  C140  1  0.09219000  0.15228000  0.47158000  1.0
  C  C141  1  0.93991000  0.84772000  0.02842000  1.0
  C  C142  1  0.90781000  0.84772000  0.52842000  1.0
  C  C143  1  0.06009000  0.15228000  0.97158000  1.0
  C  C144  1  0.03518000  0.21998000  0.50989000  1.0
  C  C145  1  0.81519000  0.78001000  0.99011000  1.0
  C  C146  1  0.96482000  0.78002000  0.49011000  1.0
  C  C147  1  0.18480000  0.21999000  0.00989000  1.0
  C  C148  1  0.08452000  0.29201000  0.57930000  1.0
  C  C149  1  0.79252000  0.70800000  0.92070000  1.0
  C  C150  1  0.91548000  0.70799000  0.42070000  1.0
  C  C151  1  0.20748000  0.29200000  0.07930000  1.0
  C  C152  1  0.01762000  0.36427000  0.61605000  1.0
  C  C153  1  0.65335000  0.63573000  0.88395000  1.0
  C  C154  1  0.98238000  0.63573000  0.38395000  1.0
  C  C155  1  0.34665000  0.36427000  0.11605000  1.0
  C  C156  1  0.26923000  0.08961000  0.46351000  1.0
  C  C157  1  0.17962000  0.91039000  0.03649000  1.0
  C  C158  1  0.73077000  0.91039000  0.53649000  1.0
  C  C159  1  0.82038000  0.08961000  0.96351000  1.0
  N  N160  1  0.38928000  0.30558000  0.85428000  1.0
  N  N161  1  0.08370000  0.69442000  0.64573000  1.0
  N  N162  1  0.61072000  0.69442000  0.14573000  1.0
  N  N163  1  0.91630000  0.30558000  0.35428000  1.0
  N  N164  1  0.21863000  0.45261000  0.88915000  1.0
  N  N165  1  0.76602000  0.54739000  0.61085000  1.0
  N  N166  1  0.78136000  0.54739000  0.11085000  1.0
  N  N167  1  0.23398000  0.45261000  0.38915000  1.0
  N  N168  1  0.38163000  0.69854000  0.83599000  1.0
  N  N169  1  0.68309000  0.30146000  0.66401000  1.0
  N  N170  1  0.61838000  0.30146000  0.16401000  1.0
  N  N171  1  0.31691000  0.69854000  0.33599000  1.0
  O  O172  1  0.34422000  0.49502000  0.69657000  1.0
  O  O173  1  0.84921000  0.50499000  0.80343000  1.0
  O  O174  1  0.65578000  0.50498000  0.30343000  1.0
  O  O175  1  0.15078000  0.49500000  0.19657000  1.0
  O  O176  1  0.23207000  0.30173000  0.72918000  1.0
  O  O177  1  0.93034000  0.69828000  0.77082000  1.0
  O  O178  1  0.76794000  0.69827000  0.27082000  1.0
  O  O179  1  0.06966000  0.30171000  0.22918000  1.0
  O  O180  1  0.04475000  0.41352000  0.68176000  1.0
  O  O181  1  0.63123000  0.58649000  0.81824000  1.0
  O  O182  1  0.95525000  0.58648000  0.31824000  1.0
  O  O183  1  0.36876000  0.41352000  0.18176000  1.0
  O  O184  1  0.93637000  0.37437000  0.57858000  1.0
  O  O185  1  0.56200000  0.62563000  0.92142000  1.0
  O  O186  1  0.06363000  0.62563000  0.42142000  1.0
  O  O187  1  0.43800000  0.37437000  0.07859000  1.0
  F  F188  1  0.39907000  0.17939000  0.45788000  1.0
  F  F189  1  0.21967000  0.82061000  0.04212000  1.0
  F  F190  1  0.60093000  0.82061000  0.54212000  1.0
  F  F191  1  0.78032000  0.17939000  0.95788000  1.0
  F  F192  1  0.27533000  0.00124000  0.49649000  1.0
  F  F193  1  0.27409000  0.99876000  0.00351000  1.0
  F  F194  1  0.72466000  0.99876000  0.50351000  1.0
  F  F195  1  0.72591000  0.00124000  0.99649000  1.0
  F  F196  1  0.20861000  0.01890000  0.39780000  1.0
  F  F197  1  0.18970000  0.98110000  0.10220000  1.0
  F  F198  1  0.79139000  0.98110000  0.60220000  1.0
  F  F199  1  0.81029000  0.01890000  0.89780000  1.0
