# generated using pymatgen
data_AlH12C13O5
_symmetry_space_group_name_H-M   'P 1'
_cell_length_a   6.64199000
_cell_length_b   16.44550000
_cell_length_c   17.72480000
_cell_angle_alpha   89.96100000
_cell_angle_beta   89.91700000
_cell_angle_gamma   85.30300000
_symmetry_Int_Tables_number   1
_chemical_formula_structural   AlH12C13O5
_chemical_formula_sum   'Al4 H48 C52 O20'
_cell_volume   1929.59054287
_cell_formula_units_Z   4
loop_
 _symmetry_equiv_pos_site_id
 _symmetry_equiv_pos_as_xyz
  1  'x, y, z'
loop_
 _atom_site_type_symbol
 _atom_site_label
 _atom_site_symmetry_multiplicity
 _atom_site_fract_x
 _atom_site_fract_y
 _atom_site_fract_z
 _atom_site_occupancy
  Al  Al0  1  0.22587000  0.72311000  0.74929000  1.0
  Al  Al1  1  0.77492000  0.27593000  0.24925000  1.0
  Al  Al2  1  0.72074000  0.72564000  0.75020000  1.0
  Al  Al3  1  0.27926000  0.27608000  0.25003000  1.0
  H  H4  1  0.66735000  0.94386000  0.86473000  1.0
  H  H5  1  0.30961000  0.06699000  0.12930000  1.0
  H  H6  1  0.34371000  0.05417000  0.36194000  1.0
  H  H7  1  0.66246000  0.94153000  0.63601000  1.0
  H  H8  1  0.10444000  0.06247000  0.92769000  1.0
  H  H9  1  0.00339000  0.97457000  0.89146000  1.0
  H  H10  1  0.08034000  0.05047000  0.82865000  1.0
  H  H11  1  0.70495000  0.06389000  0.83881000  1.0
  H  H12  1  0.80595000  0.15024000  0.87537000  1.0
  H  H13  1  0.25746000  0.83588000  0.16114000  1.0
  H  H14  1  0.34257000  0.93037000  0.18992000  1.0
  H  H15  1  0.09365000  0.90616000  0.21317000  1.0
  H  H16  1  0.07462000  0.00408000  0.10596000  1.0
  H  H17  1  0.99779000  0.91056000  0.07658000  1.0
  H  H18  1  0.90016000  0.96145000  0.43203000  1.0
  H  H19  1  0.02666000  0.03956000  0.38919000  1.0
  H  H20  1  0.91765000  0.96587000  0.33226000  1.0
  H  H21  1  0.29157000  0.93301000  0.33825000  1.0
  H  H22  1  0.16091000  0.85589000  0.37912000  1.0
  H  H23  1  0.86714000  0.10695000  0.71900000  1.0
  H  H24  1  0.62219000  0.07963000  0.69397000  1.0
  H  H25  1  0.70499000  0.17382000  0.66303000  1.0
  H  H26  1  0.89843000  0.00457000  0.61504000  1.0
  H  H27  1  0.97730000  0.09739000  0.58434000  1.0
  H  H28  1  0.44307000  0.70977000  0.96383000  1.0
  H  H29  1  0.41148000  0.73468000  0.06072000  1.0
  H  H30  1  0.24452000  0.67055000  0.01564000  1.0
  H  H31  1  0.07137000  0.80878000  0.03146000  1.0
  H  H32  1  0.10840000  0.78776000  0.93492000  1.0
  H  H33  1  0.61451000  0.27232000  0.93140000  1.0
  H  H34  1  0.56713000  0.29890000  0.02719000  1.0
  H  H35  1  0.78201000  0.33256000  0.98100000  1.0
  H  H36  1  0.88164000  0.21341000  0.06624000  1.0
  H  H37  1  0.93798000  0.18930000  0.97172000  1.0
  H  H38  1  0.53593000  0.29340000  0.46005000  1.0
  H  H39  1  0.54824000  0.27186000  0.55808000  1.0
  H  H40  1  0.72011000  0.33638000  0.51627000  1.0
  H  H41  1  0.89570000  0.20007000  0.54075000  1.0
  H  H42  1  0.88135000  0.21804000  0.44292000  1.0
  H  H43  1  0.96614000  0.81409000  0.58365000  1.0
  H  H44  1  0.90701000  0.84400000  0.48943000  1.0
  H  H45  1  0.92248000  0.73942000  0.51460000  1.0
  H  H46  1  0.23578000  0.76749000  0.44619000  1.0
  H  H47  1  0.29058000  0.73995000  0.53987000  1.0
  H  H48  1  0.49769000  0.62009000  0.77552000  1.0
  H  H49  1  0.50768000  0.38035000  0.27612000  1.0
  H  H50  1  0.95870000  0.82317000  0.78166000  1.0
  H  H51  1  0.04669000  0.17617000  0.27902000  1.0
  C  C52  1  0.45593000  0.82087000  0.85450000  1.0
  C  C53  1  0.54033000  0.18333000  0.14417000  1.0
  C  C54  1  0.54973000  0.17850000  0.35330000  1.0
  C  C55  1  0.45081000  0.81885000  0.64564000  1.0
  C  C56  1  0.98682000  0.62818000  0.64735000  1.0
  C  C57  1  0.01166000  0.37367000  0.35351000  1.0
  C  C58  1  0.00470000  0.37444000  0.14909000  1.0
  C  C59  1  0.99451000  0.62470000  0.85213000  1.0
  C  C60  1  0.99921000  0.57089000  0.91646000  1.0
  C  C61  1  0.00042000  0.42979000  0.08589000  1.0
  C  C62  1  0.99965000  0.42816000  0.41735000  1.0
  C  C63  1  0.99505000  0.57280000  0.58413000  1.0
  C  C64  1  0.99965000  0.52565000  0.97122000  1.0
  C  C65  1  0.00059000  0.47560000  0.03155000  1.0
  C  C66  1  0.99782000  0.47473000  0.47115000  1.0
  C  C67  1  0.99575000  0.52614000  0.53047000  1.0
  C  C68  1  0.44078000  0.88027000  0.91833000  1.0
  C  C69  1  0.54916000  0.12567000  0.07892000  1.0
  C  C70  1  0.55571000  0.12151000  0.41901000  1.0
  C  C71  1  0.44604000  0.87563000  0.57979000  1.0
  C  C72  1  0.67926000  0.07486000  0.95859000  1.0
  C  C73  1  0.28556000  0.93817000  0.03233000  1.0
  C  C74  1  0.31994000  0.92560000  0.45856000  1.0
  C  C75  1  0.69546000  0.06769000  0.53689000  1.0
  C  C76  1  0.68454000  0.13168000  0.01673000  1.0
  C  C77  1  0.30071000  0.87530000  0.97934000  1.0
  C  C78  1  0.32385000  0.86556000  0.51452000  1.0
  C  C79  1  0.68431000  0.12967000  0.48294000  1.0
  C  C80  1  0.41478000  0.06572000  0.08210000  1.0
  C  C81  1  0.56343000  0.94392000  0.91225000  1.0
  C  C82  1  0.56790000  0.93963000  0.58611000  1.0
  C  C83  1  0.43709000  0.05661000  0.41208000  1.0
  C  C84  1  0.41662000  0.00339000  0.02727000  1.0
  C  C85  1  0.55583000  0.00763000  0.96574000  1.0
  C  C86  1  0.56912000  0.00104000  0.53056000  1.0
  C  C87  1  0.43812000  0.99440000  0.46702000  1.0
  C  C88  1  0.79501000  0.08488000  0.88590000  1.0
  C  C89  1  0.00728000  0.04062000  0.88328000  1.0
  C  C90  1  0.13099000  0.94039000  0.09530000  1.0
  C  C91  1  0.21062000  0.90095000  0.16911000  1.0
  C  C92  1  0.19754000  0.91916000  0.38711000  1.0
  C  C93  1  0.99997000  0.97470000  0.38503000  1.0
  C  C94  1  0.84259000  0.06780000  0.60205000  1.0
  C  C95  1  0.75428000  0.10940000  0.67361000  1.0
  C  C96  1  0.18740000  0.79967000  0.98761000  1.0
  C  C97  1  0.32985000  0.72443000  0.00809000  1.0
  C  C98  1  0.81271000  0.20327000  0.01125000  1.0
  C  C99  1  0.68712000  0.28124000  0.98619000  1.0
  C  C100  1  0.79075000  0.20681000  0.49310000  1.0
  C  C101  1  0.64006000  0.28128000  0.50761000  1.0
  C  C102  1  0.21602000  0.78853000  0.50487000  1.0
  C  C103  1  0.99012000  0.79737000  0.52426000  1.0
  O  O104  1  0.62077000  0.80365000  0.67835000  1.0
  O  O105  1  0.37845000  0.19491000  0.32154000  1.0
  O  O106  1  0.36490000  0.21006000  0.16665000  1.0
  O  O107  1  0.63347000  0.79630000  0.83210000  1.0
  O  O108  1  0.29195000  0.80191000  0.82409000  1.0
  O  O109  1  0.70537000  0.19946000  0.17525000  1.0
  O  O110  1  0.71578000  0.20413000  0.33068000  1.0
  O  O111  1  0.28599000  0.79186000  0.66739000  1.0
  O  O112  1  0.16305000  0.64836000  0.83067000  1.0
  O  O113  1  0.83821000  0.34720000  0.16772000  1.0
  O  O114  1  0.84544000  0.35806000  0.32322000  1.0
  O  O115  1  0.15447000  0.64386000  0.67609000  1.0
  O  O116  1  0.48443000  0.67321000  0.75152000  1.0
  O  O117  1  0.51738000  0.32715000  0.25231000  1.0
  O  O118  1  0.81144000  0.65543000  0.66830000  1.0
  O  O119  1  0.18932000  0.34715000  0.33374000  1.0
  O  O120  1  0.17554000  0.35858000  0.18016000  1.0
  O  O121  1  0.82128000  0.64282000  0.82324000  1.0
  O  O122  1  0.96502000  0.77299000  0.75270000  1.0
  O  O123  1  0.03653000  0.22731000  0.25145000  1.0
