# generated using pymatgen
data_YbH12(C4O3)3
_symmetry_space_group_name_H-M   'P 1'
_cell_length_a   7.73928000
_cell_length_b   9.34366000
_cell_length_c   10.70730000
_cell_angle_alpha   68.92600000
_cell_angle_beta   71.10500000
_cell_angle_gamma   75.19230000
_symmetry_Int_Tables_number   1
_chemical_formula_structural   YbH12(C4O3)3
_chemical_formula_sum   'Yb2 H24 C24 O18'
_cell_volume   675.01809302
_cell_formula_units_Z   2
loop_
 _symmetry_equiv_pos_site_id
 _symmetry_equiv_pos_as_xyz
  1  'x, y, z'
loop_
 _atom_site_type_symbol
 _atom_site_label
 _atom_site_symmetry_multiplicity
 _atom_site_fract_x
 _atom_site_fract_y
 _atom_site_fract_z
 _atom_site_occupancy
  Yb  Yb0  1  0.26652000  0.29538000  0.00368000  1.0
  Yb  Yb1  1  0.73348000  0.70462000  0.99632000  1.0
  H  H2  1  0.42203000  0.49441000  0.33171000  1.0
  H  H3  1  0.57797000  0.50559000  0.66829000  1.0
  H  H4  1  0.32573000  0.39062000  0.59158000  1.0
  H  H5  1  0.67427000  0.60938000  0.40842000  1.0
  H  H6  1  0.89701000  0.78500000  0.60140000  1.0
  H  H7  1  0.10299000  0.21500000  0.39860000  1.0
  H  H8  1  0.97655000  0.87831000  0.34338000  1.0
  H  H9  1  0.02345000  0.12169000  0.65662000  1.0
  H  H10  1  0.59059000  0.25858000  0.35558000  1.0
  H  H11  1  0.40941000  0.74142000  0.64441000  1.0
  H  H12  1  0.33088000  0.87325000  0.41751000  1.0
  H  H13  1  0.66912000  0.12676000  0.58249000  1.0
  H  H14  1  0.19080000  0.64029000  0.91757000  1.0
  H  H15  1  0.80920000  0.35971000  0.08243000  1.0
  H  H16  1  0.40914000  0.60544000  0.88836000  1.0
  H  H17  1  0.59086000  0.39456000  0.11164000  1.0
  H  H18  1  0.95274000  0.16671000  0.99484000  1.0
  H  H19  1  0.04727000  0.83329000  0.00516000  1.0
  H  H20  1  0.02443000  0.05818000  0.12350000  1.0
  H  H21  1  0.97557000  0.94182000  0.87650000  1.0
  H  H22  1  0.47167000  0.04951000  0.86920000  1.0
  H  H23  1  0.52833000  0.95049000  0.13080000  1.0
  H  H24  1  0.28406000  0.99651000  0.97336000  1.0
  H  H25  1  0.71594000  0.00349000  0.02664000  1.0
  C  C26  1  0.27237000  0.75812000  0.16868000  1.0
  C  C27  1  0.72762000  0.24188000  0.83132000  1.0
  C  C28  1  0.20669000  0.69261000  0.32206000  1.0
  C  C29  1  0.79331000  0.30738000  0.67794000  1.0
  C  C30  1  0.30476000  0.55520000  0.39209000  1.0
  C  C31  1  0.69523000  0.44480000  0.60791000  1.0
  C  C32  1  0.25263000  0.49850000  0.53586000  1.0
  C  C33  1  0.74737000  0.50150000  0.46414000  1.0
  C  C34  1  0.10640000  0.58260000  0.61165000  1.0
  C  C35  1  0.89360000  0.41740000  0.38835000  1.0
  C  C36  1  0.06009000  0.52873000  0.76659000  1.0
  C  C37  1  0.93991000  0.47127000  0.23341000  1.0
  C  C38  1  0.00845000  0.71996000  0.54146000  1.0
  C  C39  1  0.99155000  0.28004000  0.45854000  1.0
  C  C40  1  0.05464000  0.77273000  0.39762000  1.0
  C  C41  1  0.94536000  0.22727000  0.60238000  1.0
  C  C42  1  0.40123000  0.15389000  0.24007000  1.0
  C  C43  1  0.59877000  0.84611000  0.75993000  1.0
  C  C44  1  0.45583000  0.07382000  0.37274000  1.0
  C  C45  1  0.54417000  0.92619000  0.62726000  1.0
  C  C46  1  0.55071000  0.14563000  0.41928000  1.0
  C  C47  1  0.44928000  0.85437000  0.58072000  1.0
  C  C48  1  0.40566000  0.92758000  0.45406000  1.0
  C  C49  1  0.59435000  0.07243000  0.54594000  1.0
  O  O50  1  0.16329000  0.86329000  0.10279000  1.0
  O  O51  1  0.83671000  0.13671000  0.89721000  1.0
  O  O52  1  0.43736000  0.70987000  0.11058000  1.0
  O  O53  1  0.56264000  0.29013000  0.88942000  1.0
  O  O54  1  0.95004000  0.62031000  0.83128000  1.0
  O  O55  1  0.04996000  0.37969000  0.16872000  1.0
  O  O56  1  0.13835000  0.39505000  0.82566000  1.0
  O  O57  1  0.86164000  0.60495000  0.17435000  1.0
  O  O58  1  0.41867000  0.29531000  0.17415000  1.0
  O  O59  1  0.58133000  0.70469000  0.82585000  1.0
  O  O60  1  0.33009000  0.07973000  0.19309000  1.0
  O  O61  1  0.66991000  0.92027000  0.80691000  1.0
  O  O62  1  0.29565000  0.55565000  0.92750000  1.0
  O  O63  1  0.70435000  0.44435000  0.07250000  1.0
  O  O64  1  0.99760000  0.16882000  0.07154000  1.0
  O  O65  1  0.00240000  0.83119000  0.92846000  1.0
  O  O66  1  0.34345000  0.08975000  0.91159000  1.0
  O  O67  1  0.65655000  0.91025000  0.08841000  1.0
