# generated using pymatgen
data_MgH6(CO3)2
_symmetry_space_group_name_H-M   'P 1'
_cell_length_a   7.24139000
_cell_length_b   8.50362000
_cell_length_c   8.70017000
_cell_angle_alpha   90.00050000
_cell_angle_beta   90.00010000
_cell_angle_gamma   90.00000000
_symmetry_Int_Tables_number   1
_chemical_formula_structural   MgH6(CO3)2
_chemical_formula_sum   'Mg4 H24 C8 O24'
_cell_volume   535.73931908
_cell_formula_units_Z   4
loop_
 _symmetry_equiv_pos_site_id
 _symmetry_equiv_pos_as_xyz
  1  'x, y, z'
loop_
 _atom_site_type_symbol
 _atom_site_label
 _atom_site_symmetry_multiplicity
 _atom_site_fract_x
 _atom_site_fract_y
 _atom_site_fract_z
 _atom_site_occupancy
  Mg  Mg0  1  0.00000000  0.00000000  0.00000000  1.0
  Mg  Mg1  1  0.50000000  0.00000000  0.50000000  1.0
  Mg  Mg2  1  0.00000000  0.50000000  0.50000000  1.0
  Mg  Mg3  1  0.50000000  0.50000000  0.00000000  1.0
  H  H4  1  0.07587000  0.68920000  0.82864000  1.0
  H  H5  1  0.57588000  0.31081000  0.67136000  1.0
  H  H6  1  0.92413000  0.81081000  0.32864000  1.0
  H  H7  1  0.42413000  0.18919000  0.17137000  1.0
  H  H8  1  0.92413000  0.31080000  0.17136000  1.0
  H  H9  1  0.42412000  0.68918000  0.32863000  1.0
  H  H10  1  0.07587000  0.18919000  0.67136000  1.0
  H  H11  1  0.57587000  0.81081000  0.82863000  1.0
  H  H12  1  0.65457000  0.98571000  0.12091000  1.0
  H  H13  1  0.15456000  0.01430000  0.37908000  1.0
  H  H14  1  0.34543000  0.51429000  0.62091000  1.0
  H  H15  1  0.84543000  0.48571000  0.87909000  1.0
  H  H16  1  0.34543000  0.01430000  0.87909000  1.0
  H  H17  1  0.84543000  0.98571000  0.62091000  1.0
  H  H18  1  0.65457000  0.48571000  0.37909000  1.0
  H  H19  1  0.15457000  0.51429000  0.12091000  1.0
  H  H20  1  0.64541000  0.12373000  0.99515000  1.0
  H  H21  1  0.14541000  0.87627000  0.50486000  1.0
  H  H22  1  0.35459000  0.37627000  0.49514000  1.0
  H  H23  1  0.85459000  0.62373000  0.00486000  1.0
  H  H24  1  0.35459000  0.87627000  0.00485000  1.0
  H  H25  1  0.85459000  0.12373000  0.49515000  1.0
  H  H26  1  0.64541000  0.62373000  0.50486000  1.0
  H  H27  1  0.14541000  0.37627000  0.99514000  1.0
  C  C28  1  0.01830000  0.76731000  0.73892000  1.0
  C  C29  1  0.51828000  0.23272000  0.76109000  1.0
  C  C30  1  0.98172000  0.73273000  0.23891000  1.0
  C  C31  1  0.48171000  0.26728000  0.26109000  1.0
  C  C32  1  0.98170000  0.23269000  0.26108000  1.0
  C  C33  1  0.48172000  0.76728000  0.23891000  1.0
  C  C34  1  0.01829000  0.26728000  0.76110000  1.0
  C  C35  1  0.51829000  0.73272000  0.73891000  1.0
  O  O36  1  0.95406000  0.89966000  0.77997000  1.0
  O  O37  1  0.45406000  0.10036000  0.72003000  1.0
  O  O38  1  0.04594000  0.60036000  0.27997000  1.0
  O  O39  1  0.54594000  0.39964000  0.22003000  1.0
  O  O40  1  0.04594000  0.10034000  0.22003000  1.0
  O  O41  1  0.54594000  0.89965000  0.27996000  1.0
  O  O42  1  0.95405000  0.39964000  0.72003000  1.0
  O  O43  1  0.45406000  0.60035000  0.77997000  1.0
  O  O44  1  0.02263000  0.72070000  0.60016000  1.0
  O  O45  1  0.52263000  0.27930000  0.89985000  1.0
  O  O46  1  0.97737000  0.77930000  0.10015000  1.0
  O  O47  1  0.47737000  0.22069000  0.39985000  1.0
  O  O48  1  0.97737000  0.27930000  0.39984000  1.0
  O  O49  1  0.47738000  0.72070000  0.10015000  1.0
  O  O50  1  0.02262000  0.22070000  0.89986000  1.0
  O  O51  1  0.52263000  0.77930000  0.60015000  1.0
  O  O52  1  0.72112000  0.03558000  0.03341000  1.0
  O  O53  1  0.22112000  0.96442000  0.46659000  1.0
  O  O54  1  0.27887000  0.46442000  0.53341000  1.0
  O  O55  1  0.77888000  0.53558000  0.96659000  1.0
  O  O56  1  0.27888000  0.96443000  0.96659000  1.0
  O  O57  1  0.77888000  0.03558000  0.53341000  1.0
  O  O58  1  0.72113000  0.53558000  0.46659000  1.0
  O  O59  1  0.22112000  0.46442000  0.03341000  1.0
