# generated using pymatgen
data_GdH6C9(ClO3)3
_symmetry_space_group_name_H-M   'P 1'
_cell_length_a   9.80821000
_cell_length_b   9.80825000
_cell_length_c   10.88860000
_cell_angle_alpha   94.67680000
_cell_angle_beta   94.67810000
_cell_angle_gamma   115.54000000
_symmetry_Int_Tables_number   1
_chemical_formula_structural   GdH6C9(ClO3)3
_chemical_formula_sum   'Gd2 H12 C18 Cl6 O18'
_cell_volume   934.02772508
_cell_formula_units_Z   2
loop_
 _symmetry_equiv_pos_site_id
 _symmetry_equiv_pos_as_xyz
  1  'x, y, z'
loop_
 _atom_site_type_symbol
 _atom_site_label
 _atom_site_symmetry_multiplicity
 _atom_site_fract_x
 _atom_site_fract_y
 _atom_site_fract_z
 _atom_site_occupancy
  Gd  Gd0  1  0.21815000  0.21815000  0.87362000  1.0
  Gd  Gd1  1  0.78185000  0.78184000  0.12638000  1.0
  H  H2  1  0.32609000  0.42105000  0.68372000  1.0
  H  H3  1  0.57895000  0.67391000  0.31628000  1.0
  H  H4  1  0.67391000  0.57895000  0.31628000  1.0
  H  H5  1  0.42105000  0.32609000  0.68372000  1.0
  H  H6  1  0.39057000  0.48335000  0.09617000  1.0
  H  H7  1  0.51665000  0.60943000  0.90383000  1.0
  H  H8  1  0.60943000  0.51666000  0.90383000  1.0
  H  H9  1  0.48335000  0.39057000  0.09617000  1.0
  H  H10  1  0.98891000  0.89474000  0.88361000  1.0
  H  H11  1  0.10526000  0.01109000  0.11639000  1.0
  H  H12  1  0.01109000  0.10526000  0.11639000  1.0
  H  H13  1  0.89474000  0.98891000  0.88361000  1.0
  C  C14  1  0.02463000  0.11735000  0.59955000  1.0
  C  C15  1  0.88265000  0.97536000  0.40044000  1.0
  C  C16  1  0.97537000  0.88265000  0.40045000  1.0
  C  C17  1  0.11734000  0.02464000  0.59955000  1.0
  C  C18  1  0.91136000  0.08863000  0.49999000  1.0
  C  C19  1  0.08863000  0.91137000  0.50001000  1.0
  C  C20  1  0.02852000  0.37114000  0.01841000  1.0
  C  C21  1  0.62886000  0.97149000  0.98160000  1.0
  C  C22  1  0.97148000  0.62886000  0.98160000  1.0
  C  C23  1  0.37114000  0.02852000  0.01841000  1.0
  C  C24  1  0.11099000  0.48437000  0.92963000  1.0
  C  C25  1  0.51562000  0.88901000  0.07037000  1.0
  C  C26  1  0.88902000  0.51562000  0.07036000  1.0
  C  C27  1  0.48438000  0.11099000  0.92964000  1.0
  C  C28  1  0.07285000  0.60406000  0.90994000  1.0
  C  C29  1  0.39595000  0.92715000  0.09007000  1.0
  C  C30  1  0.92715000  0.39594000  0.09006000  1.0
  C  C31  1  0.60406000  0.07286000  0.90994000  1.0
  Cl  Cl32  1  0.80751000  0.19248000  0.49999000  1.0
  Cl  Cl33  1  0.19249000  0.80751000  0.50001000  1.0
  Cl  Cl34  1  0.15873000  0.72581000  0.80474000  1.0
  Cl  Cl35  1  0.27420000  0.84127000  0.19527000  1.0
  Cl  Cl36  1  0.84127000  0.27420000  0.19526000  1.0
  Cl  Cl37  1  0.72581000  0.15873000  0.80474000  1.0
  O  O38  1  0.06014000  0.21826000  0.69279000  1.0
  O  O39  1  0.78174000  0.93986000  0.30720000  1.0
  O  O40  1  0.93986000  0.78174000  0.30721000  1.0
  O  O41  1  0.21827000  0.06014000  0.69280000  1.0
  O  O42  1  0.06038000  0.25831000  0.01979000  1.0
  O  O43  1  0.74169000  0.93962000  0.98021000  1.0
  O  O44  1  0.93962000  0.74169000  0.98021000  1.0
  O  O45  1  0.25831000  0.06038000  0.01979000  1.0
  O  O46  1  0.21373000  0.46219000  0.88011000  1.0
  O  O47  1  0.53781000  0.78626000  0.11989000  1.0
  O  O48  1  0.78627000  0.53781000  0.11989000  1.0
  O  O49  1  0.46219000  0.21374000  0.88012000  1.0
  O  O50  1  0.39279000  0.39279000  0.73614000  1.0
  O  O51  1  0.60721000  0.60721000  0.26386000  1.0
  O  O52  1  0.38485000  0.38485000  0.06487000  1.0
  O  O53  1  0.61515000  0.61515000  0.93513000  1.0
  O  O54  1  0.98567000  0.98567000  0.85279000  1.0
  O  O55  1  0.01432000  0.01432000  0.14721000  1.0
