# generated using pymatgen
data_AgH4C9N(ClO)2
_symmetry_space_group_name_H-M   'P 1'
_cell_length_a   9.70266000
_cell_length_b   9.70266000
_cell_length_c   11.02370000
_cell_angle_alpha   83.09860000
_cell_angle_beta   83.09830000
_cell_angle_gamma   89.58060000
_symmetry_Int_Tables_number   1
_chemical_formula_structural   AgH4C9N(ClO)2
_chemical_formula_sum   'Ag4 H16 C36 N4 Cl8 O8'
_cell_volume   1022.77723204
_cell_formula_units_Z   4
loop_
 _symmetry_equiv_pos_site_id
 _symmetry_equiv_pos_as_xyz
  1  'x, y, z'
loop_
 _atom_site_type_symbol
 _atom_site_label
 _atom_site_symmetry_multiplicity
 _atom_site_fract_x
 _atom_site_fract_y
 _atom_site_fract_z
 _atom_site_occupancy
  Ag  Ag0  1  0.39968000  0.51616000  0.64333000  1.0
  Ag  Ag1  1  0.48384000  0.60032000  0.85667000  1.0
  Ag  Ag2  1  0.60033000  0.48385000  0.35668000  1.0
  Ag  Ag3  1  0.51616000  0.39968000  0.14333000  1.0
  H  H4  1  0.02354000  0.85796000  0.84181000  1.0
  H  H5  1  0.14204000  0.97646000  0.65819000  1.0
  H  H6  1  0.97646000  0.14205000  0.15818000  1.0
  H  H7  1  0.85796000  0.02355000  0.34181000  1.0
  H  H8  1  0.84218000  0.67192000  0.90680000  1.0
  H  H9  1  0.32808000  0.15782000  0.59321000  1.0
  H  H10  1  0.15782000  0.32808000  0.09320000  1.0
  H  H11  1  0.67192000  0.84219000  0.40680000  1.0
  H  H12  1  0.90234000  0.42812000  0.87333000  1.0
  H  H13  1  0.57188000  0.09766000  0.62668000  1.0
  H  H14  1  0.09767000  0.57187000  0.12668000  1.0
  H  H15  1  0.42812000  0.90233000  0.37332000  1.0
  H  H16  1  0.14249000  0.37756000  0.77599000  1.0
  H  H17  1  0.62243000  0.85751000  0.72401000  1.0
  H  H18  1  0.85752000  0.62244000  0.22401000  1.0
  H  H19  1  0.37756000  0.14248000  0.27599000  1.0
  C  C20  1  0.17603000  0.71545000  0.77085000  1.0
  C  C21  1  0.28455000  0.82397000  0.72915000  1.0
  C  C22  1  0.82397000  0.28455000  0.22914000  1.0
  C  C23  1  0.71545000  0.17603000  0.27085000  1.0
  C  C24  1  0.04527000  0.75059000  0.82694000  1.0
  C  C25  1  0.24940000  0.95473000  0.67306000  1.0
  C  C26  1  0.95473000  0.24941000  0.17305000  1.0
  C  C27  1  0.75060000  0.04527000  0.32694000  1.0
  C  C28  1  0.94515000  0.64738000  0.86428000  1.0
  C  C29  1  0.35262000  0.05485000  0.63573000  1.0
  C  C30  1  0.05485000  0.35262000  0.13572000  1.0
  C  C31  1  0.64738000  0.94515000  0.36427000  1.0
  C  C32  1  0.97878000  0.51079000  0.84647000  1.0
  C  C33  1  0.48921000  0.02123000  0.65353000  1.0
  C  C34  1  0.02123000  0.48921000  0.15353000  1.0
  C  C35  1  0.51080000  0.97877000  0.34647000  1.0
  C  C36  1  0.11066000  0.48282000  0.79148000  1.0
  C  C37  1  0.51718000  0.88934000  0.70852000  1.0
  C  C38  1  0.88934000  0.51718000  0.20852000  1.0
  C  C39  1  0.48282000  0.11066000  0.29147000  1.0
  C  C40  1  0.44472000  0.28046000  0.88322000  1.0
  C  C41  1  0.71955000  0.55526000  0.61679000  1.0
  C  C42  1  0.55527000  0.71955000  0.11678000  1.0
  C  C43  1  0.28045000  0.44473000  0.38322000  1.0
  C  C44  1  0.47228000  0.13598000  0.94604000  1.0
  C  C45  1  0.86403000  0.52771000  0.55398000  1.0
  C  C46  1  0.52771000  0.86403000  0.05397000  1.0
  C  C47  1  0.13597000  0.47229000  0.44602000  1.0
  C  C48  1  0.36453000  0.03936000  0.98309000  1.0
  C  C49  1  0.96065000  0.63546000  0.51692000  1.0
  C  C50  1  0.63546000  0.96065000  0.01691000  1.0
  C  C51  1  0.03935000  0.36453000  0.48308000  1.0
  C  C52  1  0.39192000  0.90476000  0.03639000  1.0
  C  C53  1  0.09524000  0.60807000  0.46361000  1.0
  C  C54  1  0.60807000  0.09524000  0.96361000  1.0
  C  C55  1  0.90476000  0.39192000  0.53639000  1.0
  N  N56  1  0.20688000  0.58288000  0.75308000  1.0
  N  N57  1  0.41712000  0.79313000  0.74692000  1.0
  N  N58  1  0.79312000  0.41712000  0.24691000  1.0
  N  N59  1  0.58288000  0.20688000  0.25308000  1.0
  Cl  Cl60  1  0.19637000  0.08754000  0.96215000  1.0
  Cl  Cl61  1  0.91246000  0.80362000  0.53786000  1.0
  Cl  Cl62  1  0.80362000  0.91246000  0.03785000  1.0
  Cl  Cl63  1  0.08754000  0.19638000  0.46214000  1.0
  Cl  Cl64  1  0.25834000  0.78682000  0.08164000  1.0
  Cl  Cl65  1  0.21317000  0.74165000  0.41836000  1.0
  Cl  Cl66  1  0.74165000  0.21318000  0.91836000  1.0
  Cl  Cl67  1  0.78683000  0.25834000  0.58164000  1.0
  O  O68  1  0.43702000  0.29088000  0.77005000  1.0
  O  O69  1  0.70913000  0.56297000  0.72999000  1.0
  O  O70  1  0.56298000  0.70913000  0.22995000  1.0
  O  O71  1  0.29087000  0.43702000  0.27002000  1.0
  O  O72  1  0.43287000  0.37787000  0.95239000  1.0
  O  O73  1  0.62215000  0.56711000  0.54764000  1.0
  O  O74  1  0.56712000  0.62214000  0.04761000  1.0
  O  O75  1  0.37786000  0.43289000  0.45237000  1.0
