# generated using pymatgen
data_YH17C11N2O9
_symmetry_space_group_name_H-M   'P 1'
_cell_length_a   9.97464000
_cell_length_b   10.15620000
_cell_length_c   10.40500000
_cell_angle_alpha   76.05740000
_cell_angle_beta   73.64180000
_cell_angle_gamma   66.29460000
_symmetry_Int_Tables_number   1
_chemical_formula_structural   YH17C11N2O9
_chemical_formula_sum   'Y2 H34 C22 N4 O18'
_cell_volume   916.22816042
_cell_formula_units_Z   2
loop_
 _symmetry_equiv_pos_site_id
 _symmetry_equiv_pos_as_xyz
  1  'x, y, z'
loop_
 _atom_site_type_symbol
 _atom_site_label
 _atom_site_symmetry_multiplicity
 _atom_site_fract_x
 _atom_site_fract_y
 _atom_site_fract_z
 _atom_site_occupancy
  Y  Y0  1  0.56535000  0.41148000  0.33800000  1.0
  Y  Y1  1  0.43465000  0.58851000  0.66201000  1.0
  H  H2  1  0.75065000  0.49127000  0.85748000  1.0
  H  H3  1  0.24934000  0.50875000  0.14252000  1.0
  H  H4  1  0.25773000  0.46731000  0.34547000  1.0
  H  H5  1  0.74226000  0.53268000  0.65455000  1.0
  H  H6  1  0.32346000  0.59194000  0.25394000  1.0
  H  H7  1  0.67654000  0.40805000  0.74609000  1.0
  H  H8  1  0.38999000  0.21321000  0.21106000  1.0
  H  H9  1  0.61002000  0.78678000  0.78891000  1.0
  H  H10  1  0.37738000  0.21344000  0.38405000  1.0
  H  H11  1  0.62262000  0.78656000  0.61593000  1.0
  H  H12  1  0.52783000  0.89892000  0.22040000  1.0
  H  H13  1  0.47217000  0.10106000  0.77959000  1.0
  H  H14  1  0.34797000  0.94384000  0.18749000  1.0
  H  H15  1  0.65202000  0.05614000  0.81252000  1.0
  H  H16  1  0.16134000  0.99401000  0.44361000  1.0
  H  H17  1  0.83866000  0.00600000  0.55638000  1.0
  H  H18  1  0.17764000  0.14008000  0.49400000  1.0
  H  H19  1  0.82237000  0.85993000  0.50600000  1.0
  H  H20  1  0.14296000  0.14619000  0.20778000  1.0
  H  H21  1  0.85704000  0.85382000  0.79222000  1.0
  H  H22  1  0.13920000  0.29212000  0.27432000  1.0
  H  H23  1  0.86081000  0.70789000  0.72567000  1.0
  H  H24  1  0.90725000  0.26160000  0.45659000  1.0
  H  H25  1  0.09276000  0.73840000  0.54340000  1.0
  H  H26  1  0.90232000  0.14961000  0.35292000  1.0
  H  H27  1  0.09769000  0.85039000  0.64708000  1.0
  H  H28  1  0.92120000  0.23801000  0.11840000  1.0
  H  H29  1  0.07881000  0.76201000  0.88158000  1.0
  H  H30  1  0.00329000  0.37288000  0.07726000  1.0
  H  H31  1  0.99671000  0.62715000  0.92274000  1.0
  H  H32  1  0.80330000  0.59619000  0.22091000  1.0
  H  H33  1  0.19669000  0.40382000  0.77911000  1.0
  H  H34  1  0.97311000  0.49804000  0.27901000  1.0
  H  H35  1  0.02689000  0.50196000  0.72100000  1.0
  C  C36  1  0.59484000  0.09807000  0.27605000  1.0
  C  C37  1  0.40516000  0.90193000  0.72393000  1.0
  C  C38  1  0.42374000  0.14232000  0.30525000  1.0
  C  C39  1  0.57627000  0.85768000  0.69473000  1.0
  C  C40  1  0.40960000  0.91809000  0.26980000  1.0
  C  C41  1  0.59039000  0.08189000  0.73020000  1.0
  C  C42  1  0.40839000  0.77238000  0.35102000  1.0
  C  C43  1  0.59160000  0.22761000  0.64901000  1.0
  C  C44  1  0.19894000  0.08698000  0.40580000  1.0
  C  C45  1  0.80106000  0.91302000  0.59420000  1.0
  C  C46  1  0.10888000  0.19466000  0.30125000  1.0
  C  C47  1  0.89113000  0.80535000  0.69874000  1.0
  C  C48  1  0.93967000  0.23808000  0.35208000  1.0
  C  C49  1  0.06033000  0.76193000  0.64791000  1.0
  C  C50  1  0.89928000  0.35152000  0.12611000  1.0
  C  C51  1  0.10073000  0.64850000  0.87389000  1.0
  C  C52  1  0.77901000  0.44110000  0.04658000  1.0
  C  C53  1  0.22098000  0.55892000  0.95342000  1.0
  C  C54  1  0.85773000  0.50403000  0.29300000  1.0
  C  C55  1  0.14227000  0.49597000  0.70701000  1.0
  C  C56  1  0.77158000  0.53545000  0.43512000  1.0
  C  C57  1  0.22842000  0.46455000  0.56489000  1.0
  N  N58  1  0.36054000  0.02938000  0.35408000  1.0
  N  N59  1  0.63947000  0.97062000  0.64591000  1.0
  N  N60  1  0.84899000  0.36945000  0.26972000  1.0
  N  N61  1  0.15101000  0.63056000  0.73028000  1.0
  O  O62  1  0.63371000  0.21203000  0.25352000  1.0
  O  O63  1  0.36629000  0.78796000  0.74648000  1.0
  O  O64  1  0.68338000  0.97184000  0.26900000  1.0
  O  O65  1  0.31664000  0.02815000  0.73096000  1.0
  O  O66  1  0.37926000  0.75857000  0.47887000  1.0
  O  O67  1  0.62075000  0.24144000  0.52113000  1.0
  O  O68  1  0.44252000  0.66925000  0.28301000  1.0
  O  O69  1  0.55746000  0.33073000  0.71701000  1.0
  O  O70  1  0.64188000  0.52182000  0.46974000  1.0
  O  O71  1  0.35812000  0.47816000  0.53027000  1.0
  O  O72  1  0.82576000  0.56968000  0.51132000  1.0
  O  O73  1  0.17422000  0.43033000  0.48870000  1.0
  O  O74  1  0.64471000  0.48817000  0.10130000  1.0
  O  O75  1  0.35529000  0.51183000  0.89870000  1.0
  O  O76  1  0.83161000  0.45765000  0.91534000  1.0
  O  O77  1  0.16838000  0.54238000  0.08466000  1.0
  O  O78  1  0.32615000  0.49279000  0.25504000  1.0
  O  O79  1  0.67383000  0.50720000  0.74497000  1.0
