# generated using pymatgen
data_CoH22C34(NO)4
_symmetry_space_group_name_H-M   'P 1'
_cell_length_a   8.25109000
_cell_length_b   11.49520000
_cell_length_c   35.14850000
_cell_angle_alpha   90.00070000
_cell_angle_beta   90.00030000
_cell_angle_gamma   74.96100000
_symmetry_Int_Tables_number   1
_chemical_formula_structural   CoH22C34(NO)4
_chemical_formula_sum   'Co4 H88 C136 N16 O16'
_cell_volume   3219.57919472
_cell_formula_units_Z   4
loop_
 _symmetry_equiv_pos_site_id
 _symmetry_equiv_pos_as_xyz
  1  'x, y, z'
loop_
 _atom_site_type_symbol
 _atom_site_label
 _atom_site_symmetry_multiplicity
 _atom_site_fract_x
 _atom_site_fract_y
 _atom_site_fract_z
 _atom_site_occupancy
  Co  Co0  1  0.52492000  0.50471000  0.14538000  1.0
  Co  Co1  1  0.47508000  0.99528000  0.64538000  1.0
  Co  Co2  1  0.47508000  0.49529000  0.85462000  1.0
  Co  Co3  1  0.52493000  0.00472000  0.35462000  1.0
  H  H4  1  0.72617000  0.43464000  0.03904000  1.0
  H  H5  1  0.27383000  0.06535000  0.53904000  1.0
  H  H6  1  0.27382000  0.56534000  0.96096000  1.0
  H  H7  1  0.72617000  0.93464000  0.46096000  1.0
  H  H8  1  0.67562000  0.55056000  0.99034000  1.0
  H  H9  1  0.32438000  0.94943000  0.49034000  1.0
  H  H10  1  0.32439000  0.44943000  0.00965000  1.0
  H  H11  1  0.67563000  0.05057000  0.50966000  1.0
  H  H12  1  0.51606000  0.60455000  0.93050000  1.0
  H  H13  1  0.48394000  0.89545000  0.43050000  1.0
  H  H14  1  0.48396000  0.39544000  0.06949000  1.0
  H  H15  1  0.51605000  0.10455000  0.56950000  1.0
  H  H16  1  0.81338000  0.30891000  0.87449000  1.0
  H  H17  1  0.18662000  0.19110000  0.37450000  1.0
  H  H18  1  0.18662000  0.69106000  0.12551000  1.0
  H  H19  1  0.81337000  0.80891000  0.62551000  1.0
  H  H20  1  0.98319000  0.23970000  0.93204000  1.0
  H  H21  1  0.01681000  0.26030000  0.43204000  1.0
  H  H22  1  0.01681000  0.76028000  0.06796000  1.0
  H  H23  1  0.98318000  0.73969000  0.56796000  1.0
  H  H24  1  0.16746000  0.25382000  0.97559000  1.0
  H  H25  1  0.83253000  0.24619000  0.47560000  1.0
  H  H26  1  0.83252000  0.74618000  0.02441000  1.0
  H  H27  1  0.16747000  0.75381000  0.52441000  1.0
  H  H28  1  0.16358000  0.24145000  0.09844000  1.0
  H  H29  1  0.83642000  0.25852000  0.59845000  1.0
  H  H30  1  0.83643000  0.75854000  0.90155000  1.0
  H  H31  1  0.16358000  0.74145000  0.40155000  1.0
  H  H32  1  0.43165000  0.23667000  0.98153000  1.0
  H  H33  1  0.56834000  0.26334000  0.48155000  1.0
  H  H34  1  0.56833000  0.76334000  0.01845000  1.0
  H  H35  1  0.43165000  0.73666000  0.51846000  1.0
  H  H36  1  0.73008000  0.12337000  0.98476000  1.0
  H  H37  1  0.26990000  0.37667000  0.48477000  1.0
  H  H38  1  0.26990000  0.87666000  0.01523000  1.0
  H  H39  1  0.73008000  0.62336000  0.51524000  1.0
  H  H40  1  0.66742000  0.98387000  0.09064000  1.0
  H  H41  1  0.33260000  0.51615000  0.59065000  1.0
  H  H42  1  0.33258000  0.01614000  0.90935000  1.0
  H  H43  1  0.66743000  0.48387000  0.40936000  1.0
  H  H44  1  0.36516000  0.08767000  0.09180000  1.0
  H  H45  1  0.63486000  0.41232000  0.59182000  1.0
  H  H46  1  0.63484000  0.91233000  0.90818000  1.0
  H  H47  1  0.36518000  0.58768000  0.40819000  1.0
  H  H48  1  0.47989000  0.91362000  0.16136000  1.0
  H  H49  1  0.52010000  0.58639000  0.66136000  1.0
  H  H50  1  0.52010000  0.08638000  0.83864000  1.0
  H  H51  1  0.47988000  0.41362000  0.33864000  1.0
  H  H52  1  0.10687000  0.27234000  0.18139000  1.0
  H  H53  1  0.89313000  0.22765000  0.68139000  1.0
  H  H54  1  0.89314000  0.72766000  0.81861000  1.0
  H  H55  1  0.10686000  0.77235000  0.31862000  1.0
  H  H56  1  0.21282000  0.44663000  0.16271000  1.0
  H  H57  1  0.78718000  0.05336000  0.66272000  1.0
  H  H58  1  0.78719000  0.55337000  0.83729000  1.0
  H  H59  1  0.21281000  0.94664000  0.33729000  1.0
  H  H60  1  0.70645000  0.24245000  0.16155000  1.0
  H  H61  1  0.29355000  0.25755000  0.66155000  1.0
  H  H62  1  0.29355000  0.75755000  0.83845000  1.0
  H  H63  1  0.70645000  0.74245000  0.33844000  1.0
  H  H64  1  0.62246000  0.05709000  0.18188000  1.0
  H  H65  1  0.37754000  0.44291000  0.68188000  1.0
  H  H66  1  0.37755000  0.94291000  0.81812000  1.0
  H  H67  1  0.62246000  0.55709000  0.31812000  1.0
  H  H68  1  0.09827000  0.14749000  0.23048000  1.0
  H  H69  1  0.90175000  0.35250000  0.73047000  1.0
  H  H70  1  0.90175000  0.85251000  0.76953000  1.0
  H  H71  1  0.09826000  0.64750000  0.26953000  1.0
  H  H72  1  0.12566000  0.76898000  0.22147000  1.0
  H  H73  1  0.87435000  0.73102000  0.72147000  1.0
  H  H74  1  0.87433000  0.23102000  0.77853000  1.0
  H  H75  1  0.12562000  0.26900000  0.27854000  1.0
  H  H76  1  0.04315000  0.09249000  0.29460000  1.0
  H  H77  1  0.95687000  0.40752000  0.79460000  1.0
  H  H78  1  0.95686000  0.90752000  0.70540000  1.0
  H  H79  1  0.04314000  0.59249000  0.20540000  1.0
  H  H80  1  0.80831000  0.10408000  0.34081000  1.0
  H  H81  1  0.19170000  0.39593000  0.84081000  1.0
  H  H82  1  0.19169000  0.89593000  0.65920000  1.0
  H  H83  1  0.80832000  0.60407000  0.15919000  1.0
  H  H84  1  0.59474000  0.89002000  0.27295000  1.0
  H  H85  1  0.40528000  0.60999000  0.77295000  1.0
  H  H86  1  0.40527000  0.10999000  0.72705000  1.0
  H  H87  1  0.59473000  0.39002000  0.22704000  1.0
  H  H88  1  0.82189000  0.86496000  0.22458000  1.0
  H  H89  1  0.17813000  0.63505000  0.72457000  1.0
  H  H90  1  0.17812000  0.13505000  0.77543000  1.0
  H  H91  1  0.82187000  0.36497000  0.27542000  1.0
  C  C92  1  0.84374000  0.36646000  0.10911000  1.0
  C  C93  1  0.15627000  0.13353000  0.60911000  1.0
  C  C94  1  0.15628000  0.63353000  0.89089000  1.0
  C  C95  1  0.84374000  0.86646000  0.39089000  1.0
  C  C96  1  0.93697000  0.33991000  0.07187000  1.0
  C  C97  1  0.06303000  0.16007000  0.57187000  1.0
  C  C98  1  0.06303000  0.66008000  0.92813000  1.0
  C  C99  1  0.93697000  0.83991000  0.42813000  1.0
  C  C100  1  0.85576000  0.38090000  0.03775000  1.0
  C  C101  1  0.14423000  0.11909000  0.53776000  1.0
  C  C102  1  0.14423000  0.61909000  0.96224000  1.0
  C  C103  1  0.85576000  0.88089000  0.46224000  1.0
  C  C104  1  0.93665000  0.34942000  0.00275000  1.0
  C  C105  1  0.06334000  0.15058000  0.50275000  1.0
  C  C106  1  0.06333000  0.65057000  0.99725000  1.0
  C  C107  1  0.93666000  0.84942000  0.49725000  1.0
  C  C108  1  0.84399000  0.38825000  0.96711000  1.0
  C  C109  1  0.15600000  0.11175000  0.46712000  1.0
  C  C110  1  0.15600000  0.61174000  0.03288000  1.0
  C  C111  1  0.84399000  0.88824000  0.53288000  1.0
  C  C112  1  0.70980000  0.49247000  0.96559000  1.0
  C  C113  1  0.29020000  0.00753000  0.46559000  1.0
  C  C114  1  0.29021000  0.50752000  0.03441000  1.0
  C  C115  1  0.70980000  0.99247000  0.53441000  1.0
  C  C116  1  0.62033000  0.52399000  0.93208000  1.0
  C  C117  1  0.37967000  0.97601000  0.43208000  1.0
  C  C118  1  0.37968000  0.47599000  0.06791000  1.0
  C  C119  1  0.62033000  0.02399000  0.56792000  1.0
  C  C120  1  0.78570000  0.35980000  0.90087000  1.0
  C  C121  1  0.21430000  0.14020000  0.40088000  1.0
  C  C122  1  0.21430000  0.64018000  0.09912000  1.0
  C  C123  1  0.78569000  0.85980000  0.59912000  1.0
  C  C124  1  0.88205000  0.32235000  0.93317000  1.0
  C  C125  1  0.11795000  0.17765000  0.43317000  1.0
  C  C126  1  0.11795000  0.67763000  0.06683000  1.0
  C  C127  1  0.88205000  0.82235000  0.56683000  1.0
  C  C128  1  0.10341000  0.27906000  0.00264000  1.0
  C  C129  1  0.89658000  0.22094000  0.50265000  1.0
  C  C130  1  0.89658000  0.72093000  0.99735000  1.0
  C  C131  1  0.10341000  0.77906000  0.49735000  1.0
  C  C132  1  0.18948000  0.24065000  0.03674000  1.0
  C  C133  1  0.81052000  0.25935000  0.53675000  1.0
  C  C134  1  0.81051000  0.75935000  0.96325000  1.0
  C  C135  1  0.18948000  0.74064000  0.46326000  1.0
  C  C136  1  0.10297000  0.27027000  0.07126000  1.0
  C  C137  1  0.89703000  0.22971000  0.57127000  1.0
  C  C138  1  0.89703000  0.72972000  0.92873000  1.0
  C  C139  1  0.10297000  0.77027000  0.42874000  1.0
  C  C140  1  0.36862000  0.17322000  0.03666000  1.0
  C  C141  1  0.63137000  0.32678000  0.53667000  1.0
  C  C142  1  0.63137000  0.82678000  0.96333000  1.0
  C  C143  1  0.36863000  0.67322000  0.46334000  1.0
  C  C144  1  0.47693000  0.18098000  0.00643000  1.0
  C  C145  1  0.52306000  0.31903000  0.50644000  1.0
  C  C146  1  0.52306000  0.81903000  0.99356000  1.0
  C  C147  1  0.47694000  0.68098000  0.49356000  1.0
  C  C148  1  0.64563000  0.11748000  0.00825000  1.0
  C  C149  1  0.35436000  0.38255000  0.50826000  1.0
  C  C150  1  0.35436000  0.88254000  0.99174000  1.0
  C  C151  1  0.64564000  0.61747000  0.49175000  1.0
  C  C152  1  0.61103000  0.04072000  0.06664000  1.0
  C  C153  1  0.38898000  0.45929000  0.56665000  1.0
  C  C154  1  0.38897000  0.95929000  0.93335000  1.0
  C  C155  1  0.61104000  0.54072000  0.43336000  1.0
  C  C156  1  0.44086000  0.09995000  0.06745000  1.0
  C  C157  1  0.55914000  0.40005000  0.56747000  1.0
  C  C158  1  0.55913000  0.90005000  0.93253000  1.0
  C  C159  1  0.44087000  0.59996000  0.43254000  1.0
  C  C160  1  0.38638000  0.70903000  0.17392000  1.0
  C  C161  1  0.61361000  0.79097000  0.67393000  1.0
  C  C162  1  0.61360000  0.29097000  0.82608000  1.0
  C  C163  1  0.38637000  0.20904000  0.32607000  1.0
  C  C164  1  0.30992000  0.83066000  0.19018000  1.0
  C  C165  1  0.69008000  0.66934000  0.69018000  1.0
  C  C166  1  0.69007000  0.16934000  0.80982000  1.0
  C  C167  1  0.30990000  0.33067000  0.30982000  1.0
  C  C168  1  0.37369000  0.92839000  0.18085000  1.0
  C  C169  1  0.62631000  0.57161000  0.68085000  1.0
  C  C170  1  0.62631000  0.07160000  0.81915000  1.0
  C  C171  1  0.37367000  0.42840000  0.31915000  1.0
  C  C172  1  0.29737000  0.04341000  0.19513000  1.0
  C  C173  1  0.70264000  0.45659000  0.69513000  1.0
  C  C174  1  0.70264000  0.95659000  0.80488000  1.0
  C  C175  1  0.29736000  0.54341000  0.30488000  1.0
  C  C176  1  0.35666000  0.14877000  0.18408000  1.0
  C  C177  1  0.64334000  0.35122000  0.68408000  1.0
  C  C178  1  0.64335000  0.85122000  0.81592000  1.0
  C  C179  1  0.35665000  0.64878000  0.31592000  1.0
  C  C180  1  0.24153000  0.26128000  0.17892000  1.0
  C  C181  1  0.75848000  0.23871000  0.67892000  1.0
  C  C182  1  0.75848000  0.73871000  0.82108000  1.0
  C  C183  1  0.24152000  0.76129000  0.32108000  1.0
  C  C184  1  0.29909000  0.35872000  0.16759000  1.0
  C  C185  1  0.70091000  0.14128000  0.66759000  1.0
  C  C186  1  0.70091000  0.64128000  0.83241000  1.0
  C  C187  1  0.29909000  0.85873000  0.33241000  1.0
  C  C188  1  0.57529000  0.24356000  0.16661000  1.0
  C  C189  1  0.42471000  0.25643000  0.66661000  1.0
  C  C190  1  0.42472000  0.75643000  0.83339000  1.0
  C  C191  1  0.57528000  0.74357000  0.33333333  1.0
  C  C192  1  0.52689000  0.14148000  0.17760000  1.0
  C  C193  1  0.47311000  0.35851000  0.67760000  1.0
  C  C194  1  0.47312000  0.85851000  0.82240000  1.0
  C  C195  1  0.52688000  0.64149000  0.32240000  1.0
  C  C196  1  0.15842000  0.05830000  0.21932000  1.0
  C  C197  1  0.84159000  0.44169000  0.71932000  1.0
  C  C198  1  0.84159000  0.94169000  0.78068000  1.0
  C  C199  1  0.15841000  0.55831000  0.28068000  1.0
  C  C200  1  0.09460000  0.96090000  0.22912000  1.0
  C  C201  1  0.90541000  0.53910000  0.72912000  1.0
  C  C202  1  0.90541000  0.03910000  0.77088000  1.0
  C  C203  1  0.09458000  0.46091000  0.27088000  1.0
  C  C204  1  0.17088000  0.84709000  0.21413000  1.0
  C  C205  1  0.82913000  0.65291000  0.71413000  1.0
  C  C206  1  0.82912000  0.15292000  0.78587000  1.0
  C  C207  1  0.17085000  0.34710000  0.28587000  1.0
  C  C208  1  0.95283000  0.97659000  0.25568000  1.0
  C  C209  1  0.04720000  0.52341000  0.75567000  1.0
  C  C210  1  0.04719000  0.02341000  0.74433000  1.0
  C  C211  1  0.95280000  0.47660000  0.24433000  1.0
  C  C212  1  0.94461000  0.04754000  0.28847000  1.0
  C  C213  1  0.05541000  0.45246000  0.78847000  1.0
  C  C214  1  0.05540000  0.95246000  0.71153000  1.0
  C  C215  1  0.94460000  0.54755000  0.21153000  1.0
  C  C216  1  0.81604000  0.05322000  0.31440000  1.0
  C  C217  1  0.18398000  0.44679000  0.81439000  1.0
  C  C218  1  0.18397000  0.94679000  0.68561000  1.0
  C  C219  1  0.81604000  0.55322000  0.18560000  1.0
  C  C220  1  0.69760000  0.93216000  0.27697000  1.0
  C  C221  1  0.30242000  0.56784000  0.77697000  1.0
  C  C222  1  0.30241000  0.06785000  0.72303000  1.0
  C  C223  1  0.69758000  0.43216000  0.22303000  1.0
  C  C224  1  0.82426000  0.91893000  0.25001000  1.0
  C  C225  1  0.17577000  0.58107000  0.75000000  1.0
  C  C226  1  0.17576000  0.08107000  0.75000000  1.0
  C  C227  1  0.82423000  0.41895000  0.24999000  1.0
  N  N228  1  0.65408000  0.45802000  0.89995000  1.0
  N  N229  1  0.34592000  0.04199000  0.39996000  1.0
  N  N230  1  0.34593000  0.54196000  0.10004000  1.0
  N  N231  1  0.65407000  0.95802000  0.60004000  1.0
  N  N232  1  0.71454000  0.04779000  0.03776000  1.0
  N  N233  1  0.28547000  0.45223000  0.53777000  1.0
  N  N234  1  0.28545000  0.95222000  0.96223000  1.0
  N  N235  1  0.71455000  0.54779000  0.46224000  1.0
  N  N236  1  0.46286000  0.35123000  0.16164000  1.0
  N  N237  1  0.53713000  0.14877000  0.66164000  1.0
  N  N238  1  0.53714000  0.64877000  0.83836000  1.0
  N  N239  1  0.46286000  0.85124000  0.33836000  1.0
  N  N240  1  0.69488000  0.99559000  0.30919000  1.0
  N  N241  1  0.30513000  0.50441000  0.80919000  1.0
  N  N242  1  0.30512000  0.00442000  0.69081000  1.0
  N  N243  1  0.69487000  0.49559000  0.19080000  1.0
  O  O244  1  0.70383000  0.45067000  0.10700000  1.0
  O  O245  1  0.29617000  0.04932000  0.60700000  1.0
  O  O246  1  0.29618000  0.54933000  0.89300000  1.0
  O  O247  1  0.70384000  0.95067000  0.39300000  1.0
  O  O248  1  0.90164000  0.30676000  0.13797000  1.0
  O  O249  1  0.09837000  0.19324000  0.63797000  1.0
  O  O250  1  0.09837000  0.69324000  0.86203000  1.0
  O  O251  1  0.90165000  0.80675000  0.36203000  1.0
  O  O252  1  0.50276000  0.69660000  0.14914000  1.0
  O  O253  1  0.49722000  0.80341000  0.64915000  1.0
  O  O254  1  0.49722000  0.30340000  0.85086000  1.0
  O  O255  1  0.50276000  0.19659000  0.35085000  1.0
  O  O256  1  0.33138000  0.61975000  0.18432000  1.0
  O  O257  1  0.66861000  0.88025000  0.68433000  1.0
  O  O258  1  0.66860000  0.38025000  0.81568000  1.0
  O  O259  1  0.33136000  0.11976000  0.31568000  1.0
