# generated using pymatgen
data_TlH18C16N4O
_symmetry_space_group_name_H-M   'P 1'
_cell_length_a   7.61846000
_cell_length_b   9.76659000
_cell_length_c   11.36890000
_cell_angle_alpha   108.44400000
_cell_angle_beta   97.57740000
_cell_angle_gamma   92.38760000
_symmetry_Int_Tables_number   1
_chemical_formula_structural   TlH18C16N4O
_chemical_formula_sum   'Tl2 H36 C32 N8 O2'
_cell_volume   792.32607304
_cell_formula_units_Z   2
loop_
 _symmetry_equiv_pos_site_id
 _symmetry_equiv_pos_as_xyz
  1  'x, y, z'
loop_
 _atom_site_type_symbol
 _atom_site_label
 _atom_site_symmetry_multiplicity
 _atom_site_fract_x
 _atom_site_fract_y
 _atom_site_fract_z
 _atom_site_occupancy
  Tl  Tl0  1  0.24424000  0.08315000  0.40506000  1.0
  Tl  Tl1  1  0.75576000  0.91685000  0.59494000  1.0
  H  H2  1  0.00725000  0.24467000  0.29247000  1.0
  H  H3  1  0.99275000  0.75533000  0.70753000  1.0
  H  H4  1  0.34865000  0.76909000  0.29159000  1.0
  H  H5  1  0.65135000  0.23091000  0.70841000  1.0
  H  H6  1  0.27598000  0.56565000  0.09329000  1.0
  H  H7  1  0.72401000  0.43435000  0.90671000  1.0
  H  H8  1  0.05844000  0.58882000  0.91708000  1.0
  H  H9  1  0.94155000  0.41118000  0.08293000  1.0
  H  H10  1  0.91267000  0.81526000  0.94225000  1.0
  H  H11  1  0.08733000  0.18474000  0.05775000  1.0
  H  H12  1  0.98126000  0.02081000  0.14283000  1.0
  H  H13  1  0.01874000  0.97919000  0.85717000  1.0
  H  H14  1  0.13841000  0.15858000  0.67773000  1.0
  H  H15  1  0.86158000  0.84142000  0.32226000  1.0
  H  H16  1  0.21947000  0.35295000  0.88024000  1.0
  H  H17  1  0.78052000  0.64705000  0.11976000  1.0
  H  H18  1  0.42480000  0.56727000  0.89834000  1.0
  H  H19  1  0.57520000  0.43273000  0.10166000  1.0
  H  H20  1  0.55000000  0.58266000  0.71062000  1.0
  H  H21  1  0.45000000  0.41734000  0.28938000  1.0
  H  H22  1  0.47582000  0.38382000  0.50795000  1.0
  H  H23  1  0.52418000  0.61618000  0.49205000  1.0
  H  H24  1  0.62330000  0.22384000  0.14257000  1.0
  H  H25  1  0.37670000  0.77616000  0.85743000  1.0
  H  H26  1  0.41759000  0.17091000  0.18016000  1.0
  H  H27  1  0.58241000  0.82909000  0.81984000  1.0
  H  H28  1  0.53126000  0.08960000  0.91368000  1.0
  H  H29  1  0.46874000  0.91040000  0.08632000  1.0
  H  H30  1  0.32139000  0.03956000  0.94529000  1.0
  H  H31  1  0.67861000  0.96044000  0.05471000  1.0
  H  H32  1  0.95873000  0.46719000  0.34648000  1.0
  H  H33  1  0.04126000  0.53281000  0.65352000  1.0
  H  H34  1  0.15895000  0.51231000  0.29662000  1.0
  H  H35  1  0.84105000  0.48769000  0.70338000  1.0
  H  H36  1  0.16641000  0.48877000  0.44681000  1.0
  H  H37  1  0.83359000  0.51123000  0.55319000  1.0
  C  C38  1  0.17054000  0.90956000  0.23047000  1.0
  C  C39  1  0.82946000  0.09044000  0.76953000  1.0
  C  C40  1  0.25286000  0.78084000  0.21593000  1.0
  C  C41  1  0.74714000  0.21916000  0.78407000  1.0
  C  C42  1  0.21172000  0.66563000  0.10335000  1.0
  C  C43  1  0.78827000  0.33437000  0.89665000  1.0
  C  C44  1  0.08996000  0.67842000  0.00499000  1.0
  C  C45  1  0.91004000  0.32157000  0.99501000  1.0
  C  C46  1  0.00768000  0.80659000  0.01963000  1.0
  C  C47  1  0.99232000  0.19341000  0.98037000  1.0
  C  C48  1  0.04774000  0.92205000  0.13226000  1.0
  C  C49  1  0.95227000  0.07795000  0.86774000  1.0
  C  C50  1  0.30157000  0.25821000  0.57895000  1.0
  C  C51  1  0.69843000  0.74179000  0.42105000  1.0
  C  C52  1  0.22981000  0.25028000  0.68390000  1.0
  C  C53  1  0.77019000  0.74972000  0.31610000  1.0
  C  C54  1  0.27526000  0.36108000  0.79886000  1.0
  C  C55  1  0.72473000  0.63892000  0.20114000  1.0
  C  C56  1  0.38996000  0.48080000  0.80855000  1.0
  C  C57  1  0.61004000  0.51920000  0.19145000  1.0
  C  C58  1  0.46004000  0.48961000  0.70339000  1.0
  C  C59  1  0.53996000  0.51038000  0.29661000  1.0
  C  C60  1  0.41695000  0.37774000  0.58876000  1.0
  C  C61  1  0.58305000  0.62225000  0.41124000  1.0
  C  C62  1  0.64884000  0.13449000  0.28957000  1.0
  C  C63  1  0.35116000  0.86551000  0.71043000  1.0
  C  C64  1  0.55301000  0.13969000  0.16848000  1.0
  C  C65  1  0.44699000  0.86031000  0.83152000  1.0
  C  C66  1  0.54344000  0.99438000  0.06244000  1.0
  C  C67  1  0.45656000  0.00563000  0.93756000  1.0
  C  C68  1  0.10046000  0.44894000  0.34846000  1.0
  C  C69  1  0.89954000  0.55107000  0.65154000  1.0
  N  N70  1  0.57512000  0.09342000  0.37570000  1.0
  N  N71  1  0.42488000  0.90658000  0.62430000  1.0
  N  N72  1  0.82588000  0.16104000  0.32522000  1.0
  N  N73  1  0.17413000  0.83896000  0.67478000  1.0
  N  N74  1  0.71081000  0.09500000  0.46517000  1.0
  N  N75  1  0.28919000  0.90500000  0.53483000  1.0
  N  N76  1  0.86127000  0.13450000  0.43473000  1.0
  N  N77  1  0.13873000  0.86550000  0.56527000  1.0
  O  O78  1  0.12212000  0.29809000  0.29074000  1.0
  O  O79  1  0.87788000  0.70191000  0.70926000  1.0
