# generated using pymatgen
data_ZnH12C16SN2O5
_symmetry_space_group_name_H-M   'P 1'
_cell_length_a   7.53758000
_cell_length_b   9.88331000
_cell_length_c   12.40632161
_cell_angle_alpha   68.47583036
_cell_angle_beta   81.02677924
_cell_angle_gamma   70.22030000
_symmetry_Int_Tables_number   1
_chemical_formula_structural   ZnH12C16SN2O5
_chemical_formula_sum   'Zn2 H24 C32 S2 N4 O10'
_cell_volume   808.51117801
_cell_formula_units_Z   2
loop_
 _symmetry_equiv_pos_site_id
 _symmetry_equiv_pos_as_xyz
  1  'x, y, z'
loop_
 _atom_site_type_symbol
 _atom_site_label
 _atom_site_symmetry_multiplicity
 _atom_site_fract_x
 _atom_site_fract_y
 _atom_site_fract_z
 _atom_site_occupancy
  Zn  Zn0  1  0.44017000  0.15387000  0.79260000  1.0
  Zn  Zn1  1  0.55983000  0.84614000  0.20740000  1.0
  H  H2  1  0.14040000  0.16759000  0.90449000  1.0
  H  H3  1  0.85960000  0.83242000  0.09551000  1.0
  H  H4  1  0.26881000  0.02304000  0.99135000  1.0
  H  H5  1  0.73120000  0.97694000  0.00865000  1.0
  H  H6  1  0.41655000  0.24754000  0.35781000  1.0
  H  H7  1  0.58346000  0.75245000  0.64219000  1.0
  H  H8  1  0.85468000  0.46798000  0.37352000  1.0
  H  H9  1  0.14533000  0.53202000  0.62648000  1.0
  H  H10  1  0.61945000  0.35404000  0.35772000  1.0
  H  H11  1  0.38057000  0.64596000  0.64227000  1.0
  H  H12  1  0.05896000  0.98841000  0.57829000  1.0
  H  H13  1  0.94105000  0.01156000  0.42171000  1.0
  H  H14  1  0.36599000  0.65403000  0.93923000  1.0
  H  H15  1  0.63399000  0.34600000  0.06078000  1.0
  H  H16  1  0.18783000  0.11473000  0.37701000  1.0
  H  H17  1  0.81219000  0.88526000  0.62299000  1.0
  H  H18  1  0.93184000  0.44307000  0.57417000  1.0
  H  H19  1  0.06817000  0.55693000  0.42582000  1.0
  H  H20  1  0.75586000  0.31000000  0.74693000  1.0
  H  H21  1  0.24412000  0.69000000  0.25308000  1.0
  H  H22  1  0.05929000  0.88593000  0.93239000  1.0
  H  H23  1  0.94071000  0.11406000  0.06761000  1.0
  H  H24  1  0.16783000  0.01360000  0.74857000  1.0
  H  H25  1  0.83218000  0.98639000  0.25144000  1.0
  C  C26  1  0.56208000  0.27260000  0.54369000  1.0
  C  C27  1  0.43791000  0.72740000  0.45631000  1.0
  C  C28  1  0.35970000  0.19676000  0.44391000  1.0
  C  C29  1  0.64032000  0.80324000  0.55609000  1.0
  C  C30  1  0.78702000  0.40841000  0.45245000  1.0
  C  C31  1  0.21299000  0.59157000  0.54755000  1.0
  C  C32  1  0.41598000  0.20261000  0.54398000  1.0
  C  C33  1  0.58403000  0.79739000  0.45603000  1.0
  C  C34  1  0.65275000  0.34556000  0.44276000  1.0
  C  C35  1  0.34724000  0.65444000  0.55724000  1.0
  C  C36  1  0.71642000  0.88000000  0.84813000  1.0
  C  C37  1  0.28357000  0.12000000  0.15186000  1.0
  C  C38  1  0.91017000  0.77431000  0.87076000  1.0
  C  C39  1  0.08982000  0.22569000  0.12923000  1.0
  C  C40  1  0.20070000  0.56055000  0.87182000  1.0
  C  C41  1  0.79930000  0.43944000  0.12819000  1.0
  C  C42  1  0.15888000  0.05122000  0.56503000  1.0
  C  C43  1  0.84113000  0.94877000  0.43496000  1.0
  C  C44  1  0.23049000  0.66606000  0.91038000  1.0
  C  C45  1  0.76948000  0.33396000  0.08963000  1.0
  C  C46  1  0.22928000  0.12021000  0.45516000  1.0
  C  C47  1  0.77074000  0.87979000  0.54484000  1.0
  C  C48  1  0.82800000  0.39618000  0.56213000  1.0
  C  C49  1  0.17200000  0.60382000  0.43786000  1.0
  C  C50  1  0.33822000  0.41930000  0.85705000  1.0
  C  C51  1  0.66180000  0.58070000  0.14296000  1.0
  C  C52  1  0.73333000  0.32115000  0.65889000  1.0
  C  C53  1  0.26667000  0.67884000  0.34111000  1.0
  C  C54  1  0.06449000  0.78836000  0.90934000  1.0
  C  C55  1  0.93548000  0.21166000  0.09065000  1.0
  C  C56  1  0.21797000  0.06432000  0.66047000  1.0
  C  C57  1  0.78203000  0.93568000  0.33953000  1.0
  S  S58  1  0.96958000  0.61023000  0.83641000  1.0
  S  S59  1  0.03042000  0.38977000  0.16359000  1.0
  N  N60  1  0.34165000  0.13922000  0.64961000  1.0
  N  N61  1  0.65833000  0.86079000  0.35039000  1.0
  N  N62  1  0.60433000  0.26121000  0.64912000  1.0
  N  N63  1  0.39566000  0.73879000  0.35088000  1.0
  O  O64  1  0.22349000  0.06493000  0.90981000  1.0
  O  O65  1  0.77651000  0.93508000  0.09018000  1.0
  O  O66  1  0.50682000  0.37911000  0.88106000  1.0
  O  O67  1  0.49320000  0.62091000  0.11894000  1.0
  O  O68  1  0.67061000  0.00182000  0.87899000  1.0
  O  O69  1  0.32936000  0.99817000  0.12101000  1.0
  O  O70  1  0.26498000  0.34718000  0.81475000  1.0
  O  O71  1  0.73504000  0.65282000  0.18526000  1.0
  O  O72  1  0.60762000  0.85480000  0.79672000  1.0
  O  O73  1  0.39236000  0.14521000  0.20327000  1.0
