# generated using pymatgen
data_NdH6C7(NO4)2
_symmetry_space_group_name_H-M   'P 1'
_cell_length_a   6.27484000
_cell_length_b   6.52211768
_cell_length_c   13.48870000
_cell_angle_alpha   91.77686603
_cell_angle_beta   100.20010000
_cell_angle_gamma   111.09871542
_symmetry_Int_Tables_number   1
_chemical_formula_structural   NdH6C7(NO4)2
_chemical_formula_sum   'Nd2 H12 C14 N4 O16'
_cell_volume   504.17540669
_cell_formula_units_Z   2
loop_
 _symmetry_equiv_pos_site_id
 _symmetry_equiv_pos_as_xyz
  1  'x, y, z'
loop_
 _atom_site_type_symbol
 _atom_site_label
 _atom_site_symmetry_multiplicity
 _atom_site_fract_x
 _atom_site_fract_y
 _atom_site_fract_z
 _atom_site_occupancy
  Nd  Nd0  1  0.56904000  0.38330000  0.22621000  1.0
  Nd  Nd1  1  0.43097000  0.61668000  0.77380000  1.0
  H  H2  1  0.62342000  0.96903000  0.03170000  1.0
  H  H3  1  0.04430000  0.81867000  0.61149000  1.0
  H  H4  1  0.47648000  0.92746000  0.32643000  1.0
  H  H5  1  0.36718000  0.06697000  0.38510000  1.0
  H  H6  1  0.08351000  0.57691000  0.22799000  1.0
  H  H7  1  0.09984000  0.80746000  0.26783000  1.0
  H  H8  1  0.37656000  0.03096000  0.96829000  1.0
  H  H9  1  0.95568000  0.18130000  0.38851000  1.0
  H  H10  1  0.52353000  0.07254000  0.67357000  1.0
  H  H11  1  0.63284000  0.93304000  0.61491000  1.0
  H  H12  1  0.91651000  0.42312000  0.77198000  1.0
  H  H13  1  0.90010000  0.19253000  0.73217000  1.0
  C  C14  1  0.97688000  0.18210000  0.18957000  1.0
  C  C15  1  0.99024000  0.07856000  0.09111000  1.0
  C  C16  1  0.79042000  0.98248000  0.01537000  1.0
  C  C17  1  0.70192000  0.73636000  0.43814000  1.0
  C  C18  1  0.85812000  0.61013000  0.47155000  1.0
  C  C19  1  0.02503000  0.67660000  0.56167000  1.0
  C  C20  1  0.41949000  0.55986000  0.01275000  1.0
  C  C21  1  0.02311000  0.81789000  0.81043000  1.0
  C  C22  1  0.00976000  0.92146000  0.90887000  1.0
  C  C23  1  0.20957000  0.01753000  0.98461000  1.0
  C  C24  1  0.29810000  0.26364000  0.56186000  1.0
  C  C25  1  0.14189000  0.38987000  0.52844000  1.0
  C  C26  1  0.97497000  0.32339000  0.43832000  1.0
  C  C27  1  0.58050000  0.44017000  0.98730000  1.0
  N  N28  1  0.20189000  0.09761000  0.07583000  1.0
  N  N29  1  0.83517000  0.43409000  0.41009000  1.0
  N  N30  1  0.79810000  0.90240000  0.92415000  1.0
  N  N31  1  0.16483000  0.56590000  0.58991000  1.0
  O  O32  1  0.16738000  0.31851000  0.24267000  1.0
  O  O33  1  0.77869000  0.13682000  0.21198000  1.0
  O  O34  1  0.59507000  0.69436000  0.34473000  1.0
  O  O35  1  0.68916000  0.87472000  0.50104000  1.0
  O  O36  1  0.41265000  0.59102000  0.10509000  1.0
  O  O37  1  0.31142000  0.62061000  0.93857000  1.0
  O  O38  1  0.38868000  0.02781000  0.31637000  1.0
  O  O39  1  0.98502000  0.66246000  0.23510000  1.0
  O  O40  1  0.83261000  0.68148000  0.75732000  1.0
  O  O41  1  0.22132000  0.86315000  0.78802000  1.0
  O  O42  1  0.40497000  0.30565000  0.65528000  1.0
  O  O43  1  0.31089000  0.12529000  0.49897000  1.0
  O  O44  1  0.58739000  0.40905000  0.89496000  1.0
  O  O45  1  0.68856000  0.37938000  0.06147000  1.0
  O  O46  1  0.61133000  0.97219000  0.68363000  1.0
  O  O47  1  0.01497000  0.33753000  0.76489000  1.0
