# generated using pymatgen
data_AlH18C24(N3O2)3
_symmetry_space_group_name_H-M   'P 1'
_cell_length_a   3.88340000
_cell_length_b   15.78990154
_cell_length_c   15.81810000
_cell_angle_alpha   61.00466312
_cell_angle_beta   87.52800000
_cell_angle_gamma   86.21028032
_symmetry_Int_Tables_number   1
_chemical_formula_structural   AlH18C24(N3O2)3
_chemical_formula_sum   'Al1 H18 C24 N9 O6'
_cell_volume   846.44538419
_cell_formula_units_Z   1
loop_
 _symmetry_equiv_pos_site_id
 _symmetry_equiv_pos_as_xyz
  1  'x, y, z'
loop_
 _atom_site_type_symbol
 _atom_site_label
 _atom_site_symmetry_multiplicity
 _atom_site_fract_x
 _atom_site_fract_y
 _atom_site_fract_z
 _atom_site_occupancy
  Al  Al0  1  0.96910000  0.50188000  0.00273000  1.0
  H  H1  1  0.15710000  0.38869000  0.45949000  1.0
  H  H2  1  0.72634000  0.15027000  0.45070000  1.0
  H  H3  1  0.73203000  0.39189000  0.64942000  1.0
  H  H4  1  0.28917000  0.15228000  0.89588000  1.0
  H  H5  1  0.71615000  0.95468000  0.89083000  1.0
  H  H6  1  0.23244000  0.95449000  0.65186000  1.0
  H  H7  1  0.85679000  0.27697000  0.19358000  1.0
  H  H8  1  0.95963000  0.17664000  0.30146000  1.0
  H  H9  1  0.03191000  0.52386000  0.20284000  1.0
  H  H10  1  0.91665000  0.51035000  0.31457000  1.0
  H  H11  1  0.86243000  0.52553000  0.77525000  1.0
  H  H12  1  0.94576000  0.51484000  0.67337000  1.0
  H  H13  1  0.17574000  0.27543000  0.03574000  1.0
  H  H14  1  0.10069000  0.17476000  0.02615000  1.0
  H  H15  1  0.81228000  0.69566000  0.03087000  1.0
  H  H16  1  0.91476000  0.80585000  0.01705000  1.0
  H  H17  1  0.08974000  0.69950000  0.77923000  1.0
  H  H18  1  0.00754000  0.80943000  0.67835000  1.0
  C  C19  1  0.44949000  0.65435000  0.92698000  1.0
  C  C20  1  0.45784000  0.42421000  0.15502000  1.0
  C  C21  1  0.50202000  0.42462000  0.92519000  1.0
  C  C22  1  0.49221000  0.21421000  0.71320000  1.0
  C  C23  1  0.45791000  0.21242000  0.57096000  1.0
  C  C24  1  0.47912000  0.07066000  0.71257000  1.0
  C  C25  1  0.26630000  0.40838000  0.31597000  1.0
  C  C26  1  0.28239000  0.35750000  0.41718000  1.0
  C  C27  1  0.44444000  0.26520000  0.46423000  1.0
  C  C28  1  0.60051000  0.22241000  0.41216000  1.0
  C  C29  1  0.61720000  0.27447000  0.31096000  1.0
  C  C30  1  0.44577000  0.36880000  0.26062000  1.0
  C  C31  1  0.63580000  0.36020000  0.72371000  1.0
  C  C32  1  0.65478000  0.41050000  0.77601000  1.0
  C  C33  1  0.51412000  0.36996000  0.87229000  1.0
  C  C34  1  0.37749000  0.27553000  0.91531000  1.0
  C  C35  1  0.38784000  0.22458000  0.86332000  1.0
  C  C36  1  0.50681000  0.26785000  0.76776000  1.0
  C  C37  1  0.60637000  0.91411000  0.86003000  1.0
  C  C38  1  0.61125000  0.81271000  0.91239000  1.0
  C  C39  1  0.45621000  0.75996000  0.87241000  1.0
  C  C40  1  0.31237000  0.81307000  0.77740000  1.0
  C  C41  1  0.33669000  0.91403000  0.72451000  1.0
  C  C42  1  0.47547000  0.96373000  0.76661000  1.0
  N  N43  1  0.47040000  0.26561000  0.61627000  1.0
  N  N44  1  0.46032000  0.11499000  0.61554000  1.0
  N  N45  1  0.49877000  0.11691000  0.76448000  1.0
  N  N46  1  0.78227000  0.23043000  0.26237000  1.0
  N  N47  1  0.09816000  0.49872000  0.27277000  1.0
  N  N48  1  0.78610000  0.50128000  0.73045000  1.0
  N  N49  1  0.25585000  0.23007000  0.00940000  1.0
  N  N50  1  0.74569000  0.76732000  0.00410000  1.0
  N  N51  1  0.16911000  0.76709000  0.73350000  1.0
  O  O52  1  0.26544000  0.40739000  0.99070000  1.0
  O  O53  1  0.22376000  0.60962000  0.90807000  1.0
  O  O54  1  0.21915000  0.49050000  0.10963000  1.0
  O  O55  1  0.72302000  0.48930000  0.90620000  1.0
  O  O56  1  0.70748000  0.40654000  0.10823000  1.0
  O  O57  1  0.67385000  0.60632000  0.99412000  1.0
