# generated using pymatgen
data_ZnH11C10O7
_symmetry_space_group_name_H-M   'P 1'
_cell_length_a   6.53242000
_cell_length_b   9.51657000
_cell_length_c   9.89345000
_cell_angle_alpha   116.77440000
_cell_angle_beta   91.63750000
_cell_angle_gamma   100.45100000
_symmetry_Int_Tables_number   1
_chemical_formula_structural   ZnH11C10O7
_chemical_formula_sum   'Zn2 H22 C20 O14'
_cell_volume   535.71169874
_cell_formula_units_Z   2
loop_
 _symmetry_equiv_pos_site_id
 _symmetry_equiv_pos_as_xyz
  1  'x, y, z'
loop_
 _atom_site_type_symbol
 _atom_site_label
 _atom_site_symmetry_multiplicity
 _atom_site_fract_x
 _atom_site_fract_y
 _atom_site_fract_z
 _atom_site_occupancy
  Zn  Zn0  1  0.50214000  0.66440000  0.40196000  1.0
  Zn  Zn1  1  0.49786000  0.33560000  0.59804000  1.0
  H  H2  1  0.61486000  0.63871000  0.95518000  1.0
  H  H3  1  0.38514000  0.36129000  0.04482000  1.0
  H  H4  1  0.74357000  0.01702000  0.82584000  1.0
  H  H5  1  0.25641000  0.98299000  0.17416000  1.0
  H  H6  1  0.78653000  0.13519000  0.30244000  1.0
  H  H7  1  0.21348000  0.86480000  0.69754000  1.0
  H  H8  1  0.71218000  0.28104000  0.93344000  1.0
  H  H9  1  0.28783000  0.71895000  0.06656000  1.0
  H  H10  1  0.96326000  0.22980000  0.91901000  1.0
  H  H11  1  0.03675000  0.77020000  0.08101000  1.0
  H  H12  1  0.11645000  0.50307000  0.13905000  1.0
  H  H13  1  0.88356000  0.49694000  0.86094000  1.0
  H  H14  1  0.86984000  0.55595000  0.13424000  1.0
  H  H15  1  0.13015000  0.44405000  0.86575000  1.0
  H  H16  1  0.79719000  0.53309000  0.48484000  1.0
  H  H17  1  0.20281000  0.46690000  0.51516000  1.0
  H  H18  1  0.83215000  0.44637000  0.31046000  1.0
  H  H19  1  0.16785000  0.55363000  0.68954000  1.0
  H  H20  1  0.09129000  0.69300000  0.41781000  1.0
  H  H21  1  0.90871000  0.30701000  0.58219000  1.0
  H  H22  1  0.24254000  0.87357000  0.48966000  1.0
  H  H23  1  0.75747000  0.12643000  0.51033000  1.0
  C  C24  1  0.66062000  0.83052000  0.26275000  1.0
  C  C25  1  0.33936000  0.16947000  0.73726000  1.0
  C  C26  1  0.64360000  0.70387000  0.70905000  1.0
  C  C27  1  0.35641000  0.29613000  0.29096000  1.0
  C  C28  1  0.69768000  0.88184000  0.14138000  1.0
  C  C29  1  0.30232000  0.11818000  0.85861000  1.0
  C  C30  1  0.66247000  0.76633000  0.98675000  1.0
  C  C31  1  0.33752000  0.23368000  0.01325000  1.0
  C  C32  1  0.68319000  0.81821000  0.87563000  1.0
  C  C33  1  0.31680000  0.18178000  0.12437000  1.0
  C  C34  1  0.73703000  0.98291000  0.91681000  1.0
  C  C35  1  0.26297000  0.01708000  0.08319000  1.0
  C  C36  1  0.77876000  0.09666000  0.07048000  1.0
  C  C37  1  0.22124000  0.90333000  0.92954000  1.0
  C  C38  1  0.75956000  0.04593000  0.18281000  1.0
  C  C39  1  0.24046000  0.95408000  0.81721000  1.0
  C  C40  1  0.86574000  0.30459000  0.99700000  1.0
  C  C41  1  0.13426000  0.69541000  0.00299000  1.0
  C  C42  1  0.97297000  0.47973000  0.06463000  1.0
  C  C43  1  0.02703000  0.52026000  0.93536000  1.0
  O  O44  1  0.70275000  0.92911000  0.40281000  1.0
  O  O45  1  0.29724000  0.07090000  0.59719000  1.0
  O  O46  1  0.57742000  0.67930000  0.21628000  1.0
  O  O47  1  0.42257000  0.32069000  0.78371000  1.0
  O  O48  1  0.83724000  0.25923000  0.11804000  1.0
  O  O49  1  0.16276000  0.74078000  0.88197000  1.0
  O  O50  1  0.58919000  0.76122000  0.62296000  1.0
  O  O51  1  0.41080000  0.23878000  0.37704000  1.0
  O  O52  1  0.67355000  0.56041000  0.66099000  1.0
  O  O53  1  0.32645000  0.43959000  0.33902000  1.0
  O  O54  1  0.83410000  0.55232000  0.39747000  1.0
  O  O55  1  0.16590000  0.44768000  0.60253000  1.0
  O  O56  1  0.23066000  0.75560000  0.41971000  1.0
  O  O57  1  0.76934000  0.24441000  0.58028000  1.0
