# generated using pymatgen
data_CuPH13C18S(NO3)2
_symmetry_space_group_name_H-M   'P 1'
_cell_length_a   8.35874000
_cell_length_b   9.93981000
_cell_length_c   11.10870000
_cell_angle_alpha   79.49840000
_cell_angle_beta   84.67970000
_cell_angle_gamma   83.40320000
_symmetry_Int_Tables_number   1
_chemical_formula_structural   CuPH13C18S(NO3)2
_chemical_formula_sum   'Cu2 P2 H26 C36 S2 N4 O12'
_cell_volume   899.05237137
_cell_formula_units_Z   2
loop_
 _symmetry_equiv_pos_site_id
 _symmetry_equiv_pos_as_xyz
  1  'x, y, z'
loop_
 _atom_site_type_symbol
 _atom_site_label
 _atom_site_symmetry_multiplicity
 _atom_site_fract_x
 _atom_site_fract_y
 _atom_site_fract_z
 _atom_site_occupancy
  Cu  Cu0  1  0.61048000  0.54603000  0.77624000  1.0
  Cu  Cu1  1  0.38953000  0.45397000  0.22375000  1.0
  P  P2  1  0.38242000  0.68726000  0.98587000  1.0
  P  P3  1  0.61758000  0.31275000  0.01413000  1.0
  H  H4  1  0.07553000  0.67038000  0.89112000  1.0
  H  H5  1  0.92447000  0.32962000  0.10888000  1.0
  H  H6  1  0.89972000  0.09303000  0.77808000  1.0
  H  H7  1  0.10028000  0.90697000  0.22192000  1.0
  H  H8  1  0.14048000  0.16772000  0.85700000  1.0
  H  H9  1  0.85952000  0.83228000  0.14300000  1.0
  H  H10  1  0.35064000  0.99263000  0.94980000  1.0
  H  H11  1  0.64936000  0.00737000  0.05020000  1.0
  H  H12  1  0.37183000  0.81574000  0.71648000  1.0
  H  H13  1  0.62816000  0.18425000  0.28352000  1.0
  H  H14  1  0.28941000  0.96452000  0.51825000  1.0
  H  H15  1  0.71058000  0.03546000  0.48176000  1.0
  H  H16  1  0.41042000  0.90546000  0.31981000  1.0
  H  H17  1  0.58958000  0.09454000  0.68019000  1.0
  H  H18  1  0.59304000  0.73079000  0.20879000  1.0
  H  H19  1  0.40696000  0.26922000  0.79122000  1.0
  H  H20  1  0.78961000  0.52469000  0.22188000  1.0
  H  H21  1  0.21039000  0.47532000  0.77812000  1.0
  H  H22  1  0.96317000  0.33348000  0.35678000  1.0
  H  H23  1  0.03683000  0.66652000  0.64321000  1.0
  H  H24  1  0.02695000  0.21753000  0.56662000  1.0
  H  H25  1  0.97305000  0.78247000  0.43338000  1.0
  H  H26  1  0.88014000  0.31138000  0.75051000  1.0
  H  H27  1  0.11986000  0.68862000  0.24949000  1.0
  H  H28  1  0.58707000  0.81401000  0.93950000  1.0
  H  H29  1  0.41293000  0.18600000  0.06050000  1.0
  C  C30  1  0.22862000  0.81990000  0.92648000  1.0
  C  C31  1  0.77138000  0.18010000  0.07351000  1.0
  C  C32  1  0.09235000  0.77882000  0.88309000  1.0
  C  C33  1  0.90765000  0.22118000  0.11690000  1.0
  C  C34  1  0.97731000  0.87788000  0.82864000  1.0
  C  C35  1  0.02269000  0.12212000  0.17137000  1.0
  C  C36  1  0.99365000  0.01808000  0.81873000  1.0
  C  C37  1  0.00634000  0.98192000  0.18128000  1.0
  C  C38  1  0.12749000  0.05878000  0.86290000  1.0
  C  C39  1  0.87250000  0.94122000  0.13710000  1.0
  C  C40  1  0.24554000  0.96013000  0.91618000  1.0
  C  C41  1  0.75445000  0.03987000  0.08383000  1.0
  C  C42  1  0.42278000  0.79273000  0.62795000  1.0
  C  C43  1  0.57722000  0.20726000  0.37205000  1.0
  C  C44  1  0.37744000  0.87504000  0.51727000  1.0
  C  C45  1  0.62256000  0.12496000  0.48274000  1.0
  C  C46  1  0.44374000  0.84147000  0.40636000  1.0
  C  C47  1  0.55626000  0.15853000  0.59364000  1.0
  C  C48  1  0.55638000  0.72410000  0.40653000  1.0
  C  C49  1  0.44363000  0.27590000  0.59347000  1.0
  C  C50  1  0.62915000  0.67604000  0.29800000  1.0
  C  C51  1  0.37086000  0.32397000  0.70200000  1.0
  C  C52  1  0.73860000  0.56168000  0.30518000  1.0
  C  C53  1  0.26141000  0.43833000  0.69482000  1.0
  C  C54  1  0.78548000  0.48650000  0.42142000  1.0
  C  C55  1  0.21452000  0.51351000  0.57858000  1.0
  C  C56  1  0.90092000  0.37052000  0.43670000  1.0
  C  C57  1  0.09908000  0.62949000  0.56329000  1.0
  C  C58  1  0.93743000  0.30666000  0.55381000  1.0
  C  C59  1  0.06257000  0.69334000  0.44619000  1.0
  C  C60  1  0.85742000  0.35692000  0.65603000  1.0
  C  C61  1  0.14258000  0.64308000  0.34397000  1.0
  C  C62  1  0.71194000  0.53036000  0.52948000  1.0
  C  C63  1  0.28806000  0.46964000  0.47052000  1.0
  C  C64  1  0.59649000  0.64849000  0.52234000  1.0
  C  C65  1  0.40352000  0.35151000  0.47767000  1.0
  S  S66  1  0.80879000  0.82841000  0.76578000  1.0
  S  S67  1  0.19121000  0.17159000  0.23422000  1.0
  N  N68  1  0.52982000  0.68229000  0.63030000  1.0
  N  N69  1  0.47018000  0.31770000  0.36970000  1.0
  N  N70  1  0.74684000  0.46513000  0.64355000  1.0
  N  N71  1  0.25317000  0.53487000  0.35645000  1.0
  O  O72  1  0.42896000  0.60249000  0.88442000  1.0
  O  O73  1  0.57104000  0.39752000  0.11558000  1.0
  O  O74  1  0.30751000  0.61146000  0.10572000  1.0
  O  O75  1  0.69249000  0.38853000  0.89428000  1.0
  O  O76  1  0.52694000  0.76282000  0.01584000  1.0
  O  O77  1  0.47307000  0.23718000  0.98415000  1.0
  O  O78  1  0.82862000  0.87622000  0.63347000  1.0
  O  O79  1  0.17138000  0.12377000  0.36654000  1.0
  O  O80  1  0.66315000  0.90048000  0.82307000  1.0
  O  O81  1  0.33685000  0.09953000  0.17692000  1.0
  O  O82  1  0.81614000  0.67812000  0.80318000  1.0
  O  O83  1  0.18385000  0.32188000  0.19682000  1.0
