# generated using pymatgen
data_AgMo4H13C15N8O13
_symmetry_space_group_name_H-M   'P 1'
_cell_length_a   10.43870000
_cell_length_b   10.45250000
_cell_length_c   12.15000000
_cell_angle_alpha   98.31740000
_cell_angle_beta   94.14050000
_cell_angle_gamma   107.35100000
_symmetry_Int_Tables_number   1
_chemical_formula_structural   AgMo4H13C15N8O13
_chemical_formula_sum   'Ag2 Mo8 H26 C30 N16 O26'
_cell_volume   1242.68661151
_cell_formula_units_Z   2
loop_
 _symmetry_equiv_pos_site_id
 _symmetry_equiv_pos_as_xyz
  1  'x, y, z'
loop_
 _atom_site_type_symbol
 _atom_site_label
 _atom_site_symmetry_multiplicity
 _atom_site_fract_x
 _atom_site_fract_y
 _atom_site_fract_z
 _atom_site_occupancy
  Ag  Ag0  1  0.34547000  0.56440000  0.47695000  1.0
  Ag  Ag1  1  0.65453000  0.43560000  0.52305000  1.0
  Mo  Mo2  1  0.85870000  0.56507000  0.11274000  1.0
  Mo  Mo3  1  0.14130000  0.43493000  0.88726000  1.0
  Mo  Mo4  1  0.32046000  0.59683000  0.13406000  1.0
  Mo  Mo5  1  0.67954000  0.40317000  0.86594000  1.0
  Mo  Mo6  1  0.57223000  0.46742000  0.22492000  1.0
  Mo  Mo7  1  0.42777000  0.53258000  0.77508000  1.0
  Mo  Mo8  1  0.59083000  0.68027000  0.01465000  1.0
  Mo  Mo9  1  0.40917000  0.31973000  0.98535000  1.0
  H  H10  1  0.53739000  0.77624000  0.33920000  1.0
  H  H11  1  0.46261000  0.22376000  0.66080000  1.0
  H  H12  1  0.52883000  0.84323000  0.68838000  1.0
  H  H13  1  0.47117000  0.15677000  0.31162000  1.0
  H  H14  1  0.72730000  0.18003000  0.61020000  1.0
  H  H15  1  0.27269000  0.81997000  0.38980000  1.0
  H  H16  1  0.69352000  0.10014000  0.72986000  1.0
  H  H17  1  0.30648000  0.89985000  0.27014000  1.0
  H  H18  1  0.78528000  0.16368000  0.44366000  1.0
  H  H19  1  0.21473000  0.83632000  0.55634000  1.0
  H  H20  1  0.84060000  0.33363000  0.31480000  1.0
  H  H21  1  0.15940000  0.66637000  0.68520000  1.0
  H  H22  1  0.07852000  0.48315000  0.32443000  1.0
  H  H23  1  0.92148000  0.51685000  0.67557000  1.0
  H  H24  1  0.20507000  0.31308000  0.58418000  1.0
  H  H25  1  0.79493000  0.68692000  0.41582000  1.0
  H  H26  1  0.28195000  0.03513000  0.72673000  1.0
  H  H27  1  0.71805000  0.96487000  0.27327000  1.0
  H  H28  1  0.41360000  0.93915000  0.86125000  1.0
  H  H29  1  0.58640000  0.06085000  0.13875000  1.0
  H  H30  1  0.07900000  0.79689000  0.02415000  1.0
  H  H31  1  0.92100000  0.20311000  0.97585000  1.0
  H  H32  1  0.93214000  0.88159000  0.89593000  1.0
  H  H33  1  0.06786000  0.11841000  0.10407000  1.0
  H  H34  1  0.29949000  0.82902000  0.99876000  1.0
  H  H35  1  0.70051000  0.17098000  0.00124000  1.0
  C  C36  1  0.55625000  0.82562000  0.42648000  1.0
  C  C37  1  0.44375000  0.17438000  0.57352000  1.0
  C  C38  1  0.55053000  0.85669000  0.60390000  1.0
  C  C39  1  0.44947000  0.14331000  0.39610000  1.0
  C  C40  1  0.72703000  0.09000000  0.64641000  1.0
  C  C41  1  0.27297000  0.91000000  0.35359000  1.0
  C  C42  1  0.97566000  0.13594000  0.60863000  1.0
  C  C43  1  0.02434000  0.86406000  0.39137000  1.0
  C  C44  1  0.99110000  0.22780000  0.52689000  1.0
  C  C45  1  0.00890000  0.77220000  0.47311000  1.0
  C  C46  1  0.88718000  0.23438000  0.45027000  1.0
  C  C47  1  0.11282000  0.76562000  0.54973000  1.0
  C  C48  1  0.91790000  0.32728000  0.37708000  1.0
  C  C49  1  0.08210000  0.67272000  0.62292000  1.0
  C  C50  1  0.05021000  0.41100000  0.38160000  1.0
  C  C51  1  0.94979000  0.58900000  0.61840000  1.0
  C  C52  1  0.12248000  0.31549000  0.52544000  1.0
  C  C53  1  0.87752000  0.68451000  0.47456000  1.0
  C  C54  1  0.02173000  0.02228000  0.72896000  1.0
  C  C55  1  0.97827000  0.97772000  0.27104000  1.0
  C  C56  1  0.09845000  0.96607000  0.80260000  1.0
  C  C57  1  0.90155000  0.03393000  0.19740000  1.0
  C  C58  1  0.23504000  0.98261000  0.79150000  1.0
  C  C59  1  0.76496000  0.01739000  0.20850000  1.0
  C  C60  1  0.30794000  0.93190000  0.86361000  1.0
  C  C61  1  0.69205000  0.06810000  0.13639000  1.0
  C  C62  1  0.11618000  0.85020000  0.95652000  1.0
  C  C63  1  0.88382000  0.14980000  0.04348000  1.0
  C  C64  1  0.03824000  0.89760000  0.88613000  1.0
  C  C65  1  0.96176000  0.10240000  0.11387000  1.0
  N  N66  1  0.49738000  0.76482000  0.51093000  1.0
  N  N67  1  0.50262000  0.23518000  0.48907000  1.0
  N  N68  1  0.64048000  0.94996000  0.46220000  1.0
  N  N69  1  0.35952000  0.05004000  0.53780000  1.0
  N  N70  1  0.63568000  0.96845000  0.57511000  1.0
  N  N71  1  0.36432000  0.03155000  0.42489000  1.0
  N  N72  1  0.86254000  0.08037000  0.65866000  1.0
  N  N73  1  0.13746000  0.91964000  0.34133000  1.0
  N  N74  1  0.89075000  0.00768000  0.73480000  1.0
  N  N75  1  0.10925000  0.99232000  0.26520000  1.0
  N  N76  1  0.07704000  0.09902000  0.65237000  1.0
  N  N77  1  0.92296000  0.90098000  0.34763000  1.0
  N  N78  1  0.15113000  0.40569000  0.45555000  1.0
  N  N79  1  0.84887000  0.59431000  0.54445000  1.0
  N  N80  1  0.24724000  0.86894000  0.94352000  1.0
  N  N81  1  0.75276000  0.13106000  0.05648000  1.0
  O  O82  1  0.01267000  0.68642000  0.15508000  1.0
  O  O83  1  0.98733000  0.31358000  0.84492000  1.0
  O  O84  1  0.75196000  0.58407000  0.23330000  1.0
  O  O85  1  0.24805000  0.41593000  0.76670000  1.0
  O  O86  1  0.88230000  0.41560000  0.13678000  1.0
  O  O87  1  0.11771000  0.58441000  0.86322000  1.0
  O  O88  1  0.83768000  0.52644000  0.95055000  1.0
  O  O89  1  0.16232000  0.47356000  0.04945000  1.0
  O  O90  1  0.31279000  0.75477000  0.11245000  1.0
  O  O91  1  0.68721000  0.24523000  0.88755000  1.0
  O  O92  1  0.28379000  0.59093000  0.26940000  1.0
  O  O93  1  0.71621000  0.40907000  0.73060000  1.0
  O  O94  1  0.52253000  0.65721000  0.15927000  1.0
  O  O95  1  0.47747000  0.34279000  0.84073000  1.0
  O  O96  1  0.53375000  0.52379000  0.35582000  1.0
  O  O97  1  0.46625000  0.47621000  0.64418000  1.0
  O  O98  1  0.59789000  0.31443000  0.23570000  1.0
  O  O99  1  0.40211000  0.68557000  0.76430000  1.0
  O  O100  1  0.39036000  0.40072000  0.13784000  1.0
  O  O101  1  0.60964000  0.59928000  0.86216000  1.0
  O  O102  1  0.60427000  0.45514000  0.03725000  1.0
  O  O103  1  0.39572000  0.54486000  0.96275000  1.0
  O  O104  1  0.56339000  0.82793000  0.99096000  1.0
  O  O105  1  0.43661000  0.17207000  0.00904000  1.0
  O  O106  1  0.76380000  0.72423000  0.06558000  1.0
  O  O107  1  0.23619000  0.27576000  0.93442000  1.0
