# generated using pymatgen
data_ZnH9C12Br2N3O
_symmetry_space_group_name_H-M   'P 1'
_cell_length_a   7.28422000
_cell_length_b   12.05660000
_cell_length_c   15.00540000
_cell_angle_alpha   89.99990000
_cell_angle_beta   89.99990000
_cell_angle_gamma   96.91120000
_symmetry_Int_Tables_number   1
_chemical_formula_structural   ZnH9C12Br2N3O
_chemical_formula_sum   'Zn4 H36 C48 Br8 N12 O4'
_cell_volume   1308.24266774
_cell_formula_units_Z   4
loop_
 _symmetry_equiv_pos_site_id
 _symmetry_equiv_pos_as_xyz
  1  'x, y, z'
loop_
 _atom_site_type_symbol
 _atom_site_label
 _atom_site_symmetry_multiplicity
 _atom_site_fract_x
 _atom_site_fract_y
 _atom_site_fract_z
 _atom_site_occupancy
  Zn  Zn0  1  0.81858000  0.42673000  0.23644000  1.0
  Zn  Zn1  1  0.68142000  0.07327000  0.73644000  1.0
  Zn  Zn2  1  0.18142000  0.57327000  0.76356000  1.0
  Zn  Zn3  1  0.31859000  0.92673000  0.26356000  1.0
  H  H4  1  0.71711000  0.57400000  0.83012000  1.0
  H  H5  1  0.78289000  0.92600000  0.33012000  1.0
  H  H6  1  0.28289000  0.42600000  0.16988000  1.0
  H  H7  1  0.21711000  0.07400000  0.66988000  1.0
  H  H8  1  0.79934000  0.77197000  0.87947000  1.0
  H  H9  1  0.70066000  0.72803000  0.37947000  1.0
  H  H10  1  0.20066000  0.22803000  0.12053000  1.0
  H  H11  1  0.29934000  0.27197000  0.62053000  1.0
  H  H12  1  0.85280000  0.81813000  0.03928000  1.0
  H  H13  1  0.64720000  0.68187000  0.53928000  1.0
  H  H14  1  0.14719000  0.18187000  0.96072000  1.0
  H  H15  1  0.35280000  0.31813000  0.46072000  1.0
  H  H16  1  0.84147000  0.66991000  0.15432000  1.0
  H  H17  1  0.65853000  0.83009000  0.65432000  1.0
  H  H18  1  0.15853000  0.33009000  0.84569000  1.0
  H  H19  1  0.34146000  0.16991000  0.34568000  1.0
  H  H20  1  0.54562000  0.25440000  0.19522000  1.0
  H  H21  1  0.95437000  0.24560000  0.69522000  1.0
  H  H22  1  0.45439000  0.74560000  0.80478000  1.0
  H  H23  1  0.04562000  0.75440000  0.30478000  1.0
  H  H24  1  0.80608000  0.18404000  0.94333000  1.0
  H  H25  1  0.69392000  0.31596000  0.44333000  1.0
  H  H26  1  0.19393000  0.81596000  0.05667000  1.0
  H  H27  1  0.30608000  0.68404000  0.55667000  1.0
  H  H28  1  0.76547000  0.98458000  0.98606000  1.0
  H  H29  1  0.73453000  0.51542000  0.48606000  1.0
  H  H30  1  0.23453000  0.01542000  0.01394000  1.0
  H  H31  1  0.26547000  0.48458000  0.51394000  1.0
  H  H32  1  0.62146000  0.92769000  0.13622000  1.0
  H  H33  1  0.87854000  0.57232000  0.63622000  1.0
  H  H34  1  0.37854000  0.07231000  0.86378000  1.0
  H  H35  1  0.12145000  0.42769000  0.36378000  1.0
  H  H36  1  0.66428000  0.35003000  0.90600000  1.0
  H  H37  1  0.83572000  0.14997000  0.40601000  1.0
  H  H38  1  0.33572000  0.64997000  0.09399000  1.0
  H  H39  1  0.16429000  0.85003000  0.59399000  1.0
  C  C40  1  0.73722000  0.51242000  0.96571000  1.0
  C  C41  1  0.76277000  0.98758000  0.46571000  1.0
  C  C42  1  0.26278000  0.48758000  0.03429000  1.0
  C  C43  1  0.23722000  0.01241000  0.53429000  1.0
  C  C44  1  0.74355000  0.59487000  0.89997000  1.0
  C  C45  1  0.75644000  0.90513000  0.39998000  1.0
  C  C46  1  0.25644000  0.40513000  0.10003000  1.0
  C  C47  1  0.24356000  0.09487000  0.60003000  1.0
  C  C48  1  0.78658000  0.70483000  0.92860000  1.0
  C  C49  1  0.71341000  0.79517000  0.42861000  1.0
  C  C50  1  0.21341000  0.29517000  0.07140000  1.0
  C  C51  1  0.28659000  0.20483000  0.57139000  1.0
  C  C52  1  0.81906000  0.73116000  0.01928000  1.0
  C  C53  1  0.68093000  0.76884000  0.51929000  1.0
  C  C54  1  0.18093000  0.26884000  0.98072000  1.0
  C  C55  1  0.31906000  0.23116000  0.48071000  1.0
  C  C56  1  0.81373000  0.64910000  0.08469000  1.0
  C  C57  1  0.68627000  0.85090000  0.58469000  1.0
  C  C58  1  0.18627000  0.35090000  0.91531000  1.0
  C  C59  1  0.31373000  0.14910000  0.41531000  1.0
  C  C60  1  0.77283000  0.53809000  0.05685000  1.0
  C  C61  1  0.72717000  0.96191000  0.55686000  1.0
  C  C62  1  0.22717000  0.46191000  0.94314000  1.0
  C  C63  1  0.27283000  0.03809000  0.44314000  1.0
  C  C64  1  0.71279000  0.35608000  0.04588000  1.0
  C  C65  1  0.78720000  0.14392000  0.54588000  1.0
  C  C66  1  0.28721000  0.64392000  0.95412000  1.0
  C  C67  1  0.21280000  0.85608000  0.45412000  1.0
  C  C68  1  0.60084000  0.20051000  0.14643000  1.0
  C  C69  1  0.89916000  0.29949000  0.64643000  1.0
  C  C70  1  0.39917000  0.79949000  0.85357000  1.0
  C  C71  1  0.10083000  0.70052000  0.35357000  1.0
  C  C72  1  0.68318000  0.23705000  0.06609000  1.0
  C  C73  1  0.81681000  0.26295000  0.56609000  1.0
  C  C74  1  0.31682000  0.76295000  0.93391000  1.0
  C  C75  1  0.18319000  0.73705000  0.43391000  1.0
  C  C76  1  0.74068000  0.15860000  0.00650000  1.0
  C  C77  1  0.75932000  0.34140000  0.50650000  1.0
  C  C78  1  0.25932000  0.84140000  0.99350000  1.0
  C  C79  1  0.24068000  0.65860000  0.49350000  1.0
  C  C80  1  0.71825000  0.04662000  0.03058000  1.0
  C  C81  1  0.78175000  0.45338000  0.53058000  1.0
  C  C82  1  0.28175000  0.95338000  0.96942000  1.0
  C  C83  1  0.21825000  0.54662000  0.46942000  1.0
  C  C84  1  0.64103000  0.01342000  0.11199000  1.0
  C  C85  1  0.85897000  0.48659000  0.61198000  1.0
  C  C86  1  0.35897000  0.98658000  0.88802000  1.0
  C  C87  1  0.14103000  0.51342000  0.38801000  1.0
  Br  Br88  1  0.55113000  0.46196000  0.31788000  1.0
  Br  Br89  1  0.94886000  0.03804000  0.81788000  1.0
  Br  Br90  1  0.44887000  0.53805000  0.68212000  1.0
  Br  Br91  1  0.05114000  0.96196000  0.18212000  1.0
  Br  Br92  1  0.94753000  0.26044000  0.28185000  1.0
  Br  Br93  1  0.55247000  0.23956000  0.78185000  1.0
  Br  Br94  1  0.05247000  0.73956000  0.71815000  1.0
  Br  Br95  1  0.44753000  0.76044000  0.21815000  1.0
  N  N96  1  0.75806000  0.43848000  0.10490000  1.0
  N  N97  1  0.74195000  0.06152000  0.60490000  1.0
  N  N98  1  0.24195000  0.56152000  0.89510000  1.0
  N  N99  1  0.25805000  0.93848000  0.39510000  1.0
  N  N100  1  0.70109000  0.39731000  0.96192000  1.0
  N  N101  1  0.79891000  0.10269000  0.46192000  1.0
  N  N102  1  0.29891000  0.60269000  0.03808000  1.0
  N  N103  1  0.20109000  0.89731000  0.53808000  1.0
  N  N104  1  0.58216000  0.09047000  0.16799000  1.0
  N  N105  1  0.91784000  0.40954000  0.66799000  1.0
  N  N106  1  0.41784000  0.90954000  0.83201000  1.0
  N  N107  1  0.08215000  0.59047000  0.33201000  1.0
  O  O108  1  0.51220000  0.06108000  0.24764000  1.0
  O  O109  1  0.98780000  0.43892000  0.74764000  1.0
  O  O110  1  0.48780000  0.93892000  0.75236000  1.0
  O  O111  1  0.01220000  0.56109000  0.25236000  1.0
