# generated using pymatgen
data_Mg3H22(C15O8)2
_symmetry_space_group_name_H-M   'P 1'
_cell_length_a   14.86780000
_cell_length_b   19.11910000
_cell_length_c   19.11700824
_cell_angle_alpha   113.50932684
_cell_angle_beta   105.01949816
_cell_angle_gamma   105.02600000
_symmetry_Int_Tables_number   1
_chemical_formula_structural   Mg3H22(C15O8)2
_chemical_formula_sum   'Mg9 H66 C90 O48'
_cell_volume   4390.96420230
_cell_formula_units_Z   3
loop_
 _symmetry_equiv_pos_site_id
 _symmetry_equiv_pos_as_xyz
  1  'x, y, z'
loop_
 _atom_site_type_symbol
 _atom_site_label
 _atom_site_symmetry_multiplicity
 _atom_site_fract_x
 _atom_site_fract_y
 _atom_site_fract_z
 _atom_site_occupancy
  Mg  Mg0  1  0.00000000  0.50000000  0.50000000  1.0
  Mg  Mg1  1  0.50000000  0.50000000  0.00000000  1.0
  Mg  Mg2  1  0.50000000  0.00000000  0.50000000  1.0
  Mg  Mg3  1  0.91278000  0.29896000  0.33165000  1.0
  Mg  Mg4  1  0.58104000  0.66835000  0.96728000  1.0
  Mg  Mg5  1  0.61396000  0.03273000  0.70111000  1.0
  Mg  Mg6  1  0.08723000  0.70104000  0.66835000  1.0
  Mg  Mg7  1  0.41896000  0.33165000  0.03272000  1.0
  Mg  Mg8  1  0.38604000  0.96727000  0.29889000  1.0
  H  H9  1  0.70166000  0.37109000  0.18294000  1.0
  H  H10  1  0.51869000  0.81729000  0.18819000  1.0
  H  H11  1  0.33087000  0.81175000  0.62903000  1.0
  H  H12  1  0.29833000  0.62891000  0.81705000  1.0
  H  H13  1  0.48131000  0.18271000  0.81181000  1.0
  H  H14  1  0.66911000  0.18825000  0.37096000  1.0
  H  H15  1  0.80568000  0.60196000  0.18218000  1.0
  H  H16  1  0.62372000  0.81806000  0.41980000  1.0
  H  H17  1  0.20416000  0.58026000  0.39818000  1.0
  H  H18  1  0.19432000  0.39805000  0.81782000  1.0
  H  H19  1  0.37628000  0.18194000  0.58020000  1.0
  H  H20  1  0.79584000  0.41975000  0.60182000  1.0
  H  H21  1  0.00672000  0.55527000  0.35051000  1.0
  H  H22  1  0.65632000  0.64974000  0.20480000  1.0
  H  H23  1  0.45198000  0.79517000  0.44492000  1.0
  H  H24  1  0.99328000  0.44473000  0.64949000  1.0
  H  H25  1  0.34368000  0.35026000  0.79520000  1.0
  H  H26  1  0.54802000  0.20483000  0.55508000  1.0
  H  H27  1  0.05614000  0.28044000  0.30265000  1.0
  H  H28  1  0.75338000  0.69737000  0.97767000  1.0
  H  H29  1  0.77577000  0.02220000  0.71971000  1.0
  H  H30  1  0.94386000  0.71955000  0.69736000  1.0
  H  H31  1  0.24663000  0.30265000  0.02235000  1.0
  H  H32  1  0.22422000  0.97779000  0.28029000  1.0
  H  H33  1  0.97638000  0.22206000  0.20944000  1.0
  H  H34  1  0.76662000  0.79053000  0.01235000  1.0
  H  H35  1  0.75422000  0.98743000  0.77814000  1.0
  H  H36  1  0.02362000  0.77793000  0.79056000  1.0
  H  H37  1  0.23338000  0.20948000  0.98765000  1.0
  H  H38  1  0.24577000  0.01257000  0.22186000  1.0
  H  H39  1  0.76307000  0.15340000  0.25073000  1.0
  H  H40  1  0.51196000  0.74917000  0.90272000  1.0
  H  H41  1  0.60902000  0.09711000  0.84638000  1.0
  H  H42  1  0.23692000  0.84659000  0.74926000  1.0
  H  H43  1  0.48805000  0.25084000  0.09729000  1.0
  H  H44  1  0.39098000  0.90287000  0.15361000  1.0
  H  H45  1  0.85151000  0.14816000  0.30844000  1.0
  H  H46  1  0.54269000  0.69163000  0.83967000  1.0
  H  H47  1  0.70291000  0.16021000  0.85204000  1.0
  H  H48  1  0.14849000  0.85185000  0.69156000  1.0
  H  H49  1  0.45732000  0.30839000  0.16034000  1.0
  H  H50  1  0.29709000  0.83979000  0.14797000  1.0
  H  H51  1  0.96325000  0.64816000  0.17144000  1.0
  H  H52  1  0.79210000  0.82885000  0.47665000  1.0
  H  H53  1  0.31580000  0.52331000  0.35209000  1.0
  H  H54  1  0.03676000  0.35184000  0.82856000  1.0
  H  H55  1  0.20789000  0.17114000  0.52335000  1.0
  H  H56  1  0.68420000  0.47669000  0.64791000  1.0
  H  H57  1  0.11442000  0.77341000  0.21284000  1.0
  H  H58  1  0.90187000  0.78751000  0.56059000  1.0
  H  H59  1  0.34149000  0.43949000  0.22671000  1.0
  H  H60  1  0.88561000  0.22659000  0.78717000  1.0
  H  H61  1  0.09812000  0.21248000  0.43941000  1.0
  H  H62  1  0.65853000  0.56052000  0.77330000  1.0
  H  H63  1  0.21697000  0.82659000  0.46716000  1.0
  H  H64  1  0.74979000  0.53307000  0.35985000  1.0
  H  H65  1  0.38972000  0.64033000  0.17302000  1.0
  H  H66  1  0.78303000  0.17340000  0.53284000  1.0
  H  H67  1  0.25020000  0.46692000  0.64014000  1.0
  H  H68  1  0.61027000  0.35967000  0.82698000  1.0
  H  H69  1  0.06313000  0.70375000  0.42753000  1.0
  H  H70  1  0.63557000  0.57267000  0.27661000  1.0
  H  H71  1  0.35901000  0.72350000  0.29602000  1.0
  H  H72  1  0.93687000  0.29623000  0.57246000  1.0
  H  H73  1  0.36443000  0.42734000  0.72339000  1.0
  H  H74  1  0.64097000  0.27650000  0.70397000  1.0
  C  C75  1  0.85602000  0.45806000  0.26972000  1.0
  C  C76  1  0.58637000  0.73055000  0.18838000  1.0
  C  C77  1  0.39840000  0.81157000  0.54213000  1.0
  C  C78  1  0.14398000  0.54194000  0.73028000  1.0
  C  C79  1  0.41363000  0.26946000  0.81162000  1.0
  C  C80  1  0.60159000  0.18843000  0.45787000  1.0
  C  C81  1  0.76119000  0.43236000  0.20771000  1.0
  C  C82  1  0.55356000  0.79256000  0.22469000  1.0
  C  C83  1  0.32921000  0.77525000  0.56781000  1.0
  C  C84  1  0.23882000  0.56765000  0.79229000  1.0
  C  C85  1  0.44643000  0.20743000  0.77530000  1.0
  C  C86  1  0.67078000  0.22476000  0.43219000  1.0
  C  C87  1  0.74247000  0.48515000  0.17778000  1.0
  C  C88  1  0.56482000  0.82247000  0.30740000  1.0
  C  C89  1  0.25770000  0.69257000  0.51504000  1.0
  C  C90  1  0.25753000  0.51485000  0.82222000  1.0
  C  C91  1  0.43518000  0.17753000  0.69260000  1.0
  C  C92  1  0.74230000  0.30743000  0.48496000  1.0
  C  C93  1  0.82117000  0.56213000  0.20735000  1.0
  C  C94  1  0.61407000  0.79293000  0.35484000  1.0
  C  C95  1  0.25948000  0.64520000  0.43804000  1.0
  C  C96  1  0.17882000  0.43786000  0.79264000  1.0
  C  C97  1  0.38593000  0.20707000  0.64516000  1.0
  C  C98  1  0.74051000  0.35481000  0.56196000  1.0
  C  C99  1  0.91738000  0.58859000  0.26945000  1.0
  C  C100  1  0.64816000  0.73083000  0.31921000  1.0
  C  C101  1  0.32927000  0.68082000  0.41160000  1.0
  C  C102  1  0.08263000  0.41141000  0.73055000  1.0
  C  C103  1  0.35185000  0.26917000  0.68079000  1.0
  C  C104  1  0.67072000  0.31918000  0.58840000  1.0
  C  C105  1  0.93317000  0.53671000  0.30215000  1.0
  C  C106  1  0.63120000  0.69812000  0.23461000  1.0
  C  C107  1  0.39700000  0.76538000  0.46350000  1.0
  C  C108  1  0.06682000  0.46329000  0.69784000  1.0
  C  C109  1  0.36881000  0.30188000  0.76539000  1.0
  C  C110  1  0.60300000  0.23463000  0.53650000  1.0
  C  C111  1  0.87475000  0.39869000  0.29674000  1.0
  C  C112  1  0.57783000  0.70339000  0.10191000  1.0
  C  C113  1  0.47623000  0.89805000  0.60145000  1.0
  C  C114  1  0.12525000  0.60130000  0.70325000  1.0
  C  C115  1  0.42217000  0.29661000  0.89809000  1.0
  C  C116  1  0.52377000  0.10195000  0.39855000  1.0
  C  C117  1  0.63727000  0.45851000  0.11593000  1.0
  C  C118  1  0.52129000  0.88415000  0.34258000  1.0
  C  C119  1  0.17902000  0.65734000  0.54160000  1.0
  C  C120  1  0.36274000  0.54150000  0.88407000  1.0
  C  C121  1  0.47871000  0.11584000  0.65742000  1.0
  C  C122  1  0.82098000  0.34265000  0.45840000  1.0
  C  C123  1  0.00293000  0.66697000  0.29658000  1.0
  C  C124  1  0.70648000  0.70367000  0.37052000  1.0
  C  C125  1  0.33625000  0.62954000  0.33312000  1.0
  C  C126  1  0.99708000  0.33303000  0.70342000  1.0
  C  C127  1  0.29352000  0.29633000  0.62948000  1.0
  C  C128  1  0.66374000  0.37045000  0.66687000  1.0
  C  C129  1  0.01732000  0.68839000  0.23677000  1.0
  C  C130  1  0.78076000  0.76350000  0.45167000  1.0
  C  C131  1  0.32941000  0.54838000  0.31175000  1.0
  C  C132  1  0.98269000  0.31161000  0.76323000  1.0
  C  C133  1  0.21923000  0.23649000  0.54832000  1.0
  C  C134  1  0.67059000  0.45163000  0.68825000  1.0
  C  C135  1  0.10211000  0.75780000  0.25949000  1.0
  C  C136  1  0.84283000  0.74081000  0.49841000  1.0
  C  C137  1  0.34466000  0.50170000  0.24228000  1.0
  C  C138  1  0.89791000  0.24220000  0.74052000  1.0
  C  C139  1  0.15716000  0.25918000  0.50159000  1.0
  C  C140  1  0.65535000  0.49831000  0.75773000  1.0
  C  C141  1  0.17541000  0.80752000  0.34243000  1.0
  C  C142  1  0.83315000  0.65784000  0.46531000  1.0
  C  C143  1  0.36790000  0.53484000  0.19236000  1.0
  C  C144  1  0.82460000  0.19249000  0.65758000  1.0
  C  C145  1  0.16685000  0.34216000  0.53469000  1.0
  C  C146  1  0.63210000  0.46516000  0.80764000  1.0
  C  C147  1  0.16017000  0.78778000  0.40279000  1.0
  C  C148  1  0.75743000  0.59747000  0.38534000  1.0
  C  C149  1  0.37209000  0.61483000  0.21199000  1.0
  C  C150  1  0.83983000  0.21222000  0.59722000  1.0
  C  C151  1  0.24257000  0.40253000  0.61466000  1.0
  C  C152  1  0.62791000  0.38517000  0.78801000  1.0
  C  C153  1  0.07464000  0.71863000  0.38018000  1.0
  C  C154  1  0.69448000  0.62004000  0.33875000  1.0
  C  C155  1  0.35586000  0.66137000  0.28124000  1.0
  C  C156  1  0.92536000  0.28137000  0.61982000  1.0
  C  C157  1  0.30551000  0.37995000  0.66124000  1.0
  C  C158  1  0.64413000  0.33863000  0.71876000  1.0
  C  C159  1  0.26966000  0.87797000  0.36337000  1.0
  C  C160  1  0.90650000  0.63685000  0.51475000  1.0
  C  C161  1  0.39177000  0.48544000  0.12192000  1.0
  C  C162  1  0.73033000  0.12202000  0.63663000  1.0
  C  C163  1  0.09348000  0.36312000  0.48523000  1.0
  C  C164  1  0.60824000  0.51458000  0.87809000  1.0
  O  O165  1  0.94850000  0.42497000  0.36701000  1.0
  O  O166  1  0.58155000  0.63321000  0.05808000  1.0
  O  O167  1  0.52363000  0.94204000  0.57513000  1.0
  O  O168  1  0.05151000  0.57504000  0.63299000  1.0
  O  O169  1  0.41845000  0.36680000  0.94192000  1.0
  O  O170  1  0.47638000  0.05796000  0.42487000  1.0
  O  O171  1  0.82005000  0.32044000  0.24852000  1.0
  O  O172  1  0.57096000  0.75143000  0.07167000  1.0
  O  O173  1  0.49959000  0.92820000  0.67971000  1.0
  O  O174  1  0.17995000  0.67956000  0.75147000  1.0
  O  O175  1  0.42904000  0.24857000  0.92833000  1.0
  O  O176  1  0.50041000  0.07180000  0.32029000  1.0
  O  O177  1  0.62319000  0.50160000  0.08175000  1.0
  O  O178  1  0.54156000  0.91841000  0.41985000  1.0
  O  O179  1  0.12191000  0.58011000  0.49853000  1.0
  O  O180  1  0.37680000  0.49839000  0.91825000  1.0
  O  O181  1  0.45844000  0.08159000  0.58014000  1.0
  O  O182  1  0.87810000  0.41990000  0.50148000  1.0
  O  O183  1  0.56818000  0.39334000  0.10362000  1.0
  O  O184  1  0.46418000  0.89623000  0.28966000  1.0
  O  O185  1  0.17495000  0.71019000  0.60671000  1.0
  O  O186  1  0.43181000  0.60665000  0.89637000  1.0
  O  O187  1  0.53582000  0.10376000  0.71034000  1.0
  O  O188  1  0.82504000  0.28981000  0.39329000  1.0
  O  O189  1  0.34484000  0.91316000  0.43266000  1.0
  O  O190  1  0.91242000  0.56758000  0.48065000  1.0
  O  O191  1  0.43155000  0.51954000  0.08664000  1.0
  O  O192  1  0.65517000  0.08684000  0.56735000  1.0
  O  O193  1  0.08757000  0.43241000  0.51934000  1.0
  O  O194  1  0.56845000  0.48047000  0.91337000  1.0
  O  O195  1  0.26760000  0.89712000  0.30537000  1.0
  O  O196  1  0.96247000  0.69483000  0.59185000  1.0
  O  O197  1  0.37086000  0.40837000  0.10291000  1.0
  O  O198  1  0.73241000  0.10288000  0.69464000  1.0
  O  O199  1  0.03752000  0.30516000  0.40814000  1.0
  O  O200  1  0.62916000  0.59164000  0.89710000  1.0
  O  O201  1  0.00417000  0.27820000  0.25689000  1.0
  O  O202  1  0.74695000  0.74307000  0.02105000  1.0
  O  O203  1  0.72592000  0.97882000  0.72202000  1.0
  O  O204  1  0.99584000  0.72179000  0.74311000  1.0
  O  O205  1  0.25306000  0.25695000  0.97896000  1.0
  O  O206  1  0.27408000  0.02117000  0.27798000  1.0
  O  O207  1  0.83447000  0.16215000  0.26428000  1.0
  O  O208  1  0.56988000  0.73579000  0.89780000  1.0
  O  O209  1  0.67194000  0.10206000  0.83804000  1.0
  O  O210  1  0.16554000  0.83786000  0.73572000  1.0
  O  O211  1  0.43013000  0.26422000  0.10221000  1.0
  O  O212  1  0.32806000  0.89793000  0.16196000  1.0
