# generated using pymatgen
data_CdNiH12(C4N3)2
_symmetry_space_group_name_H-M   'P 1'
_cell_length_a   7.63557000
_cell_length_b   9.96529000
_cell_length_c   13.52900000
_cell_angle_alpha   94.00720000
_cell_angle_beta   90.57390000
_cell_angle_gamma   90.95640000
_symmetry_Int_Tables_number   1
_chemical_formula_structural   CdNiH12(C4N3)2
_chemical_formula_sum   'Cd2 Ni2 H24 C16 N12'
_cell_volume   1026.70639385
_cell_formula_units_Z   2
loop_
 _symmetry_equiv_pos_site_id
 _symmetry_equiv_pos_as_xyz
  1  'x, y, z'
loop_
 _atom_site_type_symbol
 _atom_site_label
 _atom_site_symmetry_multiplicity
 _atom_site_fract_x
 _atom_site_fract_y
 _atom_site_fract_z
 _atom_site_occupancy
  Cd  Cd0  1  0.50697000  0.10165000  0.26953000  1.0
  Cd  Cd1  1  0.49303000  0.89834000  0.73046000  1.0
  Ni  Ni2  1  0.99999000  0.00001000  0.00000000  1.0
  Ni  Ni3  1  0.00001000  0.00000000  0.50000000  1.0
  H  H4  1  0.34969000  0.33451000  0.20588000  1.0
  H  H5  1  0.55902000  0.34375000  0.17816000  1.0
  H  H6  1  0.63799000  0.41029000  0.34694000  1.0
  H  H7  1  0.41573000  0.39553000  0.37873000  1.0
  H  H8  1  0.33896000  0.58432000  0.27521000  1.0
  H  H9  1  0.55861000  0.59553000  0.23559000  1.0
  H  H10  1  0.65869000  0.66212000  0.40902000  1.0
  H  H11  1  0.44510000  0.63771000  0.45344000  1.0
  H  H12  1  0.50334000  0.87655000  0.44269000  1.0
  H  H13  1  0.33230000  0.82261000  0.36013000  1.0
  H  H14  1  0.53881000  0.82345000  0.22607000  1.0
  H  H15  1  0.69869000  0.87329000  0.30335000  1.0
  H  H16  1  0.65031000  0.66549000  0.79412000  1.0
  H  H17  1  0.44098000  0.65624000  0.82185000  1.0
  H  H18  1  0.36201000  0.58970000  0.65307000  1.0
  H  H19  1  0.58427000  0.60447000  0.62127000  1.0
  H  H20  1  0.66104000  0.41567000  0.72479000  1.0
  H  H21  1  0.44140000  0.40446000  0.76441000  1.0
  H  H22  1  0.34131000  0.33788000  0.59098000  1.0
  H  H23  1  0.55490000  0.36228000  0.54657000  1.0
  H  H24  1  0.49665000  0.12344000  0.55731000  1.0
  H  H25  1  0.66770000  0.17737000  0.63987000  1.0
  H  H26  1  0.46120000  0.17654000  0.77393000  1.0
  H  H27  1  0.30130000  0.12670000  0.69666000  1.0
  C  C28  1  0.17348000  0.02321000  0.09497000  1.0
  C  C29  1  0.17650000  0.08222000  0.43406000  1.0
  C  C30  1  0.83658000  0.09583000  0.43480000  1.0
  C  C31  1  0.83446000  0.05424000  0.09123000  1.0
  C  C32  1  0.50384000  0.42483000  0.31984000  1.0
  C  C33  1  0.47619000  0.57143000  0.29879000  1.0
  C  C34  1  0.51877000  0.66821000  0.38881000  1.0
  C  C35  1  0.47356000  0.81424000  0.37440000  1.0
  C  C36  1  0.82651000  0.97682000  0.90503000  1.0
  C  C37  1  0.82352000  0.91779000  0.56593000  1.0
  C  C38  1  0.16345000  0.90417000  0.56520000  1.0
  C  C39  1  0.16553000  0.94579000  0.90877000  1.0
  C  C40  1  0.49617000  0.57517000  0.68016000  1.0
  C  C41  1  0.52381000  0.42856000  0.70122000  1.0
  C  C42  1  0.48123000  0.33179000  0.61119000  1.0
  C  C43  1  0.52643000  0.18575000  0.62560000  1.0
  N  N44  1  0.28545000  0.03790000  0.15483000  1.0
  N  N45  1  0.29104000  0.13192000  0.39149000  1.0
  N  N46  1  0.72976000  0.15318000  0.39198000  1.0
  N  N47  1  0.72730000  0.08825000  0.14873000  1.0
  N  N48  1  0.47371000  0.32747000  0.23401000  1.0
  N  N49  1  0.56596000  0.87486000  0.29262000  1.0
  N  N50  1  0.71455000  0.96211000  0.84517000  1.0
  N  N51  1  0.70898000  0.86809000  0.60850000  1.0
  N  N52  1  0.27022000  0.84682000  0.60802000  1.0
  N  N53  1  0.27269000  0.91176000  0.85127000  1.0
  N  N54  1  0.52630000  0.67252000  0.76599000  1.0
  N  N55  1  0.43404000  0.12513000  0.70738000  1.0
