# generated using pymatgen
data_MnH18C20(NO)4
_symmetry_space_group_name_H-M   'P 1'
_cell_length_a   9.27000000
_cell_length_b   9.29683000
_cell_length_c   10.23080000
_cell_angle_alpha   89.99990000
_cell_angle_beta   89.99980000
_cell_angle_gamma   64.66200000
_symmetry_Int_Tables_number   1
_chemical_formula_structural   MnH18C20(NO)4
_chemical_formula_sum   'Mn2 H36 C40 N8 O8'
_cell_volume   796.88570239
_cell_formula_units_Z   2
loop_
 _symmetry_equiv_pos_site_id
 _symmetry_equiv_pos_as_xyz
  1  'x, y, z'
loop_
 _atom_site_type_symbol
 _atom_site_label
 _atom_site_symmetry_multiplicity
 _atom_site_fract_x
 _atom_site_fract_y
 _atom_site_fract_z
 _atom_site_occupancy
  Mn  Mn0  1  0.50000000  0.50000000  0.50000000  1.0
  Mn  Mn1  1  0.00000000  0.00000000  0.00000000  1.0
  H  H2  1  0.85074000  0.87274000  0.76363000  1.0
  H  H3  1  0.64928000  0.62728000  0.26365000  1.0
  H  H4  1  0.14926000  0.12726000  0.23637000  1.0
  H  H5  1  0.35071000  0.37272000  0.73636000  1.0
  H  H6  1  0.79163000  0.56851000  0.58610000  1.0
  H  H7  1  0.70842000  0.93148000  0.08613000  1.0
  H  H8  1  0.20836000  0.43149000  0.41390000  1.0
  H  H9  1  0.29158000  0.06852000  0.91388000  1.0
  H  H10  1  0.58128000  0.04293000  0.74495000  1.0
  H  H11  1  0.91875000  0.45708000  0.24497000  1.0
  H  H12  1  0.41871000  0.95707000  0.25504000  1.0
  H  H13  1  0.08125000  0.54293000  0.75504000  1.0
  H  H14  1  0.32234000  0.07309000  0.65136000  1.0
  H  H15  1  0.17771000  0.42689000  0.15137000  1.0
  H  H16  1  0.67766000  0.92692000  0.34864000  1.0
  H  H17  1  0.82229000  0.57311000  0.84863000  1.0
  H  H18  1  0.30303000  0.84667000  0.54051000  1.0
  H  H19  1  0.19700000  0.65331000  0.04052000  1.0
  H  H20  1  0.69697000  0.15333000  0.45949000  1.0
  H  H21  1  0.80300000  0.34669000  0.95948000  1.0
  H  H22  1  0.88663000  0.23742000  0.23509000  1.0
  H  H23  1  0.61340000  0.26261000  0.73508000  1.0
  H  H24  1  0.11337000  0.76257000  0.76491000  1.0
  H  H25  1  0.38661000  0.73739000  0.26492000  1.0
  H  H26  1  0.37697000  0.49782000  0.19423000  1.0
  H  H27  1  0.12303000  0.00224000  0.69423000  1.0
  H  H28  1  0.62304000  0.50218000  0.80577000  1.0
  H  H29  1  0.87697000  0.99776000  0.30577000  1.0
  H  H30  1  0.39428000  0.31593000  0.00559000  1.0
  H  H31  1  0.10572000  0.18413000  0.50562000  1.0
  H  H32  1  0.60573000  0.68407000  0.99441000  1.0
  H  H33  1  0.89428000  0.81586000  0.49438000  1.0
  H  H34  1  0.65778000  0.10932000  0.93911000  1.0
  H  H35  1  0.84224000  0.39069000  0.43909000  1.0
  H  H36  1  0.34222000  0.89067000  0.06089000  1.0
  H  H37  1  0.15776000  0.60931000  0.56091000  1.0
  C  C38  1  0.68773000  0.68072000  0.60129000  1.0
  C  C39  1  0.81230000  0.81927000  0.10129000  1.0
  C  C40  1  0.31226000  0.31928000  0.39871000  1.0
  C  C41  1  0.18770000  0.18073000  0.89871000  1.0
  C  C42  1  0.70595000  0.80274000  0.66989000  1.0
  C  C43  1  0.79406000  0.69726000  0.16991000  1.0
  C  C44  1  0.29404000  0.19726000  0.33010000  1.0
  C  C45  1  0.20593000  0.30274000  0.83009000  1.0
  C  C46  1  0.57241000  0.94645000  0.69106000  1.0
  C  C47  1  0.92761000  0.55356000  0.19106000  1.0
  C  C48  1  0.42758000  0.05355000  0.30893000  1.0
  C  C49  1  0.07239000  0.44645000  0.80894000  1.0
  C  C50  1  0.42801000  0.96156000  0.64036000  1.0
  C  C51  1  0.07202000  0.53842000  0.14037000  1.0
  C  C52  1  0.57198000  0.03844000  0.35963000  1.0
  C  C53  1  0.92798000  0.46158000  0.85963000  1.0
  C  C54  1  0.41736000  0.83538000  0.57605000  1.0
  C  C55  1  0.08267000  0.66461000  0.07603000  1.0
  C  C56  1  0.58264000  0.16462000  0.42395000  1.0
  C  C57  1  0.91733000  0.33539000  0.92397000  1.0
  C  C58  1  0.77504000  0.25848000  0.18654000  1.0
  C  C59  1  0.72501000  0.24153000  0.68654000  1.0
  C  C60  1  0.22497000  0.74152000  0.81346000  1.0
  C  C61  1  0.27500000  0.75847000  0.31346000  1.0
  C  C62  1  0.62976000  0.38202000  0.22989000  1.0
  C  C63  1  0.87026000  0.11800000  0.72987000  1.0
  C  C64  1  0.37025000  0.61797000  0.77011000  1.0
  C  C65  1  0.12974000  0.88199000  0.27013000  1.0
  C  C66  1  0.48983000  0.40364000  0.16297000  1.0
  C  C67  1  0.01019000  0.09642000  0.66299000  1.0
  C  C68  1  0.51018000  0.59636000  0.83703000  1.0
  C  C69  1  0.98981000  0.90358000  0.33702000  1.0
  C  C70  1  0.49969000  0.30315000  0.06006000  1.0
  C  C71  1  0.00032000  0.19689000  0.56006000  1.0
  C  C72  1  0.50031000  0.69685000  0.93994000  1.0
  C  C73  1  0.99969000  0.80311000  0.43995000  1.0
  C  C74  1  0.64652000  0.18518000  0.02273000  1.0
  C  C75  1  0.85352000  0.31482000  0.52272000  1.0
  C  C76  1  0.35349000  0.81481000  0.97727000  1.0
  C  C77  1  0.14648000  0.68517000  0.47728000  1.0
  N  N78  1  0.54434000  0.69259000  0.55796000  1.0
  N  N79  1  0.95568000  0.80741000  0.05798000  1.0
  N  N80  1  0.45565000  0.30742000  0.44204000  1.0
  N  N81  1  0.04432000  0.19259000  0.94203000  1.0
  N  N82  1  0.78511000  0.16189000  0.08358000  1.0
  N  N83  1  0.71495000  0.33810000  0.58358000  1.0
  N  N84  1  0.21489000  0.83811000  0.91642000  1.0
  N  N85  1  0.28506000  0.66190000  0.41642000  1.0
  O  O86  1  0.85263000  0.77656000  0.71487000  1.0
  O  O87  1  0.64738000  0.72347000  0.21487000  1.0
  O  O88  1  0.14736000  0.22344000  0.28513000  1.0
  O  O89  1  0.35262000  0.27653000  0.78513000  1.0
  O  O90  1  0.62527000  0.47957000  0.32886000  1.0
  O  O91  1  0.87470000  0.02048000  0.82883000  1.0
  O  O92  1  0.37474000  0.52042000  0.67114000  1.0
  O  O93  1  0.12530000  0.97952000  0.17117000  1.0
