# generated using pymatgen
data_Cd3P2H28C14N2(ClO6)2
_symmetry_space_group_name_H-M   'P 1'
_cell_length_a   8.85958000
_cell_length_b   11.69750000
_cell_length_c   12.97800000
_cell_angle_alpha   110.78900000
_cell_angle_beta   90.00000000
_cell_angle_gamma   89.99990000
_symmetry_Int_Tables_number   1
_chemical_formula_structural   Cd3P2H28C14N2(ClO6)2
_chemical_formula_sum   'Cd6 P4 H56 C28 N4 Cl4 O24'
_cell_volume   1257.40809974
_cell_formula_units_Z   2
loop_
 _symmetry_equiv_pos_site_id
 _symmetry_equiv_pos_as_xyz
  1  'x, y, z'
loop_
 _atom_site_type_symbol
 _atom_site_label
 _atom_site_symmetry_multiplicity
 _atom_site_fract_x
 _atom_site_fract_y
 _atom_site_fract_z
 _atom_site_occupancy
  Cd  Cd0  1  0.31831000  0.19642000  0.32802000  1.0
  Cd  Cd1  1  0.81832000  0.80357000  0.17198000  1.0
  Cd  Cd2  1  0.68168000  0.80357000  0.67198000  1.0
  Cd  Cd3  1  0.18169000  0.19642000  0.82802000  1.0
  Cd  Cd4  1  0.50000000  0.00000000  0.50000000  1.0
  Cd  Cd5  1  0.00000000  0.00000000  0.00000000  1.0
  P  P6  1  0.48137000  0.92757000  0.19718000  1.0
  P  P7  1  0.98136000  0.07243000  0.30282000  1.0
  P  P8  1  0.51864000  0.07243000  0.80282000  1.0
  P  P9  1  0.01864000  0.92757000  0.69718000  1.0
  H  H10  1  0.45908000  0.68781000  0.19078000  1.0
  H  H11  1  0.95908000  0.31219000  0.30922000  1.0
  H  H12  1  0.54093000  0.31219000  0.80922000  1.0
  H  H13  1  0.04092000  0.68781000  0.69078000  1.0
  H  H14  1  0.10237000  0.48649000  0.18952000  1.0
  H  H15  1  0.60237000  0.51351000  0.31048000  1.0
  H  H16  1  0.89763000  0.51352000  0.81048000  1.0
  H  H17  1  0.39762000  0.48649000  0.68952000  1.0
  H  H18  1  0.16990000  0.63030000  0.37091000  1.0
  H  H19  1  0.66990000  0.36970000  0.12909000  1.0
  H  H20  1  0.83010000  0.36970000  0.62909000  1.0
  H  H21  1  0.33010000  0.63030000  0.87091000  1.0
  H  H22  1  0.36502000  0.61172000  0.34189000  1.0
  H  H23  1  0.86502000  0.38828000  0.15811000  1.0
  H  H24  1  0.63499000  0.38828000  0.65811000  1.0
  H  H25  1  0.13498000  0.61172000  0.84189000  1.0
  H  H26  1  0.13071000  0.72844000  0.23548000  1.0
  H  H27  1  0.63070000  0.27156000  0.26452000  1.0
  H  H28  1  0.86930000  0.27156000  0.76453000  1.0
  H  H29  1  0.36930000  0.72844000  0.73548000  1.0
  H  H30  1  0.27779000  0.80507000  0.32822000  1.0
  H  H31  1  0.77779000  0.19492000  0.17178000  1.0
  H  H32  1  0.72222000  0.19493000  0.67178000  1.0
  H  H33  1  0.22221000  0.80508000  0.82822000  1.0
  H  H34  1  0.38858000  0.57266000  0.00807000  1.0
  H  H35  1  0.88858000  0.42733000  0.49193000  1.0
  H  H36  1  0.61142000  0.42733000  0.99193000  1.0
  H  H37  1  0.11142000  0.57267000  0.50807000  1.0
  H  H38  1  0.19493000  0.59325000  0.04767000  1.0
  H  H39  1  0.69493000  0.40674000  0.45233000  1.0
  H  H40  1  0.80508000  0.40674000  0.95233000  1.0
  H  H41  1  0.30507000  0.59325000  0.54767000  1.0
  H  H42  1  0.44030000  0.46486000  0.13617000  1.0
  H  H43  1  0.94029000  0.53514000  0.36384000  1.0
  H  H44  1  0.55971000  0.53514000  0.86384000  1.0
  H  H45  1  0.05970000  0.46486000  0.63617000  1.0
  H  H46  1  0.29327000  0.39026000  0.04509000  1.0
  H  H47  1  0.79327000  0.60974000  0.45491000  1.0
  H  H48  1  0.70673000  0.60974000  0.95491000  1.0
  H  H49  1  0.20672000  0.39026000  0.54509000  1.0
  H  H50  1  0.22743000  0.84411000  0.14428000  1.0
  H  H51  1  0.72743000  0.15588000  0.35572000  1.0
  H  H52  1  0.77258000  0.15589000  0.85572000  1.0
  H  H53  1  0.27258000  0.84411000  0.64428000  1.0
  H  H54  1  0.36227000  0.77485000  0.04069000  1.0
  H  H55  1  0.86227000  0.22515000  0.45931000  1.0
  H  H56  1  0.63773000  0.22515000  0.95931000  1.0
  H  H57  1  0.13773000  0.77485000  0.54069000  1.0
  H  H58  1  0.19271000  0.02897000  0.44955000  1.0
  H  H59  1  0.69270000  0.97102000  0.05045000  1.0
  H  H60  1  0.80729000  0.97102000  0.55045000  1.0
  H  H61  1  0.30730000  0.02898000  0.94955000  1.0
  H  H62  1  0.19019000  0.01440000  0.56712000  1.0
  H  H63  1  0.69019000  0.98560000  0.93288000  1.0
  H  H64  1  0.80981000  0.98560000  0.43288000  1.0
  H  H65  1  0.30981000  0.01440000  0.06712000  1.0
  C  C66  1  0.24803000  0.38813000  0.25981000  1.0
  C  C67  1  0.74803000  0.61187000  0.24019000  1.0
  C  C68  1  0.75196000  0.61187000  0.74019000  1.0
  C  C69  1  0.25197000  0.38813000  0.75981000  1.0
  C  C70  1  0.22190000  0.48892000  0.21336000  1.0
  C  C71  1  0.72190000  0.51108000  0.28664000  1.0
  C  C72  1  0.77810000  0.51109000  0.78665000  1.0
  C  C73  1  0.27810000  0.48892000  0.71336000  1.0
  C  C74  1  0.25361000  0.61286000  0.30487000  1.0
  C  C75  1  0.75361000  0.38714000  0.19513000  1.0
  C  C76  1  0.74639000  0.38714000  0.69513000  1.0
  C  C77  1  0.24638000  0.61286000  0.80487000  1.0
  C  C78  1  0.24504000  0.71893000  0.26387000  1.0
  C  C79  1  0.74503000  0.28107000  0.23613000  1.0
  C  C80  1  0.75497000  0.28107000  0.73613000  1.0
  C  C81  1  0.25497000  0.71893000  0.76387000  1.0
  C  C82  1  0.30939000  0.58191000  0.07538000  1.0
  C  C83  1  0.80939000  0.41808000  0.42462000  1.0
  C  C84  1  0.69061000  0.41808000  0.92462000  1.0
  C  C85  1  0.19060000  0.58192000  0.57538000  1.0
  C  C86  1  0.32258000  0.47407000  0.11383000  1.0
  C  C87  1  0.82258000  0.52593000  0.38617000  1.0
  C  C88  1  0.67742000  0.52593000  0.88617000  1.0
  C  C89  1  0.17742000  0.47407000  0.61383000  1.0
  C  C90  1  0.34221000  0.80683000  0.12974000  1.0
  C  C91  1  0.84221000  0.19317000  0.37025000  1.0
  C  C92  1  0.65779000  0.19317000  0.87026000  1.0
  C  C93  1  0.15779000  0.80683000  0.62974000  1.0
  N  N94  1  0.34816000  0.69942000  0.16712000  1.0
  N  N95  1  0.84816000  0.30057000  0.33288000  1.0
  N  N96  1  0.65184000  0.30057000  0.83288000  1.0
  N  N97  1  0.15184000  0.69943000  0.66712000  1.0
  Cl  Cl98  1  0.47524000  0.23487000  0.49698000  1.0
  Cl  Cl99  1  0.97524000  0.76513000  0.00302000  1.0
  Cl  Cl100  1  0.52475000  0.76513000  0.50302000  1.0
  Cl  Cl101  1  0.02476000  0.23487000  0.99698000  1.0
  O  O102  1  0.62491000  0.89303000  0.12484000  1.0
  O  O103  1  0.12490000  0.10697000  0.37516000  1.0
  O  O104  1  0.37510000  0.10697000  0.87516000  1.0
  O  O105  1  0.87510000  0.89303000  0.62484000  1.0
  O  O106  1  0.50598000  0.92782000  0.31301000  1.0
  O  O107  1  0.00598000  0.07217000  0.18699000  1.0
  O  O108  1  0.49402000  0.07217000  0.68699000  1.0
  O  O109  1  0.99403000  0.92783000  0.81301000  1.0
  O  O110  1  0.41026000  0.04343000  0.18714000  1.0
  O  O111  1  0.91026000  0.95657000  0.31286000  1.0
  O  O112  1  0.58974000  0.95657000  0.81286000  1.0
  O  O113  1  0.08973000  0.04343000  0.68714000  1.0
  O  O114  1  0.37625000  0.33542000  0.24529000  1.0
  O  O115  1  0.87625000  0.66458000  0.25471000  1.0
  O  O116  1  0.62373000  0.66458000  0.75471000  1.0
  O  O117  1  0.12375000  0.33542000  0.74530000  1.0
  O  O118  1  0.14444000  0.36230000  0.31673000  1.0
  O  O119  1  0.64445000  0.63770000  0.18327000  1.0
  O  O120  1  0.85555000  0.63771000  0.68327000  1.0
  O  O121  1  0.35556000  0.36230000  0.81673000  1.0
  O  O122  1  0.24198000  0.98463000  0.49407000  1.0
  O  O123  1  0.74198000  0.01537000  0.00592000  1.0
  O  O124  1  0.75802000  0.01537000  0.50593000  1.0
  O  O125  1  0.25802000  0.98463000  0.99407000  1.0
