# generated using pymatgen
data_Ni3H20C32(N2O7)2
_symmetry_space_group_name_H-M   'P 1'
_cell_length_a   12.25570000
_cell_length_b   14.36270000
_cell_length_c   14.36610000
_cell_angle_alpha   99.94540000
_cell_angle_beta   90.83220000
_cell_angle_gamma   90.84260000
_symmetry_Int_Tables_number   1
_chemical_formula_structural   Ni3H20C32(N2O7)2
_chemical_formula_sum   'Ni6 H40 C64 N8 O28'
_cell_volume   2490.14803537
_cell_formula_units_Z   2
loop_
 _symmetry_equiv_pos_site_id
 _symmetry_equiv_pos_as_xyz
  1  'x, y, z'
loop_
 _atom_site_type_symbol
 _atom_site_label
 _atom_site_symmetry_multiplicity
 _atom_site_fract_x
 _atom_site_fract_y
 _atom_site_fract_z
 _atom_site_occupancy
  Ni  Ni0  1  0.26284000  0.57936000  0.02483000  1.0
  Ni  Ni1  1  0.23720000  0.97523000  0.42075000  1.0
  Ni  Ni2  1  0.73721000  0.42062000  0.97516000  1.0
  Ni  Ni3  1  0.76283000  0.02480000  0.57927000  1.0
  Ni  Ni4  1  0.50003000  0.49998000  0.99998000  1.0
  Ni  Ni5  1  0.99994000  0.00002000  0.50003000  1.0
  H  H6  1  0.08689000  0.52410000  0.15524000  1.0
  H  H7  1  0.09233000  0.56722000  0.87769000  1.0
  H  H8  1  0.39913000  0.15047000  0.23739000  1.0
  H  H9  1  0.24756000  0.80344000  0.05794000  1.0
  H  H10  1  0.45164000  0.27913000  0.14676000  1.0
  H  H11  1  0.13805000  0.40437000  0.20212000  1.0
  H  H12  1  0.08743000  0.27854000  0.29461000  1.0
  H  H13  1  0.45002000  0.31575000  0.74000000  1.0
  H  H14  1  0.12068000  0.38905000  0.81350000  1.0
  H  H15  1  0.25266000  0.61574000  0.24653000  1.0
  H  H16  1  0.41310000  0.84474000  0.47581000  1.0
  H  H17  1  0.40759000  0.12247000  0.43303000  1.0
  H  H18  1  0.10092000  0.76304000  0.84986000  1.0
  H  H19  1  0.25257000  0.94241000  0.19697000  1.0
  H  H20  1  0.04842000  0.85364000  0.72120000  1.0
  H  H21  1  0.36176000  0.79781000  0.59564000  1.0
  H  H22  1  0.41241000  0.70540000  0.72151000  1.0
  H  H23  1  0.05000000  0.26034000  0.68404000  1.0
  H  H24  1  0.37933000  0.18619000  0.61140000  1.0
  H  H25  1  0.24691000  0.75361000  0.38445000  1.0
  H  H26  1  0.91314000  0.47588000  0.84476000  1.0
  H  H27  1  0.90770000  0.43275000  0.12231000  1.0
  H  H28  1  0.60083000  0.84951000  0.76263000  1.0
  H  H29  1  0.75243000  0.19656000  0.94204000  1.0
  H  H30  1  0.54834000  0.72080000  0.85321000  1.0
  H  H31  1  0.86195000  0.59561000  0.79782000  1.0
  H  H32  1  0.91256000  0.72149000  0.70539000  1.0
  H  H33  1  0.55001000  0.68424000  0.25999000  1.0
  H  H34  1  0.87936000  0.61095000  0.18654000  1.0
  H  H35  1  0.74724000  0.38426000  0.75346000  1.0
  H  H36  1  0.58688000  0.15533000  0.52421000  1.0
  H  H37  1  0.59238000  0.87760000  0.56699000  1.0
  H  H38  1  0.89911000  0.23692000  0.15014000  1.0
  H  H39  1  0.74744000  0.05759000  0.80302000  1.0
  H  H40  1  0.95160000  0.14638000  0.27883000  1.0
  H  H41  1  0.63822000  0.20220000  0.40432000  1.0
  H  H42  1  0.58760000  0.29458000  0.27842000  1.0
  H  H43  1  0.95002000  0.73965000  0.31600000  1.0
  H  H44  1  0.62067000  0.81380000  0.38860000  1.0
  H  H45  1  0.75302000  0.24640000  0.61555000  1.0
  C  C46  1  0.04743000  0.51369000  0.08590000  1.0
  C  C47  1  0.05048000  0.53708000  0.93207000  1.0
  C  C48  1  0.34204000  0.20615000  0.22918000  1.0
  C  C49  1  0.32977000  0.42944000  0.86613000  1.0
  C  C50  1  0.32942000  0.42308000  0.11201000  1.0
  C  C51  1  0.28902000  0.35954000  0.78319000  1.0
  C  C52  1  0.29806000  0.34877000  0.16849000  1.0
  C  C53  1  0.20150000  0.13697000  0.33196000  1.0
  C  C54  1  0.24896000  0.79306000  0.13142000  1.0
  C  C55  1  0.37156000  0.27694000  0.17841000  1.0
  C  C56  1  0.23924000  0.20665000  0.27079000  1.0
  C  C57  1  0.19523000  0.34892000  0.20988000  1.0
  C  C58  1  0.16624000  0.27874000  0.26057000  1.0
  C  C59  1  0.36289000  0.30372000  0.72584000  1.0
  C  C60  1  0.17642000  0.34538000  0.76728000  1.0
  C  C61  1  0.25014000  0.68898000  0.23568000  1.0
  C  C62  1  0.45256000  0.91409000  0.48625000  1.0
  C  C63  1  0.44949000  0.06803000  0.46306000  1.0
  C  C64  1  0.15798000  0.77116000  0.79411000  1.0
  C  C65  1  0.17021000  0.13389000  0.57069000  1.0
  C  C66  1  0.17051000  0.88804000  0.57703000  1.0
  C  C67  1  0.21099000  0.21681000  0.64060000  1.0
  C  C68  1  0.20188000  0.83167000  0.65139000  1.0
  C  C69  1  0.29851000  0.66829000  0.86323000  1.0
  C  C70  1  0.25105000  0.86889000  0.20727000  1.0
  C  C71  1  0.12846000  0.82190000  0.72332000  1.0
  C  C72  1  0.26072000  0.72944000  0.79355000  1.0
  C  C73  1  0.30465000  0.79016000  0.65117000  1.0
  C  C74  1  0.33365000  0.73952000  0.72137000  1.0
  C  C75  1  0.13713000  0.27438000  0.69619000  1.0
  C  C76  1  0.32360000  0.23257000  0.65490000  1.0
  C  C77  1  0.24955000  0.76450000  0.31123000  1.0
  C  C78  1  0.95259000  0.48629000  0.91408000  1.0
  C  C79  1  0.94954000  0.46290000  0.06793000  1.0
  C  C80  1  0.65793000  0.79383000  0.77083000  1.0
  C  C81  1  0.67027000  0.57054000  0.13388000  1.0
  C  C82  1  0.67059000  0.57690000  0.88797000  1.0
  C  C83  1  0.71101000  0.64046000  0.21681000  1.0
  C  C84  1  0.70193000  0.65119000  0.83147000  1.0
  C  C85  1  0.79850000  0.86307000  0.66808000  1.0
  C  C86  1  0.75101000  0.20694000  0.86857000  1.0
  C  C87  1  0.62843000  0.72302000  0.82157000  1.0
  C  C88  1  0.76074000  0.79336000  0.72922000  1.0
  C  C89  1  0.80476000  0.65106000  0.79009000  1.0
  C  C90  1  0.83374000  0.72126000  0.73941000  1.0
  C  C91  1  0.63714000  0.69627000  0.27417000  1.0
  C  C92  1  0.82360000  0.65462000  0.23274000  1.0
  C  C93  1  0.74978000  0.31102000  0.76431000  1.0
  C  C94  1  0.54742000  0.08597000  0.51376000  1.0
  C  C95  1  0.55050000  0.93203000  0.53696000  1.0
  C  C96  1  0.84205000  0.22882000  0.20587000  1.0
  C  C97  1  0.82979000  0.86612000  0.42934000  1.0
  C  C98  1  0.82949000  0.11198000  0.42299000  1.0
  C  C99  1  0.78902000  0.78319000  0.35943000  1.0
  C  C100  1  0.79811000  0.16835000  0.34861000  1.0
  C  C101  1  0.70151000  0.33167000  0.13673000  1.0
  C  C102  1  0.74894000  0.13111000  0.79272000  1.0
  C  C103  1  0.87155000  0.17810000  0.27669000  1.0
  C  C104  1  0.73931000  0.27053000  0.20643000  1.0
  C  C105  1  0.69534000  0.20984000  0.34880000  1.0
  C  C106  1  0.66635000  0.26046000  0.27859000  1.0
  C  C107  1  0.86288000  0.72561000  0.30384000  1.0
  C  C108  1  0.67641000  0.76743000  0.34512000  1.0
  C  C109  1  0.75038000  0.23551000  0.68876000  1.0
  N  N110  1  0.24887000  0.70319000  0.14576000  1.0
  N  N111  1  0.09848000  0.55017000  0.01811000  1.0
  N  N112  1  0.25102000  0.85446000  0.29708000  1.0
  N  N113  1  0.40149000  0.98196000  0.44991000  1.0
  N  N114  1  0.75109000  0.29680000  0.85422000  1.0
  N  N115  1  0.90155000  0.44981000  0.98188000  1.0
  N  N116  1  0.74896000  0.14555000  0.70291000  1.0
  N  N117  1  0.59850000  0.01810000  0.55010000  1.0
  O  O118  1  0.25524000  0.46744000  0.92042000  1.0
  O  O119  1  0.26899000  0.49709000  0.12102000  1.0
  O  O120  1  0.26409000  0.06317000  0.33233000  1.0
  O  O121  1  0.43194000  0.44128000  0.87657000  1.0
  O  O122  1  0.40607000  0.59517000  0.02839000  1.0
  O  O123  1  0.41041000  0.40636000  0.05931000  1.0
  O  O124  1  0.11763000  0.15497000  0.37759000  1.0
  O  O125  1  0.24473000  0.07956000  0.53270000  1.0
  O  O126  1  0.23098000  0.87899000  0.50305000  1.0
  O  O127  1  0.23592000  0.66788000  0.93701000  1.0
  O  O128  1  0.06804000  0.12349000  0.55882000  1.0
  O  O129  1  0.09396000  0.97167000  0.40490000  1.0
  O  O130  1  0.08949000  0.94071000  0.59367000  1.0
  O  O131  1  0.38242000  0.62269000  0.84524000  1.0
  O  O132  1  0.74480000  0.53253000  0.07960000  1.0
  O  O133  1  0.73103000  0.50289000  0.87898000  1.0
  O  O134  1  0.73589000  0.93686000  0.66770000  1.0
  O  O135  1  0.56809000  0.55873000  0.12343000  1.0
  O  O136  1  0.59390000  0.40483000  0.97161000  1.0
  O  O137  1  0.58960000  0.59363000  0.94068000  1.0
  O  O138  1  0.88240000  0.84511000  0.62249000  1.0
  O  O139  1  0.75528000  0.92045000  0.46733000  1.0
  O  O140  1  0.76902000  0.12103000  0.49696000  1.0
  O  O141  1  0.76410000  0.33210000  0.06295000  1.0
  O  O142  1  0.93196000  0.87654000  0.44121000  1.0
  O  O143  1  0.90606000  0.02836000  0.59511000  1.0
  O  O144  1  0.91051000  0.05931000  0.40635000  1.0
  O  O145  1  0.61758000  0.37725000  0.15470000  1.0
