# generated using pymatgen
data_ZnH14C14(NO3)2
_symmetry_space_group_name_H-M   'P 1'
_cell_length_a   8.00921000
_cell_length_b   11.93270000
_cell_length_c   15.72100000
_cell_angle_alpha   90.00000000
_cell_angle_beta   90.00000000
_cell_angle_gamma   90.00000000
_symmetry_Int_Tables_number   1
_chemical_formula_structural   ZnH14C14(NO3)2
_chemical_formula_sum   'Zn4 H56 C56 N8 O24'
_cell_volume   1502.47955413
_cell_formula_units_Z   4
loop_
 _symmetry_equiv_pos_site_id
 _symmetry_equiv_pos_as_xyz
  1  'x, y, z'
loop_
 _atom_site_type_symbol
 _atom_site_label
 _atom_site_symmetry_multiplicity
 _atom_site_fract_x
 _atom_site_fract_y
 _atom_site_fract_z
 _atom_site_occupancy
  Zn  Zn0  1  0.00000000  0.50000000  0.50000000  1.0
  Zn  Zn1  1  0.50000000  0.50000000  0.00000000  1.0
  Zn  Zn2  1  0.50000000  0.00000000  0.50000000  1.0
  Zn  Zn3  1  0.00000000  0.00000000  0.00000000  1.0
  H  H4  1  0.80657000  0.32736000  0.46970000  1.0
  H  H5  1  0.69343000  0.67264000  0.96970000  1.0
  H  H6  1  0.30657000  0.17264000  0.53030000  1.0
  H  H7  1  0.19343000  0.82736000  0.03030000  1.0
  H  H8  1  0.19343000  0.67264000  0.53030000  1.0
  H  H9  1  0.30657000  0.32736000  0.03030000  1.0
  H  H10  1  0.69343000  0.82736000  0.46970000  1.0
  H  H11  1  0.80657000  0.17264000  0.96970000  1.0
  H  H12  1  0.99281000  0.28256000  0.45708000  1.0
  H  H13  1  0.50719000  0.71744000  0.95708000  1.0
  H  H14  1  0.49281000  0.21744000  0.54292000  1.0
  H  H15  1  0.00719000  0.78256000  0.04292000  1.0
  H  H16  1  0.00719000  0.71744000  0.54292000  1.0
  H  H17  1  0.49281000  0.28256000  0.04292000  1.0
  H  H18  1  0.50719000  0.78256000  0.45708000  1.0
  H  H19  1  0.99281000  0.21744000  0.95708000  1.0
  H  H20  1  0.05327000  0.79120000  0.25332000  1.0
  H  H21  1  0.44673000  0.20880000  0.75332000  1.0
  H  H22  1  0.55327000  0.70880000  0.74668000  1.0
  H  H23  1  0.94673000  0.29120000  0.24668000  1.0
  H  H24  1  0.94673000  0.20880000  0.74668000  1.0
  H  H25  1  0.55327000  0.79120000  0.24668000  1.0
  H  H26  1  0.44673000  0.29120000  0.25332000  1.0
  H  H27  1  0.05327000  0.70880000  0.75332000  1.0
  H  H28  1  0.23713000  0.46096000  0.19152000  1.0
  H  H29  1  0.26287000  0.53904000  0.69152000  1.0
  H  H30  1  0.73713000  0.03904000  0.80848000  1.0
  H  H31  1  0.76287000  0.96096000  0.30848000  1.0
  H  H32  1  0.76288000  0.53904000  0.80848000  1.0
  H  H33  1  0.73713000  0.46096000  0.30848000  1.0
  H  H34  1  0.26287000  0.96096000  0.19152000  1.0
  H  H35  1  0.23713000  0.03904000  0.69152000  1.0
  H  H36  1  0.98843000  0.71956000  0.39979000  1.0
  H  H37  1  0.51156000  0.28044000  0.89978000  1.0
  H  H38  1  0.48844000  0.78044000  0.60022000  1.0
  H  H39  1  0.01157000  0.21956000  0.10022000  1.0
  H  H40  1  0.01157000  0.28044000  0.60022000  1.0
  H  H41  1  0.48844000  0.71956000  0.10022000  1.0
  H  H42  1  0.51157000  0.21956000  0.39978000  1.0
  H  H43  1  0.98844000  0.78044000  0.89978000  1.0
  H  H44  1  0.16235000  0.40261000  0.34065000  1.0
  H  H45  1  0.33765000  0.59739000  0.84065000  1.0
  H  H46  1  0.66235000  0.09739000  0.65935000  1.0
  H  H47  1  0.83765000  0.90261000  0.15935000  1.0
  H  H48  1  0.83765000  0.59739000  0.65935000  1.0
  H  H49  1  0.66235000  0.40261000  0.15935000  1.0
  H  H50  1  0.33765000  0.90261000  0.34065000  1.0
  H  H51  1  0.16235000  0.09739000  0.84065000  1.0
  H  H52  1  0.17953000  0.65924000  0.14710000  1.0
  H  H53  1  0.32047000  0.34076000  0.64710000  1.0
  H  H54  1  0.67953000  0.84076000  0.85290000  1.0
  H  H55  1  0.82047000  0.15924000  0.35290000  1.0
  H  H56  1  0.82047000  0.34076000  0.85290000  1.0
  H  H57  1  0.67953000  0.65924000  0.35290000  1.0
  H  H58  1  0.32047000  0.15924000  0.14710000  1.0
  H  H59  1  0.17953000  0.84076000  0.64710000  1.0
  C  C60  1  0.55239000  0.42057000  0.50660000  1.0
  C  C61  1  0.94761000  0.57943000  0.00660000  1.0
  C  C62  1  0.05239000  0.07943000  0.49340000  1.0
  C  C63  1  0.44761000  0.92057000  0.99340000  1.0
  C  C64  1  0.44760000  0.57943000  0.49340000  1.0
  C  C65  1  0.05239000  0.42057000  0.99340000  1.0
  C  C66  1  0.94761000  0.92057000  0.50660000  1.0
  C  C67  1  0.55239000  0.07943000  0.00660000  1.0
  C  C68  1  0.38063000  0.46541000  0.50692000  1.0
  C  C69  1  0.11937000  0.53459000  0.00692000  1.0
  C  C70  1  0.88063000  0.03459000  0.49308000  1.0
  C  C71  1  0.61937000  0.96541000  0.99308000  1.0
  C  C72  1  0.61937000  0.53459000  0.49308000  1.0
  C  C73  1  0.88063000  0.46541000  0.99308000  1.0
  C  C74  1  0.11937000  0.96541000  0.50692000  1.0
  C  C75  1  0.38063000  0.03459000  0.00693000  1.0
  C  C76  1  0.08020000  0.70451000  0.27033000  1.0
  C  C77  1  0.41980000  0.29549000  0.77033000  1.0
  C  C78  1  0.58020000  0.79549000  0.72967000  1.0
  C  C79  1  0.91980000  0.20451000  0.22967000  1.0
  C  C80  1  0.91980000  0.29549000  0.72967000  1.0
  C  C81  1  0.58020000  0.70451000  0.22967000  1.0
  C  C82  1  0.41980000  0.20451000  0.27033000  1.0
  C  C83  1  0.08020000  0.79549000  0.77033000  1.0
  C  C84  1  0.18107000  0.52056000  0.23575000  1.0
  C  C85  1  0.31893000  0.47944000  0.73575000  1.0
  C  C86  1  0.68107000  0.97944000  0.76425000  1.0
  C  C87  1  0.81893000  0.02056000  0.26425000  1.0
  C  C88  1  0.81893000  0.47944000  0.76425000  1.0
  C  C89  1  0.68107000  0.52056000  0.26425000  1.0
  C  C90  1  0.31893000  0.02056000  0.23575000  1.0
  C  C91  1  0.18107000  0.97944000  0.73575000  1.0
  C  C92  1  0.04380000  0.66528000  0.35165000  1.0
  C  C93  1  0.45620000  0.33472000  0.85165000  1.0
  C  C94  1  0.54380000  0.83472000  0.64835000  1.0
  C  C95  1  0.95620000  0.16528000  0.14835000  1.0
  C  C96  1  0.95620000  0.33472000  0.64835000  1.0
  C  C97  1  0.54380000  0.66528000  0.14835000  1.0
  C  C98  1  0.45620000  0.16528000  0.35165000  1.0
  C  C99  1  0.04380000  0.83472000  0.85165000  1.0
  C  C100  1  0.14075000  0.48790000  0.31830000  1.0
  C  C101  1  0.35925000  0.51210000  0.81830000  1.0
  C  C102  1  0.64075000  0.01210000  0.68170000  1.0
  C  C103  1  0.85925000  0.98790000  0.18170000  1.0
  C  C104  1  0.85925000  0.51210000  0.68170000  1.0
  C  C105  1  0.64075000  0.48790000  0.18170000  1.0
  C  C106  1  0.35925000  0.98790000  0.31830000  1.0
  C  C107  1  0.14075000  0.01210000  0.81830000  1.0
  C  C108  1  0.14969000  0.63106000  0.21119000  1.0
  C  C109  1  0.35031000  0.36894000  0.71119000  1.0
  C  C110  1  0.64969000  0.86894000  0.78881000  1.0
  C  C111  1  0.85031000  0.13106000  0.28881000  1.0
  C  C112  1  0.85031000  0.36894000  0.78881000  1.0
  C  C113  1  0.64969000  0.63106000  0.28881000  1.0
  C  C114  1  0.35031000  0.13106000  0.21119000  1.0
  C  C115  1  0.14969000  0.86894000  0.71119000  1.0
  N  N116  1  0.07257000  0.55864000  0.37531000  1.0
  N  N117  1  0.42743000  0.44136000  0.87531000  1.0
  N  N118  1  0.57258000  0.94136000  0.62469000  1.0
  N  N119  1  0.92742000  0.05864000  0.12469000  1.0
  N  N120  1  0.92742000  0.44136000  0.62469000  1.0
  N  N121  1  0.57257000  0.55864000  0.12469000  1.0
  N  N122  1  0.42743000  0.05864000  0.37531000  1.0
  N  N123  1  0.07258000  0.94136000  0.87531000  1.0
  O  O124  1  0.91598000  0.34593000  0.44207000  1.0
  O  O125  1  0.58403000  0.65407000  0.94207000  1.0
  O  O126  1  0.41598000  0.15407000  0.55793000  1.0
  O  O127  1  0.08402000  0.84593000  0.05793000  1.0
  O  O128  1  0.08402000  0.65407000  0.55793000  1.0
  O  O129  1  0.41597000  0.34593000  0.05793000  1.0
  O  O130  1  0.58402000  0.84593000  0.44207000  1.0
  O  O131  1  0.91598000  0.15407000  0.94207000  1.0
  O  O132  1  0.61571000  0.32396000  0.51354000  1.0
  O  O133  1  0.88429000  0.67605000  0.01354000  1.0
  O  O134  1  0.11571000  0.17604000  0.48646000  1.0
  O  O135  1  0.38429000  0.82395000  0.98646000  1.0
  O  O136  1  0.38428000  0.67604000  0.48646000  1.0
  O  O137  1  0.11571000  0.32395000  0.98646000  1.0
  O  O138  1  0.88429000  0.82396000  0.51354000  1.0
  O  O139  1  0.61571000  0.17605000  0.01354000  1.0
  O  O140  1  0.23899000  0.42083000  0.51552000  1.0
  O  O141  1  0.26101000  0.57916000  0.01552000  1.0
  O  O142  1  0.73899000  0.07916000  0.48448000  1.0
  O  O143  1  0.76101000  0.92084000  0.98448000  1.0
  O  O144  1  0.76101000  0.57917000  0.48448000  1.0
  O  O145  1  0.73899000  0.42084000  0.98448000  1.0
  O  O146  1  0.26101000  0.92084000  0.51552000  1.0
  O  O147  1  0.23899000  0.07916000  0.01552000  1.0
