# generated using pymatgen
data_CsH2C5(NO2)3
_symmetry_space_group_name_H-M   'P 1'
_cell_length_a   7.78223000
_cell_length_b   10.31748076
_cell_length_c   12.84260000
_cell_angle_alpha   84.66397926
_cell_angle_beta   72.37340000
_cell_angle_gamma   67.84442620
_symmetry_Int_Tables_number   1
_chemical_formula_structural   CsH2C5(NO2)3
_chemical_formula_sum   'Cs4 H8 C20 N12 O24'
_cell_volume   909.93151219
_cell_formula_units_Z   4
loop_
 _symmetry_equiv_pos_site_id
 _symmetry_equiv_pos_as_xyz
  1  'x, y, z'
loop_
 _atom_site_type_symbol
 _atom_site_label
 _atom_site_symmetry_multiplicity
 _atom_site_fract_x
 _atom_site_fract_y
 _atom_site_fract_z
 _atom_site_occupancy
  Cs  Cs0  1  0.70793000  0.52673000  0.56684000  1.0
  Cs  Cs1  1  0.30164000  0.97333000  0.93310000  1.0
  Cs  Cs2  1  0.29207000  0.47327000  0.43316000  1.0
  Cs  Cs3  1  0.69836000  0.02667000  0.06690000  1.0
  H  H4  1  0.81005000  0.38462000  0.24316000  1.0
  H  H5  1  0.93795000  0.11535000  0.25680000  1.0
  H  H6  1  0.18995000  0.61538000  0.75684000  1.0
  H  H7  1  0.06205000  0.88465000  0.74320000  1.0
  H  H8  1  0.88337000  0.30872000  0.91704000  1.0
  H  H9  1  0.60926000  0.19132000  0.58291000  1.0
  H  H10  1  0.11663000  0.69128000  0.08296000  1.0
  H  H11  1  0.39074000  0.80868000  0.41709000  1.0
  C  C12  1  0.79610000  0.43008000  0.16441000  1.0
  C  C13  1  0.89074000  0.06990000  0.33556000  1.0
  C  C14  1  0.20390000  0.56992000  0.83559000  1.0
  C  C15  1  0.10926000  0.93010000  0.66444000  1.0
  C  C16  1  0.72467000  0.57332000  0.14910000  1.0
  C  C17  1  0.94717000  0.92669000  0.35088000  1.0
  C  C18  1  0.27533000  0.42668000  0.85090000  1.0
  C  C19  1  0.05283000  0.07331000  0.64911000  1.0
  C  C20  1  0.68733000  0.63766000  0.04824000  1.0
  C  C21  1  0.87331000  0.86237000  0.45175000  1.0
  C  C22  1  0.31267000  0.36234000  0.95176000  1.0
  C  C23  1  0.12669000  0.13763000  0.54825000  1.0
  C  C24  1  0.75083000  0.52870000  0.96526000  1.0
  C  C25  1  0.74494000  0.97134000  0.53472000  1.0
  C  C26  1  0.24917000  0.47130000  0.03474000  1.0
  C  C27  1  0.25506000  0.02866000  0.46528000  1.0
  C  C28  1  0.83607000  0.38791000  0.98059000  1.0
  C  C29  1  0.70476000  0.11214000  0.51938000  1.0
  C  C30  1  0.16392000  0.61209000  0.01941000  1.0
  C  C31  1  0.29524000  0.88786000  0.48062000  1.0
  N  N32  1  0.68329000  0.65947000  0.24193000  1.0
  N  N33  1  0.08478000  0.84047000  0.25807000  1.0
  N  N34  1  0.31671000  0.34053000  0.75807000  1.0
  N  N35  1  0.91523000  0.15953000  0.74193000  1.0
  N  N36  1  0.72905000  0.56802000  0.85727000  1.0
  N  N37  1  0.65446000  0.93204000  0.64270000  1.0
  N  N38  1  0.27094000  0.43199000  0.14273000  1.0
  N  N39  1  0.34554000  0.06796000  0.35730000  1.0
  N  N40  1  0.85559000  0.33749000  0.08045000  1.0
  N  N41  1  0.77369000  0.16251000  0.41950000  1.0
  N  N42  1  0.14441000  0.66251000  0.91955000  1.0
  N  N43  1  0.22631000  0.83749000  0.58050000  1.0
  O  O44  1  0.62364000  0.61635000  0.33543000  1.0
  O  O45  1  0.07550000  0.88360000  0.16456000  1.0
  O  O46  1  0.37636000  0.38365000  0.66456000  1.0
  O  O47  1  0.92449000  0.11640000  0.83544000  1.0
  O  O48  1  0.71090000  0.77170000  0.22616000  1.0
  O  O49  1  0.20888000  0.72827000  0.27387000  1.0
  O  O50  1  0.28910000  0.22830000  0.77384000  1.0
  O  O51  1  0.79112000  0.27173000  0.72613000  1.0
  O  O52  1  0.61296000  0.76613000  0.03329000  1.0
  O  O53  1  0.91242000  0.73391000  0.46669000  1.0
  O  O54  1  0.38704000  0.23386000  0.96671000  1.0
  O  O55  1  0.08758000  0.26609000  0.53331000  1.0
  O  O56  1  0.56691000  0.64915000  0.85163000  1.0
  O  O57  1  0.56788000  0.85086000  0.64837000  1.0
  O  O58  1  0.43308000  0.35085000  0.14837000  1.0
  O  O59  1  0.43212000  0.14914000  0.35163000  1.0
  O  O60  1  0.87199000  0.51732000  0.77634000  1.0
  O  O61  1  0.66568000  0.98285000  0.72363000  1.0
  O  O62  1  0.12801000  0.48268000  0.22366000  1.0
  O  O63  1  0.33432000  0.01715000  0.27637000  1.0
  O  O64  1  0.93010000  0.20156000  0.09404000  1.0
  O  O65  1  0.72573000  0.29842000  0.40584000  1.0
  O  O66  1  0.06990000  0.79844000  0.90596000  1.0
  O  O67  1  0.27427000  0.70158000  0.59416000  1.0
