# generated using pymatgen
data_CuH24C21(NO)4
_symmetry_space_group_name_H-M   'P 1'
_cell_length_a   7.78603000
_cell_length_b   11.76400000
_cell_length_c   12.25700000
_cell_angle_alpha   85.93450000
_cell_angle_beta   78.65550000
_cell_angle_gamma   80.12690000
_symmetry_Int_Tables_number   1
_chemical_formula_structural   CuH24C21(NO)4
_chemical_formula_sum   'Cu2 H48 C42 N8 O8'
_cell_volume   1083.63828495
_cell_formula_units_Z   2
loop_
 _symmetry_equiv_pos_site_id
 _symmetry_equiv_pos_as_xyz
  1  'x, y, z'
loop_
 _atom_site_type_symbol
 _atom_site_label
 _atom_site_symmetry_multiplicity
 _atom_site_fract_x
 _atom_site_fract_y
 _atom_site_fract_z
 _atom_site_occupancy
  Cu  Cu0  1  0.50000000  0.50000000  0.50000000  1.0
  Cu  Cu1  1  0.50000000  0.00000000  0.00000000  1.0
  H  H2  1  0.66929000  0.71527000  0.55282000  1.0
  H  H3  1  0.33071000  0.28473000  0.44718000  1.0
  H  H4  1  0.13843000  0.76397000  0.41611000  1.0
  H  H5  1  0.86156000  0.23603000  0.58390000  1.0
  H  H6  1  0.06244000  0.73572000  0.55901000  1.0
  H  H7  1  0.93756000  0.26428000  0.44099000  1.0
  H  H8  1  0.69607000  0.85159000  0.17635000  1.0
  H  H9  1  0.30393000  0.14840000  0.82364000  1.0
  H  H10  1  0.78059000  0.16808000  0.00847000  1.0
  H  H11  1  0.21942000  0.83192000  0.99153000  1.0
  H  H12  1  0.02686000  0.10766000  0.15094000  1.0
  H  H13  1  0.97315000  0.89233000  0.84907000  1.0
  H  H14  1  0.86726000  0.44528000  0.33200000  1.0
  H  H15  1  0.13274000  0.55472000  0.66800000  1.0
  H  H16  1  0.71862000  0.10229000  0.33425000  1.0
  H  H17  1  0.28136000  0.89770000  0.66575000  1.0
  H  H18  1  0.13883000  0.57397000  0.33420000  1.0
  H  H19  1  0.86117000  0.42603000  0.66580000  1.0
  H  H20  1  0.10132000  0.91918000  0.26718000  1.0
  H  H21  1  0.89868000  0.08081000  0.73283000  1.0
  H  H22  1  0.96539000  0.81177000  0.27393000  1.0
  H  H23  1  0.03461000  0.18822000  0.72607000  1.0
  H  H24  1  0.82881000  0.85966000  0.66934000  1.0
  H  H25  1  0.17118000  0.14034000  0.33066000  1.0
  H  H26  1  0.61541000  0.03975000  0.68997000  1.0
  H  H27  1  0.38458000  0.96025000  0.31003000  1.0
  H  H28  1  0.56250000  0.16426000  0.52056000  1.0
  H  H29  1  0.43748000  0.83573000  0.47944000  1.0
  H  H30  1  0.68665000  0.32393000  0.17394000  1.0
  H  H31  1  0.31335000  0.67607000  0.82606000  1.0
  H  H32  1  0.49981000  0.26211000  0.23121000  1.0
  H  H33  1  0.50019000  0.73790000  0.76879000  1.0
  H  H34  1  0.56213000  0.37030000  0.01833000  1.0
  H  H35  1  0.43788000  0.62970000  0.98167000  1.0
  H  H36  1  0.42489000  0.48283000  0.09777000  1.0
  H  H37  1  0.57511000  0.51717000  0.90223000  1.0
  H  H38  1  0.34790000  0.37368000  0.89807000  1.0
  H  H39  1  0.65209000  0.62632000  0.10192000  1.0
  H  H40  1  0.19903000  0.48526000  0.97492000  1.0
  H  H41  1  0.80097000  0.51474000  0.02508000  1.0
  H  H42  1  0.12472000  0.35526000  0.95468000  1.0
  H  H43  1  0.87528000  0.64475000  0.04532000  1.0
  H  H44  1  0.02579000  0.33283000  0.16850000  1.0
  H  H45  1  0.97422000  0.66718000  0.83150000  1.0
  H  H46  1  0.10466000  0.46462000  0.17845000  1.0
  H  H47  1  0.89535000  0.53538000  0.82154000  1.0
  H  H48  1  0.17903000  0.33887000  0.25664000  1.0
  H  H49  1  0.82097000  0.66114000  0.74336000  1.0
  C  C50  1  0.34603000  0.20809000  0.07055000  1.0
  C  C51  1  0.65398000  0.79191000  0.92945000  1.0
  C  C52  1  0.75821000  0.65861000  0.49324000  1.0
  C  C53  1  0.24179000  0.34139000  0.50676000  1.0
  C  C54  1  0.50316000  0.42786000  0.29200000  1.0
  C  C55  1  0.49684000  0.57214000  0.70800000  1.0
  C  C56  1  0.86390000  0.94458000  0.39424000  1.0
  C  C57  1  0.13609000  0.05542000  0.60576000  1.0
  C  C58  1  0.01839000  0.76167000  0.47981000  1.0
  C  C59  1  0.98161000  0.23833000  0.52019000  1.0
  C  C60  1  0.89602000  0.87630000  0.48952000  1.0
  C  C61  1  0.10398000  0.12370000  0.51048000  1.0
  C  C62  1  0.74980000  0.93045000  0.15031000  1.0
  C  C63  1  0.25020000  0.06955000  0.84969000  1.0
  C  C64  1  0.79969000  0.09431000  0.06537000  1.0
  C  C65  1  0.20032000  0.90569000  0.93463000  1.0
  C  C66  1  0.91837000  0.06703000  0.13634000  1.0
  C  C67  1  0.08164000  0.93296000  0.86366000  1.0
  C  C68  1  0.86793000  0.52044000  0.37767000  1.0
  C  C69  1  0.13207000  0.47956000  0.62234000  1.0
  C  C70  1  0.74427000  0.04811000  0.40710000  1.0
  C  C71  1  0.25572000  0.95189000  0.59289000  1.0
  C  C72  1  0.00052000  0.58457000  0.37625000  1.0
  C  C73  1  0.99948000  0.41543000  0.62375000  1.0
  C  C74  1  0.96263000  0.90477000  0.28043000  1.0
  C  C75  1  0.03737000  0.09522000  0.71958000  1.0
  C  C76  1  0.29526000  0.33980000  0.07894000  1.0
  C  C77  1  0.70474000  0.66020000  0.92106000  1.0
  C  C78  1  0.80643000  0.91227000  0.59486000  1.0
  C  C79  1  0.19357000  0.08773000  0.40514000  1.0
  C  C80  1  0.68572000  0.01505000  0.60684000  1.0
  C  C81  1  0.31427000  0.98495000  0.39316000  1.0
  C  C82  1  0.65558000  0.08339000  0.51272000  1.0
  C  C83  1  0.34441000  0.91661000  0.48729000  1.0
  C  C84  1  0.54119000  0.34438000  0.19665000  1.0
  C  C85  1  0.45881000  0.65562000  0.80335000  1.0
  C  C86  1  0.46131000  0.38862000  0.09393000  1.0
  C  C87  1  0.53869000  0.61138000  0.90607000  1.0
  C  C88  1  0.23918000  0.39123000  0.96975000  1.0
  C  C89  1  0.76083000  0.60877000  0.03024000  1.0
  C  C90  1  0.14240000  0.37040000  0.17654000  1.0
  C  C91  1  0.85760000  0.62961000  0.82346000  1.0
  N  N92  1  0.71860000  0.56698000  0.45122000  1.0
  N  N93  1  0.28140000  0.43302000  0.54878000  1.0
  N  N94  1  0.69629000  0.00849000  0.07502000  1.0
  N  N95  1  0.30371000  0.99151000  0.92498000  1.0
  N  N96  1  0.88466000  0.96312000  0.18913000  1.0
  N  N97  1  0.11534000  0.03688000  0.81087000  1.0
  N  N98  1  0.92783000  0.67179000  0.44959000  1.0
  N  N99  1  0.07217000  0.32821000  0.55042000  1.0
  O  O100  1  0.45827000  0.17290000  0.98207000  1.0
  O  O101  1  0.54173000  0.82710000  0.01793000  1.0
  O  O102  1  0.57501000  0.38670000  0.37712000  1.0
  O  O103  1  0.42498000  0.61331000  0.62287000  1.0
  O  O104  1  0.28307000  0.14059000  0.14624000  1.0
  O  O105  1  0.71695000  0.85941000  0.85376000  1.0
  O  O106  1  0.41247000  0.52596000  0.28705000  1.0
  O  O107  1  0.58752000  0.47404000  0.71294000  1.0
