# generated using pymatgen
data_Mn3H20C22(NO7)2
_symmetry_space_group_name_H-M   'P 1'
_cell_length_a   5.96595000
_cell_length_b   9.37766000
_cell_length_c   11.81200000
_cell_angle_alpha   68.64340000
_cell_angle_beta   81.40690000
_cell_angle_gamma   76.69390000
_symmetry_Int_Tables_number   1
_chemical_formula_structural   Mn3H20C22(NO7)2
_chemical_formula_sum   'Mn3 H20 C22 N2 O14'
_cell_volume   597.36962923
_cell_formula_units_Z   1
loop_
 _symmetry_equiv_pos_site_id
 _symmetry_equiv_pos_as_xyz
  1  'x, y, z'
loop_
 _atom_site_type_symbol
 _atom_site_label
 _atom_site_symmetry_multiplicity
 _atom_site_fract_x
 _atom_site_fract_y
 _atom_site_fract_z
 _atom_site_occupancy
  Mn  Mn0  1  0.49921000  0.50013000  0.50035000  1.0
  Mn  Mn1  1  0.99717000  0.84303000  0.63554000  1.0
  Mn  Mn2  1  0.00301000  0.15703000  0.36413000  1.0
  H  H3  1  0.25624000  0.51308000  0.11668000  1.0
  H  H4  1  0.74319000  0.48689000  0.88348000  1.0
  H  H5  1  0.34020000  0.71039000  0.91922000  1.0
  H  H6  1  0.65955000  0.28933000  0.08087000  1.0
  H  H7  1  0.63455000  0.95833000  0.93405000  1.0
  H  H8  1  0.36539000  0.04182000  0.06575000  1.0
  H  H9  1  0.55634000  0.75550000  0.12908000  1.0
  H  H10  1  0.44328000  0.24476000  0.87078000  1.0
  H  H11  1  0.35871000  0.97356000  0.85280000  1.0
  H  H12  1  0.64182000  0.02581000  0.14746000  1.0
  H  H13  1  0.28063000  0.11309000  0.70991000  1.0
  H  H14  1  0.71998000  0.88679000  0.29053000  1.0
  H  H15  1  0.89911000  0.19762000  0.79901000  1.0
  H  H16  1  0.10157000  0.80266000  0.20049000  1.0
  H  H17  1  0.69974000  0.09268000  0.78276000  1.0
  H  H18  1  0.30068000  0.90741000  0.21723000  1.0
  H  H19  1  0.55071000  0.72863000  0.57157000  1.0
  H  H20  1  0.44927000  0.27141000  0.42877000  1.0
  H  H21  1  0.79898000  0.62900000  0.56520000  1.0
  H  H22  1  0.20099000  0.37113000  0.43450000  1.0
  C  C23  1  0.85059000  0.51128000  0.26133000  1.0
  C  C24  1  0.14897000  0.48910000  0.73884000  1.0
  C  C25  1  0.90092000  0.62228000  0.13717000  1.0
  C  C26  1  0.09863000  0.37792000  0.86284000  1.0
  C  C27  1  0.12033000  0.61090000  0.07517000  1.0
  C  C28  1  0.87926000  0.38914000  0.92490000  1.0
  C  C29  1  0.16726000  0.72381000  0.96398000  1.0
  C  C30  1  0.83258000  0.27611000  0.03609000  1.0
  C  C31  1  0.99420000  0.85300000  0.91011000  1.0
  C  C32  1  0.00581000  0.14702000  0.08991000  1.0
  C  C33  1  0.77280000  0.86105000  0.97152000  1.0
  C  C34  1  0.22704000  0.13910000  0.02838000  1.0
  C  C35  1  0.72778000  0.74775000  0.08190000  1.0
  C  C36  1  0.27186000  0.25248000  0.91800000  1.0
  C  C37  1  0.28016000  0.99135000  0.76920000  1.0
  C  C38  1  0.72031000  0.00848000  0.23098000  1.0
  C  C39  1  0.44040000  0.89211000  0.70208000  1.0
  C  C40  1  0.55981000  0.10793000  0.29788000  1.0
  C  C41  1  0.87595000  0.11444000  0.75779000  1.0
  C  C42  1  0.12448000  0.88557000  0.24207000  1.0
  C  C43  1  0.88363000  0.19194000  0.61986000  1.0
  C  C44  1  0.11660000  0.80752000  0.37999000  1.0
  N  N45  1  0.04160000  0.96724000  0.79739000  1.0
  N  N46  1  0.95883000  0.03275000  0.20274000  1.0
  O  O47  1  0.00966000  0.39059000  0.30398000  1.0
  O  O48  1  0.98998000  0.60978000  0.69613000  1.0
  O  O49  1  0.65820000  0.54349000  0.31692000  1.0
  O  O50  1  0.34162000  0.45719000  0.68324000  1.0
  O  O51  1  0.65123000  0.89736000  0.69578000  1.0
  O  O52  1  0.34901000  0.10289000  0.30383000  1.0
  O  O53  1  0.35633000  0.81418000  0.65571000  1.0
  O  O54  1  0.64380000  0.18564000  0.34445000  1.0
  O  O55  1  0.96788000  0.10263000  0.55638000  1.0
  O  O56  1  0.03384000  0.89662000  0.44377000  1.0
  O  O57  1  0.80244000  0.33463000  0.57717000  1.0
  O  O58  1  0.19637000  0.66455000  0.42232000  1.0
  O  O59  1  0.66004000  0.67632000  0.51909000  1.0
  O  O60  1  0.33947000  0.32377000  0.48097000  1.0
