# generated using pymatgen
data_AlH8C13N2O5F
_symmetry_space_group_name_H-M   'P 1'
_cell_length_a   6.63912000
_cell_length_b   11.07960000
_cell_length_c   16.94080000
_cell_angle_alpha   83.82200000
_cell_angle_beta   82.64060000
_cell_angle_gamma   73.63730000
_symmetry_Int_Tables_number   1
_chemical_formula_structural   AlH8C13N2O5F
_chemical_formula_sum   'Al2 H16 C26 N4 O10 F2'
_cell_volume   1182.46814274
_cell_formula_units_Z   2
loop_
 _symmetry_equiv_pos_site_id
 _symmetry_equiv_pos_as_xyz
  1  'x, y, z'
loop_
 _atom_site_type_symbol
 _atom_site_label
 _atom_site_symmetry_multiplicity
 _atom_site_fract_x
 _atom_site_fract_y
 _atom_site_fract_z
 _atom_site_occupancy
  Al  Al0  1  0.49659000  0.50097000  0.49605000  1.0
  Al  Al1  1  0.99473000  0.50531000  0.49668000  1.0
  H  H2  1  0.19513000  0.65268000  0.44390000  1.0
  H  H3  1  0.81455000  0.34781000  0.53342000  1.0
  H  H4  1  0.83692000  0.57602000  0.73138000  1.0
  H  H5  1  0.77252000  0.57710000  0.88092000  1.0
  H  H6  1  0.44291000  0.45342000  0.89377000  1.0
  H  H7  1  0.60860000  0.44981000  0.10255000  1.0
  H  H8  1  0.17273000  0.56608000  0.10684000  1.0
  H  H9  1  0.10252000  0.56718000  0.25640000  1.0
  H  H10  1  0.85544000  0.76474000  0.61217000  1.0
  H  H11  1  0.99804000  0.87981000  0.69769000  1.0
  H  H12  1  0.60008000  0.23302000  0.60876000  1.0
  H  H13  1  0.86789000  0.11529000  0.69635000  1.0
  H  H14  1  0.58482000  0.44647000  0.67939000  1.0
  H  H15  1  0.67295000  0.42501000  0.77440000  1.0
  H  H16  1  0.45801000  0.45589000  0.31648000  1.0
  H  H17  1  0.40119000  0.42033000  0.22535000  1.0
  C  C18  1  0.62734000  0.72747000  0.50668000  1.0
  C  C19  1  0.79796000  0.50694000  0.35166000  1.0
  C  C20  1  0.35752000  0.27633000  0.49447000  1.0
  C  C21  1  0.19315000  0.50220000  0.64102000  1.0
  C  C22  1  0.17288000  0.50791000  0.72800000  1.0
  C  C23  1  0.96772000  0.54634000  0.76829000  1.0
  C  C24  1  0.93085000  0.54746000  0.85021000  1.0
  C  C25  1  0.10719000  0.51066000  0.89490000  1.0
  C  C26  1  0.31149000  0.47820000  0.85701000  1.0
  C  C27  1  0.35140000  0.47414000  0.77309000  1.0
  C  C28  1  0.71740000  0.47335000  0.13759000  1.0
  C  C29  1  0.89497000  0.50407000  0.09754000  1.0
  C  C30  1  0.03892000  0.53813000  0.13961000  1.0
  C  C31  1  0.99915000  0.53846000  0.22159000  1.0
  C  C32  1  0.82308000  0.50535000  0.26412000  1.0
  C  C33  1  0.67616000  0.47241000  0.22165000  1.0
  C  C34  1  0.55629000  0.86752000  0.50978000  1.0
  C  C35  1  0.64779000  0.93265000  0.55785000  1.0
  C  C36  1  0.39935000  0.93586000  0.46376000  1.0
  C  C37  1  0.80104000  0.86722000  0.61005000  1.0
  C  C38  1  0.88077000  0.93191000  0.65798000  1.0
  C  C39  1  0.42184000  0.13534000  0.50369000  1.0
  C  C40  1  0.33355000  0.06873000  0.46030000  1.0
  C  C41  1  0.57744000  0.06803000  0.55553000  1.0
  C  C42  1  0.65942000  0.13111000  0.60719000  1.0
  C  C43  1  0.80836000  0.06464000  0.65698000  1.0
  N  N44  1  0.09229000  0.50690000  0.97912000  1.0
  N  N45  1  0.91326000  0.50245000  0.01349000  1.0
  N  N46  1  0.55458000  0.43641000  0.73977000  1.0
  N  N47  1  0.50507000  0.43725000  0.25859000  1.0
  O  O48  1  0.48467000  0.66979000  0.51602000  1.0
  O  O49  1  0.96173000  0.49732000  0.38668000  1.0
  O  O50  1  0.16148000  0.33173000  0.50304000  1.0
  O  O51  1  0.38035000  0.47538000  0.60393000  1.0
  O  O52  1  0.50517000  0.33025000  0.47958000  1.0
  O  O53  1  0.02531000  0.52102000  0.60645000  1.0
  O  O54  1  0.82445000  0.67690000  0.49379000  1.0
  O  O55  1  0.61143000  0.51968000  0.38790000  1.0
  O  O56  1  0.22971000  0.56361000  0.46142000  1.0
  O  O57  1  0.76458000  0.43938000  0.53172000  1.0
  F  F58  1  0.18818000  0.12797000  0.40988000  1.0
  F  F59  1  0.30940000  0.87916000  0.41646000  1.0
