# generated using pymatgen
data_Zr3H12C24(N3O8)2
_symmetry_space_group_name_H-M   'P 1'
_cell_length_a   17.26980000
_cell_length_b   17.27310000
_cell_length_c   18.15140000
_cell_angle_alpha   89.55450000
_cell_angle_beta   89.97320000
_cell_angle_gamma   110.25700000
_symmetry_Int_Tables_number   1
_chemical_formula_structural   Zr3H12C24(N3O8)2
_chemical_formula_sum   'Zr6 H24 C48 N12 O32'
_cell_volume   5079.53515803
_cell_formula_units_Z   2
loop_
 _symmetry_equiv_pos_site_id
 _symmetry_equiv_pos_as_xyz
  1  'x, y, z'
loop_
 _atom_site_type_symbol
 _atom_site_label
 _atom_site_symmetry_multiplicity
 _atom_site_fract_x
 _atom_site_fract_y
 _atom_site_fract_z
 _atom_site_occupancy
  Zr  Zr0  1  0.89496000  0.88716000  0.90798000  1.0
  Zr  Zr1  1  0.90661000  0.89263000  0.10333000  1.0
  Zr  Zr2  1  0.07643000  0.06480000  0.89724000  1.0
  Zr  Zr3  1  0.08407000  0.07398000  0.09257000  1.0
  Zr  Zr4  1  0.90174000  0.06845000  0.00087000  1.0
  Zr  Zr5  1  0.07911000  0.89092000  0.99949000  1.0
  H  H6  1  0.90451000  0.76625000  0.00018000  1.0
  H  H7  1  0.92703000  0.04180000  0.16374000  1.0
  H  H8  1  0.20399000  0.06534000  0.99959000  1.0
  H  H9  1  0.92642000  0.04515000  0.83748000  1.0
  H  H10  1  0.92435000  0.87048000  0.24604000  1.0
  H  H11  1  0.13416000  0.06072000  0.23095000  1.0
  H  H12  1  0.19733000  0.22359000  0.09597000  1.0
  H  H13  1  0.23399000  0.17530000  0.85889000  1.0
  H  H14  1  0.09898000  0.05067000  0.75442000  1.0
  H  H15  1  0.83296000  0.87584000  0.76425000  1.0
  H  H16  1  0.74490000  0.77466000  0.90655000  1.0
  H  H17  1  0.80029000  0.73532000  0.14400000  1.0
  H  H18  1  0.17287000  0.22329000  0.87703000  1.0
  H  H19  1  0.90415000  0.83756000  0.76868000  1.0
  H  H20  1  0.74897000  0.79383000  0.12684000  1.0
  H  H21  1  0.09713000  0.13257000  0.23778000  1.0
  H  H22  1  0.36440000  0.96536000  0.43068000  1.0
  H  H23  1  0.61738000  0.97790000  0.43022000  1.0
  H  H24  1  0.61811000  0.98025000  0.56847000  1.0
  H  H25  1  0.36526000  0.96794000  0.56877000  1.0
  H  H26  1  0.00498000  0.60541000  0.42952000  1.0
  H  H27  1  0.97932000  0.34884000  0.43403000  1.0
  H  H28  1  0.97945000  0.35054000  0.57231000  1.0
  H  H29  1  0.00530000  0.60712000  0.56767000  1.0
  C  C30  1  0.75771000  0.97928000  0.88387000  1.0
  C  C31  1  0.99873000  0.75496000  0.12700000  1.0
  C  C32  1  0.75719000  0.97646000  0.11583000  1.0
  C  C33  1  0.00113000  0.75992000  0.87182000  1.0
  C  C34  1  0.21394000  0.97349000  0.87185000  1.0
  C  C35  1  0.99233000  0.21081000  0.11840000  1.0
  C  C36  1  0.21111000  0.96607000  0.12731000  1.0
  C  C37  1  0.99143000  0.21426000  0.88588000  1.0
  C  C38  1  0.99897000  0.55138000  0.76561000  1.0
  C  C39  1  0.99331000  0.48098000  0.65941000  1.0
  C  C40  1  0.99147000  0.41849000  0.77022000  1.0
  C  C41  1  0.99632000  0.54501000  0.23390000  1.0
  C  C42  1  0.99265000  0.47720000  0.34233000  1.0
  C  C43  1  0.99107000  0.41293000  0.23343000  1.0
  C  C44  1  0.42287000  0.97460000  0.76527000  1.0
  C  C45  1  0.55479000  0.97920000  0.76797000  1.0
  C  C46  1  0.49104000  0.97544000  0.65799000  1.0
  C  C47  1  0.41894000  0.96462000  0.23404000  1.0
  C  C48  1  0.55186000  0.97211000  0.23066000  1.0
  C  C49  1  0.48908000  0.97015000  0.34093000  1.0
  C  C50  1  0.41954000  0.96872000  0.46144000  1.0
  C  C51  1  0.49074000  0.97158000  0.42229000  1.0
  C  C52  1  0.56253000  0.97577000  0.46110000  1.0
  C  C53  1  0.56296000  0.97704000  0.53769000  1.0
  C  C54  1  0.49169000  0.97425000  0.57672000  1.0
  C  C55  1  0.42000000  0.97006000  0.53782000  1.0
  C  C56  1  0.99944000  0.55005000  0.46137000  1.0
  C  C57  1  0.99226000  0.47711000  0.42362000  1.0
  C  C58  1  0.98498000  0.40504000  0.46385000  1.0
  C  C59  1  0.98506000  0.40596000  0.54043000  1.0
  C  C60  1  0.99251000  0.47900000  0.57808000  1.0
  C  C61  1  0.99959000  0.55099000  0.53778000  1.0
  C  C62  1  0.98989000  0.34171000  0.19345000  1.0
  C  C63  1  0.99041000  0.28218000  0.15844000  1.0
  C  C64  1  0.99864000  0.61823000  0.19561000  1.0
  C  C65  1  0.99968000  0.68112000  0.16449000  1.0
  C  C66  1  0.98977000  0.34749000  0.81192000  1.0
  C  C67  1  0.99026000  0.28754000  0.84726000  1.0
  C  C68  1  0.00352000  0.68829000  0.83238000  1.0
  C  C69  1  0.00226000  0.62545000  0.80192000  1.0
  C  C70  1  0.28234000  0.96165000  0.16667000  1.0
  C  C71  1  0.34499000  0.96169000  0.19719000  1.0
  C  C72  1  0.62314000  0.97461000  0.18944000  1.0
  C  C73  1  0.68347000  0.97582000  0.15421000  1.0
  C  C74  1  0.28716000  0.97253000  0.83379000  1.0
  C  C75  1  0.34967000  0.97319000  0.80260000  1.0
  C  C76  1  0.62595000  0.98109000  0.80887000  1.0
  C  C77  1  0.68591000  0.98130000  0.84402000  1.0
  N  N78  1  0.99821000  0.55259000  0.69156000  1.0
  N  N79  1  0.98934000  0.41173000  0.69635000  1.0
  N  N80  1  0.99619000  0.48648000  0.80856000  1.0
  N  N81  1  0.99586000  0.54765000  0.30784000  1.0
  N  N82  1  0.98998000  0.40768000  0.30748000  1.0
  N  N83  1  0.99413000  0.47964000  0.19292000  1.0
  N  N84  1  0.48806000  0.97753000  0.80733000  1.0
  N  N85  1  0.56024000  0.97837000  0.69402000  1.0
  N  N86  1  0.42053000  0.97337000  0.69130000  1.0
  N  N87  1  0.48401000  0.96756000  0.19169000  1.0
  N  N88  1  0.55839000  0.97393000  0.30461000  1.0
  N  N89  1  0.41760000  0.96530000  0.30807000  1.0
  O  O90  1  0.78245000  0.91984000  0.86803000  1.0
  O  O91  1  0.78921000  0.03656000  0.92981000  1.0
  O  O92  1  0.94187000  0.78201000  0.14643000  1.0
  O  O93  1  0.05395000  0.78500000  0.07827000  1.0
  O  O94  1  0.77817000  0.91349000  0.12494000  1.0
  O  O95  1  0.79500000  0.04095000  0.07795000  1.0
  O  O96  1  0.95010000  0.79291000  0.84934000  1.0
  O  O97  1  0.04932000  0.78178000  0.92692000  1.0
  O  O98  1  0.80186000  0.77857000  0.91309000  1.0
  O  O99  1  0.89038000  0.88727000  0.77813000  1.0
  O  O100  1  0.78957000  0.77133000  0.10676000  1.0
  O  O101  1  0.90368000  0.90328000  0.21313000  1.0
  O  O102  1  0.87727000  0.94364000  0.00281000  1.0
  O  O103  1  0.93320000  0.82551000  0.00343000  1.0
  O  O104  1  0.18732000  0.03117000  0.85348000  1.0
  O  O105  1  0.18397000  0.91736000  0.92000000  1.0
  O  O106  1  0.05192000  0.18596000  0.13389000  1.0
  O  O107  1  0.93459000  0.17979000  0.07254000  1.0
  O  O108  1  0.17880000  0.01705000  0.15060000  1.0
  O  O109  1  0.18890000  0.91945000  0.07139000  1.0
  O  O110  1  0.05471000  0.19403000  0.87625000  1.0
  O  O111  1  0.92782000  0.17591000  0.92446000  1.0
  O  O112  1  0.19659000  0.18295000  0.89608000  1.0
  O  O113  1  0.06525000  0.06952000  0.78752000  1.0
  O  O114  1  0.19290000  0.16667000  0.08861000  1.0
  O  O115  1  0.08478000  0.07557000  0.22250000  1.0
  O  O116  1  0.14464000  0.03696000  0.99656000  1.0
  O  O117  1  0.02668000  0.09313000  0.99821000  1.0
  O  O118  1  0.02700000  0.94006000  0.91840000  1.0
  O  O119  1  0.94513000  0.02979000  0.11578000  1.0
  O  O120  1  0.93905000  0.02644000  0.88517000  1.0
  O  O121  1  0.03115000  0.94218000  0.08147000  1.0
