# generated using pymatgen
data_SrCd2H16(C12O7)2
_symmetry_space_group_name_H-M   'P 1'
_cell_length_a   10.59170000
_cell_length_b   14.32342356
_cell_length_c   14.74890000
_cell_angle_alpha   76.86177377
_cell_angle_beta   68.98220000
_cell_angle_gamma   68.30358936
_symmetry_Int_Tables_number   1
_chemical_formula_structural   SrCd2H16(C12O7)2
_chemical_formula_sum   'Sr2 Cd4 H32 C48 O28'
_cell_volume   1929.10481837
_cell_formula_units_Z   2
loop_
 _symmetry_equiv_pos_site_id
 _symmetry_equiv_pos_as_xyz
  1  'x, y, z'
loop_
 _atom_site_type_symbol
 _atom_site_label
 _atom_site_symmetry_multiplicity
 _atom_site_fract_x
 _atom_site_fract_y
 _atom_site_fract_z
 _atom_site_occupancy
  Sr  Sr0  1  0.29093000  0.25002000  0.24989000  1.0
  Sr  Sr1  1  0.70906000  0.74999000  0.75011000  1.0
  Cd  Cd2  1  0.00013000  0.46003000  0.38917000  1.0
  Cd  Cd3  1  0.34921000  0.04004000  0.11076000  1.0
  Cd  Cd4  1  0.99987000  0.53997000  0.61083000  1.0
  Cd  Cd5  1  0.65078000  0.95996000  0.88924000  1.0
  H  H6  1  0.27881000  0.10460000  0.48676000  1.0
  H  H7  1  0.37032000  0.39552000  0.01309000  1.0
  H  H8  1  0.72119000  0.89540000  0.51324000  1.0
  H  H9  1  0.62968000  0.60448000  0.98691000  1.0
  H  H10  1  0.40024000  0.97161000  0.59759000  1.0
  H  H11  1  0.46962000  0.52844000  0.90232000  1.0
  H  H12  1  0.59976000  0.02839000  0.40241000  1.0
  H  H13  1  0.53038000  0.47156000  0.09768000  1.0
  H  H14  1  0.34779000  0.19981000  0.76541000  1.0
  H  H15  1  0.81318000  0.30010000  0.73459000  1.0
  H  H16  1  0.65221000  0.80019000  0.23459000  1.0
  H  H17  1  0.18682000  0.69990000  0.26541000  1.0
  H  H18  1  0.22204000  0.33256000  0.65808000  1.0
  H  H19  1  0.71281000  0.16742000  0.84191000  1.0
  H  H20  1  0.77796000  0.66744000  0.34192000  1.0
  H  H21  1  0.28719000  0.83259000  0.15809000  1.0
  H  H22  1  0.15228000  0.33819000  0.06329000  1.0
  H  H23  1  0.05386000  0.16179000  0.43681000  1.0
  H  H24  1  0.84772000  0.66181000  0.93671000  1.0
  H  H25  1  0.94614000  0.83821000  0.56319000  1.0
  H  H26  1  0.83281000  0.62818000  0.11391000  1.0
  H  H27  1  0.07489000  0.87179000  0.38609000  1.0
  H  H28  1  0.16719000  0.37182000  0.88609000  1.0
  H  H29  1  0.92511000  0.12821000  0.61391000  1.0
  H  H30  1  0.81467000  0.34544000  0.51927000  1.0
  H  H31  1  0.17938000  0.15459000  0.98063000  1.0
  H  H32  1  0.18533000  0.65456000  0.48073000  1.0
  H  H33  1  0.82061000  0.84542000  0.01937000  1.0
  H  H34  1  0.80613000  0.43169000  0.57429000  1.0
  H  H35  1  0.31206000  0.06828000  0.92568000  1.0
  H  H36  1  0.19388000  0.56831000  0.42571000  1.0
  H  H37  1  0.68794000  0.93172000  0.07432000  1.0
  C  C38  1  0.24122000  0.22701000  0.56590000  1.0
  C  C39  1  0.53438000  0.27301000  0.93408000  1.0
  C  C40  1  0.75878000  0.77298000  0.43410000  1.0
  C  C41  1  0.46562000  0.72699000  0.06592000  1.0
  C  C42  1  0.29260000  0.12516000  0.54847000  1.0
  C  C43  1  0.46644000  0.37490000  0.95147000  1.0
  C  C44  1  0.70740000  0.87484000  0.45153000  1.0
  C  C45  1  0.53356000  0.62510000  0.04853000  1.0
  C  C46  1  0.36013000  0.05091000  0.61009000  1.0
  C  C47  1  0.52134000  0.44912000  0.88989000  1.0
  C  C48  1  0.63987000  0.94909000  0.38991000  1.0
  C  C49  1  0.47866000  0.55088000  0.11011000  1.0
  C  C50  1  0.37863000  0.07746000  0.68923000  1.0
  C  C51  1  0.64556000  0.42250000  0.81084000  1.0
  C  C52  1  0.62137000  0.92254000  0.31077000  1.0
  C  C53  1  0.35444000  0.57750000  0.18916000  1.0
  C  C54  1  0.32954000  0.17937000  0.70544000  1.0
  C  C55  1  0.71456000  0.32058000  0.79457000  1.0
  C  C56  1  0.67046000  0.82063000  0.29456000  1.0
  C  C57  1  0.28544000  0.67942000  0.20543000  1.0
  C  C58  1  0.26072000  0.25380000  0.64459000  1.0
  C  C59  1  0.65932000  0.24618000  0.85543000  1.0
  C  C60  1  0.73928000  0.74620000  0.35541000  1.0
  C  C61  1  0.34068000  0.75382000  0.14457000  1.0
  C  C62  1  0.16455000  0.30615000  0.50192000  1.0
  C  C63  1  0.47271000  0.19390000  0.99799000  1.0
  C  C64  1  0.83546000  0.69385000  0.49808000  1.0
  C  C65  1  0.52723333  0.80610000  0.00200000  1.0
  C  C66  1  0.45648000  0.99765000  0.75323000  1.0
  C  C67  1  0.70749000  0.50234000  0.74692000  1.0
  C  C68  1  0.54351000  0.00235000  0.24677000  1.0
  C  C69  1  0.29251000  0.49766000  0.25308000  1.0
  C  C70  1  0.98656000  0.46324000  0.20423000  1.0
  C  C71  1  0.15434000  0.03665000  0.29589000  1.0
  C  C72  1  0.01344000  0.53676000  0.79577000  1.0
  C  C73  1  0.84566000  0.96335000  0.70411000  1.0
  C  C74  1  0.99120000  0.48130000  0.09933000  1.0
  C  C75  1  0.07204000  0.01863000  0.40073000  1.0
  C  C76  1  0.00881000  0.51870000  0.90067000  1.0
  C  C77  1  0.92798000  0.98136000  0.59927000  1.0
  C  C78  1  0.08497000  0.40865000  0.03533000  1.0
  C  C79  1  0.02901000  0.09134000  0.46472000  1.0
  C  C80  1  0.91504000  0.59135000  0.96467000  1.0
  C  C81  1  0.97099000  0.90866000  0.53528000  1.0
  C  C82  1  0.90606000  0.57276000  0.06324000  1.0
  C  C83  1  0.04212000  0.92721000  0.43676000  1.0
  C  C84  1  0.09394000  0.42724000  0.93676000  1.0
  C  C85  1  0.95788000  0.07279000  0.56324000  1.0
  O  O86  1  0.10187000  0.39637000  0.52449000  1.0
  O  O87  1  0.52267000  0.10368000  0.97545000  1.0
  O  O88  1  0.89813000  0.60363000  0.47551000  1.0
  O  O89  1  0.47734000  0.89631000  0.02455000  1.0
  O  O90  1  0.80895000  0.41608000  0.51045000  1.0
  O  O91  1  0.23525000  0.08388000  0.98944000  1.0
  O  O92  1  0.19105000  0.58392000  0.48955000  1.0
  O  O93  1  0.76476000  0.91612000  0.01057000  1.0
  O  O94  1  0.15964000  0.28223000  0.42484000  1.0
  O  O95  1  0.36672000  0.21788000  0.07498000  1.0
  O  O96  1  0.84036000  0.71777000  0.57516000  1.0
  O  O97  1  0.63328000  0.78212000  0.92502000  1.0
  O  O98  1  0.45771000  0.02584000  0.82996000  1.0
  O  O99  1  0.81343000  0.47426000  0.67012000  1.0
  O  O100  1  0.54229000  0.97416000  0.17004000  1.0
  O  O101  1  0.18656000  0.52575000  0.32988000  1.0
  O  O102  1  0.51863000  0.90930000  0.72826000  1.0
  O  O103  1  0.65635000  0.59064000  0.77198000  1.0
  O  O104  1  0.48137000  0.09070000  0.27174000  1.0
  O  O105  1  0.34364000  0.40937000  0.22802000  1.0
  O  O106  1  0.90979000  0.53370000  0.25894000  1.0
  O  O107  1  0.20265000  0.96625000  0.24112000  1.0
  O  O108  1  0.09021000  0.46630000  0.74106000  1.0
  O  O109  1  0.79734000  0.03375000  0.75889000  1.0
  O  O110  1  0.06350000  0.37860000  0.23600000  1.0
  O  O111  1  0.17850000  0.12126000  0.26419000  1.0
  O  O112  1  0.93650000  0.62140000  0.76400000  1.0
  O  O113  1  0.82151000  0.87874000  0.73581000  1.0
