# generated using pymatgen
data_ZnH15C21Br4(N3O2)2
_symmetry_space_group_name_H-M   'P 1'
_cell_length_a   11.29780000
_cell_length_b   17.68028262
_cell_length_c   19.61570000
_cell_angle_alpha   94.00859882
_cell_angle_beta   90.79080000
_cell_angle_gamma   105.50713062
_symmetry_Int_Tables_number   1
_chemical_formula_structural   ZnH15C21Br4(N3O2)2
_chemical_formula_sum   'Zn2 H30 C42 Br8 N12 O8'
_cell_volume   3764.18015960
_cell_formula_units_Z   2
loop_
 _symmetry_equiv_pos_site_id
 _symmetry_equiv_pos_as_xyz
  1  'x, y, z'
loop_
 _atom_site_type_symbol
 _atom_site_label
 _atom_site_symmetry_multiplicity
 _atom_site_fract_x
 _atom_site_fract_y
 _atom_site_fract_z
 _atom_site_occupancy
  Zn  Zn0  1  0.05194000  0.57986000  0.50190000  1.0
  Zn  Zn1  1  0.94566000  0.41639000  0.48258000  1.0
  H  H2  1  0.23375000  0.66308000  0.41721000  1.0
  H  H3  1  0.73433000  0.34836000  0.55617000  1.0
  H  H4  1  0.69994667  0.03328000  0.55731000  1.0
  H  H5  1  0.28779000  0.96789000  0.44309000  1.0
  H  H6  1  0.95625000  0.59533000  0.71441000  1.0
  H  H7  1  0.09994000  0.42662000  0.27560000  1.0
  H  H8  1  0.82180000  0.42149000  0.92323000  1.0
  H  H9  1  0.19214000  0.57335000  0.06123000  1.0
  H  H10  1  0.81663000  0.43216000  0.05026000  1.0
  H  H11  1  0.19747000  0.56251000  0.93415000  1.0
  H  H12  1  0.47508000  0.37349000  0.43364000  1.0
  H  H13  1  0.63820000  0.40120000  0.43654000  1.0
  H  H14  1  0.35733000  0.59404000  0.45455000  1.0
  H  H15  1  0.51931000  0.62083000  0.45144000  1.0
  H  H16  1  0.30208000  0.93985000  0.60614000  1.0
  H  H17  1  0.17976000  0.87608000  0.64312000  1.0
  H  H18  1  0.84012000  0.10654000  0.37523000  1.0
  H  H19  1  0.71042000  0.04744000  0.40998000  1.0
  H  H20  1  0.65740000  0.89655000  0.58080000  1.0
  H  H21  1  0.52541000  0.82935000  0.55595000  1.0
  H  H22  1  0.46181000  0.17130000  0.44191000  1.0
  H  H23  1  0.33018000  0.10322000  0.41782000  1.0
  H  H24  1  0.75298000  0.64893000  0.52999000  1.0
  H  H25  1  0.61091000  0.61988000  0.55708000  1.0
  H  H26  1  0.24289000  0.34394000  0.50697000  1.0
  H  H27  1  0.38560000  0.37157000  0.53848000  1.0
  H  H28  1  0.89507000  0.63868000  0.82596000  1.0
  H  H29  1  0.92516000  0.60023000  0.89925000  1.0
  H  H30  1  0.14099000  0.42201000  0.09172000  1.0
  H  H31  1  0.18532000  0.39536000  0.16776000  1.0
  C  C32  1  0.99635000  0.50682000  0.36045000  1.0
  C  C33  1  0.00526000  0.49247000  0.62402000  1.0
  C  C34  1  0.00966000  0.48815000  0.70052000  1.0
  C  C35  1  0.99359000  0.50992000  0.28387000  1.0
  C  C36  1  0.90313000  0.45474000  0.95357000  1.0
  C  C37  1  0.11115000  0.53948000  0.03092000  1.0
  C  C38  1  0.90021000  0.46057000  0.02469000  1.0
  C  C39  1  0.11414000  0.53360000  0.95968000  1.0
  C  C40  1  0.00384000  0.50352000  0.06426000  1.0
  C  C41  1  0.01025000  0.49097000  0.92019000  1.0
  C  C42  1  0.15393000  0.75635000  0.55183000  1.0
  C  C43  1  0.84610000  0.23681000  0.44857000  1.0
  C  C44  1  0.23683000  0.83240000  0.55393000  1.0
  C  C45  1  0.76385000  0.16112000  0.45112000  1.0
  C  C46  1  0.32626000  0.84614000  0.50286000  1.0
  C  C47  1  0.66296000  0.15430000  0.49489000  1.0
  C  C48  1  0.32543000  0.78419000  0.45432000  1.0
  C  C49  1  0.65323000  0.22265000  0.53220000  1.0
  C  C50  1  0.23891000  0.71159000  0.45546000  1.0
  C  C51  1  0.73884000  0.29477000  0.52687000  1.0
  C  C52  1  0.53104000  0.94215000  0.53528000  1.0
  C  C53  1  0.45649000  0.05920000  0.46512000  1.0
  C  C54  1  0.21159000  0.46798000  0.48660000  1.0
  C  C55  1  0.78401000  0.52595000  0.49139000  1.0
  C  C56  1  0.60887000  0.01819000  0.53222000  1.0
  C  C57  1  0.37860000  0.98318000  0.46844000  1.0
  C  C58  1  0.57369000  0.07617000  0.49827000  1.0
  C  C59  1  0.41406000  0.92527000  0.50209000  1.0
  C  C60  1  0.33141000  0.45111000  0.48286000  1.0
  C  C61  1  0.66410000  0.54255000  0.48954000  1.0
  C  C62  1  0.43674000  0.50611000  0.46528000  1.0
  C  C63  1  0.55822000  0.48780000  0.46366000  1.0
  C  C64  1  0.04217000  0.42744000  0.73213000  1.0
  C  C65  1  0.93253000  0.55620000  0.24907000  1.0
  C  C66  1  0.04353000  0.42896000  0.80377000  1.0
  C  C67  1  0.93744000  0.55417000  0.17751000  1.0
  C  C68  1  0.01077000  0.48835000  0.84422000  1.0
  C  C69  1  0.00106000  0.50782000  0.14010000  1.0
  C  C70  1  0.97672000  0.54872000  0.81162000  1.0
  C  C71  1  0.06203000  0.46158000  0.17590000  1.0
  C  C72  1  0.97861000  0.54797000  0.74020000  1.0
  C  C73  1  0.05632000  0.46336000  0.24722000  1.0
  Br  Br74  1  0.44398000  0.79701000  0.38546000  1.0
  Br  Br75  1  0.52191000  0.21926000  0.59251000  1.0
  Br  Br76  1  0.09009000  0.34781000  0.67812000  1.0
  Br  Br77  1  0.83696000  0.61456000  0.29708000  1.0
  Br  Br78  1  0.09027000  0.34932000  0.84951000  1.0
  Br  Br79  1  0.85816000  0.61685000  0.12781000  1.0
  Br  Br80  1  0.03280000  0.73632000  0.61931000  1.0
  Br  Br81  1  0.98108000  0.24896000  0.38994000  1.0
  N  N82  1  0.15564000  0.69882000  0.50484000  1.0
  N  N83  1  0.83348000  0.30042000  0.48473000  1.0
  N  N84  1  0.55678000  0.41560000  0.43329000  1.0
  N  N85  1  0.43715000  0.57897000  0.44583000  1.0
  N  N86  1  0.22962000  0.89124000  0.60120000  1.0
  N  N87  1  0.78155000  0.09681000  0.41434000  1.0
  N  N88  1  0.56545000  0.88640000  0.57237000  1.0
  N  N89  1  0.42200000  0.11381000  0.42694000  1.0
  N  N90  1  0.66402000  0.62062000  0.51528000  1.0
  N  N91  1  0.33150000  0.37227000  0.49648000  1.0
  N  N92  1  0.94773000  0.60984000  0.85009000  1.0
  N  N93  1  0.11999000  0.41146000  0.14089000  1.0
  O  O94  1  0.01972000  0.57165000  0.39670000  1.0
  O  O95  1  0.93185000  0.43587000  0.58904000  1.0
  O  O96  1  0.97881000  0.43844000  0.38170000  1.0
  O  O97  1  0.07341000  0.55470000  0.60176000  1.0
  O  O98  1  0.20237000  0.53769000  0.47728000  1.0
  O  O99  1  0.79360000  0.45761000  0.46903000  1.0
  O  O100  1  0.11934000  0.41049000  0.49960000  1.0
  O  O101  1  0.87561000  0.58184000  0.51655000  1.0
