# generated using pymatgen
data_ZnH22C26S2(NO2)2
_symmetry_space_group_name_H-M   'P 1'
_cell_length_a   5.88295000
_cell_length_b   13.79630000
_cell_length_c   18.73830000
_cell_angle_alpha   106.52600000
_cell_angle_beta   89.99810000
_cell_angle_gamma   90.00000000
_symmetry_Int_Tables_number   1
_chemical_formula_structural   ZnH22C26S2(NO2)2
_chemical_formula_sum   'Zn2 H44 C52 S4 N4 O8'
_cell_volume   1458.03017852
_cell_formula_units_Z   2
loop_
 _symmetry_equiv_pos_site_id
 _symmetry_equiv_pos_as_xyz
  1  'x, y, z'
loop_
 _atom_site_type_symbol
 _atom_site_label
 _atom_site_symmetry_multiplicity
 _atom_site_fract_x
 _atom_site_fract_y
 _atom_site_fract_z
 _atom_site_occupancy
  Zn  Zn0  1  0.64852000  0.75002000  0.75001000  1.0
  Zn  Zn1  1  0.35146000  0.24999000  0.25000000  1.0
  H  H2  1  0.92840000  0.93666000  0.70776000  1.0
  H  H3  1  0.92849000  0.56332000  0.79223000  1.0
  H  H4  1  0.07150000  0.06328000  0.29221000  1.0
  H  H5  1  0.07153000  0.43667000  0.20777000  1.0
  H  H6  1  0.30003000  0.77728000  0.50838000  1.0
  H  H7  1  0.29996000  0.72273000  0.99163000  1.0
  H  H8  1  0.70015000  0.22279000  0.49161000  1.0
  H  H9  1  0.69996000  0.27729000  0.00838000  1.0
  H  H10  1  0.74838000  0.05645000  0.95109000  1.0
  H  H11  1  0.74843000  0.44359000  0.54895000  1.0
  H  H12  1  0.25157000  0.94352000  0.04890000  1.0
  H  H13  1  0.25156000  0.55645000  0.45108000  1.0
  H  H14  1  0.58181000  0.73017000  0.59133000  1.0
  H  H15  1  0.58175000  0.76987000  0.90868000  1.0
  H  H16  1  0.41831000  0.26991000  0.40867000  1.0
  H  H17  1  0.41816000  0.23016000  0.09134000  1.0
  H  H18  1  0.63296000  0.90795000  0.99334000  1.0
  H  H19  1  0.63299000  0.59209000  0.50668000  1.0
  H  H20  1  0.36700000  0.09206000  0.00668000  1.0
  H  H21  1  0.36700000  0.40794000  0.49333000  1.0
  H  H22  1  0.90637000  0.85391000  0.97040000  1.0
  H  H23  1  0.90642000  0.64611000  0.52959000  1.0
  H  H24  1  0.09358000  0.14609000  0.02962000  1.0
  H  H25  1  0.09356000  0.35391000  0.47041000  1.0
  H  H26  1  0.87382000  0.93848000  0.10691000  1.0
  H  H27  1  0.87382000  0.56152000  0.39310000  1.0
  H  H28  1  0.12609000  0.06156000  0.89312000  1.0
  H  H29  1  0.12617000  0.43851000  0.60691000  1.0
  H  H30  1  0.79612000  0.05333000  0.08924000  1.0
  H  H31  1  0.79605000  0.44668000  0.41077000  1.0
  H  H32  1  0.20389000  0.94670000  0.91075000  1.0
  H  H33  1  0.20396000  0.55335000  0.58923000  1.0
  H  H34  1  0.99012000  0.78866000  0.44323000  1.0
  H  H35  1  0.99016000  0.71127000  0.05677000  1.0
  H  H36  1  0.00988000  0.21130000  0.55675000  1.0
  H  H37  1  0.00990000  0.28865000  0.94324000  1.0
  H  H38  1  0.65437000  0.87304000  0.39097000  1.0
  H  H39  1  0.65437000  0.62689000  0.10902000  1.0
  H  H40  1  0.34566000  0.12692000  0.60900000  1.0
  H  H41  1  0.34569000  0.37301000  0.89098000  1.0
  H  H42  1  0.23107000  0.88508000  0.78069000  1.0
  H  H43  1  0.23116000  0.61493000  0.71931000  1.0
  H  H44  1  0.76880000  0.11487000  0.21930000  1.0
  H  H45  1  0.76884000  0.38509000  0.28069000  1.0
  C  C46  1  0.07219000  0.89261000  0.67863000  1.0
  C  C47  1  0.07224000  0.60739000  0.82137000  1.0
  C  C48  1  0.92776000  0.10736000  0.32135000  1.0
  C  C49  1  0.92775000  0.39261000  0.17864000  1.0
  C  C50  1  0.27427000  0.80188000  0.56837000  1.0
  C  C51  1  0.27424000  0.69812000  0.93163000  1.0
  C  C52  1  0.72583000  0.19815000  0.43162000  1.0
  C  C53  1  0.72570000  0.30189000  0.06838000  1.0
  C  C54  1  0.59532000  0.96947000  0.50398000  1.0
  C  C55  1  0.59528000  0.53051000  0.99600000  1.0
  C  C56  1  0.40476000  0.03053000  0.49598000  1.0
  C  C57  1  0.40470000  0.46945000  0.00399000  1.0
  C  C58  1  0.91723000  0.88986000  0.55361000  1.0
  C  C59  1  0.91723000  0.61011000  0.94637000  1.0
  C  C60  1  0.08281000  0.11013000  0.44635000  1.0
  C  C61  1  0.08276000  0.38986000  0.05362000  1.0
  C  C62  1  0.84993000  0.98647000  0.93389000  1.0
  C  C63  1  0.84999000  0.51357000  0.56613000  1.0
  C  C64  1  0.15005000  0.01351000  0.06611000  1.0
  C  C65  1  0.15002000  0.48646000  0.43388000  1.0
  C  C66  1  0.43326000  0.77553000  0.61391000  1.0
  C  C67  1  0.43323000  0.72450000  0.88611000  1.0
  C  C68  1  0.56682000  0.22451000  0.38609000  1.0
  C  C69  1  0.56671000  0.27553000  0.11391000  1.0
  C  C70  1  0.81433000  0.92615000  0.99033000  1.0
  C  C71  1  0.81436000  0.57388000  0.50968000  1.0
  C  C72  1  0.18564000  0.07385000  0.00969000  1.0
  C  C73  1  0.18564000  0.42615000  0.49033000  1.0
  C  C74  1  0.89825000  0.98407000  0.06789000  1.0
  C  C75  1  0.89823000  0.51593000  0.43212000  1.0
  C  C76  1  0.10172000  0.01595000  0.93212000  1.0
  C  C77  1  0.10176000  0.48409000  0.56789000  1.0
  C  C78  1  0.88578000  0.84945000  0.47737000  1.0
  C  C79  1  0.88578000  0.65050000  0.02262000  1.0
  C  C80  1  0.11426000  0.15053000  0.52260000  1.0
  C  C81  1  0.11424000  0.34944000  0.97738000  1.0
  C  C82  1  0.08657000  0.86196000  0.60036000  1.0
  C  C83  1  0.08657000  0.63803000  0.89964000  1.0
  C  C84  1  0.91347000  0.13804000  0.39962000  1.0
  C  C85  1  0.91340000  0.36196000  0.10037000  1.0
  C  C86  1  0.76961000  0.93014000  0.85555000  1.0
  C  C87  1  0.76969000  0.56993000  0.64447000  1.0
  C  C88  1  0.23039000  0.06982000  0.14446000  1.0
  C  C89  1  0.23035000  0.43012000  0.35554000  1.0
  C  C90  1  0.70467000  0.89409000  0.44931000  1.0
  C  C91  1  0.70466000  0.60586000  0.05068000  1.0
  C  C92  1  0.29537000  0.10589000  0.55066000  1.0
  C  C93  1  0.29537000  0.39407000  0.94932000  1.0
  C  C94  1  0.23939000  0.86303000  0.72020000  1.0
  C  C95  1  0.23944000  0.63698000  0.77981000  1.0
  C  C96  1  0.76054000  0.13694000  0.27979000  1.0
  C  C97  1  0.76054000  0.36304000  0.22020000  1.0
  S  S98  1  0.71977000  0.98404000  0.59001000  1.0
  S  S99  1  0.71973000  0.51596000  0.90997000  1.0
  S  S100  1  0.28032000  0.01598000  0.40995000  1.0
  S  S101  1  0.28021000  0.48403000  0.09002000  1.0
  N  N102  1  0.41746000  0.80504000  0.68876000  1.0
  N  N103  1  0.41746000  0.69499000  0.81125000  1.0
  N  N104  1  0.58254000  0.19497000  0.31124000  1.0
  N  N105  1  0.58249000  0.30504000  0.18876000  1.0
  O  O106  1  0.66403000  0.97517000  0.81687000  1.0
  O  O107  1  0.66419000  0.52489000  0.68316000  1.0
  O  O108  1  0.33588000  0.02475000  0.18313000  1.0
  O  O109  1  0.33591000  0.47516000  0.31686000  1.0
  O  O110  1  0.82436000  0.83415000  0.83356000  1.0
  O  O111  1  0.82439000  0.66592000  0.66645000  1.0
  O  O112  1  0.17571000  0.16581000  0.16646000  1.0
  O  O113  1  0.17562000  0.33413000  0.33355000  1.0
