# generated using pymatgen
data_ZnH10C16(NO)4
_symmetry_space_group_name_H-M   'P 1'
_cell_length_a   14.41500000
_cell_length_b   14.43980000
_cell_length_c   14.44290000
_cell_angle_alpha   107.50100000
_cell_angle_beta   107.40200000
_cell_angle_gamma   107.41700000
_symmetry_Int_Tables_number   1
_chemical_formula_structural   ZnH10C16(NO)4
_chemical_formula_sum   'Zn6 H60 C96 N24 O24'
_cell_volume   2472.99564850
_cell_formula_units_Z   6
loop_
 _symmetry_equiv_pos_site_id
 _symmetry_equiv_pos_as_xyz
  1  'x, y, z'
loop_
 _atom_site_type_symbol
 _atom_site_label
 _atom_site_symmetry_multiplicity
 _atom_site_fract_x
 _atom_site_fract_y
 _atom_site_fract_z
 _atom_site_occupancy
  Zn  Zn0  1  0.28053000  0.74973000  0.00253000  1.0
  Zn  Zn1  1  0.00271000  0.28064000  0.74954000  1.0
  Zn  Zn2  1  0.74990000  0.00287000  0.28053000  1.0
  Zn  Zn3  1  0.71950000  0.25021000  0.99733000  1.0
  Zn  Zn4  1  0.99718000  0.71918000  0.25021000  1.0
  Zn  Zn5  1  0.25009000  0.99705000  0.71936000  1.0
  H  H6  1  0.12883000  0.51435000  0.94115000  1.0
  H  H7  1  0.94137000  0.12871000  0.51433000  1.0
  H  H8  1  0.51436000  0.94124000  0.12864000  1.0
  H  H9  1  0.87101000  0.48554000  0.05867000  1.0
  H  H10  1  0.05841000  0.87109000  0.48561000  1.0
  H  H11  1  0.48559000  0.05869000  0.87127000  1.0
  H  H12  1  0.35217000  0.71062000  0.79399000  1.0
  H  H13  1  0.79370000  0.35188000  0.71048000  1.0
  H  H14  1  0.71076000  0.79440000  0.35212000  1.0
  H  H15  1  0.64778000  0.28923000  0.20589000  1.0
  H  H16  1  0.20605000  0.64803000  0.28929000  1.0
  H  H17  1  0.28926000  0.20561000  0.64783000  1.0
  H  H18  1  0.33141000  0.61210000  0.60924000  1.0
  H  H19  1  0.60879000  0.33117000  0.61194000  1.0
  H  H20  1  0.61216000  0.60965000  0.33127000  1.0
  H  H21  1  0.66852000  0.38778000  0.39064000  1.0
  H  H22  1  0.39093000  0.66865000  0.38778000  1.0
  H  H23  1  0.38788000  0.39033000  0.66866000  1.0
  H  H24  1  0.20898000  0.41903000  0.50232000  1.0
  H  H25  1  0.50202000  0.20894000  0.41890000  1.0
  H  H26  1  0.41905000  0.50267000  0.20875000  1.0
  H  H27  1  0.79086000  0.58085000  0.49749000  1.0
  H  H28  1  0.49773000  0.79083000  0.58084000  1.0
  H  H29  1  0.58101000  0.49729000  0.79116000  1.0
  H  H30  1  0.10376000  0.31608000  0.57683000  1.0
  H  H31  1  0.57679000  0.10383000  0.31593000  1.0
  H  H32  1  0.31594000  0.57699000  0.10344000  1.0
  H  H33  1  0.89601000  0.68383000  0.42297000  1.0
  H  H34  1  0.42302000  0.89599000  0.68386000  1.0
  H  H35  1  0.68407000  0.42291000  0.89643000  1.0
  H  H36  1  0.22193000  0.78199000  0.21793000  1.0
  H  H37  1  0.21804000  0.22173000  0.78180000  1.0
  H  H38  1  0.78277000  0.21819000  0.22189000  1.0
  H  H39  1  0.77802000  0.21789000  0.78193000  1.0
  H  H40  1  0.78180000  0.77811000  0.21769000  1.0
  H  H41  1  0.21769000  0.78181000  0.77803000  1.0
  H  H42  1  0.81907000  0.60719000  0.00755000  1.0
  H  H43  1  0.00721000  0.81942000  0.60734000  1.0
  H  H44  1  0.60773000  0.00745000  0.81957000  1.0
  H  H45  1  0.18090000  0.39247000  0.99211000  1.0
  H  H46  1  0.99288000  0.18041000  0.39309000  1.0
  H  H47  1  0.39219000  0.99249000  0.18033000  1.0
  H  H48  1  0.05847000  0.63504000  0.81518000  1.0
  H  H49  1  0.81464000  0.05863000  0.63500000  1.0
  H  H50  1  0.63574000  0.81532000  0.05856000  1.0
  H  H51  1  0.94169000  0.36539000  0.18471000  1.0
  H  H52  1  0.18523000  0.94106000  0.36483000  1.0
  H  H53  1  0.36407000  0.18463000  0.94135000  1.0
  H  H54  1  0.74284000  0.52785000  0.80763000  1.0
  H  H55  1  0.80703000  0.74331000  0.52811000  1.0
  H  H56  1  0.52849000  0.80749000  0.74338000  1.0
  H  H57  1  0.25724000  0.47214000  0.19206000  1.0
  H  H58  1  0.19304000  0.25643000  0.47257000  1.0
  H  H59  1  0.47114000  0.19243000  0.25654000  1.0
  H  H60  1  0.86023000  0.54041000  0.71386000  1.0
  H  H61  1  0.71314000  0.86059000  0.54060000  1.0
  H  H62  1  0.54120000  0.71381000  0.86057000  1.0
  H  H63  1  0.13992000  0.46006000  0.28592000  1.0
  H  H64  1  0.28684000  0.13908000  0.45972000  1.0
  H  H65  1  0.45840000  0.28615000  0.13938000  1.0
  C  C66  1  0.15460000  0.51348000  0.87772000  1.0
  C  C67  1  0.87786000  0.15451000  0.51340000  1.0
  C  C68  1  0.51349000  0.87786000  0.15439000  1.0
  C  C69  1  0.84526000  0.48641000  0.12211000  1.0
  C  C70  1  0.12193000  0.84533000  0.48648000  1.0
  C  C71  1  0.48648000  0.12207000  0.84551000  1.0
  C  C72  1  0.23552000  0.56896000  0.78683000  1.0
  C  C73  1  0.78674000  0.23538000  0.56883000  1.0
  C  C74  1  0.56902000  0.78710000  0.23531000  1.0
  C  C75  1  0.76440000  0.43091000  0.21304000  1.0
  C  C76  1  0.21304000  0.76451000  0.43098000  1.0
  C  C77  1  0.43097000  0.21286000  0.76460000  1.0
  C  C78  1  0.29710000  0.62579000  0.74656000  1.0
  C  C79  1  0.74633000  0.29689000  0.62566000  1.0
  C  C80  1  0.62588000  0.74692000  0.29695000  1.0
  C  C81  1  0.70283000  0.37407000  0.25331000  1.0
  C  C82  1  0.25344000  0.70301000  0.37412000  1.0
  C  C83  1  0.37413000  0.25306000  0.70298000  1.0
  C  C84  1  0.28598000  0.56975000  0.64378000  1.0
  C  C85  1  0.64346000  0.28580000  0.56961000  1.0
  C  C86  1  0.56981000  0.64414000  0.28580000  1.0
  C  C87  1  0.71392000  0.43012000  0.35608000  1.0
  C  C88  1  0.35630000  0.71406000  0.43015000  1.0
  C  C89  1  0.43022000  0.35583000  0.71411000  1.0
  C  C90  1  0.21638000  0.45937000  0.58305000  1.0
  C  C91  1  0.58282000  0.21629000  0.45923000  1.0
  C  C92  1  0.45938000  0.58336000  0.21612000  1.0
  C  C93  1  0.78349000  0.54052000  0.41677000  1.0
  C  C94  1  0.41696000  0.78353000  0.54053000  1.0
  C  C95  1  0.54066000  0.41659000  0.78378000  1.0
  C  C96  1  0.16575000  0.45750000  0.72593000  1.0
  C  C97  1  0.72591000  0.16569000  0.45736000  1.0
  C  C98  1  0.45747000  0.72613000  0.16548000  1.0
  C  C99  1  0.83414000  0.54240000  0.27392000  1.0
  C  C100  1  0.27390000  0.83419000  0.54245000  1.0
  C  C101  1  0.54254000  0.27381000  0.83443000  1.0
  C  C102  1  0.15629000  0.40160000  0.62337000  1.0
  C  C103  1  0.62328000  0.15626000  0.40145000  1.0
  C  C104  1  0.40156000  0.62359000  0.15599000  1.0
  C  C105  1  0.84356000  0.59830000  0.37645000  1.0
  C  C106  1  0.37653000  0.84357000  0.59832000  1.0
  C  C107  1  0.59847000  0.37634000  0.84390000  1.0
  C  C108  1  0.15113000  0.74120000  0.14170000  1.0
  C  C109  1  0.14167000  0.15105000  0.74106000  1.0
  C  C110  1  0.74207000  0.14191000  0.15117000  1.0
  C  C111  1  0.84885000  0.25871000  0.85814000  1.0
  C  C112  1  0.85820000  0.84877000  0.25855000  1.0
  C  C113  1  0.25829000  0.85809000  0.84874000  1.0
  C  C114  1  0.98388000  0.66008000  0.02426000  1.0
  C  C115  1  0.02398000  0.98405000  0.66010000  1.0
  C  C116  1  0.66082000  0.02431000  0.98415000  1.0
  C  C117  1  0.01612000  0.33982000  0.97551000  1.0
  C  C118  1  0.97599000  0.01575000  0.33991000  1.0
  C  C119  1  0.33921000  0.97565000  0.01576000  1.0
  C  C120  1  0.87171000  0.61028000  0.96669000  1.0
  C  C121  1  0.96631000  0.87202000  0.61038000  1.0
  C  C122  1  0.61093000  0.96664000  0.87212000  1.0
  C  C123  1  0.12831000  0.38955000  0.03302000  1.0
  C  C124  1  0.03373000  0.12778000  0.38993000  1.0
  C  C125  1  0.38894000  0.03331000  0.12779000  1.0
  C  C126  1  0.05120000  0.66935000  0.96994000  1.0
  C  C127  1  0.96963000  0.05134000  0.66926000  1.0
  C  C128  1  0.67006000  0.97006000  0.05135000  1.0
  C  C129  1  0.94885000  0.33076000  0.02989000  1.0
  C  C130  1  0.03028000  0.94843000  0.33059000  1.0
  C  C131  1  0.32994000  0.02991000  0.94857000  1.0
  C  C132  1  0.00769000  0.62738000  0.85763000  1.0
  C  C133  1  0.85714000  0.00788000  0.62737000  1.0
  C  C134  1  0.62809000  0.85770000  0.00784000  1.0
  C  C135  1  0.99244000  0.37294000  0.14222000  1.0
  C  C136  1  0.14277000  0.99183000  0.37258000  1.0
  C  C137  1  0.37172000  0.14226000  0.99208000  1.0
  C  C138  1  0.82956000  0.56654000  0.85500000  1.0
  C  C139  1  0.85445000  0.82992000  0.56668000  1.0
  C  C140  1  0.56722000  0.85491000  0.82998000  1.0
  C  C141  1  0.17052000  0.43349000  0.14472000  1.0
  C  C142  1  0.14558000  0.16982000  0.43377000  1.0
  C  C143  1  0.43247000  0.14503000  0.16994000  1.0
  C  C144  1  0.89634000  0.57437000  0.80124000  1.0
  C  C145  1  0.80064000  0.89665000  0.57450000  1.0
  C  C146  1  0.57514000  0.80121000  0.89664000  1.0
  C  C147  1  0.10379000  0.42595000  0.19855000  1.0
  C  C148  1  0.19933000  0.10305000  0.42574000  1.0
  C  C149  1  0.42452000  0.19875000  0.10328000  1.0
  C  C150  1  0.07743000  0.61038000  0.51382000  1.0
  C  C151  1  0.51389000  0.07738000  0.61043000  1.0
  C  C152  1  0.61037000  0.51386000  0.07749000  1.0
  C  C153  1  0.92248000  0.38953000  0.48612000  1.0
  C  C154  1  0.48611000  0.92255000  0.38953000  1.0
  C  C155  1  0.38954000  0.48601000  0.92231000  1.0
  C  C156  1  0.97230000  0.81809000  0.81242000  1.0
  C  C157  1  0.81380000  0.97319000  0.81958000  1.0
  C  C158  1  0.82109000  0.81556000  0.97475000  1.0
  C  C159  1  0.03069000  0.18509000  0.19099000  1.0
  C  C160  1  0.18596000  0.02673000  0.18072000  1.0
  C  C161  1  0.17815000  0.18427000  0.02525000  1.0
  N  N162  1  0.22696000  0.60213000  0.88357000  1.0
  N  N163  1  0.88359000  0.22680000  0.60202000  1.0
  N  N164  1  0.60220000  0.88381000  0.22678000  1.0
  N  N165  1  0.77295000  0.39775000  0.11628000  1.0
  N  N166  1  0.11619000  0.77305000  0.39784000  1.0
  N  N167  1  0.39777000  0.11614000  0.77313000  1.0
  N  N168  1  0.11560000  0.42444000  0.78646000  1.0
  N  N169  1  0.78659000  0.11558000  0.42433000  1.0
  N  N170  1  0.42440000  0.78658000  0.11534000  1.0
  N  N171  1  0.88425000  0.57545000  0.21336000  1.0
  N  N172  1  0.21323000  0.88428000  0.57551000  1.0
  N  N173  1  0.57560000  0.21334000  0.88455000  1.0
  N  N174  1  0.15741000  0.72145000  0.04685000  1.0
  N  N175  1  0.04672000  0.15740000  0.72126000  1.0
  N  N176  1  0.72224000  0.04706000  0.15743000  1.0
  N  N177  1  0.84263000  0.27862000  0.95302000  1.0
  N  N178  1  0.95313000  0.84238000  0.27834000  1.0
  N  N179  1  0.27798000  0.95292000  0.84248000  1.0
  N  N180  1  0.04976000  0.70636000  0.13387000  1.0
  N  N181  1  0.13375000  0.04977000  0.70636000  1.0
  N  N182  1  0.70722000  0.13398000  0.04995000  1.0
  N  N183  1  0.95020000  0.29344000  0.86592000  1.0
  N  N184  1  0.86619000  0.95007000  0.29349000  1.0
  N  N185  1  0.29305000  0.86601000  0.94997000  1.0
  O  O186  1  0.06482000  0.54247000  0.43536000  1.0
  O  O187  1  0.43539000  0.06471000  0.54250000  1.0
  O  O188  1  0.54251000  0.43534000  0.06486000  1.0
  O  O189  1  0.93505000  0.45745000  0.56455000  1.0
  O  O190  1  0.56461000  0.93524000  0.45748000  1.0
  O  O191  1  0.45744000  0.56446000  0.93488000  1.0
  O  O192  1  0.08916000  0.67766000  0.59235000  1.0
  O  O193  1  0.59246000  0.08915000  0.67772000  1.0
  O  O194  1  0.67757000  0.59244000  0.08921000  1.0
  O  O195  1  0.91080000  0.32224000  0.40762000  1.0
  O  O196  1  0.40754000  0.91075000  0.32222000  1.0
  O  O197  1  0.32229000  0.40750000  0.91065000  1.0
  O  O198  1  0.05857000  0.88044000  0.87975000  1.0
  O  O199  1  0.87870000  0.06086000  0.88073000  1.0
  O  O200  1  0.88139000  0.88134000  0.06227000  1.0
  O  O201  1  0.94551000  0.12156000  0.12231000  1.0
  O  O202  1  0.12131000  0.93892000  0.11971000  1.0
  O  O203  1  0.11874000  0.11984000  0.93695000  1.0
  O  O204  1  0.88580000  0.75634000  0.74532000  1.0
  O  O205  1  0.74915000  0.88528000  0.75904000  1.0
  O  O206  1  0.76138000  0.75003000  0.88698000  1.0
  O  O207  1  0.11607000  0.24805000  0.25946000  1.0
  O  O208  1  0.25036000  0.11478000  0.24114000  1.0
  O  O209  1  0.23700000  0.24845000  0.11381000  1.0
