# generated using pymatgen
data_Cu3H10C13I3N4
_symmetry_space_group_name_H-M   'P 1'
_cell_length_a   9.32588000
_cell_length_b   9.50375000
_cell_length_c   10.71810000
_cell_angle_alpha   99.85700000
_cell_angle_beta   108.66400000
_cell_angle_gamma   97.35580000
_symmetry_Int_Tables_number   1
_chemical_formula_structural   Cu3H10C13I3N4
_chemical_formula_sum   'Cu6 H20 C26 I6 N8'
_cell_volume   869.53908464
_cell_formula_units_Z   2
loop_
 _symmetry_equiv_pos_site_id
 _symmetry_equiv_pos_as_xyz
  1  'x, y, z'
loop_
 _atom_site_type_symbol
 _atom_site_label
 _atom_site_symmetry_multiplicity
 _atom_site_fract_x
 _atom_site_fract_y
 _atom_site_fract_z
 _atom_site_occupancy
  Cu  Cu0  1  0.71481000  0.71038000  0.75847000  1.0
  Cu  Cu1  1  0.28519000  0.28962000  0.24153000  1.0
  Cu  Cu2  1  0.49836000  0.66083000  0.53073000  1.0
  Cu  Cu3  1  0.50164000  0.33917000  0.46927000  1.0
  Cu  Cu4  1  0.40636000  0.91927000  0.53858000  1.0
  Cu  Cu5  1  0.59364000  0.08073000  0.46143000  1.0
  H  H6  1  0.29197000  0.01934000  0.93892000  1.0
  H  H7  1  0.70803000  0.98066000  0.06108000  1.0
  H  H8  1  0.26440000  0.83877000  0.10462000  1.0
  H  H9  1  0.73560000  0.16122000  0.89538000  1.0
  H  H10  1  0.11643000  0.67083000  0.19022000  1.0
  H  H11  1  0.88357000  0.32917000  0.80978000  1.0
  H  H12  1  0.95162000  0.48904000  0.25352000  1.0
  H  H13  1  0.04838000  0.51096000  0.74648000  1.0
  H  H14  1  0.67249000  0.40098000  0.10618000  1.0
  H  H15  1  0.32751000  0.59902000  0.89383000  1.0
  H  H16  1  0.57149000  0.49868000  0.89749000  1.0
  H  H17  1  0.42852000  0.50133000  0.10251000  1.0
  H  H18  1  0.24924000  0.09572000  0.76111000  1.0
  H  H19  1  0.75076000  0.90428000  0.23889000  1.0
  H  H20  1  0.17624000  0.24195000  0.58940000  1.0
  H  H21  1  0.82376000  0.75805000  0.41060000  1.0
  H  H22  1  0.89521000  0.23338000  0.46495000  1.0
  H  H23  1  0.10479000  0.76662000  0.53505000  1.0
  H  H24  1  0.76114000  0.95052000  0.68039000  1.0
  H  H25  1  0.23886000  0.04948000  0.31961000  1.0
  C  C26  1  0.19089000  0.94578000  0.93453000  1.0
  C  C27  1  0.80911000  0.05422000  0.06547000  1.0
  C  C28  1  0.17420000  0.85462000  0.01774000  1.0
  C  C29  1  0.82580000  0.14537000  0.98226000  1.0
  C  C30  1  0.01575000  0.78901000  0.96644000  1.0
  C  C31  1  0.98425000  0.21099000  0.03356000  1.0
  C  C32  1  0.92957000  0.68158000  0.01122000  1.0
  C  C33  1  0.07043000  0.31841000  0.98878000  1.0
  C  C34  1  0.99501000  0.63116000  0.12800000  1.0
  C  C35  1  0.00499000  0.36883000  0.87200000  1.0
  C  C36  1  0.90236000  0.52994000  0.16322000  1.0
  C  C37  1  0.09764000  0.47007000  0.83678000  1.0
  C  C38  1  0.74743000  0.48102000  0.08143000  1.0
  C  C39  1  0.25257000  0.51898000  0.91857000  1.0
  C  C40  1  0.69097000  0.53466000  0.96598000  1.0
  C  C41  1  0.30903000  0.46534000  0.03402000  1.0
  C  C42  1  0.01026000  0.01387000  0.73737000  1.0
  C  C43  1  0.98974000  0.98613000  0.26263000  1.0
  C  C44  1  0.12776000  0.09560000  0.70989000  1.0
  C  C45  1  0.87224000  0.90440000  0.29011000  1.0
  C  C46  1  0.08718000  0.17657000  0.61237000  1.0
  C  C47  1  0.91282000  0.82343000  0.38763000  1.0
  C  C48  1  0.93209000  0.17204000  0.54291000  1.0
  C  C49  1  0.06790000  0.82796000  0.45709000  1.0
  C  C50  1  0.85651000  0.01413000  0.66347000  1.0
  C  C51  1  0.14350000  0.98587000  0.33653000  1.0
  I  I52  1  0.46600000  0.80782000  0.75482000  1.0
  I  I53  1  0.53399000  0.19217000  0.24518000  1.0
  I  I54  1  0.49018000  0.79822000  0.33743000  1.0
  I  I55  1  0.50983000  0.20179000  0.66258000  1.0
  I  I56  1  0.24766000  0.45433000  0.44216000  1.0
  I  I57  1  0.75234000  0.54567000  0.55784000  1.0
  N  N58  1  0.04789000  0.93392000  0.83881000  1.0
  N  N59  1  0.95211000  0.06608000  0.16119000  1.0
  N  N60  1  0.93927000  0.83866000  0.85800000  1.0
  N  N61  1  0.06073000  0.16134000  0.14200000  1.0
  N  N62  1  0.77932000  0.63231000  0.93070000  1.0
  N  N63  1  0.22068000  0.36769000  0.06930000  1.0
  N  N64  1  0.81895000  0.09107000  0.56737000  1.0
  N  N65  1  0.18104000  0.90893000  0.43264000  1.0
