# generated using pymatgen
data_Zn4H63C95(N9O11)3
_symmetry_space_group_name_H-M   'P 1'
_cell_length_a   19.25930000
_cell_length_b   19.33360000
_cell_length_c   20.24220000
_cell_angle_alpha   106.58500000
_cell_angle_beta   106.81900000
_cell_angle_gamma   112.48800000
_symmetry_Int_Tables_number   1
_chemical_formula_structural   Zn4H63C95(N9O11)3
_chemical_formula_sum   'Zn4 H63 C95 N27 O33'
_cell_volume   5960.23349564
_cell_formula_units_Z   1
loop_
 _symmetry_equiv_pos_site_id
 _symmetry_equiv_pos_as_xyz
  1  'x, y, z'
loop_
 _atom_site_type_symbol
 _atom_site_label
 _atom_site_symmetry_multiplicity
 _atom_site_fract_x
 _atom_site_fract_y
 _atom_site_fract_z
 _atom_site_occupancy
  Zn  Zn0  1  0.87598000  0.87813000  0.49125000  1.0
  Zn  Zn1  1  0.11181000  0.12117000  0.50611000  1.0
  Zn  Zn2  1  0.09727000  0.01012000  0.60548000  1.0
  Zn  Zn3  1  0.90614000  0.01297000  0.39945000  1.0
  H  H4  1  0.84775000  0.78156000  0.61072000  1.0
  H  H5  1  0.06848000  0.11697000  0.73848000  1.0
  H  H6  1  0.88894000  0.15101000  0.50794000  1.0
  H  H7  1  0.88001000  0.15877000  0.35321000  1.0
  H  H8  1  0.30886000  0.17119000  0.52515000  1.0
  H  H9  1  0.14860000  0.89369000  0.51384000  1.0
  H  H10  1  0.87802000  0.73082000  0.38363000  1.0
  H  H11  1  0.69451000  0.91097000  0.25898000  1.0
  H  H12  1  0.28587000  0.03783000  0.66414000  1.0
  H  H13  1  0.48941000  0.18764000  0.71756000  1.0
  H  H14  1  0.68195000  0.00942000  0.45617000  1.0
  H  H15  1  0.40468000  0.95984000  0.39991000  1.0
  H  H16  1  0.10899000  0.76360000  0.54688000  1.0
  H  H17  1  0.09797000  0.40376000  0.53648000  1.0
  H  H18  1  0.94174000  0.27941000  0.29151000  1.0
  H  H19  1  0.90207000  0.35624000  0.22415000  1.0
  H  H20  1  0.90690000  0.48549000  0.22680000  1.0
  H  H21  1  0.58655000  0.77454000  0.13983000  1.0
  H  H22  1  0.20595000  0.26339000  0.84620000  1.0
  H  H23  1  0.05379000  0.34957000  0.73563000  1.0
  H  H24  1  0.37956000  0.60037000  0.20691000  1.0
  H  H25  1  0.52490000  0.70255000  0.30729000  1.0
  H  H26  1  0.29430000  0.50609000  0.07314000  1.0
  H  H27  1  0.44253000  0.67390000  0.04022000  1.0
  H  H28  1  0.10450000  0.82147000  0.78004000  1.0
  H  H29  1  0.13585000  0.00596000  0.24270000  1.0
  H  H30  1  0.86319000  0.80009000  0.73877000  1.0
  H  H31  1  0.93967000  0.76279000  0.95903000  1.0
  H  H32  1  0.10816000  0.78660000  0.88784000  1.0
  H  H33  1  0.15483000  0.94992000  0.12826000  1.0
  H  H34  1  0.87194000  0.84369000  0.14501000  1.0
  H  H35  1  0.83646000  0.91131000  0.18457000  1.0
  H  H36  1  0.77076000  0.79971000  0.14413000  1.0
  H  H37  1  0.20353000  0.16542000  0.43033000  1.0
  H  H38  1  0.15924000  0.11646000  0.32745000  1.0
  H  H39  1  0.26420000  0.14141000  0.38448000  1.0
  H  H40  1  0.64793000  0.34328000  0.87064000  1.0
  H  H41  1  0.60249000  0.32339000  0.77135000  1.0
  H  H42  1  0.71442000  0.36719000  0.82415000  1.0
  H  H43  1  0.19391000  0.39836000  0.46071000  1.0
  H  H44  1  0.18448000  0.30612000  0.39548000  1.0
  H  H45  1  0.27483000  0.37306000  0.48830000  1.0
  H  H46  1  0.34383000  0.33313000  0.92825000  1.0
  H  H47  1  0.27636000  0.28213000  0.96517000  1.0
  H  H48  1  0.37983000  0.37037000  0.03062000  1.0
  H  H49  1  0.00271000  0.43376000  0.77904000  1.0
  H  H50  1  0.08252000  0.48518000  0.75233000  1.0
  H  H51  1  0.06160000  0.54614000  0.82058000  1.0
  H  H52  1  0.86043000  0.62364000  0.11288000  1.0
  H  H53  1  0.83288000  0.69076000  0.08045000  1.0
  H  H54  1  0.81259000  0.67253000  0.15729000  1.0
  H  H55  1  0.17716000  0.74652000  0.06377000  1.0
  H  H56  1  0.21596000  0.85242000  0.13000000  1.0
  H  H57  1  0.25637000  0.83143000  0.06153000  1.0
  H  H58  1  0.75016000  0.70952000  0.74465000  1.0
  H  H59  1  0.79662000  0.81739000  0.81055000  1.0
  H  H60  1  0.73619000  0.73623000  0.83058000  1.0
  H  H61  1  0.01420000  0.64727000  0.13826000  1.0
  H  H62  1  0.06286000  0.66666667  0.07686000  1.0
  H  H63  1  0.96200000  0.57495000  0.03742000  1.0
  H  H64  1  0.24993000  0.34587000  0.66569000  1.0
  H  H65  1  0.21424000  0.39058000  0.73033000  1.0
  H  H66  1  0.20558000  0.40883000  0.64727000  1.0
  C  C67  1  0.91314000  0.82820000  0.63235000  1.0
  C  C68  1  0.08403000  0.24697000  0.45222000  1.0
  C  C69  1  0.07870000  0.14589000  0.70075000  1.0
  C  C70  1  0.87583000  0.10053000  0.52467000  1.0
  C  C71  1  0.10255000  0.22824000  0.64362000  1.0
  C  C72  1  0.83354000  0.00659000  0.56604000  1.0
  C  C73  1  0.94582000  0.17885000  0.38531000  1.0
  C  C74  1  0.05001000  0.91289000  0.69315000  1.0
  C  C75  1  0.98444000  0.84935000  0.69684000  1.0
  C  C76  1  0.01745000  0.25727000  0.41399000  1.0
  C  C77  1  0.09781000  0.22722000  0.71167000  1.0
  C  C78  1  0.82935000  0.07711000  0.56394000  1.0
  C  C79  1  0.71073000  0.79604000  0.34655000  1.0
  C  C80  1  0.28989000  0.13789000  0.55748000  1.0
  C  C81  1  0.08051000  0.86517000  0.48731000  1.0
  C  C82  1  0.95135000  0.90956000  0.29733000  1.0
  C  C83  1  0.08837000  0.99565000  0.35795000  1.0
  C  C84  1  0.94229000  0.78234000  0.41921000  1.0
  C  C85  1  0.70941000  0.87908000  0.29233000  1.0
  C  C86  1  0.27920000  0.07041000  0.62912000  1.0
  C  C87  1  0.65554000  0.80185000  0.28680000  1.0
  C  C88  1  0.33144000  0.10638000  0.59813000  1.0
  C  C89  1  0.01783000  0.78102000  0.43706000  1.0
  C  C90  1  0.02454000  0.92567000  0.28681000  1.0
  C  C91  1  0.40206000  0.05445000  0.52879000  1.0
  C  C92  1  0.40635000  0.10343000  0.59765000  1.0
  C  C93  1  0.48468000  0.15061000  0.66286000  1.0
  C  C94  1  0.55703000  0.15240000  0.65922000  1.0
  C  C95  1  0.55183000  0.10349000  0.58844000  1.0
  C  C96  1  0.47186000  0.05245000  0.52165000  1.0
  C  C97  1  0.63711000  0.20182000  0.72677000  1.0
  C  C98  1  0.70709000  0.20137000  0.72225000  1.0
  C  C99  1  0.70486000  0.15429000  0.65139000  1.0
  C  C100  1  0.62453000  0.10389000  0.58406000  1.0
  C  C101  1  0.61707000  0.05341000  0.51213000  1.0
  C  C102  1  0.53516000  0.00317000  0.44708000  1.0
  C  C103  1  0.46500000  0.00064000  0.45122000  1.0
  C  C104  1  0.77419000  0.15133000  0.64297000  1.0
  C  C105  1  0.76500000  0.09602000  0.57460000  1.0
  C  C106  1  0.68723000  0.04975000  0.50952000  1.0
  C  C107  1  0.98626000  0.63459000  0.35688000  1.0
  C  C108  1  0.02720000  0.70759000  0.42640000  1.0
  C  C109  1  0.07599000  0.70695000  0.49275000  1.0
  C  C110  1  0.07874000  0.63544000  0.49166000  1.0
  C  C111  1  0.03167000  0.56002000  0.42071000  1.0
  C  C112  1  0.98648000  0.56048000  0.35127000  1.0
  C  C113  1  0.12130000  0.63108000  0.56008000  1.0
  C  C114  1  0.11619000  0.55802000  0.55843000  1.0
  C  C115  1  0.07110000  0.48210000  0.48787000  1.0
  C  C116  1  0.02836000  0.48479000  0.41871000  1.0
  C  C117  1  0.98083000  0.41006000  0.34733000  1.0
  C  C118  1  0.93781000  0.41323000  0.27858000  1.0
  C  C119  1  0.94046000  0.48519000  0.28014000  1.0
  C  C120  1  0.06739000  0.40724000  0.48410000  1.0
  C  C121  1  0.02107000  0.33415000  0.41382000  1.0
  C  C122  1  0.97775000  0.33610000  0.34630000  1.0
  C  C123  1  0.56715000  0.74543000  0.23093000  1.0
  C  C124  1  0.54065000  0.73784000  0.15531000  1.0
  C  C125  1  0.45862000  0.68080000  0.09880000  1.0
  C  C126  1  0.39894000  0.62852000  0.11565000  1.0
  C  C127  1  0.42488000  0.63954000  0.19244000  1.0
  C  C128  1  0.50682000  0.69678000  0.24900000  1.0
  C  C129  1  0.23221000  0.38591000  0.91758000  1.0
  C  C130  1  0.18846000  0.31106000  0.85018000  1.0
  C  C131  1  0.10371000  0.36009000  0.78636000  1.0
  C  C132  1  0.14573000  0.43411000  0.85471000  1.0
  C  C133  1  0.21462000  0.45140000  0.92026000  1.0
  C  C134  1  0.31770000  0.55643000  0.05702000  1.0
  C  C135  1  0.27239000  0.53606000  0.98218000  1.0
  C  C136  1  0.12722000  0.29951000  0.78349000  1.0
  C  C137  1  0.98500000  0.81683000  0.75358000  1.0
  C  C138  1  0.05209000  0.80902000  0.79425000  1.0
  C  C139  1  0.05373000  0.78837000  0.85477000  1.0
  C  C140  1  0.98900000  0.77420000  0.87777000  1.0
  C  C141  1  0.91664000  0.77261000  0.83010000  1.0
  C  C142  1  0.91560000  0.79470000  0.77036000  1.0
  C  C143  1  0.00333000  0.76820000  0.10646000  1.0
  C  C144  1  0.98998000  0.80056000  0.17075000  1.0
  C  C145  1  0.09885000  0.93903000  0.20531000  1.0
  C  C146  1  0.11048000  0.90759000  0.14134000  1.0
  C  C147  1  0.06099000  0.82203000  0.08952000  1.0
  C  C148  1  0.99485000  0.77210000  0.94986000  1.0
  C  C149  1  0.06372000  0.79586000  0.01425000  1.0
  C  C150  1  0.03728000  0.88770000  0.22068000  1.0
  C  C151  1  0.83578000  0.85218000  0.17665000  1.0
  C  C152  1  0.20090000  0.12019000  0.38046000  1.0
  C  C153  1  0.65209000  0.32435000  0.81618000  1.0
  C  C154  1  0.20702000  0.34714000  0.45648000  1.0
  C  C155  1  0.32517000  0.34278000  0.97513000  1.0
  C  C156  1  0.06419000  0.48880000  0.79927000  1.0
  C  C157  1  0.85556000  0.68003000  0.13084000  1.0
  C  C158  1  0.20044000  0.81119000  0.07133000  1.0
  C  C159  1  0.78004000  0.75441000  0.80599000  1.0
  C  C160  1  0.00254000  0.64106000  0.07977000  1.0
  C  C161  1  0.20277000  0.36335000  0.67002000  1.0
  N  N162  1  0.93529000  0.87475000  0.59516000  1.0
  N  N163  1  0.05435000  0.16960000  0.44650000  1.0
  N  N164  1  0.07252000  0.10241000  0.63212000  1.0
  N  N165  1  0.90444000  0.04705000  0.50523000  1.0
  N  N166  1  0.08839000  0.15343000  0.59708000  1.0
  N  N167  1  0.87871000  0.98976000  0.53094000  1.0
  N  N168  1  0.96815000  0.12725000  0.40593000  1.0
  N  N169  1  0.01857000  0.92667000  0.63242000  1.0
  N  N170  1  0.78876000  0.86329000  0.38261000  1.0
  N  N171  1  0.21831000  0.12168000  0.56370000  1.0
  N  N172  1  0.04452000  0.91209000  0.49907000  1.0
  N  N173  1  0.97143000  0.96422000  0.36828000  1.0
  N  N174  1  0.05695000  0.01641000  0.40653000  1.0
  N  N175  1  0.95923000  0.86060000  0.45771000  1.0
  N  N176  1  0.78783000  0.91417000  0.34986000  1.0
  N  N177  1  0.21140000  0.07926000  0.60746000  1.0
  N  N178  1  0.31980000  0.99919000  0.45947000  1.0
  N  N179  1  0.78232000  0.24218000  0.79690000  1.0
  N  N180  1  0.86121000  0.21035000  0.70339000  1.0
  N  N181  1  0.52261000  0.95041000  0.37058000  1.0
  N  N182  1  0.93859000  0.63241000  0.28425000  1.0
  N  N183  1  0.16734000  0.70693000  0.63485000  1.0
  N  N184  1  0.15930000  0.55657000  0.63095000  1.0
  N  N185  1  0.29310000  0.60354000  0.95664000  1.0
  N  N186  1  0.78764000  0.94960000  0.59013000  1.0
  N  N187  1  0.13769000  0.96633000  0.74135000  1.0
  N  N188  1  0.70131000  0.73313000  0.37207000  1.0
  O  O189  1  0.86862000  0.85221000  0.25011000  1.0
  O  O190  1  0.17220000  0.03916000  0.37903000  1.0
  O  O191  1  0.26563000  0.94138000  0.46255000  1.0
  O  O192  1  0.31273000  0.01310000  0.40256000  1.0
  O  O193  1  0.63998000  0.24091000  0.79607000  1.0
  O  O194  1  0.16865000  0.29997000  0.49230000  1.0
  O  O195  1  0.80816000  0.19618000  0.81186000  1.0
  O  O196  1  0.81192000  0.31665000  0.83954000  1.0
  O  O197  1  0.90829000  0.18270000  0.72007000  1.0
  O  O198  1  0.88176000  0.28558000  0.72975000  1.0
  O  O199  1  0.57752000  0.97952000  0.34995000  1.0
  O  O200  1  0.45721000  0.88130000  0.33147000  1.0
  O  O201  1  0.96826000  0.62937000  0.23752000  1.0
  O  O202  1  0.87123000  0.63070000  0.27371000  1.0
  O  O203  1  0.22440000  0.77007000  0.64069000  1.0
  O  O204  1  0.14387000  0.70171000  0.68490000  1.0
  O  O205  1  0.11484000  0.50575000  0.64783000  1.0
  O  O206  1  0.23629000  0.60433000  0.66785000  1.0
  O  O207  1  0.30973000  0.59158000  0.90100000  1.0
  O  O208  1  0.29344000  0.66722000  0.99298000  1.0
  O  O209  1  0.29696000  0.40181000  0.98139000  1.0
  O  O210  1  0.12695000  0.49601000  0.86436000  1.0
  O  O211  1  0.93505000  0.75171000  0.19028000  1.0
  O  O212  1  0.13939000  0.81477000  0.01341000  1.0
  O  O213  1  0.85186000  0.75328000  0.85012000  1.0
  O  O214  1  0.95822000  0.68287000  0.05896000  1.0
  O  O215  1  0.11899000  0.29084000  0.62190000  1.0
  O  O216  1  0.75667000  0.97321000  0.63137000  1.0
  O  O217  1  0.77910000  0.87815000  0.56575000  1.0
  O  O218  1  0.17218000  0.96402000  0.80192000  1.0
  O  O219  1  0.17860000  0.01727000  0.71965000  1.0
  O  O220  1  0.76437000  0.74918000  0.43013000  1.0
  O  O221  1  0.63466000  0.66545000  0.33796000  1.0
