# generated using pymatgen
data_AgH3C4(NO)3
_symmetry_space_group_name_H-M   'P 1'
_cell_length_a   7.16456000
_cell_length_b   7.16458000
_cell_length_c   12.94430000
_cell_angle_alpha   91.34780000
_cell_angle_beta   91.34700000
_cell_angle_gamma   109.89200000
_symmetry_Int_Tables_number   1
_chemical_formula_structural   AgH3C4(NO)3
_chemical_formula_sum   'Ag4 H12 C16 N12 O12'
_cell_volume   624.27716330
_cell_formula_units_Z   4
loop_
 _symmetry_equiv_pos_site_id
 _symmetry_equiv_pos_as_xyz
  1  'x, y, z'
loop_
 _atom_site_type_symbol
 _atom_site_label
 _atom_site_symmetry_multiplicity
 _atom_site_fract_x
 _atom_site_fract_y
 _atom_site_fract_z
 _atom_site_occupancy
  Ag  Ag0  1  0.49054000  0.58852000  0.14476000  1.0
  Ag  Ag1  1  0.41148000  0.50946000  0.35524000  1.0
  Ag  Ag2  1  0.50947000  0.41149000  0.85524000  1.0
  Ag  Ag3  1  0.58851000  0.49054000  0.64476000  1.0
  H  H4  1  0.71202000  0.28903000  0.09065000  1.0
  H  H5  1  0.71097000  0.28798000  0.40935000  1.0
  H  H6  1  0.28799000  0.71097000  0.90934000  1.0
  H  H7  1  0.28903000  0.71203000  0.59065000  1.0
  H  H8  1  0.06282000  0.29045000  0.08853000  1.0
  H  H9  1  0.70954000  0.93718000  0.41147000  1.0
  H  H10  1  0.93719000  0.70954000  0.91147000  1.0
  H  H11  1  0.29046000  0.06282000  0.58853000  1.0
  H  H12  1  0.89931000  0.82051000  0.26374000  1.0
  H  H13  1  0.17949000  0.10069000  0.23626000  1.0
  H  H14  1  0.10069000  0.17948000  0.73626000  1.0
  H  H15  1  0.82050000  0.89931000  0.76374000  1.0
  C  C16  1  0.83287000  0.40937000  0.12824000  1.0
  C  C17  1  0.59062000  0.16713000  0.37176000  1.0
  C  C18  1  0.16713000  0.59062000  0.87176000  1.0
  C  C19  1  0.40937000  0.83287000  0.62824000  1.0
  C  C20  1  0.02728000  0.40973000  0.12779000  1.0
  C  C21  1  0.59027000  0.97272000  0.37220000  1.0
  C  C22  1  0.97273000  0.59027000  0.87220000  1.0
  C  C23  1  0.40973000  0.02728000  0.62779000  1.0
  C  C24  1  0.13257000  0.70541000  0.22327000  1.0
  C  C25  1  0.29459000  0.86742000  0.27673000  1.0
  C  C26  1  0.86743000  0.29459000  0.77673000  1.0
  C  C27  1  0.70541000  0.13258000  0.72327000  1.0
  C  C28  1  0.93688000  0.70373000  0.22352000  1.0
  C  C29  1  0.29627000  0.06312000  0.27649000  1.0
  C  C30  1  0.06312000  0.29626000  0.77649000  1.0
  C  C31  1  0.70373000  0.93688000  0.72351000  1.0
  N  N32  1  0.78882000  0.55822000  0.17457000  1.0
  N  N33  1  0.44177000  0.21118000  0.32543000  1.0
  N  N34  1  0.21118000  0.44176000  0.82543000  1.0
  N  N35  1  0.55823000  0.78882000  0.67457000  1.0
  N  N36  1  0.17711000  0.55887000  0.17339000  1.0
  N  N37  1  0.44113000  0.82289000  0.32661000  1.0
  N  N38  1  0.82289000  0.44113000  0.82661000  1.0
  N  N39  1  0.55887000  0.17711000  0.67339000  1.0
  N  N40  1  0.71525000  0.92345000  0.01505000  1.0
  N  N41  1  0.07655000  0.28475000  0.48495000  1.0
  N  N42  1  0.28475000  0.07655000  0.98495000  1.0
  N  N43  1  0.92345000  0.71526000  0.51505000  1.0
  O  O44  1  0.61837000  0.74846000  0.97704000  1.0
  O  O45  1  0.25155000  0.38163000  0.52297000  1.0
  O  O46  1  0.38163000  0.25155000  0.02297000  1.0
  O  O47  1  0.74845000  0.61837000  0.47704000  1.0
  O  O48  1  0.70324000  0.95782000  0.11099000  1.0
  O  O49  1  0.04218000  0.29675000  0.38901000  1.0
  O  O50  1  0.29676000  0.04218000  0.88902000  1.0
  O  O51  1  0.95782000  0.70326000  0.61099000  1.0
  O  O52  1  0.81850000  0.05567000  0.95808000  1.0
  O  O53  1  0.94433000  0.18149000  0.54192000  1.0
  O  O54  1  0.18150000  0.94434000  0.04192000  1.0
  O  O55  1  0.05567000  0.81851000  0.45808000  1.0
