# generated using pymatgen
data_ZnH12(C3N2)3
_symmetry_space_group_name_H-M   'P 1'
_cell_length_a   10.77530000
_cell_length_b   12.78070000
_cell_length_c   16.88110000
_cell_angle_alpha   90.00000000
_cell_angle_beta   95.91050000
_cell_angle_gamma   89.99990000
_symmetry_Int_Tables_number   1
_chemical_formula_structural   ZnH12(C3N2)3
_chemical_formula_sum   'Zn8 H96 C72 N48'
_cell_volume   2312.43678680
_cell_formula_units_Z   8
loop_
 _symmetry_equiv_pos_site_id
 _symmetry_equiv_pos_as_xyz
  1  'x, y, z'
loop_
 _atom_site_type_symbol
 _atom_site_label
 _atom_site_symmetry_multiplicity
 _atom_site_fract_x
 _atom_site_fract_y
 _atom_site_fract_z
 _atom_site_occupancy
  Zn  Zn0  1  0.28036000  0.71887000  0.39964000  1.0
  Zn  Zn1  1  0.21964000  0.21887000  0.10036000  1.0
  Zn  Zn2  1  0.71964000  0.28113000  0.60036000  1.0
  Zn  Zn3  1  0.78036000  0.78113000  0.89964000  1.0
  Zn  Zn4  1  0.80036000  0.74388000  0.54122000  1.0
  Zn  Zn5  1  0.69964000  0.24389000  0.95878000  1.0
  Zn  Zn6  1  0.19964000  0.25612000  0.45878000  1.0
  Zn  Zn7  1  0.30036000  0.75612000  0.04122000  1.0
  H  H8  1  0.94047000  0.65160000  0.79928000  1.0
  H  H9  1  0.55953000  0.15160000  0.70072000  1.0
  H  H10  1  0.05953000  0.34840000  0.20072000  1.0
  H  H11  1  0.44047000  0.84840000  0.29928000  1.0
  H  H12  1  0.00663000  0.69231000  0.71217000  1.0
  H  H13  1  0.49336000  0.19231000  0.78783000  1.0
  H  H14  1  0.99337000  0.30769000  0.28783000  1.0
  H  H15  1  0.50664000  0.80769000  0.21217000  1.0
  H  H16  1  0.88663000  0.59671000  0.70556000  1.0
  H  H17  1  0.61337000  0.09671000  0.79444000  1.0
  H  H18  1  0.11337000  0.40329000  0.29444000  1.0
  H  H19  1  0.38663000  0.90329000  0.20556000  1.0
  H  H20  1  0.65892000  0.98985000  0.58601000  1.0
  H  H21  1  0.84108000  0.48985000  0.91399000  1.0
  H  H22  1  0.34109000  0.01015000  0.41399000  1.0
  H  H23  1  0.15892000  0.51015000  0.08601000  1.0
  H  H24  1  0.52785000  0.95544000  0.63574000  1.0
  H  H25  1  0.97215000  0.45543000  0.86426000  1.0
  H  H26  1  0.47215000  0.04457000  0.36426000  1.0
  H  H27  1  0.02785000  0.54457000  0.13574000  1.0
  H  H28  1  0.51651000  0.65621000  0.33478000  1.0
  H  H29  1  0.98349000  0.15621000  0.16521000  1.0
  H  H30  1  0.48349000  0.34380000  0.66521000  1.0
  H  H31  1  0.01651000  0.84379000  0.83479000  1.0
  H  H32  1  0.64392000  0.61261000  0.40251000  1.0
  H  H33  1  0.85607000  0.11261000  0.09749000  1.0
  H  H34  1  0.35607000  0.38739000  0.59749000  1.0
  H  H35  1  0.14392000  0.88739000  0.90251000  1.0
  H  H36  1  0.66402000  0.72044000  0.34052000  1.0
  H  H37  1  0.83598000  0.22044000  0.15947000  1.0
  H  H38  1  0.33598000  0.27956000  0.65948000  1.0
  H  H39  1  0.16402000  0.77956000  0.84053000  1.0
  H  H40  1  0.98777000  0.96042000  0.30502000  1.0
  H  H41  1  0.51223000  0.46042000  0.19498000  1.0
  H  H42  1  0.01223000  0.03958000  0.69498000  1.0
  H  H43  1  0.48777000  0.53958000  0.80502000  1.0
  H  H44  1  0.11619000  0.87791000  0.28806000  1.0
  H  H45  1  0.38381000  0.37791000  0.21194000  1.0
  H  H46  1  0.88381000  0.12209000  0.71194000  1.0
  H  H47  1  0.61619000  0.62209000  0.78806000  1.0
  H  H48  1  0.13881000  0.98634000  0.35370000  1.0
  H  H49  1  0.36119000  0.48634000  0.14630000  1.0
  H  H50  1  0.86119000  0.01366000  0.64630000  1.0
  H  H51  1  0.63881000  0.51366000  0.85370000  1.0
  H  H52  1  0.18323000  0.68722000  0.59128000  1.0
  H  H53  1  0.31677000  0.18722000  0.90872000  1.0
  H  H54  1  0.81677000  0.31278000  0.40872000  1.0
  H  H55  1  0.68323000  0.81278000  0.09128000  1.0
  H  H56  1  0.03799000  0.62033000  0.57779000  1.0
  H  H57  1  0.46201000  0.12033000  0.92221000  1.0
  H  H58  1  0.96201000  0.37967000  0.42221000  1.0
  H  H59  1  0.53799000  0.87967000  0.07779000  1.0
  H  H60  1  0.37726000  0.36901000  0.36213000  1.0
  H  H61  1  0.12274000  0.86901000  0.13787000  1.0
  H  H62  1  0.62274000  0.63099000  0.63787000  1.0
  H  H63  1  0.87726000  0.13099000  0.86213000  1.0
  H  H64  1  0.47217000  0.47609000  0.39769000  1.0
  H  H65  1  0.02783000  0.97609000  0.10231000  1.0
  H  H66  1  0.52783000  0.52391000  0.60231000  1.0
  H  H67  1  0.97217000  0.02391000  0.89769000  1.0
  H  H68  1  0.35574000  0.49440000  0.31637000  1.0
  H  H69  1  0.14425000  0.99440000  0.18363000  1.0
  H  H70  1  0.64426000  0.50560000  0.68363000  1.0
  H  H71  1  0.85574000  0.00561000  0.81637000  1.0
  H  H72  1  0.28173000  0.73854000  0.73716000  1.0
  H  H73  1  0.21827000  0.23854000  0.76284000  1.0
  H  H74  1  0.71827000  0.26146000  0.26284000  1.0
  H  H75  1  0.78173000  0.76145000  0.23716000  1.0
  H  H76  1  0.41479000  0.79983000  0.78942000  1.0
  H  H77  1  0.08521000  0.29983000  0.71058000  1.0
  H  H78  1  0.58521000  0.20017000  0.21058000  1.0
  H  H79  1  0.91479000  0.70017000  0.28942000  1.0
  H  H80  1  0.41005000  0.77229000  0.68552000  1.0
  H  H81  1  0.08995000  0.27230000  0.81448000  1.0
  H  H82  1  0.58994000  0.22771000  0.31448000  1.0
  H  H83  1  0.91006000  0.72770000  0.18552000  1.0
  H  H84  1  0.26008000  0.87955000  0.58639000  1.0
  H  H85  1  0.23992000  0.37955000  0.91361000  1.0
  H  H86  1  0.73992000  0.12045000  0.41361000  1.0
  H  H87  1  0.76009000  0.62044000  0.08639000  1.0
  H  H88  1  0.18121000  0.98957000  0.62160000  1.0
  H  H89  1  0.31880000  0.48957000  0.87840000  1.0
  H  H90  1  0.81880000  0.01043000  0.37840000  1.0
  H  H91  1  0.68121000  0.51043000  0.12160000  1.0
  H  H92  1  0.12873000  0.86055000  0.64006000  1.0
  H  H93  1  0.37127000  0.36055000  0.85994000  1.0
  H  H94  1  0.87127000  0.13945000  0.35995000  1.0
  H  H95  1  0.62873000  0.63945000  0.14005000  1.0
  H  H96  1  0.27946000  0.06300000  0.74462000  1.0
  H  H97  1  0.22054000  0.56301000  0.75538000  1.0
  H  H98  1  0.72054000  0.93699000  0.25539000  1.0
  H  H99  1  0.77946000  0.43699000  0.24462000  1.0
  H  H100  1  0.38156000  0.98064000  0.81607000  1.0
  H  H101  1  0.11844000  0.48065000  0.68393000  1.0
  H  H102  1  0.61844000  0.01935000  0.18393000  1.0
  H  H103  1  0.88156000  0.51935000  0.31607000  1.0
  C  C104  1  0.91941000  0.66924000  0.73586000  1.0
  C  C105  1  0.58059000  0.16924000  0.76414000  1.0
  C  C106  1  0.08059000  0.33076000  0.26414000  1.0
  C  C107  1  0.41941000  0.83076000  0.23586000  1.0
  C  C108  1  0.82416000  0.75353000  0.72392000  1.0
  C  C109  1  0.67584000  0.25353000  0.77608000  1.0
  C  C110  1  0.17585000  0.24647000  0.27608000  1.0
  C  C111  1  0.32416000  0.74648000  0.22392000  1.0
  C  C112  1  0.68831000  0.86293000  0.66963000  1.0
  C  C113  1  0.81169000  0.36293000  0.83037000  1.0
  C  C114  1  0.31170000  0.13707000  0.33037000  1.0
  C  C115  1  0.18831000  0.63707000  0.16963000  1.0
  C  C116  1  0.60708000  0.92306000  0.60787000  1.0
  C  C117  1  0.89292000  0.42306000  0.89212000  1.0
  C  C118  1  0.39293000  0.07694000  0.39212000  1.0
  C  C119  1  0.10708000  0.57695000  0.10788000  1.0
  C  C120  1  0.55908000  0.85817000  0.53740000  1.0
  C  C121  1  0.94092000  0.35817000  0.96260000  1.0
  C  C122  1  0.44092000  0.14183000  0.46260000  1.0
  C  C123  1  0.05908000  0.64183000  0.03740000  1.0
  C  C124  1  0.55685000  0.75400000  0.43699000  1.0
  C  C125  1  0.94315000  0.25400000  0.06301000  1.0
  C  C126  1  0.44315000  0.24600000  0.56301000  1.0
  C  C127  1  0.05685000  0.74600000  0.93699000  1.0
  C  C128  1  0.59656000  0.68184000  0.37535000  1.0
  C  C129  1  0.90343000  0.18184000  0.12465000  1.0
  C  C130  1  0.40344000  0.31816000  0.62465000  1.0
  C  C131  1  0.09656000  0.81816000  0.87535000  1.0
  C  C132  1  0.07331000  0.92390000  0.33286000  1.0
  C  C133  1  0.42668000  0.42390000  0.16714000  1.0
  C  C134  1  0.92669000  0.07610000  0.66714000  1.0
  C  C135  1  0.57332000  0.57610000  0.83285000  1.0
  C  C136  1  0.04437000  0.85578000  0.39974000  1.0
  C  C137  1  0.45563000  0.35577000  0.10026000  1.0
  C  C138  1  0.95563000  0.14422000  0.60026000  1.0
  C  C139  1  0.54437000  0.64423000  0.89974000  1.0
  C  C140  1  0.06226000  0.73792000  0.49127000  1.0
  C  C141  1  0.43774000  0.23792000  0.00873000  1.0
  C  C142  1  0.93775000  0.26208000  0.50873000  1.0
  C  C143  1  0.56226000  0.76208000  0.99127000  1.0
  C  C144  1  0.11305000  0.65307000  0.54636000  1.0
  C  C145  1  0.38695000  0.15307000  0.95364000  1.0
  C  C146  1  0.88695000  0.34693000  0.45364000  1.0
  C  C147  1  0.61305000  0.84693000  0.04636000  1.0
  C  C148  1  0.17108000  0.56519000  0.50483000  1.0
  C  C149  1  0.32892000  0.06519000  0.99518000  1.0
  C  C150  1  0.82892000  0.43481000  0.49517000  1.0
  C  C151  1  0.67108000  0.93481000  0.00482000  1.0
  C  C152  1  0.28483000  0.48067000  0.42924000  1.0
  C  C153  1  0.21517000  0.98067000  0.07076000  1.0
  C  C154  1  0.71517000  0.51933000  0.57076000  1.0
  C  C155  1  0.78483000  0.01933000  0.92923000  1.0
  C  C156  1  0.37750000  0.45343000  0.37325000  1.0
  C  C157  1  0.12250000  0.95343000  0.12675000  1.0
  C  C158  1  0.62250000  0.54657000  0.62675000  1.0
  C  C159  1  0.87750000  0.04657000  0.87325000  1.0
  C  C160  1  0.35439000  0.79859000  0.73305000  1.0
  C  C161  1  0.14561000  0.29859000  0.76695000  1.0
  C  C162  1  0.64561000  0.20141000  0.26696000  1.0
  C  C163  1  0.85439000  0.70141000  0.23304000  1.0
  C  C164  1  0.29707000  0.90372000  0.71269000  1.0
  C  C165  1  0.20293000  0.40372000  0.78731000  1.0
  C  C166  1  0.70293000  0.09628000  0.28731000  1.0
  C  C167  1  0.79707000  0.59628000  0.21269000  1.0
  C  C168  1  0.21239000  0.90957000  0.63643000  1.0
  C  C169  1  0.28761000  0.40957000  0.86357000  1.0
  C  C170  1  0.78761000  0.09043000  0.36357000  1.0
  C  C171  1  0.71239000  0.59043000  0.13643000  1.0
  C  C172  1  0.32116000  0.98695000  0.76031000  1.0
  C  C173  1  0.17884000  0.48695000  0.73969000  1.0
  C  C174  1  0.67884000  0.01306000  0.23970000  1.0
  C  C175  1  0.82116000  0.51305000  0.26031000  1.0
  N  N176  1  0.12497000  0.78189000  0.43430000  1.0
  N  N177  1  0.37503000  0.28189000  0.06570000  1.0
  N  N178  1  0.87503000  0.21811000  0.56570000  1.0
  N  N179  1  0.62497000  0.71811000  0.93430000  1.0
  N  N180  1  0.93805000  0.85839000  0.43291000  1.0
  N  N181  1  0.56194000  0.35839000  0.06709000  1.0
  N  N182  1  0.06195000  0.14161000  0.56709000  1.0
  N  N183  1  0.43805000  0.64161000  0.93291000  1.0
  N  N184  1  0.95027000  0.78299000  0.49154000  1.0
  N  N185  1  0.54973000  0.28299000  0.00846000  1.0
  N  N186  1  0.04973000  0.21701000  0.50846000  1.0
  N  N187  1  0.45027000  0.71701000  0.99154000  1.0
  N  N188  1  0.25803000  0.57904000  0.45189000  1.0
  N  N189  1  0.24197000  0.07904000  0.04811000  1.0
  N  N190  1  0.74197000  0.42096000  0.54811000  1.0
  N  N191  1  0.75803000  0.92096000  0.95189000  1.0
  N  N192  1  0.14454000  0.46529000  0.51526000  1.0
  N  N193  1  0.35546000  0.96528000  0.98474000  1.0
  N  N194  1  0.85546000  0.53472000  0.48474000  1.0
  N  N195  1  0.64454000  0.03472000  0.01526000  1.0
  N  N196  1  0.21709000  0.41162000  0.46629000  1.0
  N  N197  1  0.28291000  0.91162000  0.03371000  1.0
  N  N198  1  0.78291000  0.58838000  0.53371000  1.0
  N  N199  1  0.71709000  0.08838000  0.96629000  1.0
  N  N200  1  0.43926000  0.78437000  0.44421000  1.0
  N  N201  1  0.06074000  0.28437000  0.05579000  1.0
  N  N202  1  0.56074000  0.21563000  0.55579000  1.0
  N  N203  1  0.93926000  0.71563000  0.94421000  1.0
  N  N204  1  0.44003000  0.85106000  0.50863000  1.0
  N  N205  1  0.05997000  0.35106000  0.99137000  1.0
  N  N206  1  0.55997000  0.14894000  0.49137000  1.0
  N  N207  1  0.94003000  0.64894000  0.00863000  1.0
  N  N208  1  0.63519000  0.79948000  0.49465000  1.0
  N  N209  1  0.86481000  0.29948000  0.00535000  1.0
  N  N210  1  0.36482000  0.20052000  0.50535000  1.0
  N  N211  1  0.13519000  0.70052000  0.99465000  1.0
  N  N212  1  0.77692000  0.79158000  0.65219000  1.0
  N  N213  1  0.72307000  0.29158000  0.84781000  1.0
  N  N214  1  0.22308000  0.20842000  0.34781000  1.0
  N  N215  1  0.27693000  0.70842000  0.15219000  1.0
  N  N216  1  0.68151000  0.87108000  0.74748000  1.0
  N  N217  1  0.81849000  0.37107000  0.75252000  1.0
  N  N218  1  0.31849000  0.12892000  0.25252000  1.0
  N  N219  1  0.18152000  0.62893000  0.24748000  1.0
  N  N220  1  0.76860000  0.80093000  0.78182000  1.0
  N  N221  1  0.73140000  0.30093000  0.71818000  1.0
  N  N222  1  0.23140000  0.19907000  0.21818000  1.0
  N  N223  1  0.26860000  0.69907000  0.28182000  1.0
