# generated using pymatgen
data_CuH10C7N5ClO5
_symmetry_space_group_name_H-M   'P 1'
_cell_length_a   6.98745000
_cell_length_b   9.08301000
_cell_length_c   10.47750178
_cell_angle_alpha   110.03056019
_cell_angle_beta   100.73084372
_cell_angle_gamma   99.13340000
_symmetry_Int_Tables_number   1
_chemical_formula_structural   CuH10C7N5ClO5
_chemical_formula_sum   'Cu2 H20 C14 N10 Cl2 O10'
_cell_volume   595.72655504
_cell_formula_units_Z   2
loop_
 _symmetry_equiv_pos_site_id
 _symmetry_equiv_pos_as_xyz
  1  'x, y, z'
loop_
 _atom_site_type_symbol
 _atom_site_label
 _atom_site_symmetry_multiplicity
 _atom_site_fract_x
 _atom_site_fract_y
 _atom_site_fract_z
 _atom_site_occupancy
  Cu  Cu0  1  0.46596000  0.42943000  0.78513000  1.0
  Cu  Cu1  1  0.53404000  0.57057000  0.21487000  1.0
  H  H2  1  0.03946000  0.89251000  0.12053000  1.0
  H  H3  1  0.96054000  0.10749000  0.87947000  1.0
  H  H4  1  0.76302000  0.87767000  0.94629000  1.0
  H  H5  1  0.23699000  0.12233000  0.05371000  1.0
  H  H6  1  0.69445000  0.03753000  0.07021000  1.0
  H  H7  1  0.30555000  0.96247000  0.92978000  1.0
  H  H8  1  0.24380000  0.85394000  0.27518000  1.0
  H  H9  1  0.75620000  0.14606000  0.72482000  1.0
  H  H10  1  0.45081000  0.01402000  0.39091000  1.0
  H  H11  1  0.54919000  0.98599000  0.60910000  1.0
  H  H12  1  0.34935000  0.00962000  0.22057000  1.0
  H  H13  1  0.65065000  0.99037000  0.77943000  1.0
  H  H14  1  0.65605000  0.33955000  0.43037000  1.0
  H  H15  1  0.34395000  0.66046000  0.56963000  1.0
  H  H16  1  0.82075000  0.43798000  0.60118000  1.0
  H  H17  1  0.17925000  0.56203000  0.39882000  1.0
  H  H18  1  0.77452000  0.54036000  0.98204000  1.0
  H  H19  1  0.22547000  0.45965000  0.01797000  1.0
  H  H20  1  0.69765000  0.35103000  0.93978000  1.0
  H  H21  1  0.30235000  0.64898000  0.06022000  1.0
  C  C22  1  0.99531000  0.07086000  0.28415000  1.0
  C  C23  1  0.00470000  0.92914000  0.71585000  1.0
  C  C24  1  0.24726000  0.19413000  0.50500000  1.0
  C  C25  1  0.75274000  0.80587000  0.49500000  1.0
  C  C26  1  0.11251000  0.29479000  0.55291000  1.0
  C  C27  1  0.88749000  0.70521000  0.44709000  1.0
  C  C28  1  0.91764000  0.26762000  0.46005000  1.0
  C  C29  1  0.08237000  0.73238000  0.53995000  1.0
  C  C30  1  0.75148000  0.92882000  0.05536000  1.0
  C  C31  1  0.24852000  0.07118000  0.94464000  1.0
  C  C32  1  0.60136000  0.79957000  0.07237000  1.0
  C  C33  1  0.39865000  0.20043000  0.92763000  1.0
  C  C34  1  0.31272000  0.98309000  0.30891000  1.0
  C  C35  1  0.68728000  0.01691000  0.69109000  1.0
  N  N36  1  0.86496000  0.15437000  0.32872000  1.0
  N  N37  1  0.13504000  0.84564000  0.67128000  1.0
  N  N38  1  0.17943000  0.08080000  0.36751000  1.0
  N  N39  1  0.82057000  0.91920000  0.63249000  1.0
  N  N40  1  0.94915000  0.96837000  0.14898000  1.0
  N  N41  1  0.05085000  0.03163000  0.85102000  1.0
  N  N42  1  0.18768000  0.41152000  0.68287000  1.0
  N  N43  1  0.81232000  0.58848000  0.31713000  1.0
  N  N44  1  0.78814000  0.35371000  0.50104000  1.0
  N  N45  1  0.21186000  0.64630000  0.49896000  1.0
  Cl  Cl46  1  0.60164000  0.62408000  0.71468000  1.0
  Cl  Cl47  1  0.39836000  0.37592000  0.28532000  1.0
  O  O48  1  0.41782000  0.79371000  0.03450000  1.0
  O  O49  1  0.58219000  0.20629000  0.96550000  1.0
  O  O50  1  0.67756000  0.70339000  0.12124000  1.0
  O  O51  1  0.32245000  0.29661000  0.87877000  1.0
  O  O52  1  0.41406000  0.20564000  0.57999000  1.0
  O  O53  1  0.58594000  0.79435000  0.42001000  1.0
  O  O54  1  0.08809000  0.50572000  0.73997000  1.0
  O  O55  1  0.91190000  0.49428000  0.26003000  1.0
  O  O56  1  0.73809000  0.43704000  0.90074000  1.0
  O  O57  1  0.26192000  0.56297000  0.09927000  1.0
