# generated using pymatgen
data_ZnH24C17N3O7
_symmetry_space_group_name_H-M   'P 1'
_cell_length_a   7.01157000
_cell_length_b   9.25094000
_cell_length_c   16.29760000
_cell_angle_alpha   81.37790000
_cell_angle_beta   87.40860000
_cell_angle_gamma   69.68130000
_symmetry_Int_Tables_number   1
_chemical_formula_structural   ZnH24C17N3O7
_chemical_formula_sum   'Zn2 H48 C34 N6 O14'
_cell_volume   980.11231236
_cell_formula_units_Z   2
loop_
 _symmetry_equiv_pos_site_id
 _symmetry_equiv_pos_as_xyz
  1  'x, y, z'
loop_
 _atom_site_type_symbol
 _atom_site_label
 _atom_site_symmetry_multiplicity
 _atom_site_fract_x
 _atom_site_fract_y
 _atom_site_fract_z
 _atom_site_occupancy
  Zn  Zn0  1  0.96899000  0.31347000  0.12989000  1.0
  Zn  Zn1  1  0.03101000  0.68652000  0.87011000  1.0
  H  H2  1  0.23509000  0.36624000  0.01492000  1.0
  H  H3  1  0.76493000  0.63376000  0.98508000  1.0
  H  H4  1  0.29275000  0.19229000  0.07291000  1.0
  H  H5  1  0.70728000  0.80770000  0.92709000  1.0
  H  H6  1  0.91574000  0.21544000  0.44475000  1.0
  H  H7  1  0.08424000  0.78457000  0.55525000  1.0
  H  H8  1  0.81750000  0.23780000  0.29693000  1.0
  H  H9  1  0.18250000  0.76221000  0.70306000  1.0
  H  H10  1  0.33209000  0.33498000  0.21053000  1.0
  H  H11  1  0.66792000  0.66501000  0.78947000  1.0
  H  H12  1  0.45065000  0.32021000  0.35395000  1.0
  H  H13  1  0.54937000  0.67977000  0.64606000  1.0
  H  H14  1  0.60450000  0.41150000  0.57632000  1.0
  H  H15  1  0.39551000  0.58850000  0.42369000  1.0
  H  H16  1  0.46772000  0.43633000  0.67074000  1.0
  H  H17  1  0.53227000  0.56367000  0.32926000  1.0
  H  H18  1  0.33315000  0.49690000  0.57391000  1.0
  H  H19  1  0.66686000  0.50310000  0.42610000  1.0
  H  H20  1  0.64777000  0.00508000  0.65327000  1.0
  H  H21  1  0.35219000  0.99492000  0.34673000  1.0
  H  H22  1  0.63146000  0.13743000  0.72400000  1.0
  H  H23  1  0.36851000  0.86255000  0.27601000  1.0
  H  H24  1  0.77644000  0.14184000  0.63136000  1.0
  H  H25  1  0.22354000  0.85815000  0.36864000  1.0
  H  H26  1  0.12832000  0.46116000  0.68553000  1.0
  H  H27  1  0.87166000  0.53886000  0.31446000  1.0
  H  H28  1  0.23127000  0.30031000  0.76445000  1.0
  H  H29  1  0.76870000  0.69970000  0.23555000  1.0
  H  H30  1  0.99000000  0.33500000  0.71918000  1.0
  H  H31  1  0.00997000  0.66503000  0.28081000  1.0
  H  H32  1  0.09146000  0.07217000  0.68186000  1.0
  H  H33  1  0.90849000  0.92785000  0.31814000  1.0
  H  H34  1  0.33245000  0.02122000  0.72989000  1.0
  H  H35  1  0.66752000  0.97880000  0.27011000  1.0
  H  H36  1  0.31740000  0.99185000  0.62466000  1.0
  H  H37  1  0.68257000  0.00816000  0.37534000  1.0
  H  H38  1  0.39510000  0.66299000  0.02066000  1.0
  H  H39  1  0.60492000  0.33702000  0.97933000  1.0
  H  H40  1  0.47422000  0.77681000  0.07913000  1.0
  H  H41  1  0.52581000  0.22318000  0.92087000  1.0
  H  H42  1  0.27885000  0.70057000  0.20257000  1.0
  H  H43  1  0.72118000  0.29943000  0.79743000  1.0
  H  H44  1  0.18734000  0.59902000  0.14014000  1.0
  H  H45  1  0.81269000  0.40097000  0.85986000  1.0
  H  H46  1  0.03398000  0.84879000  0.04079000  1.0
  H  H47  1  0.96604000  0.15120000  0.95921000  1.0
  H  H48  1  0.92205000  0.85122000  0.13939000  1.0
  H  H49  1  0.07798000  0.14876000  0.86061000  1.0
  C  C50  1  0.19256000  0.26776000  0.41175000  1.0
  C  C51  1  0.80744000  0.73225000  0.58825000  1.0
  C  C52  1  0.01276000  0.24201000  0.39511000  1.0
  C  C53  1  0.98724000  0.75800000  0.60489000  1.0
  C  C54  1  0.95759000  0.25314000  0.31306000  1.0
  C  C55  1  0.04240000  0.74687000  0.68694000  1.0
  C  C56  1  0.24433000  0.30883000  0.26406000  1.0
  C  C57  1  0.75568000  0.69115000  0.73595000  1.0
  C  C58  1  0.31008000  0.30037000  0.34431000  1.0
  C  C59  1  0.68993000  0.69961000  0.65570000  1.0
  C  C60  1  0.25582000  0.25896000  0.49653000  1.0
  C  C61  1  0.74417000  0.74105000  0.50347000  1.0
  C  C62  1  0.45500000  0.24447000  0.61241000  1.0
  C  C63  1  0.54499000  0.75552000  0.38759000  1.0
  C  C64  1  0.46433000  0.40875000  0.60772000  1.0
  C  C65  1  0.53566000  0.59124000  0.39229000  1.0
  C  C66  1  0.63870000  0.12392000  0.65802000  1.0
  C  C67  1  0.36128000  0.87607000  0.34198000  1.0
  C  C68  1  0.24523000  0.23556000  0.64272000  1.0
  C  C69  1  0.75474000  0.76445000  0.35728000  1.0
  C  C70  1  0.14229000  0.34024000  0.70655000  1.0
  C  C71  1  0.85768000  0.65978000  0.29345000  1.0
  C  C72  1  0.24834000  0.06900000  0.67111000  1.0
  C  C73  1  0.75162000  0.93102000  0.32890000  1.0
  C  C74  1  0.60772000  0.53325000  0.11677000  1.0
  C  C75  1  0.39231000  0.46674000  0.88323000  1.0
  C  C76  1  0.42805000  0.67355000  0.08456000  1.0
  C  C77  1  0.57198000  0.32645000  0.91543000  1.0
  C  C78  1  0.23895000  0.69895000  0.13824000  1.0
  C  C79  1  0.76108000  0.30104000  0.86175000  1.0
  C  C80  1  0.06375000  0.84762000  0.10680000  1.0
  C  C81  1  0.93627000  0.15238000  0.89319000  1.0
  C  C82  1  0.09695000  0.00006000  0.11211000  1.0
  C  C83  1  0.90306000  0.99994000  0.88789000  1.0
  N  N84  1  0.06949000  0.28734000  0.24853000  1.0
  N  N85  1  0.93051000  0.71266000  0.75147000  1.0
  N  N86  1  0.45076000  0.21558000  0.52351000  1.0
  N  N87  1  0.54923000  0.78442000  0.47649000  1.0
  N  N88  1  0.12758000  0.29085000  0.56160000  1.0
  N  N89  1  0.87240000  0.70915000  0.43840000  1.0
  O  O90  1  0.61218000  0.16722000  0.48069000  1.0
  O  O91  1  0.38780000  0.83279000  0.51931000  1.0
  O  O92  1  0.93358000  0.34734000  0.55834000  1.0
  O  O93  1  0.06642000  0.65266000  0.44166000  1.0
  O  O94  1  0.60450000  0.44298000  0.18162000  1.0
  O  O95  1  0.39551000  0.55703000  0.81837000  1.0
  O  O96  1  0.77443000  0.51106000  0.07225000  1.0
  O  O97  1  0.22561000  0.48893000  0.92774000  1.0
  O  O98  1  0.27312000  0.00715000  0.11264000  1.0
  O  O99  1  0.72689000  0.99284000  0.88736000  1.0
  O  O100  1  0.93048000  0.11895000  0.11408000  1.0
  O  O101  1  0.06954000  0.88104000  0.88592000  1.0
  O  O102  1  0.23713000  0.30739000  0.07216000  1.0
  O  O103  1  0.76289000  0.69261000  0.92784000  1.0
