# generated using pymatgen
data_CuH16C14(N4Cl)2
_symmetry_space_group_name_H-M   'P 1'
_cell_length_a   7.10316000
_cell_length_b   8.63815000
_cell_length_c   15.18340000
_cell_angle_alpha   90.00110000
_cell_angle_beta   90.00120000
_cell_angle_gamma   74.62520000
_symmetry_Int_Tables_number   1
_chemical_formula_structural   CuH16C14(N4Cl)2
_chemical_formula_sum   'Cu2 H32 C28 N16 Cl4'
_cell_volume   898.28459733
_cell_formula_units_Z   2
loop_
 _symmetry_equiv_pos_site_id
 _symmetry_equiv_pos_as_xyz
  1  'x, y, z'
loop_
 _atom_site_type_symbol
 _atom_site_label
 _atom_site_symmetry_multiplicity
 _atom_site_fract_x
 _atom_site_fract_y
 _atom_site_fract_z
 _atom_site_occupancy
  Cu  Cu0  1  0.00005000  0.99999000  0.99997000  1.0
  Cu  Cu1  1  0.99998000  0.49997000  0.49999000  1.0
  H  H2  1  0.43377000  0.87742000  0.92689000  1.0
  H  H3  1  0.56623000  0.62260000  0.42688000  1.0
  H  H4  1  0.56627000  0.12259000  0.07313000  1.0
  H  H5  1  0.43371000  0.37742000  0.57312000  1.0
  H  H6  1  0.96493000  0.68416000  0.90636000  1.0
  H  H7  1  0.03504000  0.81584000  0.40636000  1.0
  H  H8  1  0.03508000  0.31586000  0.09364000  1.0
  H  H9  1  0.96491000  0.18415000  0.59364000  1.0
  H  H10  1  0.57296000  0.62582000  0.83800000  1.0
  H  H11  1  0.42703000  0.87420000  0.33799000  1.0
  H  H12  1  0.42706000  0.37415000  0.16201000  1.0
  H  H13  1  0.57295000  0.12584000  0.66201000  1.0
  H  H14  1  0.78885000  0.17710000  0.85201000  1.0
  H  H15  1  0.21113000  0.32289000  0.35202000  1.0
  H  H16  1  0.21115000  0.82291000  0.14799000  1.0
  H  H17  1  0.78888000  0.67712000  0.64799000  1.0
  H  H18  1  0.32164000  0.20118000  0.94154000  1.0
  H  H19  1  0.67834000  0.29881000  0.44153000  1.0
  H  H20  1  0.67840000  0.79882000  0.05845000  1.0
  H  H21  1  0.32162000  0.70119000  0.55846000  1.0
  H  H22  1  0.86565000  0.39646000  0.74957000  1.0
  H  H23  1  0.13435000  0.10356000  0.24956000  1.0
  H  H24  1  0.13437000  0.60353000  0.25044000  1.0
  H  H25  1  0.86562000  0.89647000  0.75045000  1.0
  H  H26  1  0.21041000  0.49046000  0.72993000  1.0
  H  H27  1  0.78961000  0.00953000  0.22992000  1.0
  H  H28  1  0.78962000  0.50955000  0.27007000  1.0
  H  H29  1  0.21043000  0.99042000  0.77007000  1.0
  H  H30  1  0.41469000  0.37336000  0.78564000  1.0
  H  H31  1  0.58534000  0.12662000  0.28564000  1.0
  H  H32  1  0.58534000  0.62666000  0.21434000  1.0
  H  H33  1  0.41463000  0.87337000  0.71435000  1.0
  C  C34  1  0.11394000  0.69157000  0.89798000  1.0
  C  C35  1  0.88607000  0.80841000  0.39798000  1.0
  C  C36  1  0.88609000  0.30844000  0.10202000  1.0
  C  C37  1  0.11390000  0.19158000  0.60202000  1.0
  C  C38  1  0.27004000  0.59018000  0.85160000  1.0
  C  C39  1  0.72996000  0.90981000  0.35159000  1.0
  C  C40  1  0.72998000  0.40982000  0.14840000  1.0
  C  C41  1  0.27000000  0.09019000  0.64840000  1.0
  C  C42  1  0.42426000  0.66008000  0.86255000  1.0
  C  C43  1  0.57572000  0.83993000  0.36255000  1.0
  C  C44  1  0.57575000  0.33991000  0.13746000  1.0
  C  C45  1  0.42425000  0.16008000  0.63746000  1.0
  C  C46  1  0.19027000  0.23484000  0.90171000  1.0
  C  C47  1  0.80972000  0.26515000  0.40171000  1.0
  C  C48  1  0.80976000  0.76516000  0.09828000  1.0
  C  C49  1  0.19026000  0.73483000  0.59829000  1.0
  C  C50  1  0.14162000  0.34677000  0.83233000  1.0
  C  C51  1  0.85838000  0.15321000  0.33234000  1.0
  C  C52  1  0.85841000  0.65322000  0.16766000  1.0
  C  C53  1  0.14161000  0.84677000  0.66767000  1.0
  C  C54  1  0.95847000  0.33732000  0.80353000  1.0
  C  C55  1  0.04154000  0.16267000  0.30353000  1.0
  C  C56  1  0.04157000  0.66266000  0.19647000  1.0
  C  C57  1  0.95845000  0.83734000  0.69648000  1.0
  C  C58  1  0.26489000  0.44801000  0.79583000  1.0
  C  C59  1  0.73513000  0.05197000  0.29582000  1.0
  C  C60  1  0.73513000  0.55199000  0.20417000  1.0
  C  C61  1  0.26486000  0.94801000  0.70416000  1.0
  N  N62  1  0.35821000  0.79380000  0.91187000  1.0
  N  N63  1  0.64177000  0.70622000  0.41186000  1.0
  N  N64  1  0.64184000  0.20620000  0.08814000  1.0
  N  N65  1  0.35817000  0.29379000  0.58815000  1.0
  N  N66  1  0.16921000  0.81519000  0.93329000  1.0
  N  N67  1  0.83078000  0.68481000  0.43328000  1.0
  N  N68  1  0.83084000  0.18480000  0.06672000  1.0
  N  N69  1  0.16918000  0.31519000  0.56673000  1.0
  N  N70  1  0.90749000  0.22569000  0.85383000  1.0
  N  N71  1  0.09249000  0.27431000  0.35383000  1.0
  N  N72  1  0.09253000  0.77431000  0.14617000  1.0
  N  N73  1  0.90749000  0.72571000  0.64616000  1.0
  N  N74  1  0.04769000  0.16143000  0.91321000  1.0
  N  N75  1  0.95229000  0.33857000  0.41321000  1.0
  N  N76  1  0.95233000  0.83858000  0.08679000  1.0
  N  N77  1  0.04768000  0.66143000  0.58679000  1.0
  Cl  Cl78  1  0.66926000  0.98791000  0.89296000  1.0
  Cl  Cl79  1  0.33071000  0.51211000  0.39297000  1.0
  Cl  Cl80  1  0.33076000  0.01209000  0.10704000  1.0
  Cl  Cl81  1  0.66924000  0.48791000  0.60704000  1.0
