# generated using pymatgen
data_NaH6C3(N3O)3
_symmetry_space_group_name_H-M   'P 1'
_cell_length_a   3.58295000
_cell_length_b   10.56910000
_cell_length_c   13.26100000
_cell_angle_alpha   103.60400000
_cell_angle_beta   89.99930000
_cell_angle_gamma   89.99900000
_symmetry_Int_Tables_number   1
_chemical_formula_structural   NaH6C3(N3O)3
_chemical_formula_sum   'Na2 H12 C6 N18 O6'
_cell_volume   488.08620464
_cell_formula_units_Z   2
loop_
 _symmetry_equiv_pos_site_id
 _symmetry_equiv_pos_as_xyz
  1  'x, y, z'
loop_
 _atom_site_type_symbol
 _atom_site_label
 _atom_site_symmetry_multiplicity
 _atom_site_fract_x
 _atom_site_fract_y
 _atom_site_fract_z
 _atom_site_occupancy
  Na  Na0  1  0.64251000  0.42148000  0.42418000  1.0
  Na  Na1  1  0.35748000  0.92150000  0.92420000  1.0
  H  H2  1  0.15027000  0.21910000  0.29648000  1.0
  H  H3  1  0.84976000  0.71914000  0.79649000  1.0
  H  H4  1  0.02168000  0.21294000  0.40961000  1.0
  H  H5  1  0.97834000  0.71296000  0.90962000  1.0
  H  H6  1  0.21451000  0.61454000  0.37723000  1.0
  H  H7  1  0.78547000  0.11457000  0.87725000  1.0
  H  H8  1  0.17576000  0.66171000  0.49987000  1.0
  H  H9  1  0.82420000  0.16173000  0.99989000  1.0
  H  H10  1  0.14579000  0.48274000  0.82701000  1.0
  H  H11  1  0.85423000  0.98271000  0.32703000  1.0
  H  H12  1  0.55441000  0.41172000  0.99752000  1.0
  H  H13  1  0.44559000  0.91172000  0.49755000  1.0
  C  C14  1  0.19175000  0.77900000  0.14030000  1.0
  C  C15  1  0.80824000  0.27900000  0.64031000  1.0
  C  C16  1  0.43057000  0.55054000  0.13271000  1.0
  C  C17  1  0.56943000  0.05055000  0.63273000  1.0
  C  C18  1  0.29276000  0.64875000  0.08218000  1.0
  C  C19  1  0.70724000  0.14876000  0.58219000  1.0
  N  N20  1  0.21035000  0.88744000  0.10115000  1.0
  N  N21  1  0.78965000  0.38744000  0.60114000  1.0
  N  N22  1  0.08298000  0.98488000  0.17553000  1.0
  N  N23  1  0.91703000  0.48489000  0.67551000  1.0
  N  N24  1  0.99822000  0.93398000  0.25468000  1.0
  N  N25  1  0.00178000  0.43400000  0.75467000  1.0
  N  N26  1  0.05998000  0.80692000  0.23761000  1.0
  N  N27  1  0.94000000  0.30695000  0.73761000  1.0
  N  N28  1  0.45000000  0.54859000  0.23347000  1.0
  N  N29  1  0.55001000  0.04862000  0.73349000  1.0
  N  N30  1  0.59133000  0.43056000  0.23597000  1.0
  N  N31  1  0.40866000  0.93059000  0.73600000  1.0
  N  N32  1  0.65930000  0.35984000  0.14255000  1.0
  N  N33  1  0.34069000  0.85986000  0.64259000  1.0
  N  N34  1  0.56004000  0.43413000  0.07784000  1.0
  N  N35  1  0.43995000  0.93414000  0.57788000  1.0
  N  N36  1  0.24000000  0.62480000  0.98090000  1.0
  N  N37  1  0.76000000  0.12479000  0.48091000  1.0
  O  O38  1  0.14564000  0.26941000  0.36818000  1.0
  O  O39  1  0.85438000  0.76944000  0.86819000  1.0
  O  O40  1  0.14643000  0.58715000  0.44110000  1.0
  O  O41  1  0.85357000  0.08717000  0.94112000  1.0
  O  O42  1  0.34843000  0.51093000  0.92352000  1.0
  O  O43  1  0.65159000  0.01091000  0.42355000  1.0
