# generated using pymatgen
data_Ag2Mo4H12C15N8O13
_symmetry_space_group_name_H-M   'P 1'
_cell_length_a   9.99901000
_cell_length_b   10.79860000
_cell_length_c   12.12100000
_cell_angle_alpha   77.29830000
_cell_angle_beta   84.77550000
_cell_angle_gamma   84.29250000
_symmetry_Int_Tables_number   1
_chemical_formula_structural   Ag2Mo4H12C15N8O13
_chemical_formula_sum   'Ag4 Mo8 H24 C30 N16 O26'
_cell_volume   1267.17962714
_cell_formula_units_Z   2
loop_
 _symmetry_equiv_pos_site_id
 _symmetry_equiv_pos_as_xyz
  1  'x, y, z'
loop_
 _atom_site_type_symbol
 _atom_site_label
 _atom_site_symmetry_multiplicity
 _atom_site_fract_x
 _atom_site_fract_y
 _atom_site_fract_z
 _atom_site_occupancy
  Ag  Ag0  1  0.37228000  0.09007000  0.69366000  1.0
  Ag  Ag1  1  0.62772000  0.90993000  0.30634000  1.0
  Ag  Ag2  1  0.36972000  0.60642000  0.31355000  1.0
  Ag  Ag3  1  0.63028000  0.39359000  0.68645000  1.0
  Mo  Mo4  1  0.00820000  0.80458000  0.36864000  1.0
  Mo  Mo5  1  0.99180000  0.19542000  0.63136000  1.0
  Mo  Mo6  1  0.23018000  0.24831000  0.42456000  1.0
  Mo  Mo7  1  0.76982000  0.75169000  0.57544000  1.0
  Mo  Mo8  1  0.04106000  0.89642000  0.63559000  1.0
  Mo  Mo9  1  0.95894000  0.10358000  0.36441000  1.0
  Mo  Mo10  1  0.28379000  0.94033000  0.44514000  1.0
  Mo  Mo11  1  0.71621000  0.05967000  0.55486000  1.0
  H  H12  1  0.21029000  0.12685000  0.90716000  1.0
  H  H13  1  0.78971000  0.87315000  0.09284000  1.0
  H  H14  1  0.17388000  0.01950000  0.11312000  1.0
  H  H15  1  0.82612000  0.98050000  0.88688000  1.0
  H  H16  1  0.30987000  0.81831000  0.18612000  1.0
  H  H17  1  0.69013000  0.18170000  0.81388000  1.0
  H  H18  1  0.51645000  0.85417000  0.85257000  1.0
  H  H19  1  0.48355000  0.14583000  0.14743000  1.0
  H  H20  1  0.49715000  0.35733000  0.24430000  1.0
  H  H21  1  0.50284000  0.64267000  0.75570000  1.0
  H  H22  1  0.66928000  0.33050000  0.18474000  1.0
  H  H23  1  0.33072000  0.66950000  0.81526000  1.0
  H  H24  1  0.49426000  0.34019000  0.45762000  1.0
  H  H25  1  0.50574000  0.65981000  0.54238000  1.0
  H  H26  1  0.85524000  0.50941000  0.46146000  1.0
  H  H27  1  0.14476000  0.49059000  0.53854000  1.0
  H  H28  1  0.82156000  0.63906000  0.85845000  1.0
  H  H29  1  0.17844000  0.36093000  0.14155000  1.0
  H  H30  1  0.02202000  0.51828000  0.77981000  1.0
  H  H31  1  0.97798000  0.48172000  0.22019000  1.0
  H  H32  1  0.07628000  0.29077000  0.87326000  1.0
  H  H33  1  0.92372000  0.70923000  0.12674000  1.0
  H  H34  1  0.93207000  0.19347000  0.04684000  1.0
  H  H35  1  0.06793000  0.80653000  0.95316000  1.0
  C  C36  1  0.27020000  0.04045000  0.94391000  1.0
  C  C37  1  0.72980000  0.95955000  0.05609000  1.0
  C  C38  1  0.24912000  0.97957000  0.05692000  1.0
  C  C39  1  0.75088000  0.02043000  0.94308000  1.0
  C  C40  1  0.32561000  0.86659000  0.09765000  1.0
  C  C41  1  0.67438000  0.13341000  0.90235000  1.0
  C  C42  1  0.42274000  0.81835000  0.02399000  1.0
  C  C43  1  0.57726000  0.18165000  0.97601000  1.0
  C  C44  1  0.44004000  0.88760000  0.91175000  1.0
  C  C45  1  0.55996000  0.11240000  0.08825000  1.0
  C  C46  1  0.50564000  0.69832000  0.05594000  1.0
  C  C47  1  0.49436000  0.30168000  0.94406000  1.0
  C  C48  1  0.59642000  0.39484000  0.22328000  1.0
  C  C49  1  0.40357000  0.60516000  0.77672000  1.0
  C  C50  1  0.58676000  0.38744000  0.43274000  1.0
  C  C51  1  0.41324000  0.61256000  0.56726000  1.0
  C  C52  1  0.77158000  0.47182000  0.43221000  1.0
  C  C53  1  0.22842000  0.52818000  0.56779000  1.0
  C  C54  1  0.65770000  0.54867000  0.03806000  1.0
  C  C55  1  0.34230000  0.45133000  0.96194000  1.0
  C  C56  1  0.77408000  0.47719000  0.99208000  1.0
  C  C57  1  0.22591000  0.52281000  0.00792000  1.0
  C  C58  1  0.84957000  0.54019000  0.89682000  1.0
  C  C59  1  0.15043000  0.45981000  0.10318000  1.0
  C  C60  1  0.96000000  0.47272000  0.85325000  1.0
  C  C61  1  0.04000000  0.52727000  0.14675000  1.0
  C  C62  1  0.99145000  0.34630000  0.90659000  1.0
  C  C63  1  0.00854000  0.65370000  0.09341000  1.0
  C  C64  1  0.91088000  0.29182000  0.00168000  1.0
  C  C65  1  0.08912000  0.70818000  0.99833000  1.0
  N  N66  1  0.36473000  0.99559000  0.87234000  1.0
  N  N67  1  0.63527000  0.00441000  0.12766000  1.0
  N  N68  1  0.60874000  0.66382000  0.98494000  1.0
  N  N69  1  0.39126000  0.33618000  0.01506000  1.0
  N  N70  1  0.48720000  0.60921000  0.15177000  1.0
  N  N71  1  0.51280000  0.39079000  0.84823000  1.0
  N  N72  1  0.58427000  0.51352000  0.13889000  1.0
  N  N73  1  0.41573000  0.48648000  0.86111000  1.0
  N  N74  1  0.64488000  0.41495000  0.32647000  1.0
  N  N75  1  0.35512000  0.58505000  0.67353000  1.0
  N  N76  1  0.76277000  0.46909000  0.32443000  1.0
  N  N77  1  0.23723000  0.53092000  0.67557000  1.0
  N  N78  1  0.66512000  0.42283000  0.50175000  1.0
  N  N79  1  0.33488000  0.57717000  0.49824000  1.0
  N  N80  1  0.80364000  0.35518000  0.04391000  1.0
  N  N81  1  0.19636000  0.64482000  0.95609000  1.0
  O  O82  1  0.13448000  0.70592000  0.31928000  1.0
  O  O83  1  0.86552000  0.29408000  0.68072000  1.0
  O  O84  1  0.14772000  0.82254000  0.51883000  1.0
  O  O85  1  0.85228000  0.17746000  0.48117000  1.0
  O  O86  1  0.88830000  0.82893000  0.27125000  1.0
  O  O87  1  0.11170000  0.17108000  0.72875000  1.0
  O  O88  1  0.07426000  0.31111000  0.50760000  1.0
  O  O89  1  0.92574000  0.68889000  0.49240000  1.0
  O  O90  1  0.28559000  0.37950000  0.33020000  1.0
  O  O91  1  0.71441000  0.62050000  0.66980000  1.0
  O  O92  1  0.33946000  0.22470000  0.53434000  1.0
  O  O93  1  0.66054000  0.77530000  0.46566000  1.0
  O  O94  1  0.30732000  0.10855000  0.36019000  1.0
  O  O95  1  0.69268000  0.89145000  0.63981000  1.0
  O  O96  1  0.10963000  0.05969000  0.52347000  1.0
  O  O97  1  0.89037000  0.94031000  0.47653000  1.0
  O  O98  1  0.14995000  0.87467000  0.73939000  1.0
  O  O99  1  0.85005000  0.12533000  0.26061000  1.0
  O  O100  1  0.06882000  0.22777000  0.32084000  1.0
  O  O101  1  0.93119000  0.77223000  0.67916000  1.0
  O  O102  1  0.08892000  0.96910000  0.32457000  1.0
  O  O103  1  0.91108000  0.03090000  0.67543000  1.0
  O  O104  1  0.38166000  0.92646000  0.55717000  1.0
  O  O105  1  0.61834000  0.07354000  0.44283000  1.0
  O  O106  1  0.37420000  0.85414000  0.35442000  1.0
  O  O107  1  0.62580000  0.14586000  0.64558000  1.0
