# generated using pymatgen
data_NaH11C7SO8
_symmetry_space_group_name_H-M   'P 1'
_cell_length_a   5.48330000
_cell_length_b   7.80474000
_cell_length_c   12.77230000
_cell_angle_alpha   88.38180000
_cell_angle_beta   78.53040000
_cell_angle_gamma   83.63440000
_symmetry_Int_Tables_number   1
_chemical_formula_structural   NaH11C7SO8
_chemical_formula_sum   'Na2 H22 C14 S2 O16'
_cell_volume   532.37106831
_cell_formula_units_Z   2
loop_
 _symmetry_equiv_pos_site_id
 _symmetry_equiv_pos_as_xyz
  1  'x, y, z'
loop_
 _atom_site_type_symbol
 _atom_site_label
 _atom_site_symmetry_multiplicity
 _atom_site_fract_x
 _atom_site_fract_y
 _atom_site_fract_z
 _atom_site_occupancy
  Na  Na0  1  0.60785000  0.73927000  0.83872000  1.0
  Na  Na1  1  0.39214000  0.26073000  0.16129000  1.0
  H  H2  1  0.72937000  0.09512000  0.32242000  1.0
  H  H3  1  0.27062000  0.90488000  0.67759000  1.0
  H  H4  1  0.76790000  0.04394000  0.94897000  1.0
  H  H5  1  0.23211000  0.95606000  0.05103000  1.0
  H  H6  1  0.85512000  0.86042000  0.99298000  1.0
  H  H7  1  0.14488000  0.13958000  0.00701000  1.0
  H  H8  1  0.50555000  0.72776000  0.06146000  1.0
  H  H9  1  0.49446000  0.27224000  0.93854000  1.0
  H  H10  1  0.26034000  0.65314000  0.04792000  1.0
  H  H11  1  0.73967000  0.34686000  0.95208000  1.0
  H  H12  1  0.12060000  0.92196000  0.83842000  1.0
  H  H13  1  0.87940000  0.07804000  0.16158000  1.0
  H  H14  1  0.29384000  0.06781000  0.80805000  1.0
  H  H15  1  0.70616000  0.93219000  0.19195000  1.0
  H  H16  1  0.75479000  0.24343000  0.76946000  1.0
  H  H17  1  0.24522000  0.75657000  0.23055000  1.0
  H  H18  1  0.67485000  0.14149000  0.59764000  1.0
  H  H19  1  0.32514000  0.85851000  0.40236000  1.0
  H  H20  1  0.33428000  0.34933000  0.42740000  1.0
  H  H21  1  0.66571000  0.65068000  0.57260000  1.0
  H  H22  1  0.41532000  0.45583000  0.60012000  1.0
  H  H23  1  0.58468000  0.54418000  0.39988000  1.0
  C  C24  1  0.09012000  0.35614000  0.69393000  1.0
  C  C25  1  0.90989000  0.64386000  0.30607000  1.0
  C  C26  1  0.88138000  0.26745000  0.69471000  1.0
  C  C27  1  0.11862000  0.73255000  0.30530000  1.0
  C  C28  1  0.83608000  0.21088000  0.59860000  1.0
  C  C29  1  0.16393000  0.78912000  0.40140000  1.0
  C  C30  1  0.99940000  0.24210000  0.50234000  1.0
  C  C31  1  0.00059000  0.75790000  0.49766000  1.0
  C  C32  1  0.20950000  0.32814000  0.50308000  1.0
  C  C33  1  0.79049000  0.67186000  0.49691000  1.0
  C  C34  1  0.25497000  0.38632000  0.59852000  1.0
  C  C35  1  0.74503000  0.61369000  0.40148000  1.0
  C  C36  1  0.95765000  0.18912000  0.39670000  1.0
  C  C37  1  0.04233000  0.81088000  0.60331000  1.0
  S  S38  1  0.15273000  0.42920000  0.81611000  1.0
  S  S39  1  0.84728000  0.57080000  0.18388000  1.0
  O  O40  1  0.91216000  0.50524000  0.87890000  1.0
  O  O41  1  0.08786000  0.49475000  0.12109000  1.0
  O  O42  1  0.24601000  0.26881000  0.86984000  1.0
  O  O43  1  0.75400000  0.73119000  0.13016000  1.0
  O  O44  1  0.34332000  0.54730000  0.78868000  1.0
  O  O45  1  0.65669000  0.45269000  0.21131000  1.0
  O  O46  1  0.11462000  0.20388000  0.31374000  1.0
  O  O47  1  0.88537000  0.79613000  0.68625000  1.0
  O  O48  1  0.74048000  0.12749000  0.39941000  1.0
  O  O49  1  0.25950000  0.87251000  0.60059000  1.0
  O  O50  1  0.83793000  0.92364000  0.92698000  1.0
  O  O51  1  0.16208000  0.07636000  0.07302000  1.0
  O  O52  1  0.36832000  0.74505000  0.02093000  1.0
  O  O53  1  0.63169000  0.25495000  0.97907000  1.0
  O  O54  1  0.28577000  0.94497000  0.79336000  1.0
  O  O55  1  0.71423000  0.05503000  0.20664000  1.0
