# generated using pymatgen
data_Dy2H20C28N2O17
_symmetry_space_group_name_H-M   'P 1'
_cell_length_a   10.25460000
_cell_length_b   12.07860000
_cell_length_c   12.97550000
_cell_angle_alpha   74.64780000
_cell_angle_beta   76.14960000
_cell_angle_gamma   71.20800000
_symmetry_Int_Tables_number   1
_chemical_formula_structural   Dy2H20C28N2O17
_chemical_formula_sum   'Dy4 H40 C56 N4 O34'
_cell_volume   1446.14378182
_cell_formula_units_Z   2
loop_
 _symmetry_equiv_pos_site_id
 _symmetry_equiv_pos_as_xyz
  1  'x, y, z'
loop_
 _atom_site_type_symbol
 _atom_site_label
 _atom_site_symmetry_multiplicity
 _atom_site_fract_x
 _atom_site_fract_y
 _atom_site_fract_z
 _atom_site_occupancy
  Dy  Dy0  1  0.19491000  0.71989000  0.55125000  1.0
  Dy  Dy1  1  0.80508000  0.28011000  0.44875000  1.0
  Dy  Dy2  1  0.79345000  0.77981000  0.39282000  1.0
  Dy  Dy3  1  0.20654000  0.22019000  0.60718000  1.0
  H  H4  1  0.10976000  0.57958000  0.42635000  1.0
  H  H5  1  0.89024000  0.42042000  0.57365000  1.0
  H  H6  1  0.26233000  0.50877000  0.44311000  1.0
  H  H7  1  0.73766000  0.49123000  0.55690000  1.0
  H  H8  1  0.30926000  0.46673000  0.64264000  1.0
  H  H9  1  0.69073000  0.53327000  0.35736000  1.0
  H  H10  1  0.31722000  0.53893000  0.72927000  1.0
  H  H11  1  0.68278000  0.46107000  0.27073000  1.0
  H  H12  1  0.70837000  0.00700000  0.46916000  1.0
  H  H13  1  0.29163000  0.99300000  0.53084000  1.0
  H  H14  1  0.86839000  0.97071000  0.45182000  1.0
  H  H15  1  0.13161000  0.02929000  0.54818000  1.0
  H  H16  1  0.97333000  0.25252000  0.08645000  1.0
  H  H17  1  0.02667000  0.74748000  0.91355000  1.0
  H  H18  1  0.14170000  0.18046000  0.92460000  1.0
  H  H19  1  0.85830000  0.81954000  0.07540000  1.0
  H  H20  1  0.30164000  0.97332000  0.95349000  1.0
  H  H21  1  0.69836000  0.02668000  0.04651000  1.0
  H  H22  1  0.63746000  0.67906000  0.18971000  1.0
  H  H23  1  0.36254000  0.32094000  0.81030000  1.0
  H  H24  1  0.46542000  0.87879000  0.15839000  1.0
  H  H25  1  0.53458000  0.12121000  0.84161000  1.0
  H  H26  1  0.16742000  0.73772000  0.11349000  1.0
  H  H27  1  0.83258000  0.26229000  0.88651000  1.0
  H  H28  1  0.32907000  0.53135000  0.13730000  1.0
  H  H29  1  0.67093000  0.46865000  0.86270000  1.0
  H  H30  1  0.99363000  0.63167000  0.06660000  1.0
  H  H31  1  0.00637000  0.36833000  0.93340000  1.0
  H  H32  1  0.17648000  0.51234000  0.94024000  1.0
  H  H33  1  0.82352000  0.48767000  0.05976000  1.0
  H  H34  1  0.34327000  0.32456000  0.01960000  1.0
  H  H35  1  0.65673000  0.67544000  0.98040000  1.0
  H  H36  1  0.40047000  0.94028000  0.32342000  1.0
  H  H37  1  0.59953000  0.05972000  0.67658000  1.0
  H  H38  1  0.21660000  0.12830000  0.28686000  1.0
  H  H39  1  0.78340000  0.87170000  0.71314000  1.0
  H  H40  1  0.50797000  0.32731000  0.17384000  1.0
  H  H41  1  0.49203000  0.67269000  0.82616000  1.0
  H  H42  1  0.70504000  0.14563000  0.20488000  1.0
  H  H43  1  0.29495000  0.85437000  0.79512000  1.0
  C  C44  1  0.10046000  0.87747000  0.31626000  1.0
  C  C45  1  0.89954000  0.12253000  0.68374000  1.0
  C  C46  1  0.94096000  0.14292000  0.28877000  1.0
  C  C47  1  0.05904000  0.85708000  0.71123000  1.0
  C  C48  1  0.11706000  0.96813000  0.21147000  1.0
  C  C49  1  0.88294000  0.03187000  0.78853000  1.0
  C  C50  1  0.03203000  0.08694000  0.19639000  1.0
  C  C51  1  0.96797000  0.91306000  0.80361000  1.0
  C  C52  1  0.04164000  0.16163000  0.09337000  1.0
  C  C53  1  0.95836000  0.83837000  0.90663000  1.0
  C  C54  1  0.13587000  0.12233000  0.00486000  1.0
  C  C55  1  0.86413000  0.87767000  0.99514000  1.0
  C  C56  1  0.22519000  0.00673000  0.02043000  1.0
  C  C57  1  0.77481000  0.99327000  0.97957000  1.0
  C  C58  1  0.21525000  0.93190000  0.12257000  1.0
  C  C59  1  0.78475000  0.06810000  0.87743000  1.0
  C  C60  1  0.53507000  0.68732000  0.17305000  1.0
  C  C61  1  0.46493000  0.31268000  0.82696000  1.0
  C  C62  1  0.44207000  0.79779000  0.15629000  1.0
  C  C63  1  0.55793000  0.20221000  0.84371000  1.0
  C  C64  1  0.27270000  0.71772000  0.13000000  1.0
  C  C65  1  0.72730000  0.28229000  0.87000000  1.0
  C  C66  1  0.36212000  0.60553000  0.14407000  1.0
  C  C67  1  0.63788000  0.39447000  0.85593000  1.0
  C  C68  1  0.49849000  0.58254000  0.16990000  1.0
  C  C69  1  0.50151000  0.41746000  0.83010000  1.0
  C  C70  1  0.47691000  0.79861000  0.50560000  1.0
  C  C71  1  0.52310000  0.20139000  0.49440000  1.0
  C  C72  1  0.51745000  0.68875000  0.45331000  1.0
  C  C73  1  0.48256000  0.31125000  0.54669000  1.0
  C  C74  1  0.95738000  0.59794000  0.27774000  1.0
  C  C75  1  0.04262000  0.40206000  0.72226000  1.0
  C  C76  1  0.12748000  0.34661000  0.37496000  1.0
  C  C77  1  0.87252000  0.65339000  0.62504000  1.0
  C  C78  1  0.14393000  0.40160000  0.25550000  1.0
  C  C79  1  0.85606000  0.59840000  0.74450000  1.0
  C  C80  1  0.05456000  0.51088000  0.21051000  1.0
  C  C81  1  0.94544000  0.48912000  0.78949000  1.0
  C  C82  1  0.06603000  0.54789000  0.09775000  1.0
  C  C83  1  0.93397000  0.45211000  0.90225000  1.0
  C  C84  1  0.16708000  0.48163000  0.02789000  1.0
  C  C85  1  0.83292000  0.51837000  0.97211000  1.0
  C  C86  1  0.26054000  0.37708000  0.07178000  1.0
  C  C87  1  0.73946000  0.62292000  0.92822000  1.0
  C  C88  1  0.24934000  0.33857000  0.18413000  1.0
  C  C89  1  0.75065000  0.66143000  0.81587000  1.0
  C  C90  1  0.43070000  0.02237000  0.28708000  1.0
  C  C91  1  0.56929000  0.97763000  0.71292000  1.0
  C  C92  1  0.32641000  0.12608000  0.26764000  1.0
  C  C93  1  0.67358000  0.87392000  0.73236000  1.0
  C  C94  1  0.49138000  0.23842000  0.20183000  1.0
  C  C95  1  0.50862000  0.76158000  0.79817000  1.0
  C  C96  1  0.59925000  0.13722000  0.21985000  1.0
  C  C97  1  0.40075000  0.86278000  0.78015000  1.0
  C  C98  1  0.57457000  0.02216000  0.26080000  1.0
  C  C99  1  0.42543000  0.97784000  0.73920000  1.0
  N  N100  1  0.31117000  0.81370000  0.13663000  1.0
  N  N101  1  0.68883000  0.18630000  0.86337000  1.0
  N  N102  1  0.35575000  0.23289000  0.22277000  1.0
  N  N103  1  0.64425000  0.76711000  0.77723000  1.0
  O  O104  1  0.18568000  0.85208000  0.38062000  1.0
  O  O105  1  0.81432000  0.14792000  0.61938000  1.0
  O  O106  1  0.00306000  0.82959000  0.32771000  1.0
  O  O107  1  0.99695000  0.17041000  0.67229000  1.0
  O  O108  1  0.95202000  0.08930000  0.38712000  1.0
  O  O109  1  0.04799000  0.91070000  0.61288000  1.0
  O  O110  1  0.86088000  0.24804000  0.26654000  1.0
  O  O111  1  0.13912000  0.75196000  0.73346000  1.0
  O  O112  1  0.58044000  0.47729000  0.18728000  1.0
  O  O113  1  0.41956000  0.52271000  0.81272000  1.0
  O  O114  1  0.35091000  0.82849000  0.55373000  1.0
  O  O115  1  0.64909000  0.17151000  0.44627000  1.0
  O  O116  1  0.56776000  0.85191000  0.49428000  1.0
  O  O117  1  0.43224000  0.14809000  0.50572000  1.0
  O  O118  1  0.42445000  0.63920000  0.46056000  1.0
  O  O119  1  0.57555000  0.36080000  0.53944000  1.0
  O  O120  1  0.64357000  0.65893000  0.40450000  1.0
  O  O121  1  0.35643000  0.34107000  0.59551000  1.0
  O  O122  1  0.96541000  0.58234000  0.37789000  1.0
  O  O123  1  0.03459000  0.41766000  0.62211000  1.0
  O  O124  1  0.87306000  0.69099000  0.23239000  1.0
  O  O125  1  0.12694000  0.30901000  0.76761000  1.0
  O  O126  1  0.02714000  0.29964000  0.41400000  1.0
  O  O127  1  0.97286000  0.70036000  0.58599000  1.0
  O  O128  1  0.21946000  0.34072000  0.42737000  1.0
  O  O129  1  0.78054000  0.65928000  0.57263000  1.0
  O  O130  1  0.67583000  0.92578000  0.27183000  1.0
  O  O131  1  0.32418000  0.07422000  0.72817000  1.0
  O  O132  1  0.19572000  0.58738000  0.44271000  1.0
  O  O133  1  0.80428000  0.41262000  0.55729000  1.0
  O  O134  1  0.26696000  0.54298000  0.66934000  1.0
  O  O135  1  0.73305000  0.45702000  0.33067000  1.0
  O  O136  1  0.78913000  0.93510000  0.47286000  1.0
  O  O137  1  0.21087000  0.06490000  0.52714000  1.0
