# generated using pymatgen
data_H14Pb(C3O)8
_symmetry_space_group_name_H-M   'P 1'
_cell_length_a   7.11920000
_cell_length_b   12.36709019
_cell_length_c   12.36709019
_cell_angle_alpha   92.50264196
_cell_angle_beta   106.49164232
_cell_angle_gamma   106.49164232
_symmetry_Int_Tables_number   1
_chemical_formula_structural   H14Pb(C3O)8
_chemical_formula_sum   'H28 Pb2 C48 O16'
_cell_volume   991.91681053
_cell_formula_units_Z   2
loop_
 _symmetry_equiv_pos_site_id
 _symmetry_equiv_pos_as_xyz
  1  'x, y, z'
loop_
 _atom_site_type_symbol
 _atom_site_label
 _atom_site_symmetry_multiplicity
 _atom_site_fract_x
 _atom_site_fract_y
 _atom_site_fract_z
 _atom_site_occupancy
  H  H0  1  0.50598000  0.23480000  0.61422000  1.0
  H  H1  1  0.99402000  0.38578000  0.76521000  1.0
  H  H2  1  0.49400000  0.76521000  0.38578000  1.0
  H  H3  1  0.00599000  0.61422000  0.23480000  1.0
  H  H4  1  0.33855000  0.04256000  0.65585000  1.0
  H  H5  1  0.16143000  0.34415000  0.95745000  1.0
  H  H6  1  0.66142000  0.95745000  0.34415000  1.0
  H  H7  1  0.83855000  0.65585000  0.04256000  1.0
  H  H8  1  0.37449000  0.19031000  0.20919000  1.0
  H  H9  1  0.12551000  0.79081000  0.80970000  1.0
  H  H10  1  0.62551000  0.80970000  0.79081000  1.0
  H  H11  1  0.87448000  0.20918000  0.19030000  1.0
  H  H12  1  0.16765000  0.03792000  0.05239000  1.0
  H  H13  1  0.33235000  0.94761000  0.96208000  1.0
  H  H14  1  0.83236000  0.96209000  0.94761000  1.0
  H  H15  1  0.66764000  0.05239000  0.03792000  1.0
  H  H16  1  0.96378000  0.85066000  0.09068000  1.0
  H  H17  1  0.53622000  0.90932000  0.14933000  1.0
  H  H18  1  0.03622000  0.14934000  0.90931000  1.0
  H  H19  1  0.46376000  0.09068000  0.85067000  1.0
  H  H20  1  0.98576000  0.81696000  0.28827000  1.0
  H  H21  1  0.51424000  0.71173000  0.18304000  1.0
  H  H22  1  0.01422000  0.18304000  0.71172000  1.0
  H  H23  1  0.48576000  0.28828000  0.81696000  1.0
  H  H24  1  0.03482000  0.78301000  0.63533000  1.0
  H  H25  1  0.46519000  0.36468000  0.21699000  1.0
  H  H26  1  0.96517000  0.21698000  0.36467000  1.0
  H  H27  1  0.53481000  0.63532000  0.78301000  1.0
  Pb  Pb28  1  0.75001000  0.56177000  0.43824000  1.0
  Pb  Pb29  1  0.25001000  0.43824000  0.56176000  1.0
  C  C30  1  0.51304000  0.30570000  0.41878000  1.0
  C  C31  1  0.98697000  0.58122000  0.69430000  1.0
  C  C32  1  0.48697000  0.69430000  0.58122000  1.0
  C  C33  1  0.01304000  0.41878000  0.30570000  1.0
  C  C34  1  0.40923000  0.18581000  0.43400000  1.0
  C  C35  1  0.09077000  0.56599000  0.81419000  1.0
  C  C36  1  0.59077000  0.81419000  0.56600000  1.0
  C  C37  1  0.90924000  0.43400000  0.18582000  1.0
  C  C38  1  0.41935000  0.16541000  0.54477000  1.0
  C  C39  1  0.08064000  0.45523000  0.83458000  1.0
  C  C40  1  0.58064000  0.83459000  0.45523000  1.0
  C  C41  1  0.91935000  0.54476000  0.16542000  1.0
  C  C42  1  0.32449000  0.05721000  0.56822000  1.0
  C  C43  1  0.17550000  0.43178000  0.94279000  1.0
  C  C44  1  0.67548000  0.94279000  0.43178000  1.0
  C  C45  1  0.82450000  0.56822000  0.05721000  1.0
  C  C46  1  0.21151000  0.96749000  0.48135000  1.0
  C  C47  1  0.28849000  0.51865000  0.03251000  1.0
  C  C48  1  0.78847000  0.03251000  0.51864000  1.0
  C  C49  1  0.71151000  0.48135000  0.96749000  1.0
  C  C50  1  0.19305000  0.98465000  0.36516000  1.0
  C  C51  1  0.30694000  0.63483000  0.01535000  1.0
  C  C52  1  0.80694000  0.01535000  0.63484000  1.0
  C  C53  1  0.69305000  0.36516000  0.98465000  1.0
  C  C54  1  0.30029000  0.09481000  0.34185000  1.0
  C  C55  1  0.19971000  0.65815000  0.90518000  1.0
  C  C56  1  0.69971000  0.90519000  0.65815000  1.0
  C  C57  1  0.80030000  0.34185000  0.09482000  1.0
  C  C58  1  0.28778000  0.10976000  0.22712000  1.0
  C  C59  1  0.21222000  0.77288000  0.89024000  1.0
  C  C60  1  0.71222000  0.89024000  0.77288000  1.0
  C  C61  1  0.78778000  0.22712000  0.10976000  1.0
  C  C62  1  0.17144000  0.02360000  0.13909000  1.0
  C  C63  1  0.32857000  0.86091000  0.97640000  1.0
  C  C64  1  0.82856000  0.97640000  0.86091000  1.0
  C  C65  1  0.67144000  0.13909000  0.02361000  1.0
  C  C66  1  0.05854000  0.91801000  0.16107000  1.0
  C  C67  1  0.44147000  0.83894000  0.08198000  1.0
  C  C68  1  0.94147000  0.08199000  0.83893000  1.0
  C  C69  1  0.55852000  0.16106000  0.91802000  1.0
  C  C70  1  0.06983000  0.89897000  0.27134000  1.0
  C  C71  1  0.43018000  0.72867000  0.10103000  1.0
  C  C72  1  0.93016000  0.10103000  0.72866000  1.0
  C  C73  1  0.56983000  0.27134000  0.89897000  1.0
  C  C74  1  0.11395000  0.85545000  0.51358000  1.0
  C  C75  1  0.38605000  0.48641000  0.14453000  1.0
  C  C76  1  0.88604000  0.14454000  0.48641000  1.0
  C  C77  1  0.61396000  0.51358000  0.85546000  1.0
  O  O78  1  0.53228000  0.38480000  0.49578000  1.0
  O  O79  1  0.96773000  0.50422000  0.61520000  1.0
  O  O80  1  0.46773000  0.61520000  0.50422000  1.0
  O  O81  1  0.03229000  0.49578000  0.38481000  1.0
  O  O82  1  0.58517000  0.32814000  0.33641000  1.0
  O  O83  1  0.91485000  0.66359000  0.67186000  1.0
  O  O84  1  0.41484000  0.67186000  0.66359000  1.0
  O  O85  1  0.08517000  0.33641000  0.32814000  1.0
  O  O86  1  0.04847000  0.76373000  0.44958000  1.0
  O  O87  1  0.45162000  0.55045000  0.23628000  1.0
  O  O88  1  0.95156000  0.23627000  0.55043000  1.0
  O  O89  1  0.54845000  0.44957000  0.76372000  1.0
  O  O90  1  0.10336000  0.86173000  0.61948000  1.0
  O  O91  1  0.39662000  0.38052000  0.13827000  1.0
  O  O92  1  0.89662000  0.13827000  0.38051000  1.0
  O  O93  1  0.60337000  0.61948000  0.86173000  1.0
