# generated using pymatgen
data_Zn3H32C46N6O13
_symmetry_space_group_name_H-M   'P 1'
_cell_length_a   11.28040000
_cell_length_b   18.17010000
_cell_length_c   25.16430000
_cell_angle_alpha   90.00000000
_cell_angle_beta   90.00000000
_cell_angle_gamma   89.99990000
_symmetry_Int_Tables_number   1
_chemical_formula_structural   Zn3H32C46N6O13
_chemical_formula_sum   'Zn12 H128 C184 N24 O52'
_cell_volume   5157.82581414
_cell_formula_units_Z   4
loop_
 _symmetry_equiv_pos_site_id
 _symmetry_equiv_pos_as_xyz
  1  'x, y, z'
loop_
 _atom_site_type_symbol
 _atom_site_label
 _atom_site_symmetry_multiplicity
 _atom_site_fract_x
 _atom_site_fract_y
 _atom_site_fract_z
 _atom_site_occupancy
  Zn  Zn0  1  0.37723000  0.07346000  0.97638000  1.0
  Zn  Zn1  1  0.62277000  0.07346000  0.52362000  1.0
  Zn  Zn2  1  0.62277000  0.42654000  0.47638000  1.0
  Zn  Zn3  1  0.37723000  0.42654000  0.02362000  1.0
  Zn  Zn4  1  0.62277000  0.92654000  0.02362000  1.0
  Zn  Zn5  1  0.37723000  0.92654000  0.47638000  1.0
  Zn  Zn6  1  0.37723000  0.57346000  0.52362000  1.0
  Zn  Zn7  1  0.62277000  0.57346000  0.97638000  1.0
  Zn  Zn8  1  0.00000000  0.28028000  0.25000000  1.0
  Zn  Zn9  1  0.00000000  0.21972000  0.75000000  1.0
  Zn  Zn10  1  0.00000000  0.71972000  0.75000000  1.0
  Zn  Zn11  1  0.00000000  0.78028000  0.25000000  1.0
  H  H12  1  0.48277000  0.20511000  0.04495000  1.0
  H  H13  1  0.51723000  0.20511000  0.45505000  1.0
  H  H14  1  0.51723000  0.29489000  0.54495000  1.0
  H  H15  1  0.48277000  0.29489000  0.95505000  1.0
  H  H16  1  0.51723000  0.79489000  0.95505000  1.0
  H  H17  1  0.48277000  0.79489000  0.54495000  1.0
  H  H18  1  0.48277000  0.70511000  0.45505000  1.0
  H  H19  1  0.51723000  0.70511000  0.04495000  1.0
  H  H20  1  0.70684000  0.32318000  0.15334000  1.0
  H  H21  1  0.29316000  0.32318000  0.34666000  1.0
  H  H22  1  0.29316000  0.17682000  0.65334000  1.0
  H  H23  1  0.70684000  0.17682000  0.84666000  1.0
  H  H24  1  0.29316000  0.67682000  0.84666000  1.0
  H  H25  1  0.70684000  0.67682000  0.65334000  1.0
  H  H26  1  0.70684000  0.82317000  0.34666000  1.0
  H  H27  1  0.29316000  0.82318000  0.15334000  1.0
  H  H28  1  0.72976000  0.08737000  0.14448000  1.0
  H  H29  1  0.27024000  0.08737000  0.35552000  1.0
  H  H30  1  0.27024000  0.41263000  0.64448000  1.0
  H  H31  1  0.72976000  0.41263000  0.85552000  1.0
  H  H32  1  0.27024000  0.91263000  0.85552000  1.0
  H  H33  1  0.72976000  0.91263000  0.64448000  1.0
  H  H34  1  0.72976000  0.58737000  0.35552000  1.0
  H  H35  1  0.27024000  0.58737000  0.14448000  1.0
  H  H36  1  0.27544000  0.01161000  0.08018000  1.0
  H  H37  1  0.72456000  0.01161000  0.41982000  1.0
  H  H38  1  0.72456000  0.48839000  0.58018000  1.0
  H  H39  1  0.27544000  0.48839000  0.91982000  1.0
  H  H40  1  0.72456000  0.98839000  0.91982000  1.0
  H  H41  1  0.27544000  0.98839000  0.58018000  1.0
  H  H42  1  0.27544000  0.51161000  0.41982000  1.0
  H  H43  1  0.72456000  0.51161000  0.08018000  1.0
  H  H44  1  0.12731000  0.97505000  0.14831000  1.0
  H  H45  1  0.87269000  0.97505000  0.35169000  1.0
  H  H46  1  0.87269000  0.52495000  0.64831000  1.0
  H  H47  1  0.12731000  0.52495000  0.85169000  1.0
  H  H48  1  0.87269000  0.02495000  0.85169000  1.0
  H  H49  1  0.12731000  0.02495000  0.64831000  1.0
  H  H50  1  0.12731000  0.47505000  0.35169000  1.0
  H  H51  1  0.87269000  0.47505000  0.14831000  1.0
  H  H52  1  0.91444000  0.00852000  0.13883000  1.0
  H  H53  1  0.08556000  0.00852000  0.36117000  1.0
  H  H54  1  0.08556000  0.49148000  0.63883000  1.0
  H  H55  1  0.91444000  0.49148000  0.86117000  1.0
  H  H56  1  0.08556000  0.99148000  0.86117000  1.0
  H  H57  1  0.91444000  0.99148000  0.63883000  1.0
  H  H58  1  0.91444000  0.50852000  0.36117000  1.0
  H  H59  1  0.08556000  0.50852000  0.13883000  1.0
  H  H60  1  0.84097000  0.07442000  0.05950000  1.0
  H  H61  1  0.15903000  0.07442000  0.44050000  1.0
  H  H62  1  0.15903000  0.42558000  0.55950000  1.0
  H  H63  1  0.84097000  0.42558000  0.94050000  1.0
  H  H64  1  0.15903000  0.92558000  0.94050000  1.0
  H  H65  1  0.84097000  0.92558000  0.55950000  1.0
  H  H66  1  0.84097000  0.57442000  0.44050000  1.0
  H  H67  1  0.15903000  0.57442000  0.05950000  1.0
  H  H68  1  0.03455000  0.12834000  0.85752000  1.0
  H  H69  1  0.96545000  0.12834000  0.64248000  1.0
  H  H70  1  0.96545000  0.37166000  0.35752000  1.0
  H  H71  1  0.03455000  0.37166000  0.14248000  1.0
  H  H72  1  0.96545000  0.87166000  0.14248000  1.0
  H  H73  1  0.03455000  0.87166000  0.35752000  1.0
  H  H74  1  0.03455000  0.62834000  0.64248000  1.0
  H  H75  1  0.96545000  0.62834000  0.85752000  1.0
  H  H76  1  0.27521000  0.24979000  0.95824000  1.0
  H  H77  1  0.72479000  0.24979000  0.54176000  1.0
  H  H78  1  0.72479000  0.25021000  0.45824000  1.0
  H  H79  1  0.27521000  0.25021000  0.04176000  1.0
  H  H80  1  0.72479000  0.75021000  0.04176000  1.0
  H  H81  1  0.27521000  0.75021000  0.45824000  1.0
  H  H82  1  0.27521000  0.74979000  0.54176000  1.0
  H  H83  1  0.72479000  0.74979000  0.95824000  1.0
  H  H84  1  0.30536000  0.33728000  0.88313000  1.0
  H  H85  1  0.69464000  0.33728000  0.61687000  1.0
  H  H86  1  0.69464000  0.16272000  0.38313000  1.0
  H  H87  1  0.30536000  0.16272000  0.11687000  1.0
  H  H88  1  0.69464000  0.66272000  0.11687000  1.0
  H  H89  1  0.30536000  0.66272000  0.38313000  1.0
  H  H90  1  0.30536000  0.83728000  0.61687000  1.0
  H  H91  1  0.69464000  0.83728000  0.88313000  1.0
  H  H92  1  0.19082000  0.31705000  0.79819000  1.0
  H  H93  1  0.80918000  0.31705000  0.70181000  1.0
  H  H94  1  0.80918000  0.18295000  0.29819000  1.0
  H  H95  1  0.19082000  0.18295000  0.20181000  1.0
  H  H96  1  0.80918000  0.68295000  0.20181000  1.0
  H  H97  1  0.19082000  0.68295000  0.29819000  1.0
  H  H98  1  0.19082000  0.81705000  0.70181000  1.0
  H  H99  1  0.80918000  0.81705000  0.79819000  1.0
  H  H100  1  0.82727000  0.12852000  0.97833000  1.0
  H  H101  1  0.17273000  0.12852000  0.52167000  1.0
  H  H102  1  0.17273000  0.37148000  0.47833000  1.0
  H  H103  1  0.82727000  0.37148000  0.02167000  1.0
  H  H104  1  0.17273000  0.87148000  0.02167000  1.0
  H  H105  1  0.82727000  0.87148000  0.47833000  1.0
  H  H106  1  0.82727000  0.62852000  0.52167000  1.0
  H  H107  1  0.17273000  0.62852000  0.97833000  1.0
  H  H108  1  0.89415000  0.14717000  0.91694000  1.0
  H  H109  1  0.10585000  0.14717000  0.58306000  1.0
  H  H110  1  0.10585000  0.35283000  0.41694000  1.0
  H  H111  1  0.89415000  0.35283000  0.08306000  1.0
  H  H112  1  0.10585000  0.85283000  0.08306000  1.0
  H  H113  1  0.89415000  0.85283000  0.41694000  1.0
  H  H114  1  0.89415000  0.64717000  0.58306000  1.0
  H  H115  1  0.10585000  0.64717000  0.91694000  1.0
  H  H116  1  0.96720000  0.26839000  0.95014000  1.0
  H  H117  1  0.03280000  0.26839000  0.54986000  1.0
  H  H118  1  0.03280000  0.23161000  0.45014000  1.0
  H  H119  1  0.96720000  0.23161000  0.04986000  1.0
  H  H120  1  0.03280000  0.73161000  0.04986000  1.0
  H  H121  1  0.96720000  0.73161000  0.45014000  1.0
  H  H122  1  0.96720000  0.76839000  0.54986000  1.0
  H  H123  1  0.03280000  0.76839000  0.95014000  1.0
  H  H124  1  0.81167000  0.26116000  0.95167000  1.0
  H  H125  1  0.18833000  0.26116000  0.54833000  1.0
  H  H126  1  0.18833000  0.23884000  0.45167000  1.0
  H  H127  1  0.81167000  0.23884000  0.04833000  1.0
  H  H128  1  0.18833000  0.73884000  0.04833000  1.0
  H  H129  1  0.81167000  0.73884000  0.45167000  1.0
  H  H130  1  0.81167000  0.76116000  0.54833000  1.0
  H  H131  1  0.18833000  0.76116000  0.95167000  1.0
  H  H132  1  0.93133000  0.44096000  0.24689000  1.0
  H  H133  1  0.06867000  0.44096000  0.25311000  1.0
  H  H134  1  0.06867000  0.05904000  0.74689000  1.0
  H  H135  1  0.93133000  0.05904000  0.75311000  1.0
  H  H136  1  0.06867000  0.55904000  0.75311000  1.0
  H  H137  1  0.93133000  0.55904000  0.74689000  1.0
  H  H138  1  0.93133000  0.94096000  0.25311000  1.0
  H  H139  1  0.06867000  0.94096000  0.24689000  1.0
  C  C140  1  0.56360000  0.06973000  0.06472000  1.0
  C  C141  1  0.43640000  0.06973000  0.43528000  1.0
  C  C142  1  0.43640000  0.43027000  0.56472000  1.0
  C  C143  1  0.56360000  0.43027000  0.93528000  1.0
  C  C144  1  0.43640000  0.93027000  0.93528000  1.0
  C  C145  1  0.56360000  0.93027000  0.56472000  1.0
  C  C146  1  0.56360000  0.56973000  0.43528000  1.0
  C  C147  1  0.43640000  0.56973000  0.06472000  1.0
  C  C148  1  0.60070000  0.13864000  0.09235000  1.0
  C  C149  1  0.39930000  0.13864000  0.40765000  1.0
  C  C150  1  0.39930000  0.36136000  0.59235000  1.0
  C  C151  1  0.60070000  0.36136000  0.90765000  1.0
  C  C152  1  0.39930000  0.86136000  0.90765000  1.0
  C  C153  1  0.60070000  0.86136000  0.59235000  1.0
  C  C154  1  0.60070000  0.63864000  0.40765000  1.0
  C  C155  1  0.39930000  0.63864000  0.09235000  1.0
  C  C156  1  0.54955000  0.20505000  0.07614000  1.0
  C  C157  1  0.45045000  0.20505000  0.42386000  1.0
  C  C158  1  0.45045000  0.29495000  0.57614000  1.0
  C  C159  1  0.54955000  0.29495000  0.92386000  1.0
  C  C160  1  0.45045000  0.79495000  0.92386000  1.0
  C  C161  1  0.54955000  0.79495000  0.57614000  1.0
  C  C162  1  0.54955000  0.70505000  0.42386000  1.0
  C  C163  1  0.45045000  0.70505000  0.07614000  1.0
  C  C164  1  0.58835000  0.27153000  0.09788000  1.0
  C  C165  1  0.41165000  0.27153000  0.40212000  1.0
  C  C166  1  0.41165000  0.22847000  0.59788000  1.0
  C  C167  1  0.58835000  0.22847000  0.90212000  1.0
  C  C168  1  0.41165000  0.72847000  0.90212000  1.0
  C  C169  1  0.58835000  0.72847000  0.59788000  1.0
  C  C170  1  0.58835000  0.77153000  0.40212000  1.0
  C  C171  1  0.41165000  0.77153000  0.09788000  1.0
  C  C172  1  0.67650000  0.27127000  0.13664000  1.0
  C  C173  1  0.32350000  0.27127000  0.36336000  1.0
  C  C174  1  0.32350000  0.22873000  0.63664000  1.0
  C  C175  1  0.67650000  0.22873000  0.86336000  1.0
  C  C176  1  0.32350000  0.72873000  0.86336000  1.0
  C  C177  1  0.67650000  0.72873000  0.63664000  1.0
  C  C178  1  0.67650000  0.77127000  0.36335000  1.0
  C  C179  1  0.32350000  0.77127000  0.13664000  1.0
  C  C180  1  0.72701000  0.20512000  0.15371000  1.0
  C  C181  1  0.27299000  0.20512000  0.34629000  1.0
  C  C182  1  0.27299000  0.29488000  0.65371000  1.0
  C  C183  1  0.72701000  0.29488000  0.84629000  1.0
  C  C184  1  0.27299000  0.79488000  0.84629000  1.0
  C  C185  1  0.72701000  0.79488000  0.65371000  1.0
  C  C186  1  0.72701000  0.70512000  0.34629000  1.0
  C  C187  1  0.27299000  0.70512000  0.15371000  1.0
  C  C188  1  0.68937000  0.13867000  0.13137000  1.0
  C  C189  1  0.31063000  0.13867000  0.36863000  1.0
  C  C190  1  0.31063000  0.36133000  0.63137000  1.0
  C  C191  1  0.68937000  0.36133000  0.86863000  1.0
  C  C192  1  0.31063000  0.86133000  0.86863000  1.0
  C  C193  1  0.68937000  0.86133000  0.63137000  1.0
  C  C194  1  0.68937000  0.63867000  0.36863000  1.0
  C  C195  1  0.31063000  0.63867000  0.13137000  1.0
  C  C196  1  0.82530000  0.20704000  0.19388000  1.0
  C  C197  1  0.17470000  0.20704000  0.30612000  1.0
  C  C198  1  0.17470000  0.29296000  0.69388000  1.0
  C  C199  1  0.82530000  0.29296000  0.80612000  1.0
  C  C200  1  0.17470000  0.79296000  0.80612000  1.0
  C  C201  1  0.82530000  0.79296000  0.69388000  1.0
  C  C202  1  0.82530000  0.70704000  0.30612000  1.0
  C  C203  1  0.17470000  0.70704000  0.19388000  1.0
  C  C204  1  0.53931000  0.34331000  0.07883000  1.0
  C  C205  1  0.46069000  0.34331000  0.42117000  1.0
  C  C206  1  0.46069000  0.15669000  0.57883000  1.0
  C  C207  1  0.53931000  0.15669000  0.92117000  1.0
  C  C208  1  0.46069000  0.65669000  0.92117000  1.0
  C  C209  1  0.53931000  0.65669000  0.57883000  1.0
  C  C210  1  0.53931000  0.84331000  0.42117000  1.0
  C  C211  1  0.46069000  0.84331000  0.07883000  1.0
  C  C212  1  0.14158000  0.06810000  0.03269000  1.0
  C  C213  1  0.85842000  0.06810000  0.46730000  1.0
  C  C214  1  0.85842000  0.43190000  0.53269000  1.0
  C  C215  1  0.14158000  0.43190000  0.96731000  1.0
  C  C216  1  0.85842000  0.93190000  0.96731000  1.0
  C  C217  1  0.14158000  0.93190000  0.53269000  1.0
  C  C218  1  0.14158000  0.56810000  0.46731000  1.0
  C  C219  1  0.85842000  0.56810000  0.03270000  1.0
  C  C220  1  0.18232000  0.02677000  0.07602000  1.0
  C  C221  1  0.81768000  0.02677000  0.42398000  1.0
  C  C222  1  0.81768000  0.47323000  0.57602000  1.0
  C  C223  1  0.18232000  0.47323000  0.92398000  1.0
  C  C224  1  0.81768000  0.97323000  0.92398000  1.0
  C  C225  1  0.18232000  0.97323000  0.57602000  1.0
  C  C226  1  0.18232000  0.52677000  0.42398000  1.0
  C  C227  1  0.81768000  0.52677000  0.07602000  1.0
  C  C228  1  0.09806000  0.00616000  0.11361000  1.0
  C  C229  1  0.90194000  0.00616000  0.38639000  1.0
  C  C230  1  0.90194000  0.49384000  0.61361000  1.0
  C  C231  1  0.09806000  0.49384000  0.88639000  1.0
  C  C232  1  0.90194000  0.99384000  0.88639000  1.0
  C  C233  1  0.09806000  0.99384000  0.61361000  1.0
  C  C234  1  0.09806000  0.50616000  0.38639000  1.0
  C  C235  1  0.90194000  0.50616000  0.11361000  1.0
  C  C236  1  0.97711000  0.02432000  0.10789000  1.0
  C  C237  1  0.02289000  0.02432000  0.39211000  1.0
  C  C238  1  0.02289000  0.47568000  0.60789000  1.0
  C  C239  1  0.97711000  0.47568000  0.89211000  1.0
  C  C240  1  0.02289000  0.97568000  0.89211000  1.0
  C  C241  1  0.97711000  0.97568000  0.60789000  1.0
  C  C242  1  0.97711000  0.52432000  0.39211000  1.0
  C  C243  1  0.02289000  0.52432000  0.10789000  1.0
  C  C244  1  0.93515000  0.06281000  0.06389000  1.0
  C  C245  1  0.06485000  0.06281000  0.43611000  1.0
  C  C246  1  0.06485000  0.43719000  0.56389000  1.0
  C  C247  1  0.93515000  0.43719000  0.93611000  1.0
  C  C248  1  0.06485000  0.93719000  0.93611000  1.0
  C  C249  1  0.93515000  0.93719000  0.56389000  1.0
  C  C250  1  0.93515000  0.56281000  0.43611000  1.0
  C  C251  1  0.06485000  0.56281000  0.06389000  1.0
  C  C252  1  0.01986000  0.08468000  0.02663000  1.0
  C  C253  1  0.98014000  0.08468000  0.47337000  1.0
  C  C254  1  0.98014000  0.41532000  0.52663000  1.0
  C  C255  1  0.01986000  0.41532000  0.97337000  1.0
  C  C256  1  0.98014000  0.91532000  0.97337000  1.0
  C  C257  1  0.01986000  0.91532000  0.52663000  1.0
  C  C258  1  0.01986000  0.58468000  0.47337000  1.0
  C  C259  1  0.98014000  0.58468000  0.02663000  1.0
  C  C260  1  0.12341000  0.13432000  0.96021000  1.0
  C  C261  1  0.87659000  0.13432000  0.53979000  1.0
  C  C262  1  0.87660000  0.36568000  0.46021000  1.0
  C  C263  1  0.12340000  0.36568000  0.03979000  1.0
  C  C264  1  0.87660000  0.86568000  0.03979000  1.0
  C  C265  1  0.12340000  0.86568000  0.46021000  1.0
  C  C266  1  0.12340000  0.63432000  0.53979000  1.0
  C  C267  1  0.87659000  0.63432000  0.96021000  1.0
  C  C268  1  0.15021000  0.18243000  0.91464000  1.0
  C  C269  1  0.84979000  0.18243000  0.58536000  1.0
  C  C270  1  0.84980000  0.31757000  0.41464000  1.0
  C  C271  1  0.15021000  0.31757000  0.08536000  1.0
  C  C272  1  0.84980000  0.81757000  0.08536000  1.0
  C  C273  1  0.15021000  0.81757000  0.41464000  1.0
  C  C274  1  0.15021000  0.68243000  0.58536000  1.0
  C  C275  1  0.84979000  0.68243000  0.91464000  1.0
  C  C276  1  0.09435000  0.17428000  0.86522000  1.0
  C  C277  1  0.90565000  0.17428000  0.63478000  1.0
  C  C278  1  0.90565000  0.32572000  0.36522000  1.0
  C  C279  1  0.09435000  0.32572000  0.13478000  1.0
  C  C280  1  0.90565000  0.82572000  0.13478000  1.0
  C  C281  1  0.09435000  0.82572000  0.36522000  1.0
  C  C282  1  0.09435000  0.67428000  0.63478000  1.0
  C  C283  1  0.90565000  0.67428000  0.86522000  1.0
  C  C284  1  0.22890000  0.24171000  0.92086000  1.0
  C  C285  1  0.77109000  0.24171000  0.57914000  1.0
  C  C286  1  0.77109000  0.25829000  0.42086000  1.0
  C  C287  1  0.22891000  0.25829000  0.07914000  1.0
  C  C288  1  0.77109000  0.75829000  0.07914000  1.0
  C  C289  1  0.22891000  0.75829000  0.42086000  1.0
  C  C290  1  0.22891000  0.74171000  0.57914000  1.0
  C  C291  1  0.77109000  0.74171000  0.92086000  1.0
  C  C292  1  0.24601000  0.29037000  0.87891000  1.0
  C  C293  1  0.75399000  0.29037000  0.62109000  1.0
  C  C294  1  0.75399000  0.20963000  0.37891000  1.0
  C  C295  1  0.24601000  0.20963000  0.12109000  1.0
  C  C296  1  0.75399000  0.70963000  0.12109000  1.0
  C  C297  1  0.24601000  0.70963000  0.37891000  1.0
  C  C298  1  0.24601000  0.79037000  0.62109000  1.0
  C  C299  1  0.75399000  0.79037000  0.87891000  1.0
  C  C300  1  0.18413000  0.27907000  0.83170000  1.0
  C  C301  1  0.81587000  0.27907000  0.66830000  1.0
  C  C302  1  0.81587000  0.22093000  0.33170000  1.0
  C  C303  1  0.18413000  0.22094000  0.16830000  1.0
  C  C304  1  0.81587000  0.72094000  0.16830000  1.0
  C  C305  1  0.18413000  0.72094000  0.33170000  1.0
  C  C306  1  0.18413000  0.77907000  0.66830000  1.0
  C  C307  1  0.81587000  0.77907000  0.83170000  1.0
  C  C308  1  0.90089000  0.15829000  0.95960000  1.0
  C  C309  1  0.09911000  0.15829000  0.54040000  1.0
  C  C310  1  0.09911000  0.34171000  0.45960000  1.0
  C  C311  1  0.90089000  0.34171000  0.04040000  1.0
  C  C312  1  0.09911000  0.84171000  0.04040000  1.0
  C  C313  1  0.90089000  0.84171000  0.45960000  1.0
  C  C314  1  0.90089000  0.65829000  0.54040000  1.0
  C  C315  1  0.09911000  0.65829000  0.95960000  1.0
  C  C316  1  0.89325000  0.24072000  0.97049000  1.0
  C  C317  1  0.10675000  0.24072000  0.52951000  1.0
  C  C318  1  0.10675000  0.25928000  0.47049000  1.0
  C  C319  1  0.89325000  0.25928000  0.02951000  1.0
  C  C320  1  0.10675000  0.75928000  0.02951000  1.0
  C  C321  1  0.89325000  0.75928000  0.47049000  1.0
  C  C322  1  0.89325000  0.74072000  0.52951000  1.0
  C  C323  1  0.10675000  0.74072000  0.97049000  1.0
  N  N324  1  0.20363000  0.09984000  0.99081000  1.0
  N  N325  1  0.79637000  0.09984000  0.50919000  1.0
  N  N326  1  0.79637000  0.40016000  0.49081000  1.0
  N  N327  1  0.20363000  0.40016000  0.00919000  1.0
  N  N328  1  0.79637000  0.90016000  0.00919000  1.0
  N  N329  1  0.20363000  0.90016000  0.49081000  1.0
  N  N330  1  0.20363000  0.59984000  0.50919000  1.0
  N  N331  1  0.79637000  0.59984000  0.99081000  1.0
  N  N332  1  0.01081000  0.12526000  0.97998000  1.0
  N  N333  1  0.98919000  0.12526000  0.52002000  1.0
  N  N334  1  0.98919000  0.37474000  0.47998000  1.0
  N  N335  1  0.01081000  0.37474000  0.02002000  1.0
  N  N336  1  0.98919000  0.87474000  0.02002000  1.0
  N  N337  1  0.01081000  0.87474000  0.47998000  1.0
  N  N338  1  0.01081000  0.62526000  0.52002000  1.0
  N  N339  1  0.98919000  0.62526000  0.97998000  1.0
  N  N340  1  0.11059000  0.22142000  0.82486000  1.0
  N  N341  1  0.88941000  0.22142000  0.67514000  1.0
  N  N342  1  0.88941000  0.27858000  0.32486000  1.0
  N  N343  1  0.11059000  0.27858000  0.17514000  1.0
  N  N344  1  0.88941000  0.77858000  0.17514000  1.0
  N  N345  1  0.11059000  0.77858000  0.32486000  1.0
  N  N346  1  0.11059000  0.72142000  0.67514000  1.0
  N  N347  1  0.88941000  0.72142000  0.82486000  1.0
  O  O348  1  0.45904000  0.06554000  0.04641000  1.0
  O  O349  1  0.54096000  0.06554000  0.45359000  1.0
  O  O350  1  0.54096000  0.43446000  0.54641000  1.0
  O  O351  1  0.45904000  0.43446000  0.95359000  1.0
  O  O352  1  0.54096000  0.93446000  0.95359000  1.0
  O  O353  1  0.45904000  0.93446000  0.54641000  1.0
  O  O354  1  0.45904000  0.56554000  0.45359000  1.0
  O  O355  1  0.54096000  0.56554000  0.04641000  1.0
  O  O356  1  0.64320000  0.01966000  0.06094000  1.0
  O  O357  1  0.35680000  0.01966000  0.43906000  1.0
  O  O358  1  0.35680000  0.48034000  0.56094000  1.0
  O  O359  1  0.64320000  0.48034000  0.93906000  1.0
  O  O360  1  0.35680000  0.98034000  0.93906000  1.0
  O  O361  1  0.64320000  0.98034000  0.56094000  1.0
  O  O362  1  0.64320000  0.51966000  0.43906000  1.0
  O  O363  1  0.35680000  0.51966000  0.06094000  1.0
  O  O364  1  0.85985000  0.27369000  0.20568000  1.0
  O  O365  1  0.14016000  0.27369000  0.29432000  1.0
  O  O366  1  0.14015000  0.22631000  0.70568000  1.0
  O  O367  1  0.85984000  0.22631000  0.79432000  1.0
  O  O368  1  0.14016000  0.72631000  0.79432000  1.0
  O  O369  1  0.85984000  0.72631000  0.70568000  1.0
  O  O370  1  0.85985000  0.77369000  0.29432000  1.0
  O  O371  1  0.14015000  0.77369000  0.20568000  1.0
  O  O372  1  0.86769000  0.14940000  0.21288000  1.0
  O  O373  1  0.13231000  0.14940000  0.28712000  1.0
  O  O374  1  0.13231000  0.35060000  0.71288000  1.0
  O  O375  1  0.86769000  0.35060000  0.78712000  1.0
  O  O376  1  0.13231000  0.85060000  0.78712000  1.0
  O  O377  1  0.86769000  0.85060000  0.71288000  1.0
  O  O378  1  0.86769000  0.64940000  0.28712000  1.0
  O  O379  1  0.13231000  0.64940000  0.21288000  1.0
  O  O380  1  0.58895000  0.40267000  0.08931000  1.0
  O  O381  1  0.41105000  0.40267000  0.41070000  1.0
  O  O382  1  0.41105000  0.09733000  0.58930000  1.0
  O  O383  1  0.58895000  0.09733000  0.91069000  1.0
  O  O384  1  0.41105000  0.59733000  0.91070000  1.0
  O  O385  1  0.58895000  0.59733000  0.58931000  1.0
  O  O386  1  0.58895000  0.90267000  0.41069000  1.0
  O  O387  1  0.41105000  0.90267000  0.08931000  1.0
  O  O388  1  0.44270000  0.33624000  0.05055000  1.0
  O  O389  1  0.55730000  0.33624000  0.44945000  1.0
  O  O390  1  0.55730000  0.16376000  0.55055000  1.0
  O  O391  1  0.44270000  0.16376000  0.94945000  1.0
  O  O392  1  0.55730000  0.66376000  0.94945000  1.0
  O  O393  1  0.44270000  0.66376000  0.55055000  1.0
  O  O394  1  0.44270000  0.83624000  0.44945000  1.0
  O  O395  1  0.55730000  0.83624000  0.05055000  1.0
  O  O396  1  0.00000000  0.40883000  0.25000000  1.0
  O  O397  1  0.00000000  0.09117000  0.75000000  1.0
  O  O398  1  0.00000000  0.59117000  0.75000000  1.0
  O  O399  1  0.00000000  0.90883000  0.25000000  1.0
