# generated using pymatgen
data_CdH10C12N2(ClO3)2
_symmetry_space_group_name_H-M   'P 1'
_cell_length_a   5.50340000
_cell_length_b   9.39199000
_cell_length_c   14.72090000
_cell_angle_alpha   90.00000000
_cell_angle_beta   96.05990000
_cell_angle_gamma   89.99960000
_symmetry_Int_Tables_number   1
_chemical_formula_structural   CdH10C12N2(ClO3)2
_chemical_formula_sum   'Cd2 H20 C24 N4 Cl4 O12'
_cell_volume   756.64026992
_cell_formula_units_Z   2
loop_
 _symmetry_equiv_pos_site_id
 _symmetry_equiv_pos_as_xyz
  1  'x, y, z'
loop_
 _atom_site_type_symbol
 _atom_site_label
 _atom_site_symmetry_multiplicity
 _atom_site_fract_x
 _atom_site_fract_y
 _atom_site_fract_z
 _atom_site_occupancy
  Cd  Cd0  1  0.00000000  0.50000000  0.00000000  1.0
  Cd  Cd1  1  0.50000000  0.00000000  0.50000000  1.0
  H  H2  1  0.57311000  0.38706000  0.08169000  1.0
  H  H3  1  0.92688000  0.88705000  0.41831000  1.0
  H  H4  1  0.42688000  0.61295000  0.91830000  1.0
  H  H5  1  0.07312000  0.11295000  0.58169000  1.0
  H  H6  1  0.82815000  0.30398000  0.10523000  1.0
  H  H7  1  0.67184000  0.80397000  0.39478000  1.0
  H  H8  1  0.17185000  0.69603000  0.89477000  1.0
  H  H9  1  0.32815000  0.19603000  0.60522000  1.0
  H  H10  1  0.76481000  0.36562000  0.81686000  1.0
  H  H11  1  0.73521000  0.86562000  0.68313000  1.0
  H  H12  1  0.23518000  0.63437000  0.18314000  1.0
  H  H13  1  0.26480000  0.13439000  0.31686000  1.0
  H  H14  1  0.40502000  0.23827000  0.97154000  1.0
  H  H15  1  0.09499000  0.73829000  0.52846000  1.0
  H  H16  1  0.59497000  0.76172000  0.02846000  1.0
  H  H17  1  0.90501000  0.26172000  0.47154000  1.0
  H  H18  1  0.13698000  0.99053000  0.73479000  1.0
  H  H19  1  0.36303000  0.49054000  0.76521000  1.0
  H  H20  1  0.86303000  0.00946000  0.26522000  1.0
  H  H21  1  0.63697000  0.50947000  0.23479000  1.0
  C  C22  1  0.74011000  0.16696000  0.68328000  1.0
  C  C23  1  0.75990000  0.66697000  0.81672000  1.0
  C  C24  1  0.25989000  0.83303000  0.31672000  1.0
  C  C25  1  0.24010000  0.33304000  0.18328000  1.0
  C  C26  1  0.93016000  0.17844000  0.76436000  1.0
  C  C27  1  0.56986000  0.67845000  0.73564000  1.0
  C  C28  1  0.06984000  0.82155000  0.23565000  1.0
  C  C29  1  0.43016000  0.32156000  0.26436000  1.0
  C  C30  1  0.91497000  0.28994000  0.82628000  1.0
  C  C31  1  0.58505000  0.78994000  0.67371000  1.0
  C  C32  1  0.08502000  0.71005000  0.17372000  1.0
  C  C33  1  0.41496000  0.21006000  0.32628000  1.0
  C  C34  1  0.26848000  0.21801000  0.91375000  1.0
  C  C35  1  0.23153000  0.71801000  0.58624000  1.0
  C  C36  1  0.73151000  0.78199000  0.08625000  1.0
  C  C37  1  0.76847000  0.28199000  0.41375000  1.0
  C  C38  1  0.29078000  0.10156000  0.85625000  1.0
  C  C39  1  0.20924000  0.60157000  0.64375000  1.0
  C  C40  1  0.70921000  0.89844000  0.14375000  1.0
  C  C41  1  0.79077000  0.39844000  0.35625000  1.0
  C  C42  1  0.12136000  0.08093000  0.78009000  1.0
  C  C43  1  0.37867000  0.58093000  0.71990000  1.0
  C  C44  1  0.87864000  0.91907000  0.21991000  1.0
  C  C45  1  0.62133000  0.41908000  0.28010000  1.0
  N  N46  1  0.08114000  0.31016000  0.89861000  1.0
  N  N47  1  0.41886000  0.81017000  0.60139000  1.0
  N  N48  1  0.91885000  0.68983000  0.10139000  1.0
  N  N49  1  0.58114000  0.18983000  0.39861000  1.0
  Cl  Cl50  1  0.53286000  0.98618000  0.87904000  1.0
  Cl  Cl51  1  0.96716000  0.48618000  0.62095000  1.0
  Cl  Cl52  1  0.46715000  0.01382000  0.12096000  1.0
  Cl  Cl53  1  0.03285000  0.51382000  0.37905000  1.0
  O  O54  1  0.79186000  0.08409000  0.61805000  1.0
  O  O55  1  0.70815000  0.58409000  0.88195000  1.0
  O  O56  1  0.20814000  0.91591000  0.38195000  1.0
  O  O57  1  0.29185000  0.41591000  0.11805000  1.0
  O  O58  1  0.54679000  0.23811000  0.68458000  1.0
  O  O59  1  0.95322000  0.73811000  0.81542000  1.0
  O  O60  1  0.45320000  0.76188000  0.31542000  1.0
  O  O61  1  0.04678000  0.26189000  0.18458000  1.0
  O  O62  1  0.71725000  0.34882000  0.05402000  1.0
  O  O63  1  0.78275000  0.84881000  0.44598000  1.0
  O  O64  1  0.28275000  0.65119000  0.94598000  1.0
  O  O65  1  0.21725000  0.15120000  0.55402000  1.0
