# generated using pymatgen
data_CuH18C24(N2O3)2
_symmetry_space_group_name_H-M   'P 1'
_cell_length_a   10.81430000
_cell_length_b   10.81460000
_cell_length_c   12.59670000
_cell_angle_alpha   68.53990000
_cell_angle_beta   68.54230000
_cell_angle_gamma   82.86080000
_symmetry_Int_Tables_number   1
_chemical_formula_structural   CuH18C24(N2O3)2
_chemical_formula_sum   'Cu2 H36 C48 N8 O12'
_cell_volume   1275.96927703
_cell_formula_units_Z   2
loop_
 _symmetry_equiv_pos_site_id
 _symmetry_equiv_pos_as_xyz
  1  'x, y, z'
loop_
 _atom_site_type_symbol
 _atom_site_label
 _atom_site_symmetry_multiplicity
 _atom_site_fract_x
 _atom_site_fract_y
 _atom_site_fract_z
 _atom_site_occupancy
  Cu  Cu0  1  0.50000000  0.00000000  0.00000000  1.0
  Cu  Cu1  1  0.00000000  0.50000000  0.50000000  1.0
  H  H2  1  0.11403000  0.81564000  0.97274000  1.0
  H  H3  1  0.18435000  0.88597000  0.52727000  1.0
  H  H4  1  0.88597000  0.18433000  0.02727000  1.0
  H  H5  1  0.81564000  0.11404000  0.47272000  1.0
  H  H6  1  0.86763000  0.78972000  0.04803000  1.0
  H  H7  1  0.21026000  0.13237000  0.45198000  1.0
  H  H8  1  0.13237000  0.21026000  0.95198000  1.0
  H  H9  1  0.78973000  0.86764000  0.54802000  1.0
  H  H10  1  0.72900000  0.85307000  0.23351000  1.0
  H  H11  1  0.14691000  0.27100000  0.26649000  1.0
  H  H12  1  0.27100000  0.14691000  0.76649000  1.0
  H  H13  1  0.85309000  0.72900000  0.73351000  1.0
  H  H14  1  0.33727000  0.24299000  0.97730000  1.0
  H  H15  1  0.75701000  0.66273000  0.52270000  1.0
  H  H16  1  0.66273000  0.75702000  0.02269000  1.0
  H  H17  1  0.24298000  0.33727000  0.47731000  1.0
  H  H18  1  0.31802000  0.44554000  0.80562000  1.0
  H  H19  1  0.55447000  0.68199000  0.69437000  1.0
  H  H20  1  0.68198000  0.55448000  0.19437000  1.0
  H  H21  1  0.44553000  0.31801000  0.30563000  1.0
  H  H22  1  0.61000000  0.27152000  0.55974000  1.0
  H  H23  1  0.72848000  0.39000000  0.94027000  1.0
  H  H24  1  0.39001000  0.72849000  0.44026000  1.0
  H  H25  1  0.27152000  0.61000000  0.05974000  1.0
  H  H26  1  0.61553000  0.07887000  0.73954000  1.0
  H  H27  1  0.92113000  0.38447000  0.76048000  1.0
  H  H28  1  0.38448000  0.92114000  0.26046000  1.0
  H  H29  1  0.07887000  0.61553000  0.23953000  1.0
  H  H30  1  0.34808000  0.50504000  0.56312000  1.0
  H  H31  1  0.49497000  0.65193000  0.93687000  1.0
  H  H32  1  0.65194000  0.49496000  0.43686000  1.0
  H  H33  1  0.50503000  0.34807000  0.06314000  1.0
  H  H34  1  0.46560000  0.58570000  0.58111000  1.0
  H  H35  1  0.41430000  0.53441000  0.91889000  1.0
  H  H36  1  0.53441000  0.41431000  0.41888000  1.0
  H  H37  1  0.58570000  0.46559000  0.08112000  1.0
  C  C38  1  0.25810000  0.90978000  0.05915000  1.0
  C  C39  1  0.09025000  0.74189000  0.44085000  1.0
  C  C40  1  0.74190000  0.09021000  0.94085000  1.0
  C  C41  1  0.90976000  0.25811000  0.55915000  1.0
  C  C42  1  0.02911000  0.92159000  0.21355000  1.0
  C  C43  1  0.07841000  0.97089000  0.28645000  1.0
  C  C44  1  0.97089000  0.07841000  0.78644000  1.0
  C  C45  1  0.92158000  0.02911000  0.71356000  1.0
  C  C46  1  0.10949000  0.88876000  0.11196000  1.0
  C  C47  1  0.11125000  0.89051000  0.38804000  1.0
  C  C48  1  0.89051000  0.11124000  0.88805000  1.0
  C  C49  1  0.88874000  0.10949000  0.61196000  1.0
  C  C50  1  0.05165000  0.83826000  0.05324000  1.0
  C  C51  1  0.16174000  0.94836000  0.44676000  1.0
  C  C52  1  0.94836000  0.16173000  0.94675000  1.0
  C  C53  1  0.83826000  0.05165000  0.55324000  1.0
  C  C54  1  0.91413000  0.82348000  0.09607000  1.0
  C  C55  1  0.17651000  0.08586000  0.40394000  1.0
  C  C56  1  0.08586000  0.17650000  0.90394000  1.0
  C  C57  1  0.82349000  0.91414000  0.59606000  1.0
  C  C58  1  0.83682000  0.85848000  0.19520000  1.0
  C  C59  1  0.14151000  0.16317000  0.30480000  1.0
  C  C60  1  0.16318000  0.14151000  0.80480000  1.0
  C  C61  1  0.85849000  0.83683000  0.69519000  1.0
  C  C62  1  0.39629000  0.25538000  0.88282000  1.0
  C  C63  1  0.74462000  0.60371000  0.61718000  1.0
  C  C64  1  0.60371000  0.74463000  0.11716000  1.0
  C  C65  1  0.25538000  0.39629000  0.38283000  1.0
  C  C66  1  0.38609000  0.36670000  0.78673000  1.0
  C  C67  1  0.63330000  0.61392000  0.71327000  1.0
  C  C68  1  0.61392000  0.63331000  0.21327000  1.0
  C  C69  1  0.36669000  0.38608000  0.28673000  1.0
  C  C70  1  0.46173000  0.37660000  0.66640000  1.0
  C  C71  1  0.62339000  0.53828000  0.83359000  1.0
  C  C72  1  0.53828000  0.62341000  0.33359000  1.0
  C  C73  1  0.37661000  0.46172000  0.16641000  1.0
  C  C74  1  0.54494000  0.27045000  0.64946000  1.0
  C  C75  1  0.72955000  0.45506000  0.85055000  1.0
  C  C76  1  0.45507000  0.72957000  0.35053000  1.0
  C  C77  1  0.27045000  0.54494000  0.14946000  1.0
  C  C78  1  0.55012000  0.16192000  0.74981000  1.0
  C  C79  1  0.83808000  0.44987000  0.75019000  1.0
  C  C80  1  0.44988000  0.83808000  0.25019000  1.0
  C  C81  1  0.16192000  0.55013000  0.24981000  1.0
  C  C82  1  0.45119000  0.49765000  0.56234000  1.0
  C  C83  1  0.50235000  0.54881000  0.93766000  1.0
  C  C84  1  0.54882000  0.50235000  0.43764000  1.0
  C  C85  1  0.49765000  0.45118000  0.06236000  1.0
  N  N86  1  0.89254000  0.90743000  0.25371000  1.0
  N  N87  1  0.09257000  0.10745000  0.24628000  1.0
  N  N88  1  0.10745000  0.09258000  0.74628000  1.0
  N  N89  1  0.90742000  0.89255000  0.75371000  1.0
  N  N90  1  0.47766000  0.15458000  0.86425000  1.0
  N  N91  1  0.84542000  0.52234000  0.63575000  1.0
  N  N92  1  0.52235000  0.84543000  0.13574000  1.0
  N  N93  1  0.15458000  0.47766000  0.36425000  1.0
  O  O94  1  0.30448000  0.99174000  0.08961000  1.0
  O  O95  1  0.00827000  0.69552000  0.41039000  1.0
  O  O96  1  0.69552000  0.00826000  0.91040000  1.0
  O  O97  1  0.99173000  0.30448000  0.58961000  1.0
  O  O98  1  0.32847000  0.85201000  0.98792000  1.0
  O  O99  1  0.14802000  0.67152000  0.51207000  1.0
  O  O100  1  0.67153000  0.14798000  0.01209000  1.0
  O  O101  1  0.85199000  0.32848000  0.48792000  1.0
  O  O102  1  0.81750000  0.93883000  0.34647000  1.0
  O  O103  1  0.06118000  0.18249000  0.15352000  1.0
  O  O104  1  0.18248000  0.06118000  0.65352000  1.0
  O  O105  1  0.93882000  0.81752000  0.84648000  1.0
