# generated using pymatgen
data_ZnH10C13IN4
_symmetry_space_group_name_H-M   'P 1'
_cell_length_a   14.79200000
_cell_length_b   17.54570000
_cell_length_c   19.49080000
_cell_angle_alpha   88.57490000
_cell_angle_beta   87.34290000
_cell_angle_gamma   88.50970000
_symmetry_Int_Tables_number   1
_chemical_formula_structural   ZnH10C13IN4
_chemical_formula_sum   'Zn8 H80 C104 I8 N32'
_cell_volume   5049.99764918
_cell_formula_units_Z   8
loop_
 _symmetry_equiv_pos_site_id
 _symmetry_equiv_pos_as_xyz
  1  'x, y, z'
loop_
 _atom_site_type_symbol
 _atom_site_label
 _atom_site_symmetry_multiplicity
 _atom_site_fract_x
 _atom_site_fract_y
 _atom_site_fract_z
 _atom_site_occupancy
  Zn  Zn0  1  0.02150000  0.91952000  0.45059000  1.0
  Zn  Zn1  1  0.02442000  0.06495000  0.59731000  1.0
  Zn  Zn2  1  0.47474000  0.55839000  0.92977000  1.0
  Zn  Zn3  1  0.48429000  0.42465000  0.06995000  1.0
  Zn  Zn4  1  0.85023000  0.03543000  0.50952000  1.0
  Zn  Zn5  1  0.19987000  0.97974000  0.49536000  1.0
  Zn  Zn6  1  0.28150000  0.46129000  0.01192000  1.0
  Zn  Zn7  1  0.67203000  0.53170000  0.99551000  1.0
  H  H8  1  0.92152000  0.17916000  0.39935000  1.0
  H  H9  1  0.35406000  0.90768000  0.37597000  1.0
  H  H10  1  0.03607000  0.21029000  0.49324000  1.0
  H  H11  1  0.81466000  0.86634000  0.54739000  1.0
  H  H12  1  0.45402000  0.71251000  0.02351000  1.0
  H  H13  1  0.52947000  0.27294000  0.97888000  1.0
  H  H14  1  0.79955000  0.59412000  0.87850000  1.0
  H  H15  1  0.15865000  0.40955000  0.14458000  1.0
  H  H16  1  0.93614000  0.18446000  0.71963000  1.0
  H  H17  1  0.10007000  0.82703000  0.30721000  1.0
  H  H18  1  0.13183000  0.03698000  0.35184000  1.0
  H  H19  1  0.01319000  0.75206000  0.55026000  1.0
  H  H20  1  0.99761000  0.91464000  0.70727000  1.0
  H  H21  1  0.40032000  0.53655000  0.17866000  1.0
  H  H22  1  0.57879000  0.45255000  0.82665000  1.0
  H  H23  1  0.54577000  0.68017000  0.80096000  1.0
  H  H24  1  0.41743000  0.31473000  0.20424000  1.0
  H  H25  1  0.74605000  0.89077000  0.75709000  1.0
  H  H26  1  0.25305000  0.12327000  0.29828000  1.0
  H  H27  1  0.41438000  0.87229000  0.21997000  1.0
  H  H28  1  0.63705000  0.11329000  0.79669000  1.0
  H  H29  1  0.11157000  0.37901000  0.30724000  1.0
  H  H30  1  0.14622000  0.15689000  0.68901000  1.0
  H  H31  1  0.84074000  0.62771000  0.70603000  1.0
  H  H32  1  0.72402000  0.38129000  0.78339000  1.0
  H  H33  1  0.25448000  0.63084000  0.22041000  1.0
  H  H34  1  0.19818000  0.30308000  0.41718000  1.0
  H  H35  1  0.76741000  0.73481000  0.61054000  1.0
  H  H36  1  0.66020000  0.29727000  0.67274000  1.0
  H  H37  1  0.33906000  0.69134000  0.33498000  1.0
  H  H38  1  0.81879000  0.78221000  0.85275000  1.0
  H  H39  1  0.16600000  0.20003000  0.18811000  1.0
  H  H40  1  0.32980000  0.81301000  0.10569000  1.0
  H  H41  1  0.93872000  0.85476000  0.31838000  1.0
  H  H42  1  0.70076000  0.19647000  0.90692000  1.0
  H  H43  1  0.34290000  0.25849000  0.32629000  1.0
  H  H44  1  0.63126000  0.77657000  0.71097000  1.0
  H  H45  1  0.52038000  0.23872000  0.76290000  1.0
  H  H46  1  0.49278000  0.72560000  0.24785000  1.0
  H  H47  1  0.95572000  0.74209000  0.75151000  1.0
  H  H48  1  0.02052000  0.24285000  0.28015000  1.0
  H  H49  1  0.17649000  0.77665000  0.19162000  1.0
  H  H50  1  0.83934000  0.25720000  0.81848000  1.0
  H  H51  1  0.76560000  0.78885000  0.27875000  1.0
  H  H52  1  0.35629000  0.63007000  0.80825000  1.0
  H  H53  1  0.35066000  0.19626000  0.70251000  1.0
  H  H54  1  0.20068000  0.74035000  0.70173000  1.0
  H  H55  1  0.73315000  0.26023000  0.27539000  1.0
  H  H56  1  0.22033000  0.26123000  0.76083000  1.0
  H  H57  1  0.81581000  0.78850000  0.17332000  1.0
  H  H58  1  0.82744000  0.28221000  0.17987000  1.0
  H  H59  1  0.14407000  0.70801000  0.80987000  1.0
  H  H60  1  0.59918000  0.97136000  0.23997000  1.0
  H  H61  1  0.70601000  0.99687000  0.26811000  1.0
  H  H62  1  0.68771000  0.99171000  0.17847000  1.0
  H  H63  1  0.61543000  0.36382000  0.19306000  1.0
  H  H64  1  0.30790000  0.37688000  0.56772000  1.0
  H  H65  1  0.25190000  0.29204000  0.54894000  1.0
  H  H66  1  0.19740000  0.36198000  0.60312000  1.0
  H  H67  1  0.99045000  0.58501000  0.67665000  1.0
  H  H68  1  0.98288000  0.67167000  0.62885000  1.0
  H  H69  1  0.05858000  0.59787000  0.60028000  1.0
  H  H70  1  0.88440000  0.41439000  0.37192000  1.0
  H  H71  1  0.88557000  0.32067000  0.40924000  1.0
  H  H72  1  0.96929000  0.34765000  0.34542000  1.0
  H  H73  1  0.35425000  0.44326000  0.66424000  1.0
  H  H74  1  0.60824000  0.67059000  0.10763000  1.0
  H  H75  1  0.33869000  0.44841000  0.75517000  1.0
  H  H76  1  0.43456000  0.39929000  0.71772000  1.0
  H  H77  1  0.57928000  0.90482000  0.12840000  1.0
  H  H78  1  0.59867000  0.81586000  0.08734000  1.0
  H  H79  1  0.53914000  0.82035000  0.16853000  1.0
  H  H80  1  0.87222000  0.48647000  0.26768000  1.0
  H  H81  1  0.78704000  0.49002000  0.20663000  1.0
  H  H82  1  0.75804000  0.47498000  0.29588000  1.0
  H  H83  1  0.08050000  0.50276000  0.73419000  1.0
  H  H84  1  0.18604000  0.51406000  0.68958000  1.0
  H  H85  1  0.37142000  0.40217000  0.86695000  1.0
  H  H86  1  0.18034000  0.50040000  0.78075000  1.0
  H  H87  1  0.69685000  0.11190000  0.62164000  1.0
  C  C88  1  0.84899000  0.17181000  0.40441000  1.0
  C  C89  1  0.70351000  0.76904000  0.72008000  1.0
  C  C90  1  0.89715000  0.35366000  0.36120000  1.0
  C  C91  1  0.36150000  0.41120000  0.71298000  1.0
  C  C92  1  0.59586000  0.84394000  0.13715000  1.0
  C  C93  1  0.80812000  0.46137000  0.25412000  1.0
  C  C94  1  0.14733000  0.52835000  0.73731000  1.0
  C  C95  1  0.59190000  0.24221000  0.77447000  1.0
  C  C96  1  0.42210000  0.73744000  0.23594000  1.0
  C  C97  1  0.88336000  0.74954000  0.74301000  1.0
  C  C98  1  0.09248000  0.24671000  0.29003000  1.0
  C  C99  1  0.24702000  0.76542000  0.20437000  1.0
  C  C100  1  0.76841000  0.25255000  0.80558000  1.0
  C  C101  1  0.31768000  0.21762000  0.65648000  1.0
  C  C102  1  0.75019000  0.84995000  0.28222000  1.0
  C  C103  1  0.78399000  0.26572000  0.31382000  1.0
  C  C104  1  0.06712000  0.78923000  0.56276000  1.0
  C  C105  1  0.14444000  0.72606000  0.67028000  1.0
  C  C106  1  0.74988000  0.78305000  0.15101000  1.0
  C  C107  1  0.26083000  0.31093000  0.76984000  1.0
  C  C108  1  0.16045000  0.64724000  0.80421000  1.0
  C  C109  1  0.80778000  0.34238000  0.18495000  1.0
  C  C110  1  0.30156000  0.29388000  0.65141000  1.0
  C  C111  1  0.70281000  0.88228000  0.23055000  1.0
  C  C112  1  0.83686000  0.32824000  0.30659000  1.0
  C  C113  1  0.10319000  0.65927000  0.68742000  1.0
  C  C114  1  0.68399000  0.83391000  0.17211000  1.0
  C  C115  1  0.18601000  0.13533000  0.64502000  1.0
  C  C116  1  0.30974000  0.33864000  0.71418000  1.0
  C  C117  1  0.13742000  0.61331000  0.74595000  1.0
  C  C118  1  0.82051000  0.37656000  0.24552000  1.0
  C  C119  1  0.76452000  0.12244000  0.63810000  1.0
  C  C120  1  0.28402000  0.89462000  0.36771000  1.0
  C  C121  1  0.05393000  0.15836000  0.46594000  1.0
  C  C122  1  0.86560000  0.88767000  0.57981000  1.0
  C  C123  1  0.44752000  0.66033000  0.05432000  1.0
  C  C124  1  0.53266000  0.32539000  0.94815000  1.0
  C  C125  1  0.72968000  0.60593000  0.86595000  1.0
  C  C126  1  0.88515000  0.88162000  0.35003000  1.0
  C  C127  1  0.22929000  0.39330000  0.15055000  1.0
  C  C128  1  0.88646000  0.15994000  0.68781000  1.0
  C  C129  1  0.15409000  0.85389000  0.33291000  1.0
  C  C130  1  0.10321000  0.06987000  0.39424000  1.0
  C  C131  1  0.95886000  0.91294000  0.66135000  1.0
  C  C132  1  0.41963000  0.57047000  0.13319000  1.0
  C  C133  1  0.55787000  0.41702000  0.87065000  1.0
  C  C134  1  0.59992000  0.65062000  0.82742000  1.0
  C  C135  1  0.36124000  0.34460000  0.18049000  1.0
  C  C136  1  0.28844000  0.11283000  0.56243000  1.0
  C  C137  1  0.31270000  0.60868000  0.85043000  1.0
  C  C138  1  0.75762000  0.92721000  0.39625000  1.0
  C  C139  1  0.70190000  0.17038000  0.39408000  1.0
  C  C140  1  0.18121000  0.84825000  0.60493000  1.0
  C  C141  1  0.82313000  0.69041000  0.06534000  1.0
  C  C142  1  0.17416000  0.32229000  0.88548000  1.0
  C  C143  1  0.19995000  0.57648000  0.92126000  1.0
  C  C144  1  0.75948000  0.40728000  0.06741000  1.0
  C  C145  1  0.78028000  0.20817000  0.36754000  1.0
  C  C146  1  0.12948000  0.78176000  0.61581000  1.0
  C  C147  1  0.27090000  0.15955000  0.61923000  1.0
  C  C148  1  0.65406000  0.38312000  0.14738000  1.0
  C  C149  1  0.79229000  0.88650000  0.33881000  1.0
  C  C150  1  0.21771000  0.61142000  0.85645000  1.0
  C  C151  1  0.74813000  0.37632000  0.13405000  1.0
  C  C152  1  0.74720000  0.72168000  0.10336000  1.0
  C  C153  1  0.24882000  0.33812000  0.83873000  1.0
  C  C154  1  0.79167000  0.16449000  0.69395000  1.0
  C  C155  1  0.24789000  0.84793000  0.31881000  1.0
  C  C156  1  0.10056000  0.14889000  0.40188000  1.0
  C  C157  1  0.88856000  0.86445000  0.64584000  1.0
  C  C158  1  0.41321000  0.64977000  0.12215000  1.0
  C  C159  1  0.67853000  0.67142000  0.08889000  1.0
  C  C160  1  0.57420000  0.33889000  0.88284000  1.0
  C  C161  1  0.69383000  0.65755000  0.81773000  1.0
  C  C162  1  0.26864000  0.34468000  0.19989000  1.0
  C  C163  1  0.19073000  0.27981000  0.36617000  1.0
  C  C164  1  0.77865000  0.74554000  0.66459000  1.0
  C  C165  1  0.66839000  0.27569000  0.72535000  1.0
  C  C166  1  0.33746000  0.71738000  0.28341000  1.0
  C  C167  1  0.80834000  0.77286000  0.79838000  1.0
  C  C168  1  0.17254000  0.22196000  0.23969000  1.0
  C  C169  1  0.33190000  0.78562000  0.15672000  1.0
  C  C170  1  0.30508000  0.37923000  0.87939000  1.0
  C  C171  1  0.69156000  0.21909000  0.85476000  1.0
  C  C172  1  0.76610000  0.83154000  0.74656000  1.0
  C  C173  1  0.22124000  0.18033000  0.29997000  1.0
  C  C174  1  0.37922000  0.81818000  0.21974000  1.0
  C  C175  1  0.65584000  0.17330000  0.79396000  1.0
  C  C176  1  0.14250000  0.32163000  0.30541000  1.0
  C  C177  1  0.82061000  0.68684000  0.71681000  1.0
  C  C178  1  0.70459000  0.32141000  0.78579000  1.0
  C  C179  1  0.28979000  0.68493000  0.22089000  1.0
  C  C180  1  0.84175000  0.80847000  0.69022000  1.0
  C  C181  1  0.27108000  0.25519000  0.31551000  1.0
  C  C182  1  0.14089000  0.20380000  0.35169000  1.0
  C  C183  1  0.29377000  0.79903000  0.26750000  1.0
  C  C184  1  0.73394000  0.20630000  0.74428000  1.0
  C  C185  1  0.22363000  0.29783000  0.25432000  1.0
  C  C186  1  0.74471000  0.70985000  0.77225000  1.0
  C  C187  1  0.62756000  0.28905000  0.83597000  1.0
  C  C188  1  0.37447000  0.70424000  0.17207000  1.0
  C  C189  1  0.67271000  0.96483000  0.22921000  1.0
  C  C190  1  0.26242000  0.33286000  0.58942000  1.0
  C  C191  1  0.03013000  0.62685000  0.64628000  1.0
  I  I192  1  0.39941000  0.11285000  0.49303000  1.0
  I  I193  1  0.62189000  0.94425000  0.42585000  1.0
  I  I194  1  0.56958000  0.19012000  0.36333000  1.0
  I  I195  1  0.28901000  0.88496000  0.65907000  1.0
  I  I196  1  0.95285000  0.73470000  0.06070000  1.0
  I  I197  1  0.05647000  0.26550000  0.86435000  1.0
  I  I198  1  0.07817000  0.54883000  0.97154000  1.0
  I  I199  1  0.87701000  0.41507000  0.00543000  1.0
  N  N200  1  0.81210000  0.11897000  0.44785000  1.0
  N  N201  1  0.21591000  0.92547000  0.40751000  1.0
  N  N202  1  0.03105000  0.08999000  0.49400000  1.0
  N  N203  1  0.91824000  0.94655000  0.55736000  1.0
  N  N204  1  0.47307000  0.59211000  0.02748000  1.0
  N  N205  1  0.49491000  0.39095000  0.97275000  1.0
  N  N206  1  0.66162000  0.57097000  0.90140000  1.0
  N  N207  1  0.29411000  0.41988000  0.10561000  1.0
  N  N208  1  0.91307000  0.11830000  0.63262000  1.0
  N  N209  1  0.13533000  0.90005000  0.38593000  1.0
  N  N210  1  0.06362000  0.03420000  0.45038000  1.0
  N  N211  1  0.08142000  0.85343000  0.52523000  1.0
  N  N212  1  0.97541000  0.96136000  0.60819000  1.0
  N  N213  1  0.45453000  0.53674000  0.07632000  1.0
  N  N214  1  0.51120000  0.44770000  0.92470000  1.0
  N  N215  1  0.58121000  0.59885000  0.87811000  1.0
  N  N216  1  0.37590000  0.38916000  0.12389000  1.0
  N  N217  1  0.21855000  0.06538000  0.55510000  1.0
  N  N218  1  0.82415000  0.94594000  0.43753000  1.0
  N  N219  1  0.71996000  0.11832000  0.44274000  1.0
  N  N220  1  0.15218000  0.89015000  0.55136000  1.0
  N  N221  1  0.80383000  0.62853000  0.03096000  1.0
  N  N222  1  0.15522000  0.07929000  0.60747000  1.0
  N  N223  1  0.18344000  0.35028000  0.94755000  1.0
  N  N224  1  0.27820000  0.55532000  0.95114000  1.0
  N  N225  1  0.67851000  0.43223000  0.04362000  1.0
  N  N226  1  0.90349000  0.91697000  0.40830000  1.0
  N  N227  1  0.34798000  0.57523000  0.90631000  1.0
  N  N228  1  0.61315000  0.41629000  0.09406000  1.0
  N  N229  1  0.71360000  0.61684000  0.04685000  1.0
  N  N230  1  0.26595000  0.38477000  0.94332000  1.0
  N  N231  1  0.83733000  0.09461000  0.60225000  1.0
