# generated using pymatgen
data_Ni2H30C40N4O9
_symmetry_space_group_name_H-M   'P 1'
_cell_length_a   13.91920000
_cell_length_b   13.91920000
_cell_length_c   17.95437685
_cell_angle_alpha   103.59057348
_cell_angle_beta   103.59057348
_cell_angle_gamma   113.19000000
_symmetry_Int_Tables_number   1
_chemical_formula_structural   Ni2H30C40N4O9
_chemical_formula_sum   'Ni4 H60 C80 N8 O18'
_cell_volume   2891.63206660
_cell_formula_units_Z   2
loop_
 _symmetry_equiv_pos_site_id
 _symmetry_equiv_pos_as_xyz
  1  'x, y, z'
loop_
 _atom_site_type_symbol
 _atom_site_label
 _atom_site_symmetry_multiplicity
 _atom_site_fract_x
 _atom_site_fract_y
 _atom_site_fract_z
 _atom_site_occupancy
  Ni  Ni0  1  0.53486000  0.01199000  0.82630000  1.0
  Ni  Ni1  1  0.29149000  0.81425000  0.82628000  1.0
  Ni  Ni2  1  0.26199000  0.28486000  0.32630000  1.0
  Ni  Ni3  1  0.06425000  0.04149000  0.32628000  1.0
  H  H4  1  0.36414000  0.80049000  0.71350000  1.0
  H  H5  1  0.68986000  0.07763000  0.73926000  1.0
  H  H6  1  0.78070000  0.99593000  0.65886000  1.0
  H  H7  1  0.61425000  0.69114000  0.70321000  1.0
  H  H8  1  0.53109000  0.78678000  0.78227000  1.0
  H  H9  1  0.73898000  0.69983000  0.63086000  1.0
  H  H10  1  0.68929000  0.82208000  0.51890000  1.0
  H  H11  1  0.68262000  0.54852000  0.43183000  1.0
  H  H12  1  0.50245000  0.36806000  0.35902000  1.0
  H  H13  1  0.31885000  0.51546000  0.43380000  1.0
  H  H14  1  0.48958000  0.70395000  0.50898000  1.0
  H  H15  1  0.44005000  0.69223000  0.97682000  1.0
  H  H16  1  0.53629000  0.65721000  0.09645000  1.0
  H  H17  1  0.73395000  0.79900000  0.18921000  1.0
  H  H18  1  0.73883000  0.00219000  0.04227000  1.0
  H  H19  1  0.34936000  0.91307000  0.71353000  1.0
  H  H20  1  0.04913000  0.66149000  0.73915000  1.0
  H  H21  1  0.87803000  0.66287000  0.65862000  1.0
  H  H22  1  0.08899000  0.01205000  0.70319000  1.0
  H  H23  1  0.25111000  0.99536000  0.78226000  1.0
  H  H24  1  0.89204000  0.93128000  0.63090000  1.0
  H  H25  1  0.82941000  0.69703000  0.51882000  1.0
  H  H26  1  0.74909000  0.88351000  0.43177000  1.0
  H  H27  1  0.85651000  0.99118000  0.35898000  1.0
  H  H28  1  0.11477000  0.91839000  0.43371000  1.0
  H  H29  1  0.01915000  0.80507000  0.50887000  1.0
  H  H30  1  0.53668000  0.28449000  0.97669000  1.0
  H  H31  1  0.56015000  0.43909000  0.09640000  1.0
  H  H32  1  0.45523000  0.38994000  0.18915000  1.0
  H  H33  1  0.30338000  0.03986000  0.04207000  1.0
  H  H34  1  0.05049000  0.11414000  0.21350000  1.0
  H  H35  1  0.32763000  0.43986000  0.23926000  1.0
  H  H36  1  0.24593000  0.53070000  0.15886000  1.0
  H  H37  1  0.94114000  0.36426000  0.20321000  1.0
  H  H38  1  0.03677000  0.28108000  0.28226000  1.0
  H  H39  1  0.94983000  0.48899000  0.13086000  1.0
  H  H40  1  0.07208000  0.43929000  0.01890000  1.0
  H  H41  1  0.79852000  0.43262000  0.93183000  1.0
  H  H42  1  0.61806000  0.25245000  0.85902000  1.0
  H  H43  1  0.76545000  0.06885000  0.93380000  1.0
  H  H44  1  0.95395000  0.23959000  0.00898000  1.0
  H  H45  1  0.94223000  0.19005000  0.47682000  1.0
  H  H46  1  0.90720000  0.28628000  0.59644000  1.0
  H  H47  1  0.04900000  0.48395000  0.68921000  1.0
  H  H48  1  0.25219000  0.48883000  0.54227000  1.0
  H  H49  1  0.16307000  0.09936000  0.21353000  1.0
  H  H50  1  0.91149000  0.79913000  0.23915000  1.0
  H  H51  1  0.91287000  0.62803000  0.15862000  1.0
  H  H52  1  0.26205000  0.83899000  0.20319000  1.0
  H  H53  1  0.24536000  0.00111000  0.28226000  1.0
  H  H54  1  0.18128000  0.64205000  0.13090000  1.0
  H  H55  1  0.94703000  0.57941000  0.01882000  1.0
  H  H56  1  0.13351000  0.49909000  0.93177000  1.0
  H  H57  1  0.24119000  0.60651000  0.85898000  1.0
  H  H58  1  0.16839000  0.86476000  0.93371000  1.0
  H  H59  1  0.05506000  0.76914000  0.00886000  1.0
  H  H60  1  0.53449000  0.28668000  0.47669000  1.0
  H  H61  1  0.68909000  0.31015000  0.59640000  1.0
  H  H62  1  0.63995000  0.20524000  0.68916000  1.0
  H  H63  1  0.28986000  0.05338000  0.54207000  1.0
  C  C64  1  0.67736000  0.99287000  0.73060000  1.0
  C  C65  1  0.72688000  0.94600000  0.68557000  1.0
  C  C66  1  0.70601000  0.83556000  0.67458000  1.0
  C  C67  1  0.63501000  0.77780000  0.71056000  1.0
  C  C68  1  0.58835000  0.83048000  0.75493000  1.0
  C  C69  1  0.75128000  0.77889000  0.62223000  1.0
  C  C70  1  0.70470000  0.75279000  0.52696000  1.0
  C  C71  1  0.60162000  0.64281000  0.47681000  1.0
  C  C72  1  0.60431000  0.54636000  0.43425000  1.0
  C  C73  1  0.50490000  0.44518000  0.39357000  1.0
  C  C74  1  0.40151000  0.52799000  0.43464000  1.0
  C  C75  1  0.49686000  0.63198000  0.47629000  1.0
  C  C76  1  0.58266000  0.84882000  0.00231000  1.0
  C  C77  1  0.52637000  0.75173000  0.01792000  1.0
  C  C78  1  0.58033000  0.73300000  0.08462000  1.0
  C  C79  1  0.69064000  0.81125000  0.13618000  1.0
  C  C80  1  0.74867000  0.90829000  0.12090000  1.0
  C  C81  1  0.69413000  0.92652000  0.05382000  1.0
  C  C82  1  0.52185000  0.86793000  0.93061000  1.0
  C  C83  1  0.86909000  0.98973000  0.17650000  1.0
  C  C84  1  0.05310000  0.73761000  0.73045000  1.0
  C  C85  1  0.95859000  0.73949000  0.68535000  1.0
  C  C86  1  0.96854000  0.83900000  0.67443000  1.0
  C  C87  1  0.07556000  0.93269000  0.71046000  1.0
  C  C88  1  0.16652000  0.92432000  0.75486000  1.0
  C  C89  1  0.87097000  0.84353000  0.62218000  1.0
  C  C90  1  0.82212000  0.77439000  0.52691000  1.0
  C  C91  1  0.87506000  0.83420000  0.47675000  1.0
  C  C92  1  0.82983000  0.88811000  0.43420000  1.0
  C  C93  1  0.88859000  0.94862000  0.39354000  1.0
  C  C94  1  0.03298000  0.90676000  0.43458000  1.0
  C  C95  1  0.97925000  0.84441000  0.47621000  1.0
  C  C96  1  0.41957000  0.15335000  0.00217000  1.0
  C  C97  1  0.49146000  0.26605000  0.01778000  1.0
  C  C98  1  0.50423000  0.35145000  0.08452000  1.0
  C  C99  1  0.44550000  0.32473000  0.13609000  1.0
  C  C100  1  0.37216000  0.21241000  0.12078000  1.0
  C  C101  1  0.35961000  0.12712000  0.05368000  1.0
  C  C102  1  0.40878000  0.06259000  0.93049000  1.0
  C  C103  1  0.30737000  0.18668000  0.17642000  1.0
  C  C104  1  0.24287000  0.42736000  0.23060000  1.0
  C  C105  1  0.19601000  0.47688000  0.18557000  1.0
  C  C106  1  0.08556000  0.45601000  0.17458000  1.0
  C  C107  1  0.02780000  0.38501000  0.21056000  1.0
  C  C108  1  0.08048000  0.33835000  0.25493000  1.0
  C  C109  1  0.02889000  0.50128000  0.12223000  1.0
  C  C110  1  0.00279000  0.45471000  0.02696000  1.0
  C  C111  1  0.89281000  0.35162000  0.97681000  1.0
  C  C112  1  0.79636000  0.35431000  0.93425000  1.0
  C  C113  1  0.69518000  0.25490000  0.89357000  1.0
  C  C114  1  0.77799000  0.15151000  0.93464000  1.0
  C  C115  1  0.88198000  0.24686000  0.97629000  1.0
  C  C116  1  0.09882000  0.33266000  0.50231000  1.0
  C  C117  1  0.00173000  0.27637000  0.51792000  1.0
  C  C118  1  0.98300000  0.33033000  0.58462000  1.0
  C  C119  1  0.06125000  0.44064000  0.63618000  1.0
  C  C120  1  0.15829000  0.49867000  0.62090000  1.0
  C  C121  1  0.17652000  0.44413000  0.55382000  1.0
  C  C122  1  0.11793000  0.27184000  0.43061000  1.0
  C  C123  1  0.23973000  0.61908000  0.67650000  1.0
  C  C124  1  0.98761000  0.80310000  0.23045000  1.0
  C  C125  1  0.98949000  0.70859000  0.18535000  1.0
  C  C126  1  0.08900000  0.71855000  0.17443000  1.0
  C  C127  1  0.18269000  0.82556000  0.21046000  1.0
  C  C128  1  0.17432000  0.91652000  0.25486000  1.0
  C  C129  1  0.09353000  0.62097000  0.12218000  1.0
  C  C130  1  0.02439000  0.57212000  0.02691000  1.0
  C  C131  1  0.08420000  0.62506000  0.97675000  1.0
  C  C132  1  0.13811000  0.57983000  0.93420000  1.0
  C  C133  1  0.19861000  0.63858000  0.89353000  1.0
  C  C134  1  0.15676000  0.78298000  0.93458000  1.0
  C  C135  1  0.09442000  0.72925000  0.97621000  1.0
  C  C136  1  0.40336000  0.16959000  0.50218000  1.0
  C  C137  1  0.51606000  0.24147000  0.51779000  1.0
  C  C138  1  0.60146000  0.25424000  0.58453000  1.0
  C  C139  1  0.57473000  0.19551000  0.63609000  1.0
  C  C140  1  0.46242000  0.12217000  0.62079000  1.0
  C  C141  1  0.37712000  0.10961000  0.55368000  1.0
  C  C142  1  0.31260000  0.15878000  0.43049000  1.0
  C  C143  1  0.43668000  0.05738000  0.67642000  1.0
  N  N144  1  0.60911000  0.93649000  0.76493000  1.0
  N  N145  1  0.40520000  0.43610000  0.39351000  1.0
  N  N146  1  0.15570000  0.82828000  0.76484000  1.0
  N  N147  1  0.98822000  0.95757000  0.39349000  1.0
  N  N148  1  0.18649000  0.35911000  0.26493000  1.0
  N  N149  1  0.68610000  0.15520000  0.89351000  1.0
  N  N150  1  0.07828000  0.90570000  0.26484000  1.0
  N  N151  1  0.20758000  0.73821000  0.89349000  1.0
  O  O152  1  0.57525000  0.95948000  0.92109000  1.0
  O  O153  1  0.42255000  0.79069000  0.88482000  1.0
  O  O154  1  0.92708000  0.06983000  0.15745000  1.0
  O  O155  1  0.90447000  0.96891000  0.24027000  1.0
  O  O156  1  0.34580000  0.96151000  0.92093000  1.0
  O  O157  1  0.46243000  0.09408000  0.88479000  1.0
  O  O158  1  0.23039000  0.08752000  0.15746000  1.0
  O  O159  1  0.33567000  0.27135000  0.24010000  1.0
  O  O160  1  0.20948000  0.32525000  0.42109000  1.0
  O  O161  1  0.04068000  0.17254000  0.38482000  1.0
  O  O162  1  0.31983000  0.67707000  0.65745000  1.0
  O  O163  1  0.21891000  0.65447000  0.74027000  1.0
  O  O164  1  0.21152000  0.09580000  0.42093000  1.0
  O  O165  1  0.34409000  0.21244000  0.38480000  1.0
  O  O166  1  0.33752000  0.98040000  0.65746000  1.0
  O  O167  1  0.52135000  0.08567000  0.74010000  1.0
  O  O168  1  0.37594000  0.87595000  0.75187000  1.0
  O  O169  1  0.12595000  0.12594000  0.25187000  1.0
