# generated using pymatgen
data_CuH8C14N5
_symmetry_space_group_name_H-M   'P 1'
_cell_length_a   7.65036000
_cell_length_b   17.85460000
_cell_length_c   20.29040000
_cell_angle_alpha   90.00040000
_cell_angle_beta   90.00050000
_cell_angle_gamma   89.99950000
_symmetry_Int_Tables_number   1
_chemical_formula_structural   CuH8C14N5
_chemical_formula_sum   'Cu8 H64 C112 N40'
_cell_volume   2771.54928461
_cell_formula_units_Z   8
loop_
 _symmetry_equiv_pos_site_id
 _symmetry_equiv_pos_as_xyz
  1  'x, y, z'
loop_
 _atom_site_type_symbol
 _atom_site_label
 _atom_site_symmetry_multiplicity
 _atom_site_fract_x
 _atom_site_fract_y
 _atom_site_fract_z
 _atom_site_occupancy
  Cu  Cu0  1  0.95218000  0.10052000  0.91711000  1.0
  Cu  Cu1  1  0.04779000  0.39948000  0.41711000  1.0
  Cu  Cu2  1  0.45220000  0.89947000  0.58289000  1.0
  Cu  Cu3  1  0.54781000  0.60052000  0.08289000  1.0
  Cu  Cu4  1  0.04780000  0.89948000  0.08289000  1.0
  Cu  Cu5  1  0.95220000  0.60052000  0.58290000  1.0
  Cu  Cu6  1  0.54780000  0.10053000  0.41711000  1.0
  Cu  Cu7  1  0.45220000  0.39948000  0.91710000  1.0
  H  H8  1  0.02999000  0.12980000  0.77125000  1.0
  H  H9  1  0.97001000  0.37020000  0.27124000  1.0
  H  H10  1  0.52999000  0.87019000  0.72875000  1.0
  H  H11  1  0.47002000  0.62980000  0.22876000  1.0
  H  H12  1  0.97001000  0.87020000  0.22876000  1.0
  H  H13  1  0.02998000  0.62980000  0.72876000  1.0
  H  H14  1  0.47002000  0.12981000  0.27125000  1.0
  H  H15  1  0.52998000  0.37020000  0.77124000  1.0
  H  H16  1  0.04137000  0.23668000  0.69689000  1.0
  H  H17  1  0.95864000  0.26332000  0.19688000  1.0
  H  H18  1  0.54136000  0.76331000  0.80311000  1.0
  H  H19  1  0.45864000  0.73668000  0.30312000  1.0
  H  H20  1  0.95863000  0.76332000  0.30312000  1.0
  H  H21  1  0.04136000  0.73669000  0.80311000  1.0
  H  H22  1  0.45864000  0.23668000  0.19688000  1.0
  H  H23  1  0.54136000  0.26331000  0.69688000  1.0
  H  H24  1  0.88801000  0.26304000  0.93043000  1.0
  H  H25  1  0.11196000  0.23696000  0.43043000  1.0
  H  H26  1  0.38804000  0.73695000  0.56956000  1.0
  H  H27  1  0.61197000  0.76304000  0.06957000  1.0
  H  H28  1  0.11198000  0.73696000  0.06957000  1.0
  H  H29  1  0.88805000  0.76304000  0.56956000  1.0
  H  H30  1  0.61194000  0.26305000  0.43044000  1.0
  H  H31  1  0.38804000  0.23696000  0.93043000  1.0
  H  H32  1  0.90187000  0.37804000  0.86248000  1.0
  H  H33  1  0.09811000  0.12196000  0.36248000  1.0
  H  H34  1  0.40189000  0.62195000  0.63752000  1.0
  H  H35  1  0.59812000  0.87804000  0.13752000  1.0
  H  H36  1  0.09813000  0.62196000  0.13753000  1.0
  H  H37  1  0.90190000  0.87804000  0.63752000  1.0
  H  H38  1  0.59809000  0.37805000  0.36248000  1.0
  H  H39  1  0.40190000  0.12196000  0.86248000  1.0
  H  H40  1  0.78653000  0.44892000  0.78756000  1.0
  H  H41  1  0.21347000  0.05107000  0.28757000  1.0
  H  H42  1  0.28654000  0.55108000  0.71243000  1.0
  H  H43  1  0.71347000  0.94892000  0.21244000  1.0
  H  H44  1  0.21347000  0.55108000  0.21244000  1.0
  H  H45  1  0.78653000  0.94892000  0.71243000  1.0
  H  H46  1  0.71347000  0.44892000  0.28756000  1.0
  H  H47  1  0.28654000  0.05108000  0.78757000  1.0
  H  H48  1  0.77964000  0.55494000  0.70998000  1.0
  H  H49  1  0.22036000  0.94505000  0.20997000  1.0
  H  H50  1  0.27964000  0.44506000  0.79002000  1.0
  H  H51  1  0.72036000  0.05495000  0.29002000  1.0
  H  H52  1  0.22035000  0.44506000  0.29003000  1.0
  H  H53  1  0.77964000  0.05494000  0.79002000  1.0
  H  H54  1  0.72036000  0.55494000  0.20997000  1.0
  H  H55  1  0.27964000  0.94506000  0.70998000  1.0
  H  H56  1  0.15812000  0.34165000  0.65701000  1.0
  H  H57  1  0.84189000  0.15834000  0.15700000  1.0
  H  H58  1  0.65811000  0.65834000  0.84299000  1.0
  H  H59  1  0.34188000  0.84166000  0.34299000  1.0
  H  H60  1  0.84187000  0.65835000  0.34300000  1.0
  H  H61  1  0.15811000  0.84166000  0.84299000  1.0
  H  H62  1  0.34188000  0.34166000  0.15700000  1.0
  H  H63  1  0.65812000  0.15834000  0.65701000  1.0
  H  H64  1  0.13568000  0.45339000  0.58479000  1.0
  H  H65  1  0.86433000  0.04661000  0.08479000  1.0
  H  H66  1  0.63567000  0.54661000  0.91521000  1.0
  H  H67  1  0.36433000  0.95339000  0.41521000  1.0
  H  H68  1  0.86431000  0.54661000  0.41521000  1.0
  H  H69  1  0.13566000  0.95339000  0.91521000  1.0
  H  H70  1  0.36433000  0.45339000  0.08479000  1.0
  H  H71  1  0.63567000  0.04661000  0.58479000  1.0
  C  C72  1  0.45267000  0.09566000  0.03094000  1.0
  C  C73  1  0.54732000  0.40433000  0.53094000  1.0
  C  C74  1  0.95268000  0.90434000  0.46906000  1.0
  C  C75  1  0.04732000  0.59566000  0.96906000  1.0
  C  C76  1  0.54732000  0.90435000  0.96906000  1.0
  C  C77  1  0.45267000  0.59566000  0.46906000  1.0
  C  C78  1  0.04732000  0.09566000  0.53094000  1.0
  C  C79  1  0.95268000  0.40435000  0.03094000  1.0
  C  C80  1  0.29210000  0.09514000  0.99823000  1.0
  C  C81  1  0.70789000  0.40485000  0.49823000  1.0
  C  C82  1  0.79212000  0.90485000  0.50177000  1.0
  C  C83  1  0.20789000  0.59515000  0.00177000  1.0
  C  C84  1  0.70788000  0.90486000  0.00177000  1.0
  C  C85  1  0.29211000  0.59514000  0.50177000  1.0
  C  C86  1  0.20789000  0.09515000  0.49823000  1.0
  C  C87  1  0.79211000  0.40486000  0.99823000  1.0
  C  C88  1  0.60708000  0.10048000  0.99437000  1.0
  C  C89  1  0.39291000  0.39952000  0.49437000  1.0
  C  C90  1  0.10710000  0.89951000  0.50563000  1.0
  C  C91  1  0.89291000  0.60048000  0.00563000  1.0
  C  C92  1  0.39291000  0.89952000  0.00563000  1.0
  C  C93  1  0.60709000  0.60048000  0.50563000  1.0
  C  C94  1  0.89291000  0.10048000  0.49437000  1.0
  C  C95  1  0.10709000  0.39952000  0.99437000  1.0
  C  C96  1  0.46369000  0.09071000  0.09999000  1.0
  C  C97  1  0.53631000  0.40928000  0.59999000  1.0
  C  C98  1  0.96369000  0.90929000  0.40001000  1.0
  C  C99  1  0.03631000  0.59072000  0.90001000  1.0
  C  C100  1  0.53631000  0.90930000  0.90001000  1.0
  C  C101  1  0.46368000  0.59071000  0.40001000  1.0
  C  C102  1  0.03631000  0.09071000  0.59999000  1.0
  C  C103  1  0.96370000  0.40930000  0.09999000  1.0
  C  C104  1  0.00298000  0.18546000  0.79064000  1.0
  C  C105  1  0.99701000  0.31454000  0.29064000  1.0
  C  C106  1  0.50299000  0.81454000  0.70936000  1.0
  C  C107  1  0.49702000  0.68546000  0.20936000  1.0
  C  C108  1  0.99702000  0.81454000  0.20937000  1.0
  C  C109  1  0.00298000  0.68546000  0.70936000  1.0
  C  C110  1  0.49701000  0.18546000  0.29064000  1.0
  C  C111  1  0.50298000  0.31454000  0.79063000  1.0
  C  C112  1  0.01061000  0.24663000  0.74857000  1.0
  C  C113  1  0.98940000  0.25336000  0.24857000  1.0
  C  C114  1  0.51060000  0.75336000  0.75143000  1.0
  C  C115  1  0.48940000  0.74664000  0.25144000  1.0
  C  C116  1  0.98940000  0.75337000  0.25144000  1.0
  C  C117  1  0.01060000  0.74664000  0.75143000  1.0
  C  C118  1  0.48940000  0.24664000  0.24857000  1.0
  C  C119  1  0.51060000  0.25336000  0.74856000  1.0
  C  C120  1  0.92382000  0.25996000  0.87848000  1.0
  C  C121  1  0.07616000  0.24004000  0.37848000  1.0
  C  C122  1  0.42384000  0.74004000  0.62152000  1.0
  C  C123  1  0.57617000  0.75996000  0.12152000  1.0
  C  C124  1  0.07617000  0.74004000  0.12152000  1.0
  C  C125  1  0.92385000  0.75996000  0.62152000  1.0
  C  C126  1  0.57615000  0.25997000  0.37848000  1.0
  C  C127  1  0.42384000  0.24004000  0.87848000  1.0
  C  C128  1  0.93033000  0.32408000  0.83989000  1.0
  C  C129  1  0.06966000  0.17592000  0.33989000  1.0
  C  C130  1  0.43035000  0.67592000  0.66011000  1.0
  C  C131  1  0.56966000  0.82408000  0.16011000  1.0
  C  C132  1  0.06966000  0.67592000  0.16011000  1.0
  C  C133  1  0.93035000  0.82408000  0.66010000  1.0
  C  C134  1  0.56964000  0.32408000  0.33989000  1.0
  C  C135  1  0.43036000  0.17592000  0.83989000  1.0
  C  C136  1  0.97324000  0.31849000  0.77274000  1.0
  C  C137  1  0.02675000  0.18151000  0.27274000  1.0
  C  C138  1  0.47325000  0.68151000  0.72726000  1.0
  C  C139  1  0.52676000  0.81849000  0.22726000  1.0
  C  C140  1  0.02675000  0.68151000  0.22727000  1.0
  C  C141  1  0.97325000  0.81849000  0.72726000  1.0
  C  C142  1  0.52674000  0.31849000  0.27274000  1.0
  C  C143  1  0.47325000  0.18151000  0.77273000  1.0
  C  C144  1  0.97177000  0.38446000  0.72911000  1.0
  C  C145  1  0.02824000  0.11553000  0.22911000  1.0
  C  C146  1  0.47177000  0.61554000  0.77089000  1.0
  C  C147  1  0.52822000  0.88446000  0.27090000  1.0
  C  C148  1  0.02822000  0.61554000  0.27090000  1.0
  C  C149  1  0.97177000  0.88446000  0.77089000  1.0
  C  C150  1  0.52823000  0.38446000  0.22910000  1.0
  C  C151  1  0.47178000  0.11553000  0.72911000  1.0
  C  C152  1  0.86761000  0.44692000  0.74353000  1.0
  C  C153  1  0.13239000  0.05308000  0.24353000  1.0
  C  C154  1  0.36761000  0.55308000  0.75647000  1.0
  C  C155  1  0.63239000  0.94692000  0.25647000  1.0
  C  C156  1  0.13239000  0.55308000  0.25647000  1.0
  C  C157  1  0.86761000  0.94692000  0.75646000  1.0
  C  C158  1  0.63239000  0.44692000  0.24353000  1.0
  C  C159  1  0.36761000  0.05308000  0.74353000  1.0
  C  C160  1  0.86317000  0.50686000  0.70011000  1.0
  C  C161  1  0.13683000  0.99314000  0.20011000  1.0
  C  C162  1  0.36317000  0.49314000  0.79989000  1.0
  C  C163  1  0.63682000  0.00686000  0.29989000  1.0
  C  C164  1  0.13682000  0.49314000  0.29989000  1.0
  C  C165  1  0.86316000  0.00686000  0.79988000  1.0
  C  C166  1  0.63683000  0.50686000  0.20011000  1.0
  C  C167  1  0.36317000  0.99314000  0.70011000  1.0
  C  C168  1  0.07030000  0.38713000  0.67062000  1.0
  C  C169  1  0.92971000  0.11287000  0.17061000  1.0
  C  C170  1  0.57030000  0.61287000  0.82939000  1.0
  C  C171  1  0.42970000  0.88713000  0.32939000  1.0
  C  C172  1  0.92969000  0.61287000  0.32939000  1.0
  C  C173  1  0.07030000  0.88713000  0.82939000  1.0
  C  C174  1  0.42970000  0.38713000  0.17061000  1.0
  C  C175  1  0.57030000  0.11287000  0.67061000  1.0
  C  C176  1  0.06026000  0.44969000  0.63025000  1.0
  C  C177  1  0.93976000  0.05030000  0.13025000  1.0
  C  C178  1  0.56025000  0.55030000  0.86975000  1.0
  C  C179  1  0.43975000  0.94970000  0.36975000  1.0
  C  C180  1  0.93974000  0.55030000  0.36975000  1.0
  C  C181  1  0.06024000  0.94970000  0.86975000  1.0
  C  C182  1  0.43975000  0.44970000  0.13025000  1.0
  C  C183  1  0.56025000  0.05029000  0.63025000  1.0
  N  N184  1  0.16020000  0.09582000  0.96858000  1.0
  N  N185  1  0.83979000  0.40418000  0.46858000  1.0
  N  N186  1  0.66021000  0.90418000  0.53143000  1.0
  N  N187  1  0.33980000  0.59582000  0.03142000  1.0
  N  N188  1  0.83979000  0.90418000  0.03142000  1.0
  N  N189  1  0.16020000  0.59581000  0.53143000  1.0
  N  N190  1  0.33980000  0.09582000  0.46858000  1.0
  N  N191  1  0.66020000  0.40419000  0.96858000  1.0
  N  N192  1  0.73815000  0.10441000  0.96441000  1.0
  N  N193  1  0.26185000  0.39559000  0.46441000  1.0
  N  N194  1  0.23817000  0.89559000  0.53559000  1.0
  N  N195  1  0.76184000  0.60441000  0.03559000  1.0
  N  N196  1  0.26184000  0.89559000  0.03559000  1.0
  N  N197  1  0.73816000  0.60441000  0.53559000  1.0
  N  N198  1  0.76184000  0.10441000  0.46441000  1.0
  N  N199  1  0.23816000  0.39559000  0.96441000  1.0
  N  N200  1  0.47915000  0.08695000  0.15747000  1.0
  N  N201  1  0.52085000  0.41305000  0.65747000  1.0
  N  N202  1  0.97916000  0.91306000  0.34253000  1.0
  N  N203  1  0.02085000  0.58695000  0.84253000  1.0
  N  N204  1  0.52085000  0.91306000  0.84253000  1.0
  N  N205  1  0.47915000  0.58695000  0.34253000  1.0
  N  N206  1  0.02085000  0.08695000  0.65747000  1.0
  N  N207  1  0.97916000  0.41306000  0.15747000  1.0
  N  N208  1  0.95935000  0.19095000  0.85485000  1.0
  N  N209  1  0.04064000  0.30905000  0.35486000  1.0
  N  N210  1  0.45936000  0.80905000  0.64515000  1.0
  N  N211  1  0.54065000  0.69095000  0.14515000  1.0
  N  N212  1  0.04065000  0.80905000  0.14515000  1.0
  N  N213  1  0.95936000  0.69095000  0.64514000  1.0
  N  N214  1  0.54064000  0.19095000  0.35486000  1.0
  N  N215  1  0.45935000  0.30905000  0.85485000  1.0
  N  N216  1  0.95796000  0.50932000  0.64421000  1.0
  N  N217  1  0.04205000  0.99068000  0.14420000  1.0
  N  N218  1  0.45795000  0.49069000  0.85580000  1.0
  N  N219  1  0.54205000  0.00932000  0.35580000  1.0
  N  N220  1  0.04204000  0.49068000  0.35580000  1.0
  N  N221  1  0.95795000  0.00931000  0.85580000  1.0
  N  N222  1  0.54205000  0.50931000  0.14420000  1.0
  N  N223  1  0.45795000  0.99068000  0.64420000  1.0
