# generated using pymatgen
data_AgH4C16(N2Cl)4
_symmetry_space_group_name_H-M   'P 1'
_cell_length_a   3.75475000
_cell_length_b   15.80755012
_cell_length_c   15.81040000
_cell_angle_alpha   89.16896372
_cell_angle_beta   83.16730000
_cell_angle_gamma   83.19072363
_symmetry_Int_Tables_number   1
_chemical_formula_structural   AgH4C16(N2Cl)4
_chemical_formula_sum   'Ag2 H8 C32 N16 Cl8'
_cell_volume   925.16399775
_cell_formula_units_Z   2
loop_
 _symmetry_equiv_pos_site_id
 _symmetry_equiv_pos_as_xyz
  1  'x, y, z'
loop_
 _atom_site_type_symbol
 _atom_site_label
 _atom_site_symmetry_multiplicity
 _atom_site_fract_x
 _atom_site_fract_y
 _atom_site_fract_z
 _atom_site_occupancy
  Ag  Ag0  1  0.87602000  0.24963000  0.25016000  1.0
  Ag  Ag1  1  0.12397000  0.75037000  0.74984000  1.0
  H  H2  1  0.13996000  0.13947000  0.43625000  1.0
  H  H3  1  0.27953000  0.93638000  0.86054000  1.0
  H  H4  1  0.21637000  0.36039000  0.06348000  1.0
  H  H5  1  0.57703000  0.56345000  0.63951000  1.0
  H  H6  1  0.86005000  0.86053000  0.56375000  1.0
  H  H7  1  0.72047000  0.06362000  0.13946000  1.0
  H  H8  1  0.78364000  0.63960000  0.93651000  1.0
  H  H9  1  0.42298000  0.43655000  0.36049000  1.0
  C  C10  1  0.57444000  0.06745000  0.31394000  1.0
  C  C11  1  0.64292000  0.81418000  0.93256000  1.0
  C  C12  1  0.45655000  0.43242000  0.18591000  1.0
  C  C13  1  0.88937000  0.68592000  0.56744000  1.0
  C  C14  1  0.42556000  0.93255000  0.68606000  1.0
  C  C15  1  0.35707000  0.18582000  0.06744000  1.0
  C  C16  1  0.54345000  0.56757000  0.81409000  1.0
  C  C17  1  0.11062000  0.31409000  0.43256000  1.0
  C  C18  1  0.24445000  0.00187000  0.42380000  1.0
  C  C19  1  0.24622000  0.92381000  0.99813000  1.0
  C  C20  1  0.16993000  0.49801000  0.07618000  1.0
  C  C21  1  0.66811000  0.57619000  0.50193000  1.0
  C  C22  1  0.75555000  0.99813000  0.57620000  1.0
  C  C23  1  0.75378000  0.07619000  0.00187000  1.0
  C  C24  1  0.83006000  0.50199000  0.92382000  1.0
  C  C25  1  0.33190000  0.42381000  0.49807000  1.0
  C  C26  1  0.07792000  0.07905000  0.46503000  1.0
  C  C27  1  0.15715000  0.96516000  0.92095000  1.0
  C  C28  1  0.12260000  0.42083000  0.03475000  1.0
  C  C29  1  0.54366000  0.53474000  0.57910000  1.0
  C  C30  1  0.92208000  0.92095000  0.53497000  1.0
  C  C31  1  0.84286000  0.03484000  0.07905000  1.0
  C  C32  1  0.87741000  0.57917000  0.96524000  1.0
  C  C33  1  0.45634000  0.46526000  0.42090000  1.0
  C  C34  1  0.15517000  0.92176000  0.46160000  1.0
  C  C35  1  0.07675000  0.96150000  0.07828000  1.0
  C  C36  1  0.03830000  0.57825000  0.03853000  1.0
  C  C37  1  0.61622000  0.53859000  0.42176000  1.0
  C  C38  1  0.84482000  0.07825000  0.53840000  1.0
  C  C39  1  0.92323000  0.03850000  0.92172000  1.0
  C  C40  1  0.96170000  0.42175000  0.96147000  1.0
  C  C41  1  0.38379000  0.46141000  0.57824000  1.0
  N  N42  1  0.67869000  0.12251000  0.26957000  1.0
  N  N43  1  0.80468000  0.77010000  0.87764000  1.0
  N  N44  1  0.57510000  0.37749000  0.22986000  1.0
  N  N45  1  0.95217000  0.72994000  0.62238000  1.0
  N  N46  1  0.32131000  0.87749000  0.73043000  1.0
  N  N47  1  0.19532000  0.22990000  0.12236000  1.0
  N  N48  1  0.42489000  0.62250000  0.77014000  1.0
  N  N49  1  0.04783000  0.27006000  0.37762000  1.0
  N  N50  1  0.48168000  0.99993000  0.35374000  1.0
  N  N51  1  0.48126000  0.85376000  0.00006000  1.0
  N  N52  1  0.33391000  0.49993000  0.14634000  1.0
  N  N53  1  0.83445000  0.64636000  0.49996000  1.0
  N  N54  1  0.51832000  0.00007000  0.64626000  1.0
  N  N55  1  0.51873000  0.14624000  0.99995000  1.0
  N  N56  1  0.66609000  0.50006000  0.85366000  1.0
  N  N57  1  0.16556000  0.35364000  0.50004000  1.0
  Cl  Cl58  1  0.34317000  0.82856000  0.41258000  1.0
  Cl  Cl59  1  0.17170000  0.91245000  0.17146000  1.0
  Cl  Cl60  1  0.08410000  0.67132000  0.08773000  1.0
  Cl  Cl61  1  0.75484000  0.58785000  0.32865000  1.0
  Cl  Cl62  1  0.65683000  0.17144000  0.58742000  1.0
  Cl  Cl63  1  0.82830000  0.08755000  0.82854000  1.0
  Cl  Cl64  1  0.91591000  0.32868000  0.91227000  1.0
  Cl  Cl65  1  0.24517000  0.41215000  0.67135000  1.0
