# generated using pymatgen
data_NdH19C21NO8
_symmetry_space_group_name_H-M   'P 1'
_cell_length_a   12.22370000
_cell_length_b   12.22390000
_cell_length_c   18.32190000
_cell_angle_alpha   103.60500000
_cell_angle_beta   107.04400000
_cell_angle_gamma   101.97100000
_symmetry_Int_Tables_number   1
_chemical_formula_structural   NdH19C21NO8
_chemical_formula_sum   'Nd4 H76 C84 N4 O32'
_cell_volume   2428.88742586
_cell_formula_units_Z   4
loop_
 _symmetry_equiv_pos_site_id
 _symmetry_equiv_pos_as_xyz
  1  'x, y, z'
loop_
 _atom_site_type_symbol
 _atom_site_label
 _atom_site_symmetry_multiplicity
 _atom_site_fract_x
 _atom_site_fract_y
 _atom_site_fract_z
 _atom_site_occupancy
  Nd  Nd0  1  0.39496000  0.32657000  0.98469000  1.0
  Nd  Nd1  1  0.84202000  0.41021000  0.51525000  1.0
  Nd  Nd2  1  0.60504000  0.67343000  0.01531000  1.0
  Nd  Nd3  1  0.15798000  0.58979000  0.48475000  1.0
  H  H4  1  0.32093000  0.49320000  0.88388000  1.0
  H  H5  1  0.10942000  0.43698000  0.61599000  1.0
  H  H6  1  0.67907000  0.50680000  0.11611000  1.0
  H  H7  1  0.89058000  0.56302000  0.38401000  1.0
  H  H8  1  0.19780000  0.39726000  0.86994000  1.0
  H  H9  1  0.02757000  0.32792000  0.63019000  1.0
  H  H10  1  0.80220000  0.60274000  0.13006000  1.0
  H  H11  1  0.97243000  0.67208000  0.36981000  1.0
  H  H12  1  0.25913000  0.66192000  0.00824000  1.0
  H  H13  1  0.15397000  0.25073000  0.49180000  1.0
  H  H14  1  0.74087000  0.33807000  0.99176000  1.0
  H  H15  1  0.84603000  0.74928000  0.50820000  1.0
  H  H16  1  0.20068000  0.83812000  0.05941000  1.0
  H  H17  1  0.27873000  0.14080000  0.44050000  1.0
  H  H18  1  0.79931000  0.16187000  0.94059000  1.0
  H  H19  1  0.72126000  0.85920000  0.55950000  1.0
  H  H20  1  0.25775000  0.92906000  0.20779000  1.0
  H  H21  1  0.22112000  0.04933000  0.29211000  1.0
  H  H22  1  0.74225000  0.07094000  0.79220000  1.0
  H  H23  1  0.77887000  0.95067000  0.70790000  1.0
  H  H24  1  0.37799000  0.84615000  0.30268000  1.0
  H  H25  1  0.04349000  0.07502000  0.19732000  1.0
  H  H26  1  0.62201000  0.15384000  0.69732000  1.0
  H  H27  1  0.95651000  0.92499000  0.80268000  1.0
  H  H28  1  0.57770000  0.64007000  0.19526000  1.0
  H  H29  1  0.94524000  0.38255000  0.30457000  1.0
  H  H30  1  0.42230000  0.35993000  0.80474000  1.0
  H  H31  1  0.05476000  0.61746000  0.69543000  1.0
  H  H32  1  0.70387000  0.55344000  0.28181000  1.0
  H  H33  1  0.77219000  0.42225000  0.21800000  1.0
  H  H34  1  0.29614000  0.44656000  0.71819000  1.0
  H  H35  1  0.22781000  0.57775000  0.78200000  1.0
  H  H36  1  0.51536000  0.60537000  0.44583000  1.0
  H  H37  1  0.66022000  0.06977000  0.05410000  1.0
  H  H38  1  0.48464000  0.39464000  0.55417000  1.0
  H  H39  1  0.33979000  0.93024000  0.94590000  1.0
  H  H40  1  0.37877000  0.68143000  0.35415000  1.0
  H  H41  1  0.82782000  0.02479000  0.14579000  1.0
  H  H42  1  0.62123000  0.31857000  0.64585000  1.0
  H  H43  1  0.17218000  0.97521000  0.85421000  1.0
  H  H44  1  0.96496000  0.11112000  0.90186000  1.0
  H  H45  1  0.70906000  0.06320000  0.59838000  1.0
  H  H46  1  0.03504000  0.88889000  0.09814000  1.0
  H  H47  1  0.29095000  0.93681000  0.40162000  1.0
  H  H48  1  0.20843000  0.03950000  0.09309000  1.0
  H  H49  1  0.44654000  0.11565000  0.40706000  1.0
  H  H50  1  0.79157000  0.96050000  0.90692000  1.0
  H  H51  1  0.55347000  0.88436000  0.59294000  1.0
  H  H52  1  0.47707000  0.92643000  0.80203000  1.0
  H  H53  1  0.62446000  0.67476000  0.69805000  1.0
  H  H54  1  0.52293000  0.07357000  0.19797000  1.0
  H  H55  1  0.37554000  0.32524000  0.30195000  1.0
  H  H56  1  0.47234000  0.94125000  0.70627000  1.0
  H  H57  1  0.73494000  0.76571000  0.79380000  1.0
  H  H58  1  0.52766000  0.05875000  0.29373000  1.0
  H  H59  1  0.26507000  0.23428000  0.20620000  1.0
  H  H60  1  0.34477000  0.85016000  0.71405000  1.0
  H  H61  1  0.63630000  0.63020000  0.78599000  1.0
  H  H62  1  0.65523000  0.14984000  0.28595000  1.0
  H  H63  1  0.36370000  0.36980000  0.21401000  1.0
  H  H64  1  0.25622000  0.12057000  0.71445000  1.0
  H  H65  1  0.90612000  0.54139000  0.78541000  1.0
  H  H66  1  0.74378000  0.87943000  0.28555000  1.0
  H  H67  1  0.09388000  0.45861000  0.21460000  1.0
  H  H68  1  0.22496000  0.96953000  0.65442000  1.0
  H  H69  1  0.81509000  0.57015000  0.84545000  1.0
  H  H70  1  0.77504000  0.03047000  0.34558000  1.0
  H  H71  1  0.18491000  0.42986000  0.15455000  1.0
  H  H72  1  0.34649000  0.08277000  0.65696000  1.0
  H  H73  1  0.92594000  0.68908000  0.84301000  1.0
  H  H74  1  0.65351000  0.91723000  0.34303000  1.0
  H  H75  1  0.07406000  0.31092000  0.15699000  1.0
  H  H76  1  0.46378000  0.07663000  0.88314000  1.0
  H  H77  1  0.69389000  0.58089000  0.61684000  1.0
  H  H78  1  0.53622000  0.92336000  0.11685000  1.0
  H  H79  1  0.30611000  0.41909000  0.38316000  1.0
  C  C80  1  0.37712000  0.54486000  0.08812000  1.0
  C  C81  1  0.95692000  0.28893000  0.41186000  1.0
  C  C82  1  0.62288000  0.45513000  0.91188000  1.0
  C  C83  1  0.04308000  0.71107000  0.58814000  1.0
  C  C84  1  0.35059000  0.65407000  0.12590000  1.0
  C  C85  1  0.02841000  0.22459000  0.37415000  1.0
  C  C86  1  0.64941000  0.34593000  0.87410000  1.0
  C  C87  1  0.97159000  0.77541000  0.62586000  1.0
  C  C88  1  0.28457000  0.70242000  0.07283000  1.0
  C  C89  1  0.12980000  0.21155000  0.42718000  1.0
  C  C90  1  0.71542000  0.29757000  0.92717000  1.0
  C  C91  1  0.87020000  0.78845000  0.57282000  1.0
  C  C92  1  0.25102000  0.80109000  0.10172000  1.0
  C  C93  1  0.19945000  0.14895000  0.39824000  1.0
  C  C94  1  0.74897000  0.19890000  0.89827000  1.0
  C  C95  1  0.80055000  0.85105000  0.60176000  1.0
  C  C96  1  0.28320000  0.85141000  0.18460000  1.0
  C  C97  1  0.16679000  0.09811000  0.31536000  1.0
  C  C98  1  0.71680000  0.14858000  0.81540000  1.0
  C  C99  1  0.83320000  0.90189000  0.68464000  1.0
  C  C100  1  0.34988000  0.80427000  0.23793000  1.0
  C  C101  1  0.06638000  0.11158000  0.26206000  1.0
  C  C102  1  0.65011000  0.19572000  0.76206000  1.0
  C  C103  1  0.93362000  0.88842000  0.73794000  1.0
  C  C104  1  0.38610000  0.70581000  0.20988000  1.0
  C  C105  1  0.99617000  0.17612000  0.29015000  1.0
  C  C106  1  0.61390000  0.29419000  0.79011000  1.0
  C  C107  1  0.00383000  0.82389000  0.70986000  1.0
  C  C108  1  0.46573000  0.66253000  0.26655000  1.0
  C  C109  1  0.89643000  0.19926000  0.23342000  1.0
  C  C110  1  0.53427000  0.33747000  0.73345000  1.0
  C  C111  1  0.10358000  0.80075000  0.76658000  1.0
  C  C112  1  0.56005000  0.62852000  0.24818000  1.0
  C  C113  1  0.88079000  0.31198000  0.25168000  1.0
  C  C114  1  0.43995000  0.37148000  0.75182000  1.0
  C  C115  1  0.11921000  0.68803000  0.74832000  1.0
  C  C116  1  0.63373000  0.58313000  0.29812000  1.0
  C  C117  1  0.78552000  0.33576000  0.20173000  1.0
  C  C118  1  0.36627000  0.41687000  0.70188000  1.0
  C  C119  1  0.21448000  0.66424000  0.79827000  1.0
  C  C120  1  0.61788000  0.57367000  0.36926000  1.0
  C  C121  1  0.70490000  0.24880000  0.13063000  1.0
  C  C122  1  0.38213000  0.42633000  0.63074000  1.0
  C  C123  1  0.29510000  0.75120000  0.86937000  1.0
  C  C124  1  0.52729000  0.61218000  0.39016000  1.0
  C  C125  1  0.72264000  0.13735000  0.10975000  1.0
  C  C126  1  0.47271000  0.38782000  0.60984000  1.0
  C  C127  1  0.27736000  0.86265000  0.89025000  1.0
  C  C128  1  0.45163000  0.65554000  0.33904000  1.0
  C  C129  1  0.81705000  0.11277000  0.16090000  1.0
  C  C130  1  0.54837000  0.34446000  0.66096000  1.0
  C  C131  1  0.18296000  0.88723000  0.83910000  1.0
  C  C132  1  0.69637000  0.52192000  0.42060000  1.0
  C  C133  1  0.60161000  0.27581000  0.07936000  1.0
  C  C134  1  0.30363000  0.47809000  0.57940000  1.0
  C  C135  1  0.39839000  0.72418000  0.92064000  1.0
  C  C136  1  0.97851000  0.06142000  0.94428000  1.0
  C  C137  1  0.61701000  0.03431000  0.55587000  1.0
  C  C138  1  0.02150000  0.93859000  0.05572000  1.0
  C  C139  1  0.38299000  0.96571000  0.44413000  1.0
  C  C140  1  0.09525000  0.08269000  0.99731000  1.0
  C  C141  1  0.58533000  0.09818000  0.50290000  1.0
  C  C142  1  0.90475000  0.91732000  0.00269000  1.0
  C  C143  1  0.41468000  0.90184000  0.49711000  1.0
  C  C144  1  0.11633000  0.02111000  0.05304000  1.0
  C  C145  1  0.46814000  0.06345000  0.44704000  1.0
  C  C146  1  0.88367000  0.97889000  0.94696000  1.0
  C  C147  1  0.53186000  0.93657000  0.55297000  1.0
  C  C148  1  0.19800000  0.16885000  0.99344000  1.0
  C  C149  1  0.67535000  0.20485000  0.50683000  1.0
  C  C150  1  0.80201000  0.83115000  0.00656000  1.0
  C  C151  1  0.32465000  0.79516000  0.49318000  1.0
  C  C152  1  0.41986000  0.93162000  0.74512000  1.0
  C  C153  1  0.68660000  0.67442000  0.75492000  1.0
  C  C154  1  0.58014000  0.06838000  0.25487000  1.0
  C  C155  1  0.31340000  0.32558000  0.24508000  1.0
  C  C156  1  0.29506000  0.05254000  0.69247000  1.0
  C  C157  1  0.86014000  0.60225000  0.80744000  1.0
  C  C158  1  0.70494000  0.94746000  0.30753000  1.0
  C  C159  1  0.13986000  0.39775000  0.19256000  1.0
  C  C160  1  0.40216000  0.10040000  0.83647000  1.0
  C  C161  1  0.76430000  0.56587000  0.66349000  1.0
  C  C162  1  0.59784000  0.89959000  0.16353000  1.0
  C  C163  1  0.23570000  0.43412000  0.33651000  1.0
  N  N164  1  0.37443000  0.03232000  0.76138000  1.0
  N  N165  1  0.77115000  0.61294000  0.73858000  1.0
  N  N166  1  0.62557000  0.96768000  0.23861000  1.0
  N  N167  1  0.22885000  0.38706000  0.26142000  1.0
  O  O168  1  0.32512000  0.44558000  0.08991000  1.0
  O  O169  1  0.85570000  0.23522000  0.40993000  1.0
  O  O170  1  0.67489000  0.55442000  0.91008000  1.0
  O  O171  1  0.14429000  0.76478000  0.59006000  1.0
  O  O172  1  0.28338000  0.41124000  0.88271000  1.0
  O  O173  1  0.02859000  0.40044000  0.61704000  1.0
  O  O174  1  0.71662000  0.58876000  0.11728000  1.0
  O  O175  1  0.97141000  0.59956000  0.38296000  1.0
  O  O176  1  0.36255000  0.18621000  0.85509000  1.0
  O  O177  1  0.83153000  0.50770000  0.64484000  1.0
  O  O178  1  0.63745000  0.81378000  0.14491000  1.0
  O  O179  1  0.16848000  0.49229000  0.35516000  1.0
  O  O180  1  0.17804000  0.22378000  0.94166000  1.0
  O  O181  1  0.78203000  0.23665000  0.55861000  1.0
  O  O182  1  0.82196000  0.77622000  0.05834000  1.0
  O  O183  1  0.21797000  0.76336000  0.44140000  1.0
  O  O184  1  0.77435000  0.48199000  0.39637000  1.0
  O  O185  1  0.58581000  0.37795000  0.10357000  1.0
  O  O186  1  0.22565000  0.51801000  0.60363000  1.0
  O  O187  1  0.41420000  0.62205000  0.89643000  1.0
  O  O188  1  0.44852000  0.55401000  0.04863000  1.0
  O  O189  1  0.00560000  0.39975000  0.45141000  1.0
  O  O190  1  0.55148000  0.44598000  0.95136000  1.0
  O  O191  1  0.99440000  0.60025000  0.54859000  1.0
  O  O192  1  0.30382000  0.18358000  0.04115000  1.0
  O  O193  1  0.64244000  0.26299000  0.45908000  1.0
  O  O194  1  0.69618000  0.81642000  0.95885000  1.0
  O  O195  1  0.35756000  0.73703000  0.54092000  1.0
  O  O196  1  0.68714000  0.51647000  0.48695000  1.0
  O  O197  1  0.52972000  0.20017000  0.01309000  1.0
  O  O198  1  0.31287000  0.48353000  0.51305000  1.0
  O  O199  1  0.47028000  0.79983000  0.98691000  1.0
