# generated using pymatgen
data_Zn2H34C39(N5O4)2
_symmetry_space_group_name_H-M   'P 1'
_cell_length_a   11.84400000
_cell_length_b   11.90610000
_cell_length_c   24.33360000
_cell_angle_alpha   89.96830000
_cell_angle_beta   89.83760000
_cell_angle_gamma   89.81340000
_symmetry_Int_Tables_number   1
_chemical_formula_structural   Zn2H34C39(N5O4)2
_chemical_formula_sum   'Zn4 H68 C78 N20 O16'
_cell_volume   3431.39075910
_cell_formula_units_Z   2
loop_
 _symmetry_equiv_pos_site_id
 _symmetry_equiv_pos_as_xyz
  1  'x, y, z'
loop_
 _atom_site_type_symbol
 _atom_site_label
 _atom_site_symmetry_multiplicity
 _atom_site_fract_x
 _atom_site_fract_y
 _atom_site_fract_z
 _atom_site_occupancy
  Zn  Zn0  1  0.61532000  0.50075000  0.50015000  1.0
  Zn  Zn1  1  0.38610000  0.50157000  0.49978000  1.0
  Zn  Zn2  1  0.00239000  0.88870000  0.00002000  1.0
  Zn  Zn3  1  0.00467000  0.11758000  0.99983000  1.0
  H  H4  1  0.18097000  0.50452000  0.42538000  1.0
  H  H5  1  0.23259000  0.49060000  0.59301000  1.0
  H  H6  1  0.82025000  0.50556000  0.57453000  1.0
  H  H7  1  0.76885000  0.48749000  0.40702000  1.0
  H  H8  1  0.68057000  0.14016000  0.71897000  1.0
  H  H9  1  0.32684000  0.86318000  0.71844000  1.0
  H  H10  1  0.36526000  0.17877000  0.77971000  1.0
  H  H11  1  0.64249000  0.82366000  0.78045000  1.0
  H  H12  1  0.32857000  0.07987000  0.68846000  1.0
  H  H13  1  0.68014000  0.92063000  0.68911000  1.0
  H  H14  1  0.42294000  0.82738000  0.80961000  1.0
  H  H15  1  0.58198000  0.17463000  0.81008000  1.0
  H  H16  1  0.67862000  0.86170000  0.28171000  1.0
  H  H17  1  0.32475000  0.14037000  0.28073000  1.0
  H  H18  1  0.36349000  0.82594000  0.21935000  1.0
  H  H19  1  0.64201000  0.17845000  0.22009000  1.0
  H  H20  1  0.32559000  0.92375000  0.31053000  1.0
  H  H21  1  0.67711000  0.08086000  0.31170000  1.0
  H  H22  1  0.42511000  0.17643000  0.18989000  1.0
  H  H23  1  0.58177000  0.82804000  0.18997000  1.0
  H  H24  1  0.15986000  0.32523000  0.99564000  1.0
  H  H25  1  0.81666000  0.27129000  0.00702000  1.0
  H  H26  1  0.85025000  0.68130000  0.99611000  1.0
  H  H27  1  0.19310000  0.73581000  0.00772000  1.0
  H  H28  1  0.94531000  0.42034000  0.34710000  1.0
  H  H29  1  0.07302000  0.49262000  0.36141000  1.0
  H  H30  1  0.94776000  0.56818000  0.34622000  1.0
  H  H31  1  0.05554000  0.42266000  0.65307000  1.0
  H  H32  1  0.92811000  0.49600000  0.63844000  1.0
  H  H33  1  0.05348000  0.57058000  0.65355000  1.0
  H  H34  1  0.31640000  0.54761000  0.96307000  1.0
  H  H35  1  0.28869000  0.43488000  0.00859000  1.0
  H  H36  1  0.32061000  0.57031000  0.03493000  1.0
  H  H37  1  0.69329000  0.45838000  0.96392000  1.0
  H  H38  1  0.72201000  0.57282000  0.00810000  1.0
  H  H39  1  0.69017000  0.43863000  0.03605000  1.0
  H  H40  1  0.29748000  0.66765000  0.60833000  1.0
  H  H41  1  0.23059000  0.75308000  0.65721000  1.0
  H  H42  1  0.69852000  0.72701000  0.57731000  1.0
  H  H43  1  0.76425000  0.83255000  0.61513000  1.0
  H  H44  1  0.85713000  0.79811000  0.88263000  1.0
  H  H45  1  0.78520000  0.73604000  0.82780000  1.0
  H  H46  1  0.77563000  0.19220000  0.92206000  1.0
  H  H47  1  0.67000000  0.25889000  0.88321000  1.0
  H  H48  1  0.70922000  0.34149000  0.61068000  1.0
  H  H49  1  0.77702000  0.25589000  0.65959000  1.0
  H  H50  1  0.31043000  0.27440000  0.57721000  1.0
  H  H51  1  0.24561000  0.16751000  0.61441000  1.0
  H  H52  1  0.14925000  0.20610000  0.88163000  1.0
  H  H53  1  0.22215000  0.26722000  0.82661000  1.0
  H  H54  1  0.22757000  0.81126000  0.92149000  1.0
  H  H55  1  0.33198000  0.74320000  0.88221000  1.0
  H  H56  1  0.29295000  0.33919000  0.38992000  1.0
  H  H57  1  0.22636000  0.25431000  0.34056000  1.0
  H  H58  1  0.69200000  0.27315000  0.42387000  1.0
  H  H59  1  0.75845000  0.16755000  0.38622000  1.0
  H  H60  1  0.85748000  0.20356000  0.11790000  1.0
  H  H61  1  0.78501000  0.26537000  0.17275000  1.0
  H  H62  1  0.77387000  0.81091000  0.07680000  1.0
  H  H63  1  0.66893000  0.74427000  0.11611000  1.0
  H  H64  1  0.70506000  0.66386000  0.39129000  1.0
  H  H65  1  0.77338000  0.74950000  0.34311000  1.0
  H  H66  1  0.30416000  0.72805000  0.42137000  1.0
  H  H67  1  0.23995000  0.83563000  0.38394000  1.0
  H  H68  1  0.14784000  0.80291000  0.11785000  1.0
  H  H69  1  0.22001000  0.74030000  0.17237000  1.0
  H  H70  1  0.23245000  0.19569000  0.07741000  1.0
  H  H71  1  0.33720000  0.26194000  0.11679000  1.0
  C  C72  1  0.50161000  0.65349000  0.42048000  1.0
  C  C73  1  0.49371000  0.34712000  0.42158000  1.0
  C  C74  1  0.50807000  0.34912000  0.57939000  1.0
  C  C75  1  0.50048000  0.65533000  0.57843000  1.0
  C  C76  1  0.15824000  0.99975000  0.07837000  1.0
  C  C77  1  0.15810000  0.00981000  0.92143000  1.0
  C  C78  1  0.84833000  0.99491000  0.92157000  1.0
  C  C79  1  0.84805000  0.00694000  0.07823000  1.0
  C  C80  1  0.14155000  0.50097000  0.46589000  1.0
  C  C81  1  0.16933000  0.49524000  0.56057000  1.0
  C  C82  1  0.05517000  0.49749000  0.57282000  1.0
  C  C83  1  0.97866000  0.49964000  0.52757000  1.0
  C  C84  1  0.85975000  0.50111000  0.53406000  1.0
  C  C85  1  0.83206000  0.49316000  0.43942000  1.0
  C  C86  1  0.94617000  0.49580000  0.42714000  1.0
  C  C87  1  0.02266000  0.49919000  0.47239000  1.0
  C  C88  1  0.50382000  0.00099000  0.74910000  1.0
  C  C89  1  0.40289000  0.00250000  0.78918000  1.0
  C  C90  1  0.60388000  0.99984000  0.78951000  1.0
  C  C91  1  0.50381000  0.90085000  0.70914000  1.0
  C  C92  1  0.50430000  0.10106000  0.70903000  1.0
  C  C93  1  0.60308000  0.15860000  0.69663000  1.0
  C  C94  1  0.40472000  0.84437000  0.69628000  1.0
  C  C95  1  0.34621000  0.10173000  0.80202000  1.0
  C  C96  1  0.66089000  0.90096000  0.80260000  1.0
  C  C97  1  0.60575000  0.24081000  0.65519000  1.0
  C  C98  1  0.40206000  0.76332000  0.65441000  1.0
  C  C99  1  0.26641000  0.10611000  0.84484000  1.0
  C  C100  1  0.74005000  0.89716000  0.84554000  1.0
  C  C101  1  0.50569000  0.26774000  0.62480000  1.0
  C  C102  1  0.50251000  0.73581000  0.62421000  1.0
  C  C103  1  0.23977000  0.00709000  0.87580000  1.0
  C  C104  1  0.76606000  0.99652000  0.87630000  1.0
  C  C105  1  0.40433000  0.20825000  0.63875000  1.0
  C  C106  1  0.60423000  0.79377000  0.63874000  1.0
  C  C107  1  0.29702000  0.90511000  0.86075000  1.0
  C  C108  1  0.70775000  0.09784000  0.86132000  1.0
  C  C109  1  0.40599000  0.12604000  0.67988000  1.0
  C  C110  1  0.60249000  0.87529000  0.68022000  1.0
  C  C111  1  0.37784000  0.90522000  0.81860000  1.0
  C  C112  1  0.62758000  0.09713000  0.81908000  1.0
  C  C113  1  0.50251000  0.00193000  0.25078000  1.0
  C  C114  1  0.40262000  0.00178000  0.21030000  1.0
  C  C115  1  0.60348000  0.00259000  0.21070000  1.0
  C  C116  1  0.50137000  0.10181000  0.29087000  1.0
  C  C117  1  0.50186000  0.90167000  0.29075000  1.0
  C  C118  1  0.60041000  0.84366000  0.30366000  1.0
  C  C119  1  0.40187000  0.15881000  0.30326000  1.0
  C  C120  1  0.34538000  0.90345000  0.19718000  1.0
  C  C121  1  0.66059000  0.10124000  0.19774000  1.0
  C  C122  1  0.60197000  0.76188000  0.34527000  1.0
  C  C123  1  0.39782000  0.24004000  0.34506000  1.0
  C  C124  1  0.26613000  0.90062000  0.15431000  1.0
  C  C125  1  0.73980000  0.10487000  0.15465000  1.0
  C  C126  1  0.50095000  0.73512000  0.37510000  1.0
  C  C127  1  0.49731000  0.26669000  0.37580000  1.0
  C  C128  1  0.24053000  0.00034000  0.12361000  1.0
  C  C129  1  0.76575000  0.00561000  0.12366000  1.0
  C  C130  1  0.39992000  0.79492000  0.36058000  1.0
  C  C131  1  0.59949000  0.20805000  0.36177000  1.0
  C  C132  1  0.29915000  0.10111000  0.13855000  1.0
  C  C133  1  0.70743000  0.90444000  0.13849000  1.0
  C  C134  1  0.40280000  0.87720000  0.31945000  1.0
  C  C135  1  0.59916000  0.12664000  0.32027000  1.0
  C  C136  1  0.37922000  0.09946000  0.18082000  1.0
  C  C137  1  0.62742000  0.90529000  0.18100000  1.0
  C  C138  1  0.07635000  0.36357000  0.99845000  1.0
  C  C139  1  0.88266000  0.33456000  0.00324000  1.0
  C  C140  1  0.85657000  0.44779000  0.00170000  1.0
  C  C141  1  0.94844000  0.52488000  0.99978000  1.0
  C  C142  1  0.93379000  0.64312000  0.99884000  1.0
  C  C143  1  0.12730000  0.67245000  0.00370000  1.0
  C  C144  1  0.15363000  0.55927000  0.00175000  1.0
  C  C145  1  0.06193000  0.48191000  0.99967000  1.0
  C  C146  1  0.98152000  0.49406000  0.36770000  1.0
  C  C147  1  0.01965000  0.49655000  0.63225000  1.0
  C  C148  1  0.27586000  0.52502000  0.00227000  1.0
  C  C149  1  0.73446000  0.48242000  0.00262000  1.0
  N  N150  1  0.21111000  0.49877000  0.50846000  1.0
  N  N151  1  0.79025000  0.49762000  0.49151000  1.0
  N  N152  1  0.98975000  0.29338000  0.00047000  1.0
  N  N153  1  0.02014000  0.71345000  0.00101000  1.0
  N  N154  1  0.30037000  0.71135000  0.64429000  1.0
  N  N155  1  0.70595000  0.77067000  0.61322000  1.0
  N  N156  1  0.78784000  0.79458000  0.85791000  1.0
  N  N157  1  0.72987000  0.19855000  0.88678000  1.0
  N  N158  1  0.70651000  0.29472000  0.64577000  1.0
  N  N159  1  0.30263000  0.23071000  0.61312000  1.0
  N  N160  1  0.21876000  0.20896000  0.85687000  1.0
  N  N161  1  0.27315000  0.80451000  0.88604000  1.0
  N  N162  1  0.29637000  0.29321000  0.35462000  1.0
  N  N163  1  0.70069000  0.23044000  0.38772000  1.0
  N  N164  1  0.78743000  0.20749000  0.14229000  1.0
  N  N165  1  0.72914000  0.80393000  0.11252000  1.0
  N  N166  1  0.70313000  0.70830000  0.35550000  1.0
  N  N167  1  0.29772000  0.77287000  0.38572000  1.0
  N  N168  1  0.21804000  0.79829000  0.14192000  1.0
  N  N169  1  0.27742000  0.20198000  0.11297000  1.0
  O  O170  1  0.59439000  0.60234000  0.43252000  1.0
  O  O171  1  0.40993000  0.63486000  0.44771000  1.0
  O  O172  1  0.39973000  0.39682000  0.43353000  1.0
  O  O173  1  0.58414000  0.36608000  0.44934000  1.0
  O  O174  1  0.41718000  0.36867000  0.55199000  1.0
  O  O175  1  0.60163000  0.39901000  0.56738000  1.0
  O  O176  1  0.59162000  0.63618000  0.55077000  1.0
  O  O177  1  0.40717000  0.60572000  0.56641000  1.0
  O  O178  1  0.10379000  0.90867000  0.06783000  1.0
  O  O179  1  0.14183000  0.08998000  0.05002000  1.0
  O  O180  1  0.10479000  0.10214000  0.93201000  1.0
  O  O181  1  0.14108000  0.92050000  0.95025000  1.0
  O  O182  1  0.86570000  0.08479000  0.94986000  1.0
  O  O183  1  0.90202000  0.90285000  0.93226000  1.0
  O  O184  1  0.86489000  0.91683000  0.04987000  1.0
  O  O185  1  0.90203000  0.09835000  0.06749000  1.0
