# generated using pymatgen
data_Ni2H31C15(N2Cl)3
_symmetry_space_group_name_H-M   'P 1'
_cell_length_a   11.08250000
_cell_length_b   11.08450000
_cell_length_c   11.84690000
_cell_angle_alpha   107.99500000
_cell_angle_beta   110.97900000
_cell_angle_gamma   106.61600000
_symmetry_Int_Tables_number   1
_chemical_formula_structural   Ni2H31C15(N2Cl)3
_chemical_formula_sum   'Ni4 H62 C30 N12 Cl6'
_cell_volume   1156.36110094
_cell_formula_units_Z   2
loop_
 _symmetry_equiv_pos_site_id
 _symmetry_equiv_pos_as_xyz
  1  'x, y, z'
loop_
 _atom_site_type_symbol
 _atom_site_label
 _atom_site_symmetry_multiplicity
 _atom_site_fract_x
 _atom_site_fract_y
 _atom_site_fract_z
 _atom_site_occupancy
  Ni  Ni0  1  0.01128000  0.55821000  0.17244000  1.0
  Ni  Ni1  1  0.11426000  0.16109000  0.67229000  1.0
  Ni  Ni2  1  0.98871000  0.44179000  0.82756000  1.0
  Ni  Ni3  1  0.88574000  0.83891000  0.32771000  1.0
  H  H4  1  0.75971000  0.20133000  0.15189000  1.0
  H  H5  1  0.45055000  0.39211000  0.65160000  1.0
  H  H6  1  0.24029000  0.79867000  0.84810000  1.0
  H  H7  1  0.54945000  0.60789000  0.34841000  1.0
  H  H8  1  0.72779000  0.24759000  0.01599000  1.0
  H  H9  1  0.26875000  0.28802000  0.51554000  1.0
  H  H10  1  0.27221000  0.75241000  0.98401000  1.0
  H  H11  1  0.73126000  0.71198000  0.48447000  1.0
  H  H12  1  0.04345000  0.26700000  0.29715000  1.0
  H  H13  1  0.53024000  0.25392000  0.79697000  1.0
  H  H14  1  0.95655000  0.73300000  0.70285000  1.0
  H  H15  1  0.46977000  0.74609000  0.20303000  1.0
  H  H16  1  0.98872000  0.39481000  0.36073000  1.0
  H  H17  1  0.46580000  0.37209000  0.86044000  1.0
  H  H18  1  0.01128000  0.60519000  0.63926000  1.0
  H  H19  1  0.53421000  0.62792000  0.13956000  1.0
  H  H20  1  0.25897000  0.49487000  0.46120000  1.0
  H  H21  1  0.46649000  0.20257000  0.96139000  1.0
  H  H22  1  0.74103000  0.50513000  0.53879000  1.0
  H  H23  1  0.53352000  0.79743000  0.03861000  1.0
  H  H24  1  0.23652000  0.45611000  0.29486000  1.0
  H  H25  1  0.33934000  0.05871000  0.79517000  1.0
  H  H26  1  0.76348000  0.54390000  0.70514000  1.0
  H  H27  1  0.66067000  0.94129000  0.20483000  1.0
  H  H28  1  0.07677000  0.28406000  0.08440000  1.0
  H  H29  1  0.30065000  0.00781000  0.58466000  1.0
  H  H30  1  0.92323000  0.71594000  0.91559000  1.0
  H  H31  1  0.69935000  0.99218000  0.41534000  1.0
  H  H32  1  0.90122000  0.23327000  0.95812000  1.0
  H  H33  1  0.22512000  0.05693000  0.45815000  1.0
  H  H34  1  0.09878000  0.76674000  0.04187000  1.0
  H  H35  1  0.77489000  0.94307000  0.54185000  1.0
  H  H36  1  0.92776000  0.13674000  0.05471000  1.0
  H  H37  1  0.41814000  0.12688000  0.55458000  1.0
  H  H38  1  0.07223000  0.86326000  0.94528000  1.0
  H  H39  1  0.58186000  0.87311000  0.44543000  1.0
  H  H40  1  0.14338000  0.77469000  0.48299000  1.0
  H  H41  1  0.20796000  0.33951000  0.98257000  1.0
  H  H42  1  0.85662000  0.22531000  0.51700000  1.0
  H  H43  1  0.79204000  0.66049000  0.01742000  1.0
  H  H44  1  0.23415000  0.70041000  0.58001000  1.0
  H  H45  1  0.37913000  0.34586000  0.07988000  1.0
  H  H46  1  0.76585000  0.29959000  0.41999000  1.0
  H  H47  1  0.62087000  0.65415000  0.92012000  1.0
  H  H48  1  0.04533000  0.60446000  0.45891000  1.0
  H  H49  1  0.35422000  0.41346000  0.95852000  1.0
  H  H50  1  0.95467000  0.39554000  0.54108000  1.0
  H  H51  1  0.64578000  0.58654000  0.04148000  1.0
  H  H52  1  0.35373000  0.67794000  0.33004000  1.0
  H  H53  1  0.15255000  0.97655000  0.83046000  1.0
  H  H54  1  0.64626000  0.32206000  0.66996000  1.0
  H  H55  1  0.84746000  0.02345000  0.16954000  1.0
  H  H56  1  0.40903000  0.74723000  0.50877000  1.0
  H  H57  1  0.26185000  0.09995000  0.00913000  1.0
  H  H58  1  0.59096000  0.25277000  0.49123000  1.0
  H  H59  1  0.73816000  0.90005000  0.99087000  1.0
  H  H60  1  0.31740000  0.81813000  0.40807000  1.0
  H  H61  1  0.09026000  0.09080000  0.90845000  1.0
  H  H62  1  0.68260000  0.18188000  0.59193000  1.0
  H  H63  1  0.90975000  0.90920000  0.09154000  1.0
  H  H64  1  0.59320000  0.34341000  0.25025000  1.0
  H  H65  1  0.40680000  0.65658000  0.74975000  1.0
  C  C66  1  0.77014000  0.41056000  0.19971000  1.0
  C  C67  1  0.28882000  0.42924000  0.69902000  1.0
  C  C68  1  0.22986000  0.58943000  0.80029000  1.0
  C  C69  1  0.71118000  0.57075000  0.30098000  1.0
  C  C70  1  0.79219000  0.28920000  0.12679000  1.0
  C  C71  1  0.33758000  0.33444000  0.62638000  1.0
  C  C72  1  0.20781000  0.71080000  0.87321000  1.0
  C  C73  1  0.66242000  0.66556000  0.37363000  1.0
  C  C74  1  0.03856000  0.36544000  0.29846000  1.0
  C  C75  1  0.43309000  0.26005000  0.79835000  1.0
  C  C76  1  0.96144000  0.63456000  0.70153000  1.0
  C  C77  1  0.56691000  0.73996000  0.20166000  1.0
  C  C78  1  0.18879000  0.48238000  0.36033000  1.0
  C  C79  1  0.37822000  0.17180000  0.86046000  1.0
  C  C80  1  0.81121000  0.51762000  0.63967000  1.0
  C  C81  1  0.62179000  0.82821000  0.13955000  1.0
  C  C82  1  0.67528000  0.42535000  0.25031000  1.0
  C  C83  1  0.32472000  0.57465000  0.74969000  1.0
  C  C84  1  0.96301000  0.24227000  0.05838000  1.0
  C  C85  1  0.31635000  0.09543000  0.55840000  1.0
  C  C86  1  0.03699000  0.75773000  0.94161000  1.0
  C  C87  1  0.68365000  0.90457000  0.44160000  1.0
  C  C88  1  0.15014000  0.67749000  0.48020000  1.0
  C  C89  1  0.30247000  0.33003000  0.97996000  1.0
  C  C90  1  0.84985000  0.32251000  0.51980000  1.0
  C  C91  1  0.69753000  0.66997000  0.02004000  1.0
  C  C92  1  0.32507000  0.72149000  0.40743000  1.0
  C  C93  1  0.18626000  0.08254000  0.90774000  1.0
  C  C94  1  0.67492000  0.27851000  0.59257000  1.0
  C  C95  1  0.81375000  0.91746000  0.09226000  1.0
  N  N96  1  0.85480000  0.53870000  0.21958000  1.0
  N  N97  1  0.18046000  0.36452000  0.71886000  1.0
  N  N98  1  0.14520000  0.46130000  0.78043000  1.0
  N  N99  1  0.81954000  0.63549000  0.28115000  1.0
  N  N100  1  0.94561000  0.34113000  0.15963000  1.0
  N  N101  1  0.31862000  0.21405000  0.65950000  1.0
  N  N102  1  0.05439000  0.65888000  0.84037000  1.0
  N  N103  1  0.68138000  0.78595000  0.34051000  1.0
  N  N104  1  0.18395000  0.61753000  0.37278000  1.0
  N  N105  1  0.25536000  0.18888000  0.87279000  1.0
  N  N106  1  0.81605000  0.38247000  0.62722000  1.0
  N  N107  1  0.74464000  0.81112000  0.12721000  1.0
  Cl  Cl108  1  0.06125000  0.81137000  0.24997000  1.0
  Cl  Cl109  1  0.93875000  0.18863000  0.75003000  1.0
  Cl  Cl110  1  0.16817000  0.55563000  0.07904000  1.0
  Cl  Cl111  1  0.02353000  0.91101000  0.57925000  1.0
  Cl  Cl112  1  0.83183000  0.44437000  0.92096000  1.0
  Cl  Cl113  1  0.97647000  0.08899000  0.42075000  1.0
