# generated using pymatgen
data_Al2H10C21S2(ClO5)2
_symmetry_space_group_name_H-M   'P 1'
_cell_length_a   6.63836000
_cell_length_b   11.10687896
_cell_length_c   12.63117424
_cell_angle_alpha   80.95062142
_cell_angle_beta   76.77224873
_cell_angle_gamma   72.92087044
_symmetry_Int_Tables_number   1
_chemical_formula_structural   Al2H10C21S2(ClO5)2
_chemical_formula_sum   'Al2 H10 C21 S2 Cl2 O10'
_cell_volume   862.55385569
_cell_formula_units_Z   1
loop_
 _symmetry_equiv_pos_site_id
 _symmetry_equiv_pos_as_xyz
  1  'x, y, z'
loop_
 _atom_site_type_symbol
 _atom_site_label
 _atom_site_symmetry_multiplicity
 _atom_site_fract_x
 _atom_site_fract_y
 _atom_site_fract_z
 _atom_site_occupancy
  Al  Al0  1  0.48565000  0.49857000  0.49890000  1.0
  Al  Al1  1  0.98779000  0.49311000  0.49891000  1.0
  H  H2  1  0.18093000  0.64932000  0.43710000  1.0
  H  H3  1  0.71102000  0.42807000  0.63332000  1.0
  H  H4  1  0.39265000  0.39739000  0.87007000  1.0
  H  H5  1  0.87509000  0.74923000  0.63031000  1.0
  H  H6  1  0.66179000  0.21835000  0.61918000  1.0
  H  H7  1  0.17572000  0.12433000  0.43535000  1.0
  H  H8  1  0.28937000  0.88880000  0.43579000  1.0
  H  H9  1  0.45238000  0.60261000  0.21625000  1.0
  H  H10  1  0.43008000  0.53830000  0.10138000  1.0
  H  H11  1  0.49205000  0.68528000  0.08217000  1.0
  C  C12  1  0.61723000  0.72453000  0.50496000  1.0
  C  C13  1  0.83212000  0.48612000  0.30553000  1.0
  C  C14  1  0.35800000  0.27036000  0.50362000  1.0
  C  C15  1  0.14469000  0.49106000  0.69765000  1.0
  C  C16  1  0.75332000  0.52509000  0.11029000  1.0
  C  C17  1  0.21975000  0.43624000  0.89295000  1.0
  C  C18  1  0.88545000  0.47850000  0.18703000  1.0
  C  C19  1  0.08778000  0.48377000  0.81710000  1.0
  C  C20  1  0.09868000  0.44661000  0.00045000  1.0
  C  C21  1  0.87806000  0.50476000  0.00418000  1.0
  C  C22  1  0.55215000  0.86338000  0.51569000  1.0
  C  C23  1  0.66423000  0.92229000  0.56757000  1.0
  C  C24  1  0.37672000  0.93592000  0.47152000  1.0
  C  C25  1  0.82657000  0.85192000  0.62643000  1.0
  C  C26  1  0.92179000  0.91083000  0.68181000  1.0
  C  C27  1  0.42651000  0.12930000  0.51331000  1.0
  C  C28  1  0.31329000  0.06812000  0.47072000  1.0
  C  C29  1  0.60096000  0.05804000  0.56554000  1.0
  C  C30  1  0.70462000  0.11595000  0.62150000  1.0
  C  C31  1  0.85961000  0.04503000  0.67935000  1.0
  C  C32  1  0.51954000  0.59197000  0.12978000  1.0
  S  S33  1  0.15393000  0.41122000  0.13029000  1.0
  S  S34  1  0.81790000  0.54089000  0.87552000  1.0
  Cl  Cl35  1  0.11336000  0.82073000  0.75484000  1.0
  Cl  Cl36  1  0.97305000  0.12041000  0.74990000  1.0
  O  O37  1  0.46603000  0.67210000  0.51404000  1.0
  O  O38  1  0.99016000  0.46487000  0.35410000  1.0
  O  O39  1  0.15711000  0.32290000  0.51745000  1.0
  O  O40  1  0.34199000  0.47370000  0.65181000  1.0
  O  O41  1  0.50409000  0.32830000  0.48166000  1.0
  O  O42  1  0.98623000  0.51470000  0.64856000  1.0
  O  O43  1  0.81778000  0.66908000  0.48390000  1.0
  O  O44  1  0.63496000  0.51495000  0.35206000  1.0
  O  O45  1  0.22604000  0.55779000  0.45065000  1.0
  O  O46  1  0.73856000  0.44143000  0.55410000  1.0
