# generated using pymatgen
data_Zr6H23C56S10O32F5
_symmetry_space_group_name_H-M   'P 1'
_cell_length_a   16.45090000
_cell_length_b   16.45680000
_cell_length_c   16.45096584
_cell_angle_alpha   60.26159690
_cell_angle_beta   88.62001864
_cell_angle_gamma   60.26330000
_symmetry_Int_Tables_number   1
_chemical_formula_structural   Zr6H23C56S10O32F5
_chemical_formula_sum   'Zr6 H23 C56 S10 O32 F5'
_cell_volume   3209.12729854
_cell_formula_units_Z   1
loop_
 _symmetry_equiv_pos_site_id
 _symmetry_equiv_pos_as_xyz
  1  'x, y, z'
loop_
 _atom_site_type_symbol
 _atom_site_label
 _atom_site_symmetry_multiplicity
 _atom_site_fract_x
 _atom_site_fract_y
 _atom_site_fract_z
 _atom_site_occupancy
  Zr  Zr0  1  0.90431000  0.48674000  0.40018000  1.0
  Zr  Zr1  1  0.10668000  0.50635000  0.60196000  1.0
  Zr  Zr2  1  0.89812000  0.70773000  0.39321000  1.0
  Zr  Zr3  1  0.11331000  0.28606000  0.60789000  1.0
  Zr  Zr4  1  0.89621000  0.49680000  0.61004000  1.0
  Zr  Zr5  1  0.11426000  0.49716000  0.39095000  1.0
  H  H6  1  0.75605000  0.65336000  0.42389000  1.0
  H  H7  1  0.08316000  0.33977000  0.75019000  1.0
  H  H8  1  0.08693000  0.67019000  0.40987000  1.0
  H  H9  1  0.09602000  0.32325000  0.41897000  1.0
  H  H10  1  0.61525000  0.48374000  0.63882000  1.0
  H  H11  1  0.12640000  0.51465000  0.09619000  1.0
  H  H12  1  0.12927000  0.98520000  0.88197000  1.0
  H  H13  1  0.39781000  0.98751000  0.63407000  1.0
  H  H14  1  0.67559000  0.69926000  0.13636000  1.0
  H  H15  1  0.37344000  0.29230000  0.82812000  1.0
  H  H16  1  0.87973000  0.23028000  0.38558000  1.0
  H  H17  1  0.49348000  0.21615000  0.03211000  1.0
  H  H18  1  0.59874000  0.14044000  0.00510000  1.0
  H  H19  1  0.49604000  0.27262000  0.90924000  1.0
  H  H20  1  0.53088000  0.06524000  0.15688000  1.0
  H  H21  1  0.62170000  0.92568000  0.25383000  1.0
  H  H22  1  0.65756000  0.00732000  0.16635000  1.0
  H  H23  1  0.46991000  0.77757000  0.01649000  1.0
  H  H24  1  0.49944000  0.84981000  0.91157000  1.0
  H  H25  1  0.59336000  0.71768000  0.01561000  1.0
  H  H26  1  0.34651000  0.93019000  0.97843000  1.0
  H  H27  1  0.25093000  0.06977000  0.88554000  1.0
  H  H28  1  0.33843000  0.98439000  0.85233000  1.0
  C  C29  1  0.74271000  0.47632000  0.51589000  1.0
  C  C30  1  0.99013000  0.51677000  0.76327000  1.0
  C  C31  1  0.27786000  0.49650000  0.49596000  1.0
  C  C32  1  0.00819000  0.49725000  0.22781000  1.0
  C  C33  1  0.74020000  0.74826000  0.23769000  1.0
  C  C34  1  0.00767000  0.21841000  0.51039000  1.0
  C  C35  1  0.26959000  0.24416000  0.76573000  1.0
  C  C36  1  0.99680000  0.77355000  0.49980000  1.0
  C  C37  1  0.73533000  0.76757000  0.50484000  1.0
  C  C38  1  0.00072000  0.76678000  0.22148000  1.0
  C  C39  1  0.28418000  0.22762000  0.50360000  1.0
  C  C40  1  0.00130000  0.22591000  0.77096000  1.0
  C  C41  1  0.43082000  0.47912000  0.44100000  1.0
  C  C42  1  0.59772000  0.47942000  0.57835000  1.0
  C  C43  1  0.37082000  0.48766000  0.50113000  1.0
  C  C44  1  0.65482000  0.47359000  0.51585000  1.0
  C  C45  1  0.51629000  0.48052000  0.55105000  1.0
  C  C46  1  0.51398000  0.47508000  0.46825000  1.0
  C  C47  1  0.92576000  0.51716000  0.90763000  1.0
  C  C48  1  0.06408000  0.51407000  0.07668000  1.0
  C  C49  1  0.98857000  0.52093000  0.85011000  1.0
  C  C50  1  0.00199000  0.50703000  0.13411000  1.0
  C  C51  1  0.03537000  0.51868000  0.99349000  1.0
  C  C52  1  0.95142000  0.51555000  0.98977000  1.0
  C  C53  1  0.93018000  0.97193000  0.07877000  1.0
  C  C54  1  0.06579000  0.02125000  0.90530000  1.0
  C  C55  1  0.99791000  0.85606000  0.13053000  1.0
  C  C56  1  0.99830000  0.13643000  0.85680000  1.0
  C  C57  1  0.04036000  0.96148000  0.98616000  1.0
  C  C58  1  0.95332000  0.03321000  0.99672000  1.0
  C  C59  1  0.60165000  0.97364000  0.44196000  1.0
  C  C60  1  0.42373000  0.02355000  0.57301000  1.0
  C  C61  1  0.65004000  0.85758000  0.50701000  1.0
  C  C62  1  0.37558000  0.13871000  0.50572000  1.0
  C  C63  1  0.50664000  0.96365000  0.54973000  1.0
  C  C64  1  0.51972000  0.03534000  0.46494000  1.0
  C  C65  1  0.59169000  0.94548000  0.11673000  1.0
  C  C66  1  0.62523000  0.78816000  0.10844000  1.0
  C  C67  1  0.54044000  0.85368000  0.03369000  1.0
  C  C68  1  0.48023000  0.97298000  0.99222000  1.0
  C  C69  1  0.38931000  0.04743000  0.91554000  1.0
  C  C70  1  0.40036000  0.20384000  0.87938000  1.0
  C  C71  1  0.47524000  0.13842000  0.96409000  1.0
  C  C72  1  0.51517000  0.01956000  0.02569000  1.0
  C  C73  1  0.64957000  0.83072000  0.15333000  1.0
  C  C74  1  0.35404000  0.16175000  0.85634000  1.0
  C  C75  1  0.05907000  0.84671000  0.57145000  1.0
  C  C76  1  0.93777000  0.14667000  0.44617000  1.0
  C  C77  1  0.99524000  0.86081000  0.50448000  1.0
  C  C78  1  0.00399000  0.12999000  0.51247000  1.0
  C  C79  1  0.95779000  0.04284000  0.46844000  1.0
  C  C80  1  0.03896000  0.94942000  0.55192000  1.0
  C  C81  1  0.51842000  0.19400000  0.97921000  1.0
  C  C82  1  0.60098000  0.98905000  0.17552000  1.0
  C  C83  1  0.52412000  0.79751000  0.99194000  1.0
  C  C84  1  0.32898000  0.00490000  0.90748000  1.0
  S  S85  1  0.41718000  0.48990000  0.59362000  1.0
  S  S86  1  0.61131000  0.46862000  0.42403000  1.0
  S  S87  1  0.08048000  0.52398000  0.89641000  1.0
  S  S88  1  0.90777000  0.50717000  0.08778000  1.0
  S  S89  1  0.09157000  0.82103000  0.07692000  1.0
  S  S90  1  0.90308000  0.17345000  0.90798000  1.0
  S  S91  1  0.59491000  0.82292000  0.59925000  1.0
  S  S92  1  0.43072000  0.17568000  0.41415000  1.0
  S  S93  1  0.90791000  0.00272000  0.41630000  1.0
  S  S94  1  0.09048000  0.98883000  0.60282000  1.0
  O  O95  1  0.78069000  0.47331000  0.44787000  1.0
  O  O96  1  0.05928000  0.51824000  0.72667000  1.0
  O  O97  1  0.23903000  0.50270000  0.56282000  1.0
  O  O98  1  0.94222000  0.49005000  0.26770000  1.0
  O  O99  1  0.77657000  0.78476000  0.26796000  1.0
  O  O100  1  0.07593000  0.18727000  0.57636000  1.0
  O  O101  1  0.23935000  0.20745000  0.72944000  1.0
  O  O102  1  0.93073000  0.80563000  0.43104000  1.0
  O  O103  1  0.76646000  0.66587000  0.57329000  1.0
  O  O104  1  0.07208000  0.66511000  0.25579000  1.0
  O  O105  1  0.24902000  0.32943000  0.43251000  1.0
  O  O106  1  0.93263000  0.32781000  0.73857000  1.0
  O  O107  1  0.93260000  0.79827000  0.25970000  1.0
  O  O108  1  0.24698000  0.19473000  0.57241000  1.0
  O  O109  1  0.07355000  0.19348000  0.73727000  1.0
  O  O110  1  0.77040000  0.79864000  0.43350000  1.0
  O  O111  1  0.77802000  0.64333000  0.27464000  1.0
  O  O112  1  0.06611000  0.67184000  0.56487000  1.0
  O  O113  1  0.23262000  0.34897000  0.72789000  1.0
  O  O114  1  0.94215000  0.31966000  0.44079000  1.0
  O  O115  1  0.07863000  0.49522000  0.26193000  1.0
  O  O116  1  0.77235000  0.48389000  0.58142000  1.0
  O  O117  1  0.92477000  0.50956000  0.73262000  1.0
  O  O118  1  0.24276000  0.49881000  0.42580000  1.0
  O  O119  1  0.07095000  0.37213000  0.44253000  1.0
  O  O120  1  0.06346000  0.62122000  0.43498000  1.0
  O  O121  1  0.06042000  0.38423000  0.67925000  1.0
  O  O122  1  0.82702000  0.60844000  0.44646000  1.0
  O  O123  1  0.95739000  0.58840000  0.54315000  1.0
  O  O124  1  0.96334000  0.40418000  0.54940000  1.0
  O  O125  1  0.13692000  0.41380000  0.54113000  1.0
  O  O126  1  0.96458000  0.57946000  0.36942000  1.0
  F  F127  1  0.41279000  0.47571000  0.36381000  1.0
  F  F128  1  0.84857000  0.51391000  0.88922000  1.0
  F  F129  1  0.85012000  0.02333000  0.10290000  1.0
  F  F130  1  0.62799000  0.02461000  0.36374000  1.0
  F  F131  1  0.13364000  0.74654000  0.64741000  1.0
