# generated using pymatgen
data_H8PbC8S2(NO4)2
_symmetry_space_group_name_H-M   'P 1'
_cell_length_a   7.11055000
_cell_length_b   7.60725836
_cell_length_c   13.77970000
_cell_angle_alpha   94.05488431
_cell_angle_beta   93.00030000
_cell_angle_gamma   117.79550131
_symmetry_Int_Tables_number   1
_chemical_formula_structural   H8PbC8S2(NO4)2
_chemical_formula_sum   'H16 Pb2 C16 S4 N4 O16'
_cell_volume   654.63428054
_cell_formula_units_Z   2
loop_
 _symmetry_equiv_pos_site_id
 _symmetry_equiv_pos_as_xyz
  1  'x, y, z'
loop_
 _atom_site_type_symbol
 _atom_site_label
 _atom_site_symmetry_multiplicity
 _atom_site_fract_x
 _atom_site_fract_y
 _atom_site_fract_z
 _atom_site_occupancy
  H  H0  1  0.66969000  0.15923000  0.27194000  1.0
  H  H1  1  0.33031000  0.84077000  0.72806000  1.0
  H  H2  1  0.46973000  0.12081000  0.11474000  1.0
  H  H3  1  0.53027000  0.87919000  0.88526000  1.0
  H  H4  1  0.63123000  0.21317000  0.01525000  1.0
  H  H5  1  0.36878000  0.78683000  0.98474000  1.0
  H  H6  1  0.54004000  0.36395000  0.08005000  1.0
  H  H7  1  0.45998000  0.63606000  0.91995000  1.0
  H  H8  1  0.22504000  0.13524000  0.22330000  1.0
  H  H9  1  0.77495000  0.86476000  0.77670000  1.0
  H  H10  1  0.96066000  0.03885000  0.08128000  1.0
  H  H11  1  0.03935000  0.96116000  0.91872000  1.0
  H  H12  1  0.68547000  0.89210000  0.10336000  1.0
  H  H13  1  0.31451000  0.10789000  0.89664000  1.0
  H  H14  1  0.83236000  0.77174000  0.06128000  1.0
  H  H15  1  0.16764000  0.22826000  0.93873000  1.0
  Pb  Pb16  1  0.30329000  0.71308000  0.48463000  1.0
  Pb  Pb17  1  0.69672000  0.28691000  0.51537000  1.0
  C  C18  1  0.99687000  0.39573000  0.31379000  1.0
  C  C19  1  0.00313000  0.60427000  0.68621000  1.0
  C  C20  1  0.80844000  0.28129000  0.24670000  1.0
  C  C21  1  0.19156000  0.71871000  0.75330000  1.0
  C  C22  1  0.79123000  0.33924000  0.15711000  1.0
  C  C23  1  0.20876000  0.66076000  0.84289000  1.0
  C  C24  1  0.59620000  0.25274000  0.08789000  1.0
  C  C25  1  0.40379000  0.74726000  0.91211000  1.0
  C  C26  1  0.17399000  0.96488000  0.34952000  1.0
  C  C27  1  0.82600000  0.03511000  0.65048000  1.0
  C  C28  1  0.10716000  0.01425000  0.25903000  1.0
  C  C29  1  0.89283000  0.98575000  0.74097000  1.0
  C  C30  1  0.91269000  0.89333000  0.21012000  1.0
  C  C31  1  0.08732000  0.10668000  0.78987000  1.0
  C  C32  1  0.84418000  0.90092000  0.10790000  1.0
  C  C33  1  0.15582000  0.09908000  0.89210000  1.0
  S  S34  1  0.20549000  0.56144000  0.17232000  1.0
  S  S35  1  0.79451000  0.43857000  0.82767000  1.0
  S  S36  1  0.78120000  0.75126000  0.37241000  1.0
  S  S37  1  0.21879000  0.24872000  0.62759000  1.0
  N  N38  1  0.17921000  0.53996000  0.28560000  1.0
  N  N39  1  0.82080000  0.46005000  0.71440000  1.0
  N  N40  1  0.02604000  0.82409000  0.40035000  1.0
  N  N41  1  0.97397000  0.17591000  0.59965000  1.0
  O  O42  1  0.32822000  0.76730000  0.15610000  1.0
  O  O43  1  0.67176000  0.23269000  0.84389000  1.0
  O  O44  1  0.25841000  0.41720000  0.12493000  1.0
  O  O45  1  0.74160000  0.58281000  0.87506000  1.0
  O  O46  1  0.95856000  0.49753000  0.12271000  1.0
  O  O47  1  0.04144000  0.50247000  0.87728000  1.0
  O  O48  1  0.99502000  0.37557000  0.40617000  1.0
  O  O49  1  0.00499000  0.62444000  0.59383000  1.0
  O  O50  1  0.65068000  0.54884000  0.39477000  1.0
  O  O51  1  0.34933000  0.45116000  0.60523000  1.0
  O  O52  1  0.70961000  0.89362000  0.40445000  1.0
  O  O53  1  0.29039000  0.10638000  0.59555000  1.0
  O  O54  1  0.75625000  0.73501000  0.25125000  1.0
  O  O55  1  0.24375000  0.26499000  0.74875000  1.0
  O  O56  1  0.36987000  0.03233000  0.37901000  1.0
  O  O57  1  0.63013000  0.96767000  0.62099000  1.0
