# generated using pymatgen
data_CuH24C26Br2N2O5
_symmetry_space_group_name_H-M   'P 1'
_cell_length_a   9.65027000
_cell_length_b   10.74560000
_cell_length_c   13.28700000
_cell_angle_alpha   99.40940000
_cell_angle_beta   101.90200000
_cell_angle_gamma   90.59300000
_symmetry_Int_Tables_number   1
_chemical_formula_structural   CuH24C26Br2N2O5
_chemical_formula_sum   'Cu2 H48 C52 Br4 N4 O10'
_cell_volume   1328.68725277
_cell_formula_units_Z   2
loop_
 _symmetry_equiv_pos_site_id
 _symmetry_equiv_pos_as_xyz
  1  'x, y, z'
loop_
 _atom_site_type_symbol
 _atom_site_label
 _atom_site_symmetry_multiplicity
 _atom_site_fract_x
 _atom_site_fract_y
 _atom_site_fract_z
 _atom_site_occupancy
  Cu  Cu0  1  0.00000000  0.00000000  0.00000000  1.0
  Cu  Cu1  1  0.50000000  0.00000000  0.00000000  1.0
  H  H2  1  0.82914000  0.19604000  0.08240000  1.0
  H  H3  1  0.17086000  0.80397000  0.91761000  1.0
  H  H4  1  0.84150000  0.34378000  0.24984000  1.0
  H  H5  1  0.15850000  0.65622000  0.75016000  1.0
  H  H6  1  0.24106000  0.18832000  0.36812000  1.0
  H  H7  1  0.75894000  0.81168000  0.63188000  1.0
  H  H8  1  0.21366000  0.04855000  0.19568000  1.0
  H  H9  1  0.78634000  0.95145000  0.80432000  1.0
  H  H10  1  0.15484000  0.40475000  0.45937000  1.0
  H  H11  1  0.84516000  0.59525000  0.54064000  1.0
  H  H12  1  0.02326000  0.30515000  0.48534000  1.0
  H  H13  1  0.97675000  0.69485000  0.51467000  1.0
  H  H14  1  0.97239000  0.43497000  0.42042000  1.0
  H  H15  1  0.02761000  0.56503000  0.57958000  1.0
  H  H16  1  0.21840000  0.63827000  0.43444000  1.0
  H  H17  1  0.78161000  0.36173000  0.56556000  1.0
  H  H18  1  0.29452000  0.45317000  0.32243000  1.0
  H  H19  1  0.70549000  0.54683000  0.67757000  1.0
  H  H20  1  0.23625000  0.43376000  0.13077000  1.0
  H  H21  1  0.76375000  0.56624000  0.86922000  1.0
  H  H22  1  0.10407000  0.60517000  0.04845000  1.0
  H  H23  1  0.89593000  0.39483000  0.95155000  1.0
  H  H24  1  0.70576000  0.06781000  0.20088000  1.0
  H  H25  1  0.29425000  0.93219000  0.79912000  1.0
  H  H26  1  0.74213000  0.01137000  0.37868000  1.0
  H  H27  1  0.25787000  0.98863000  0.62132000  1.0
  H  H28  1  0.36050000  0.77221000  0.27010000  1.0
  H  H29  1  0.63950000  0.22780000  0.72989000  1.0
  H  H30  1  0.33573000  0.84360000  0.09818000  1.0
  H  H31  1  0.66427000  0.15640000  0.90182000  1.0
  H  H32  1  0.58225000  0.92544000  0.50788000  1.0
  H  H33  1  0.41775000  0.07456000  0.49212000  1.0
  H  H34  1  0.67457000  0.79604000  0.45960000  1.0
  H  H35  1  0.32543000  0.20397000  0.54040000  1.0
  H  H36  1  0.48770000  0.77945000  0.44765000  1.0
  H  H37  1  0.51229000  0.22055000  0.55235000  1.0
  H  H38  1  0.70467000  0.59312000  0.38430000  1.0
  H  H39  1  0.29532000  0.40687000  0.61570000  1.0
  H  H40  1  0.78352000  0.71333000  0.25738000  1.0
  H  H41  1  0.21647000  0.28666000  0.74262000  1.0
  H  H42  1  0.73706000  0.62140000  0.07037000  1.0
  H  H43  1  0.26294000  0.37860000  0.92963000  1.0
  H  H44  1  0.61021000  0.40963000  0.00762000  1.0
  H  H45  1  0.38979000  0.59036000  0.99238000  1.0
  H  H46  1  0.20829000  0.08276000  0.93466000  1.0
  H  H47  1  0.79171000  0.91724000  0.06534000  1.0
  H  H48  1  0.28997000  0.12085000  0.05156000  1.0
  H  H49  1  0.71003000  0.87915000  0.94844000  1.0
  C  C50  1  0.91870000  0.19836000  0.14778000  1.0
  C  C51  1  0.08130000  0.80164000  0.85222000  1.0
  C  C52  1  0.92596000  0.27902000  0.24182000  1.0
  C  C53  1  0.07404000  0.72098000  0.75819000  1.0
  C  C54  1  0.04104000  0.27690000  0.32493000  1.0
  C  C55  1  0.95897000  0.72311000  0.67507000  1.0
  C  C56  1  0.14703000  0.19305000  0.30767000  1.0
  C  C57  1  0.85297000  0.80695000  0.69234000  1.0
  C  C58  1  0.13357000  0.11510000  0.21179000  1.0
  C  C59  1  0.86643000  0.88490000  0.78821000  1.0
  C  C60  1  0.04834000  0.36031000  0.42792000  1.0
  C  C61  1  0.95166000  0.63969000  0.57209000  1.0
  C  C62  1  0.00381000  0.81404000  0.14036000  1.0
  C  C63  1  0.99619000  0.18597000  0.85965000  1.0
  C  C64  1  0.08177000  0.71420000  0.19431000  1.0
  C  C65  1  0.91822000  0.28580000  0.80569000  1.0
  C  C66  1  0.11449000  0.72128000  0.30283000  1.0
  C  C67  1  0.88550000  0.27872000  0.69717000  1.0
  C  C68  1  0.19095000  0.62875000  0.34967000  1.0
  C  C69  1  0.80905000  0.37124000  0.65034000  1.0
  C  C70  1  0.23377000  0.52551000  0.28673000  1.0
  C  C71  1  0.76623000  0.47449000  0.71326000  1.0
  C  C72  1  0.20138000  0.51518000  0.17817000  1.0
  C  C73  1  0.79862000  0.48482000  0.82183000  1.0
  C  C74  1  0.12733000  0.60967000  0.13295000  1.0
  C  C75  1  0.87267000  0.39033000  0.86705000  1.0
  C  C76  1  0.63122000  0.00361000  0.22025000  1.0
  C  C77  1  0.36878000  0.99639000  0.77975000  1.0
  C  C78  1  0.65043000  0.97127000  0.31899000  1.0
  C  C79  1  0.34957000  0.02873000  0.68101000  1.0
  C  C80  1  0.55369000  0.88597000  0.33995000  1.0
  C  C81  1  0.44631000  0.11403000  0.66005000  1.0
  C  C82  1  0.43902000  0.83912000  0.25886000  1.0
  C  C83  1  0.56099000  0.16088000  0.74114000  1.0
  C  C84  1  0.42508000  0.87679000  0.16216000  1.0
  C  C85  1  0.57491000  0.12321000  0.83783000  1.0
  C  C86  1  0.57443000  0.84446000  0.44432000  1.0
  C  C87  1  0.42556000  0.15555000  0.55567000  1.0
  C  C88  1  0.49940000  0.26076000  0.11514000  1.0
  C  C89  1  0.50059000  0.73923000  0.88486000  1.0
  C  C90  1  0.58004000  0.38541000  0.15887000  1.0
  C  C91  1  0.41996000  0.61458000  0.84113000  1.0
  C  C92  1  0.60892000  0.43872000  0.26479000  1.0
  C  C93  1  0.39108000  0.56127000  0.73522000  1.0
  C  C94  1  0.68224000  0.55529000  0.30121000  1.0
  C  C95  1  0.31776000  0.44470000  0.69880000  1.0
  C  C96  1  0.72719000  0.62156000  0.23082000  1.0
  C  C97  1  0.27281000  0.37843000  0.76919000  1.0
  C  C98  1  0.70115000  0.56953000  0.12491000  1.0
  C  C99  1  0.29885000  0.43046000  0.87510000  1.0
  C  C100  1  0.62974000  0.45216000  0.08989000  1.0
  C  C101  1  0.37026000  0.54783000  0.91011000  1.0
  Br  Br102  1  0.56305000  0.34648000  0.36660000  1.0
  Br  Br103  1  0.43697000  0.65350000  0.63340000  1.0
  Br  Br104  1  0.06823000  0.86627000  0.39314000  1.0
  Br  Br105  1  0.93177000  0.13372000  0.60685000  1.0
  N  N106  1  0.02080000  0.11712000  0.13356000  1.0
  N  N107  1  0.97920000  0.88288000  0.86644000  1.0
  N  N108  1  0.52058000  0.95707000  0.14300000  1.0
  N  N109  1  0.47942000  0.04293000  0.85700000  1.0
  O  O110  1  0.06868000  0.85565000  0.07643000  1.0
  O  O111  1  0.93132000  0.14435000  0.92357000  1.0
  O  O112  1  0.56667000  0.18104000  0.06235000  1.0
  O  O113  1  0.43332000  0.81896000  0.93765000  1.0
  O  O114  1  0.88600000  0.84622000  0.15966000  1.0
  O  O115  1  0.11400000  0.15377000  0.84034000  1.0
  O  O116  1  0.37673000  0.24650000  0.13100000  1.0
  O  O117  1  0.62326000  0.75350000  0.86900000  1.0
  O  O118  1  0.25090000  0.04542000  0.99763000  1.0
  O  O119  1  0.74910000  0.95458000  0.00236000  1.0
