# generated using pymatgen
data_MnH24C24S2(N3O4)2
_symmetry_space_group_name_H-M   'P 1'
_cell_length_a   5.72822000
_cell_length_b   7.05477000
_cell_length_c   15.49520000
_cell_angle_alpha   100.61000000
_cell_angle_beta   99.14400000
_cell_angle_gamma   94.22520000
_symmetry_Int_Tables_number   1
_chemical_formula_structural   MnH24C24S2(N3O4)2
_chemical_formula_sum   'Mn1 H24 C24 S2 N6 O8'
_cell_volume   604.22535907
_cell_formula_units_Z   1
loop_
 _symmetry_equiv_pos_site_id
 _symmetry_equiv_pos_as_xyz
  1  'x, y, z'
loop_
 _atom_site_type_symbol
 _atom_site_label
 _atom_site_symmetry_multiplicity
 _atom_site_fract_x
 _atom_site_fract_y
 _atom_site_fract_z
 _atom_site_occupancy
  Mn  Mn0  1  0.00001000  0.00000000  0.00000000  1.0
  H  H1  1  0.41954000  0.37659000  0.71970000  1.0
  H  H2  1  0.58047000  0.62339000  0.28029000  1.0
  H  H3  1  0.57727000  0.12195000  0.59260000  1.0
  H  H4  1  0.42273000  0.87806000  0.40740000  1.0
  H  H5  1  0.40080000  0.24082000  0.06003000  1.0
  H  H6  1  0.59919000  0.75917000  0.93997000  1.0
  H  H7  1  0.73152000  0.13961000  0.75442000  1.0
  H  H8  1  0.26848000  0.86041000  0.24558000  1.0
  H  H9  1  0.17849000  0.36707000  0.08849000  1.0
  H  H10  1  0.82151000  0.63293000  0.91151000  1.0
  H  H11  1  0.26650000  0.34711000  0.55680000  1.0
  H  H12  1  0.73350000  0.65287000  0.44320000  1.0
  H  H13  1  0.78205000  0.32630000  0.04007000  1.0
  H  H14  1  0.21794000  0.67371000  0.95993000  1.0
  H  H15  1  0.62693000  0.21827000  0.94958000  1.0
  H  H16  1  0.37307000  0.78174000  0.05042000  1.0
  H  H17  1  0.04275000  0.36118000  0.23350000  1.0
  H  H18  1  0.95724000  0.63882000  0.76650000  1.0
  H  H19  1  0.20071000  0.35652000  0.39225000  1.0
  H  H20  1  0.79929000  0.64348000  0.60776000  1.0
  H  H21  1  0.82550000  0.11918000  0.31583000  1.0
  H  H22  1  0.17449000  0.88081000  0.68418000  1.0
  H  H23  1  0.66295000  0.11333000  0.15683000  1.0
  H  H24  1  0.33704000  0.88667000  0.84318000  1.0
  C  C25  1  0.23583000  0.32084000  0.69143000  1.0
  C  C26  1  0.76417000  0.67915000  0.30857000  1.0
  C  C27  1  0.08316000  0.26278000  0.74592000  1.0
  C  C28  1  0.91685000  0.73721000  0.25408000  1.0
  C  C29  1  0.84628000  0.18868000  0.71140000  1.0
  C  C30  1  0.15372000  0.81132000  0.28860000  1.0
  C  C31  1  0.90957000  0.24181000  0.56655000  1.0
  C  C32  1  0.09043000  0.75818000  0.43344000  1.0
  C  C33  1  0.75990000  0.17914000  0.62172000  1.0
  C  C34  1  0.24010000  0.82087000  0.37828000  1.0
  C  C35  1  0.14976000  0.30640000  0.60101000  1.0
  C  C36  1  0.85025000  0.69358000  0.39899000  1.0
  C  C37  1  0.34549000  0.24187000  0.18506000  1.0
  C  C38  1  0.65451000  0.75813000  0.81495000  1.0
  C  C39  1  0.21380000  0.30813000  0.25150000  1.0
  C  C40  1  0.78619000  0.69188000  0.74850000  1.0
  C  C41  1  0.65518000  0.17270000  0.29705000  1.0
  C  C42  1  0.34482000  0.82731000  0.70295000  1.0
  C  C43  1  0.52749000  0.24504000  0.36418000  1.0
  C  C44  1  0.47251000  0.75497000  0.63582000  1.0
  C  C45  1  0.56401000  0.16976000  0.20858000  1.0
  C  C46  1  0.43598000  0.83024000  0.79142000  1.0
  C  C47  1  0.30318000  0.30775000  0.34029000  1.0
  C  C48  1  0.69682000  0.69225000  0.65971000  1.0
  S  S49  1  0.18724000  0.29073000  0.86156000  1.0
  S  S50  1  0.81276000  0.70928000  0.13844000  1.0
  N  N51  1  0.26062000  0.24411000  0.09408000  1.0
  N  N52  1  0.73937000  0.75589000  0.90592000  1.0
  N  N53  1  0.60991000  0.25559000  0.45540000  1.0
  N  N54  1  0.39009000  0.74441000  0.54461000  1.0
  N  N55  1  0.83151000  0.24173000  0.47564000  1.0
  N  N56  1  0.16849000  0.75826000  0.52436000  1.0
  O  O57  1  0.71579000  0.19316000  0.00641000  1.0
  O  O58  1  0.28421000  0.80685000  0.99359000  1.0
  O  O59  1  0.09369000  0.11145000  0.88742000  1.0
  O  O60  1  0.90631000  0.88856000  0.11258000  1.0
  O  O61  1  0.44793000  0.31818000  0.87516000  1.0
  O  O62  1  0.55207000  0.68182000  0.12484000  1.0
  O  O63  1  0.08449000  0.46070000  0.90583000  1.0
  O  O64  1  0.91552000  0.53931000  0.09416000  1.0
