# generated using pymatgen
data_ZnAg2H32C28(N5O2)2
_symmetry_space_group_name_H-M   'P 1'
_cell_length_a   7.17872000
_cell_length_b   9.28603326
_cell_length_c   12.47940000
_cell_angle_alpha   76.82844716
_cell_angle_beta   84.50280000
_cell_angle_gamma   69.20815280
_symmetry_Int_Tables_number   1
_chemical_formula_structural   ZnAg2H32C28(N5O2)2
_chemical_formula_sum   'Zn1 Ag2 H32 C28 N10 O4'
_cell_volume   757.16139368
_cell_formula_units_Z   1
loop_
 _symmetry_equiv_pos_site_id
 _symmetry_equiv_pos_as_xyz
  1  'x, y, z'
loop_
 _atom_site_type_symbol
 _atom_site_label
 _atom_site_symmetry_multiplicity
 _atom_site_fract_x
 _atom_site_fract_y
 _atom_site_fract_z
 _atom_site_occupancy
  Zn  Zn0  1  0.50000000  0.00000000  0.00000000  1.0
  Ag  Ag1  1  0.80318000  0.44501000  0.94790000  1.0
  Ag  Ag2  1  0.19681000  0.55500000  0.05210000  1.0
  H  H3  1  0.65265000  0.94028000  0.23175000  1.0
  H  H4  1  0.34735000  0.05972000  0.76825000  1.0
  H  H5  1  0.56843000  0.82897000  0.42388000  1.0
  H  H6  1  0.43156000  0.17103000  0.57612000  1.0
  H  H7  1  0.05365000  0.79057000  0.29314000  1.0
  H  H8  1  0.94635000  0.20943000  0.70686000  1.0
  H  H9  1  0.16426000  0.90086000  0.10633000  1.0
  H  H10  1  0.83574000  0.09914000  0.89367000  1.0
  H  H11  1  0.38156000  0.39881000  0.73419000  1.0
  H  H12  1  0.61844000  0.60119000  0.26581000  1.0
  H  H13  1  0.27079000  0.50676000  0.83814000  1.0
  H  H14  1  0.72922000  0.49324000  0.16185000  1.0
  H  H15  1  0.50725000  0.50592000  0.78187000  1.0
  H  H16  1  0.49276000  0.49408000  0.21813000  1.0
  H  H17  1  0.40967000  0.79229000  0.72624000  1.0
  H  H18  1  0.59033000  0.20771000  0.27376000  1.0
  H  H19  1  0.17762000  0.80811000  0.79415000  1.0
  H  H20  1  0.82238000  0.19189000  0.20585000  1.0
  H  H21  1  0.18423000  0.90965000  0.65428000  1.0
  H  H22  1  0.81577000  0.09035000  0.34572000  1.0
  H  H23  1  0.90371000  0.52327000  0.59719000  1.0
  H  H24  1  0.09630000  0.47673000  0.40281000  1.0
  H  H25  1  0.04345000  0.43749000  0.71968000  1.0
  H  H26  1  0.95656000  0.56251000  0.28032000  1.0
  H  H27  1  0.16972000  0.43835000  0.58940000  1.0
  H  H28  1  0.83029000  0.56165000  0.41060000  1.0
  H  H29  1  0.87035000  0.87770000  0.69679000  1.0
  H  H30  1  0.12966000  0.12229000  0.30321000  1.0
  H  H31  1  0.88180000  0.69699000  0.78806000  1.0
  H  H32  1  0.11821000  0.30300000  0.21194000  1.0
  H  H33  1  0.73901000  0.76145000  0.66635000  1.0
  H  H34  1  0.26100000  0.23854000  0.33365000  1.0
  C  C35  1  0.59093000  0.65959000  0.94925000  1.0
  C  C36  1  0.40904000  0.34042000  0.05075000  1.0
  C  C37  1  0.04246000  0.24498000  0.95049000  1.0
  C  C38  1  0.95753000  0.75503000  0.04951000  1.0
  C  C39  1  0.52131000  0.90547000  0.24967000  1.0
  C  C40  1  0.47869000  0.09453000  0.75033000  1.0
  C  C41  1  0.47317000  0.84367000  0.35651000  1.0
  C  C42  1  0.52682000  0.15633000  0.64349000  1.0
  C  C43  1  0.30257000  0.79949000  0.37429000  1.0
  C  C44  1  0.69742000  0.20051000  0.62571000  1.0
  C  C45  1  0.18757000  0.82155000  0.28310000  1.0
  C  C46  1  0.81242000  0.17845000  0.71690000  1.0
  C  C47  1  0.24817000  0.88319000  0.17928000  1.0
  C  C48  1  0.75182000  0.11682000  0.82072000  1.0
  C  C49  1  0.24473000  0.73651000  0.48465000  1.0
  C  C50  1  0.75528000  0.26349000  0.51535000  1.0
  C  C51  1  0.26029000  0.65346000  0.67749000  1.0
  C  C52  1  0.73971000  0.34654000  0.32251000  1.0
  C  C53  1  0.05420000  0.66606000  0.63923000  1.0
  C  C54  1  0.94580000  0.33394000  0.36077000  1.0
  C  C55  1  0.36140000  0.50661000  0.76209000  1.0
  C  C56  1  0.63861000  0.49339000  0.23792000  1.0
  C  C57  1  0.25624000  0.80120000  0.71456000  1.0
  C  C58  1  0.74376000  0.19880000  0.28544000  1.0
  C  C59  1  0.04340000  0.50560000  0.63526000  1.0
  C  C60  1  0.95661000  0.49440000  0.36473000  1.0
  C  C61  1  0.87577000  0.75730000  0.70118000  1.0
  C  C62  1  0.12424000  0.24269000  0.29882000  1.0
  N  N63  1  0.48809000  0.78697000  0.95717000  1.0
  N  N64  1  0.51190000  0.21303000  0.04283000  1.0
  N  N65  1  0.18771000  0.13418000  0.95602000  1.0
  N  N66  1  0.81227000  0.86583000  0.04398000  1.0
  N  N67  1  0.41227000  0.92380000  0.16254000  1.0
  N  N68  1  0.58772000  0.07620000  0.83746000  1.0
  N  N69  1  0.37393000  0.65467000  0.56878000  1.0
  N  N70  1  0.62607000  0.34533000  0.43122000  1.0
  N  N71  1  0.05581000  0.75572000  0.52146000  1.0
  N  N72  1  0.94419000  0.24428000  0.47854000  1.0
  O  O73  1  0.56382000  0.60779000  0.56236000  1.0
  O  O74  1  0.43618000  0.39222000  0.43764000  1.0
  O  O75  1  0.89598000  0.83003000  0.46595000  1.0
  O  O76  1  0.10403000  0.16996000  0.53405000  1.0
