# generated using pymatgen
data_Zn8H42C70I3N3O26
_symmetry_space_group_name_H-M   'P 1'
_cell_length_a   18.23760000
_cell_length_b   18.25648432
_cell_length_c   18.26110000
_cell_angle_alpha   119.69573376
_cell_angle_beta   90.59990000
_cell_angle_gamma   119.45069491
_symmetry_Int_Tables_number   1
_chemical_formula_structural   Zn8H42C70I3N3O26
_chemical_formula_sum   'Zn8 H42 C70 I3 N3 O26'
_cell_volume   4331.97406715
_cell_formula_units_Z   1
loop_
 _symmetry_equiv_pos_site_id
 _symmetry_equiv_pos_as_xyz
  1  'x, y, z'
loop_
 _atom_site_type_symbol
 _atom_site_label
 _atom_site_symmetry_multiplicity
 _atom_site_fract_x
 _atom_site_fract_y
 _atom_site_fract_z
 _atom_site_occupancy
  Zn  Zn0  1  0.55287000  0.09459000  0.13680000  1.0
  Zn  Zn1  1  0.53270000  0.08333000  0.95662000  1.0
  Zn  Zn2  1  0.36723000  0.91391000  0.96904000  1.0
  Zn  Zn3  1  0.54191000  0.91475000  0.95840000  1.0
  Zn  Zn4  1  0.96225000  0.91436000  0.37169000  1.0
  Zn  Zn5  1  0.13130000  0.09446000  0.55131000  1.0
  Zn  Zn6  1  0.95266000  0.91271000  0.54438000  1.0
  Zn  Zn7  1  0.95311000  0.08592000  0.54289000  1.0
  H  H8  1  0.74863000  0.92618000  0.08880000  1.0
  H  H9  1  0.21848000  0.60039000  0.87324000  1.0
  H  H10  1  0.65372000  0.83987000  0.09778000  1.0
  H  H11  1  0.42754000  0.69740000  0.73083000  1.0
  H  H12  1  0.43398000  0.60858000  0.57791000  1.0
  H  H13  1  0.32695000  0.41899000  0.47142000  1.0
  H  H14  1  0.77285000  0.03464000  0.96700000  1.0
  H  H15  1  0.90728000  0.04322000  0.00500000  1.0
  H  H16  1  0.00015000  0.03611000  0.90500000  1.0
  H  H17  1  0.95605000  0.02100000  0.76740000  1.0
  H  H18  1  0.74377000  0.83894000  0.18858000  1.0
  H  H19  1  0.75263000  0.05316000  0.39557000  1.0
  H  H20  1  0.73099000  0.02692000  0.63877000  1.0
  H  H21  1  0.21026000  0.98034000  0.86530000  1.0
  H  H22  1  0.39456000  0.84703000  0.54355000  1.0
  H  H23  1  0.33789000  0.90530000  0.47407000  1.0
  H  H24  1  0.24083000  0.96206000  0.53354000  1.0
  H  H25  1  0.11893000  0.98840000  0.76976000  1.0
  H  H26  1  0.76138000  0.40376000  0.28312000  1.0
  H  H27  1  0.53325000  0.31417000  0.05811000  1.0
  H  H28  1  0.49215000  0.41212000  0.03382000  1.0
  H  H29  1  0.83885000  0.92273000  0.17757000  1.0
  H  H30  1  0.78817000  0.16543000  0.28993000  1.0
  H  H31  1  0.58589000  0.60449000  0.13618000  1.0
  H  H32  1  0.72079000  0.69633000  0.25925000  1.0
  H  H33  1  0.85745000  0.59566000  0.38174000  1.0
  H  H34  1  0.82713000  0.11928000  0.20061000  1.0
  H  H35  1  0.91890000  0.11428000  0.28510000  1.0
  H  H36  1  0.65021000  0.03947000  0.30302000  1.0
  H  H37  1  0.59990000  0.90632000  0.22643000  1.0
  H  H38  1  0.19109000  0.24670000  0.51266000  1.0
  H  H39  1  0.20877000  0.27320000  0.43640000  1.0
  H  H40  1  0.05052000  0.32932000  0.73765000  1.0
  H  H41  1  0.88478000  0.16663000  0.37683000  1.0
  H  H42  1  0.09236000  0.44848000  0.83611000  1.0
  H  H43  1  0.61919000  0.04568000  0.68052000  1.0
  H  H44  1  0.59312000  0.05427000  0.77483000  1.0
  H  H45  1  0.34478000  0.13741000  0.25153000  1.0
  H  H46  1  0.27180000  0.70653000  0.19513000  1.0
  H  H47  1  0.16570000  0.70414000  0.27936000  1.0
  H  H48  1  0.13384000  0.83598000  0.33493000  1.0
  H  H49  1  0.24648000  0.13808000  0.34535000  1.0
  C  C50  1  0.64657000  0.01671000  0.87488000  1.0
  C  C51  1  0.17991000  0.83644000  0.29749000  1.0
  C  C52  1  0.22163000  0.91400000  0.28184000  1.0
  C  C53  1  0.37502000  0.00241000  0.15625000  1.0
  C  C54  1  0.28262000  0.91594000  0.23123000  1.0
  C  C55  1  0.32298000  0.99688000  0.21877000  1.0
  C  C56  1  0.31107000  0.07557000  0.26074000  1.0
  C  C57  1  0.25492000  0.07544000  0.31250000  1.0
  C  C58  1  0.20798000  0.99416000  0.31990000  1.0
  C  C59  1  0.38016000  0.61472000  0.68324000  1.0
  C  C60  1  0.38437000  0.56505000  0.59854000  1.0
  C  C61  1  0.66425000  0.98192000  0.26350000  1.0
  C  C62  1  0.32435000  0.45827000  0.53892000  1.0
  C  C63  1  0.26002000  0.39904000  0.56221000  1.0
  C  C64  1  0.25414000  0.44818000  0.65044000  1.0
  C  C65  1  0.62505000  0.27885000  0.13659000  1.0
  C  C66  1  0.31471000  0.55853000  0.70970000  1.0
  C  C67  1  0.30105000  0.61031000  0.79230000  1.0
  C  C68  1  0.22932000  0.55758000  0.81206000  1.0
  C  C69  1  0.16973000  0.44891000  0.75581000  1.0
  C  C70  1  0.18598000  0.39399000  0.67811000  1.0
  C  C71  1  0.81213000  0.03139000  0.92258000  1.0
  C  C72  1  0.70607000  0.99966000  0.19564000  1.0
  C  C73  1  0.88779000  0.03595000  0.94381000  1.0
  C  C74  1  0.94025000  0.03210000  0.88771000  1.0
  C  C75  1  0.91576000  0.02396000  0.81091000  1.0
  C  C76  1  0.83864000  0.01954000  0.78732000  1.0
  C  C77  1  0.36032000  0.72451000  0.85913000  1.0
  C  C78  1  0.78467000  0.02322000  0.84413000  1.0
  C  C79  1  0.70904000  0.02446000  0.82352000  1.0
  C  C80  1  0.69210000  0.03077000  0.75190000  1.0
  C  C81  1  0.74578000  0.02570000  0.69607000  1.0
  C  C82  1  0.81449000  0.01745000  0.71095000  1.0
  C  C83  1  0.80971000  0.99947000  0.29516000  1.0
  C  C84  1  0.34333000  0.88895000  0.65163000  1.0
  C  C85  1  0.35883000  0.88093000  0.57482000  1.0
  C  C86  1  0.32472000  0.91159000  0.53438000  1.0
  C  C87  1  0.27083000  0.94352000  0.56755000  1.0
  C  C88  1  0.25333000  0.95246000  0.64615000  1.0
  C  C89  1  0.34630000  0.97065000  0.84887000  1.0
  C  C90  1  0.29578000  0.93187000  0.69388000  1.0
  C  C91  1  0.28370000  0.95118000  0.77736000  1.0
  C  C92  1  0.21974000  0.96902000  0.80263000  1.0
  C  C93  1  0.17055000  0.97664000  0.75059000  1.0
  C  C94  1  0.86003000  0.10391000  0.30575000  1.0
  C  C95  1  0.19019000  0.97472000  0.67695000  1.0
  C  C96  1  0.57450000  0.39761000  0.10246000  1.0
  C  C97  1  0.55179000  0.45273000  0.08888000  1.0
  C  C98  1  0.60479000  0.56111000  0.14619000  1.0
  C  C99  1  0.68047000  0.61283000  0.21556000  1.0
  C  C100  1  0.70652000  0.55886000  0.23144000  1.0
  C  C101  1  0.64433000  0.00104000  0.14010000  1.0
  C  C102  1  0.65159000  0.44794000  0.17378000  1.0
  C  C103  1  0.67482000  0.39351000  0.19331000  1.0
  C  C104  1  0.74657000  0.44696000  0.26839000  1.0
  C  C105  1  0.72898000  0.98924000  0.32563000  1.0
  C  C106  1  0.80038000  0.55468000  0.32391000  1.0
  C  C107  1  0.78286000  0.61042000  0.30510000  1.0
  C  C108  1  0.13482000  0.28167000  0.63358000  1.0
  C  C109  1  0.84836000  0.72467000  0.36311000  1.0
  C  C110  1  0.14412000  0.99538000  0.37052000  1.0
  C  C111  1  0.86248000  0.00702000  0.64436000  1.0
  C  C112  1  0.13878000  0.99224000  0.63073000  1.0
  C  C113  1  0.71924000  0.91403000  0.13729000  1.0
  C  C114  1  0.87301000  0.00610000  0.35714000  1.0
  C  C115  1  0.77944000  0.91289000  0.19647000  1.0
  C  C116  1  0.29866000  0.83788000  0.20098000  1.0
  C  C117  1  0.79785000  0.10453000  0.24813000  1.0
  C  C118  1  0.25721000  0.76394000  0.21819000  1.0
  C  C119  1  0.19730000  0.76295000  0.26635000  1.0
  I  I120  1  0.39072000  0.82737000  0.13336000  1.0
  I  I121  1  0.37321000  0.80960000  0.68681000  1.0
  I  I122  1  0.65953000  0.85738000  0.33547000  1.0
  N  N123  1  0.19714000  0.29422000  0.49555000  1.0
  N  N124  1  0.10311000  0.40285000  0.78381000  1.0
  N  N125  1  0.62377000  0.03568000  0.72962000  1.0
  O  O126  1  0.49790000  0.00221000  0.00616000  1.0
  O  O127  1  0.88289000  0.94288000  0.62072000  1.0
  O  O128  1  0.18052000  0.05137000  0.60581000  1.0
  O  O129  1  0.62826000  0.95836000  0.90103000  1.0
  O  O130  1  0.88861000  0.06480000  0.44060000  1.0
  O  O131  1  0.05617000  0.94745000  0.62247000  1.0
  O  O132  1  0.90624000  0.95514000  0.32131000  1.0
  O  O133  1  0.06299000  0.91678000  0.33131000  1.0
  O  O134  1  0.87757000  0.06208000  0.61513000  1.0
  O  O135  1  0.17831000  0.24017000  0.61453000  1.0
  O  O136  1  0.88202000  0.76634000  0.44625000  1.0
  O  O137  1  0.62280000  0.23881000  0.17815000  1.0
  O  O138  1  0.45846000  0.07266000  0.19182000  1.0
  O  O139  1  0.59076000  0.22998000  0.05214000  1.0
  O  O140  1  0.32114000  0.76796000  0.89541000  1.0
  O  O141  1  0.42922000  0.03453000  0.86703000  1.0
  O  O142  1  0.60818000  0.93026000  0.05659000  1.0
  O  O143  1  0.31184000  0.93062000  0.89067000  1.0
  O  O144  1  0.63350000  0.07346000  0.18241000  1.0
  O  O145  1  0.44462000  0.76907000  0.87598000  1.0
  O  O146  1  0.61278000  0.06803000  0.88841000  1.0
  O  O147  1  0.32790000  0.94160000  0.07362000  1.0
  O  O148  1  0.00059000  0.00216000  0.50291000  1.0
  O  O149  1  0.05093000  0.23280000  0.62249000  1.0
  O  O150  1  0.86790000  0.77139000  0.32515000  1.0
  O  O151  1  0.17596000  0.07737000  0.44855000  1.0
