# generated using pymatgen
data_Fe2H20C29N18O
_symmetry_space_group_name_H-M   'P 1'
_cell_length_a   8.48038000
_cell_length_b   9.50548000
_cell_length_c   9.80881000
_cell_angle_alpha   84.91780000
_cell_angle_beta   67.57520000
_cell_angle_gamma   82.27800000
_symmetry_Int_Tables_number   1
_chemical_formula_structural   Fe2H20C29N18O
_chemical_formula_sum   'Fe2 H20 C29 N18 O1'
_cell_volume   723.66823052
_cell_formula_units_Z   1
loop_
 _symmetry_equiv_pos_site_id
 _symmetry_equiv_pos_as_xyz
  1  'x, y, z'
loop_
 _atom_site_type_symbol
 _atom_site_label
 _atom_site_symmetry_multiplicity
 _atom_site_fract_x
 _atom_site_fract_y
 _atom_site_fract_z
 _atom_site_occupancy
  Fe  Fe0  1  0.00191000  0.99996000  0.99953000  1.0
  Fe  Fe1  1  0.95968000  0.00280000  0.51403000  1.0
  H  H2  1  0.54790000  0.31594000  0.69371000  1.0
  H  H3  1  0.45283000  0.69371000  0.31263000  1.0
  H  H4  1  0.75445000  0.49679000  0.57118000  1.0
  H  H5  1  0.24182000  0.51520000  0.42832000  1.0
  H  H6  1  0.63608000  0.75041000  0.55041000  1.0
  H  H7  1  0.35393000  0.25651000  0.43718000  1.0
  H  H8  1  0.31705000  0.81429000  0.65543000  1.0
  H  H9  1  0.67167000  0.18919000  0.33078000  1.0
  H  H10  1  0.02260000  0.59721000  0.76574000  1.0
  H  H11  1  0.94046000  0.49456000  0.68653000  1.0
  H  H12  1  0.97531000  0.40231000  0.23110000  1.0
  H  H13  1  0.05892000  0.50305000  0.31106000  1.0
  H  H14  1  0.61678000  0.96072000  0.15362000  1.0
  H  H15  1  0.38174000  0.04467000  0.86174000  1.0
  H  H16  1  0.34739000  0.10674000  0.16376000  1.0
  H  H17  1  0.65524000  0.89560000  0.84928000  1.0
  H  H18  1  0.36124000  0.34633000  0.03390000  1.0
  H  H19  1  0.64113000  0.65083000  0.96331000  1.0
  H  H20  1  0.65398000  0.43377000  0.90158000  1.0
  H  H21  1  0.34858000  0.56219000  0.09156000  1.0
  C  C22  1  0.20110000  0.37138000  0.80726000  1.0
  C  C23  1  0.79899000  0.63092000  0.19106000  1.0
  C  C24  1  0.95717000  0.27931000  0.89972000  1.0
  C  C25  1  0.04509000  0.71964000  0.09753000  1.0
  C  C26  1  0.32656000  0.47267000  0.73892000  1.0
  C  C27  1  0.67077000  0.53199000  0.25973000  1.0
  C  C28  1  0.50296000  0.42773000  0.68457000  1.0
  C  C29  1  0.49520000  0.58047000  0.31659000  1.0
  C  C30  1  0.61656000  0.52859000  0.61699000  1.0
  C  C31  1  0.37906000  0.48076000  0.38154000  1.0
  C  C32  1  0.55060000  0.66975000  0.60562000  1.0
  C  C33  1  0.44091000  0.33763000  0.38804000  1.0
  C  C34  1  0.37319000  0.70536000  0.66346000  1.0
  C  C35  1  0.61792000  0.29980000  0.32937000  1.0
  C  C36  1  0.78366000  0.24359000  0.96089000  1.0
  C  C37  1  0.21884000  0.75474000  0.03685000  1.0
  C  C38  1  0.62010000  0.06596000  0.09955000  1.0
  C  C39  1  0.38184000  0.93598000  0.90754000  1.0
  C  C40  1  0.46955000  0.14850000  0.10360000  1.0
  C  C41  1  0.53233000  0.85272000  0.90199000  1.0
  C  C42  1  0.47823000  0.28183000  0.03191000  1.0
  C  C43  1  0.52409000  0.71626000  0.96696000  1.0
  C  C44  1  0.63845000  0.33050000  0.95913000  1.0
  C  C45  1  0.36412000  0.66666667  0.03680000  1.0
  C  C46  1  0.98827000  0.03107000  0.31076000  1.0
  C  C47  1  0.20583000  0.97654000  0.44307000  1.0
  C  C48  1  0.98592000  0.19830000  0.52719000  1.0
  C  C49  1  0.98383000  0.96977000  0.70021000  1.0
  C  C50  1  0.98442000  0.80247000  0.48495000  1.0
  N  N51  1  0.08105000  0.18355000  0.91481000  1.0
  N  N52  1  0.92227000  0.81698000  0.08309000  1.0
  N  N53  1  0.23242000  0.24014000  0.85901000  1.0
  N  N54  1  0.76991000  0.76241000  0.13889000  1.0
  N  N55  1  0.02876000  0.39882000  0.83136000  1.0
  N  N56  1  0.97140000  0.60106000  0.16634000  1.0
  N  N57  1  0.26242000  0.60969000  0.72982000  1.0
  N  N58  1  0.73179000  0.39365000  0.26582000  1.0
  N  N59  1  0.94153000  0.51874000  0.78683000  1.0
  N  N60  1  0.05700000  0.48002000  0.21078000  1.0
  N  N61  1  0.77561000  0.11100000  0.02890000  1.0
  N  N62  1  0.22675000  0.88888000  0.97257000  1.0
  N  N63  1  0.99223000  0.03732000  0.18979000  1.0
  N  N64  1  0.35567000  0.95826000  0.40506000  1.0
  N  N65  1  0.99795000  0.31771000  0.53919000  1.0
  N  N66  1  0.00542000  0.96287000  0.81184000  1.0
  N  N67  1  0.99798000  0.68148000  0.46213000  1.0
  N  N68  1  0.74754000  0.02889000  0.56738000  1.0
  O  O69  1  0.60128000  0.05258000  0.59204000  1.0
