# generated using pymatgen
data_CuH9C13N3O4
_symmetry_space_group_name_H-M   'P 1'
_cell_length_a   8.26040000
_cell_length_b   9.07289000
_cell_length_c   9.16740000
_cell_angle_alpha   114.48500000
_cell_angle_beta   95.52620000
_cell_angle_gamma   103.08100000
_symmetry_Int_Tables_number   1
_chemical_formula_structural   CuH9C13N3O4
_chemical_formula_sum   'Cu2 H18 C26 N6 O8'
_cell_volume   594.87493999
_cell_formula_units_Z   2
loop_
 _symmetry_equiv_pos_site_id
 _symmetry_equiv_pos_as_xyz
  1  'x, y, z'
loop_
 _atom_site_type_symbol
 _atom_site_label
 _atom_site_symmetry_multiplicity
 _atom_site_fract_x
 _atom_site_fract_y
 _atom_site_fract_z
 _atom_site_occupancy
  Cu  Cu0  1  0.78463000  0.72604000  0.74303000  1.0
  Cu  Cu1  1  0.21540000  0.27396000  0.25696000  1.0
  H  H2  1  0.78545000  0.26475000  0.34523000  1.0
  H  H3  1  0.21457000  0.73526000  0.65478000  1.0
  H  H4  1  0.62749000  0.57093000  0.91962000  1.0
  H  H5  1  0.37251000  0.42908000  0.08038000  1.0
  H  H6  1  0.55933000  0.28840000  0.92127000  1.0
  H  H7  1  0.44066000  0.71161000  0.07875000  1.0
  H  H8  1  0.60844000  0.04394000  0.68474000  1.0
  H  H9  1  0.39157000  0.95606000  0.31527000  1.0
  H  H10  1  0.71357000  0.09338000  0.45639000  1.0
  H  H11  1  0.28644000  0.90663000  0.54362000  1.0
  H  H12  1  0.86721000  0.36259000  0.17144000  1.0
  H  H13  1  0.13281000  0.63742000  0.82858000  1.0
  H  H14  1  0.91461000  0.59935000  0.09153000  1.0
  H  H15  1  0.08539000  0.40065000  0.90847000  1.0
  H  H16  1  0.87651000  0.87594000  0.28147000  1.0
  H  H17  1  0.12349000  0.12406000  0.71852000  1.0
  H  H18  1  0.81486000  0.91117000  0.55471000  1.0
  H  H19  1  0.18513000  0.08883000  0.44528000  1.0
  C  C20  1  0.52612000  0.89345000  0.91438000  1.0
  C  C21  1  0.47387000  0.10655000  0.08561000  1.0
  C  C22  1  0.61609000  0.03097000  0.07980000  1.0
  C  C23  1  0.38391000  0.96905000  0.92020000  1.0
  C  C24  1  0.98076000  0.05310000  0.95764000  1.0
  C  C25  1  0.01922000  0.94689000  0.04233000  1.0
  C  C26  1  0.64340000  0.46006000  0.82022000  1.0
  C  C27  1  0.35660000  0.53994000  0.17979000  1.0
  C  C28  1  0.60565000  0.30362000  0.81976000  1.0
  C  C29  1  0.39434000  0.69638000  0.18025000  1.0
  C  C30  1  0.63273000  0.16835000  0.68777000  1.0
  C  C31  1  0.36727000  0.83165000  0.31223000  1.0
  C  C32  1  0.69179000  0.19462000  0.56207000  1.0
  C  C33  1  0.30821000  0.80538000  0.43793000  1.0
  C  C34  1  0.72703000  0.35790000  0.56970000  1.0
  C  C35  1  0.27297000  0.64210000  0.43031000  1.0
  C  C36  1  0.81232000  0.51294000  0.40502000  1.0
  C  C37  1  0.18768000  0.48706000  0.59498000  1.0
  C  C38  1  0.85348000  0.48533000  0.25150000  1.0
  C  C39  1  0.14652000  0.51466000  0.74851000  1.0
  C  C40  1  0.87939000  0.61566000  0.20747000  1.0
  C  C41  1  0.12061000  0.38433000  0.79253000  1.0
  C  C42  1  0.86066000  0.77182000  0.31402000  1.0
  C  C43  1  0.13934000  0.22818000  0.68598000  1.0
  C  C44  1  0.82433000  0.79138000  0.46371000  1.0
  C  C45  1  0.17567000  0.20862000  0.53629000  1.0
  N  N46  1  0.70497000  0.48823000  0.69955000  1.0
  N  N47  1  0.29503000  0.51176000  0.30045000  1.0
  N  N48  1  0.78659000  0.37872000  0.44279000  1.0
  N  N49  1  0.21341000  0.62128000  0.55722000  1.0
  N  N50  1  0.80318000  0.66625000  0.51105000  1.0
  N  N51  1  0.19682000  0.33375000  0.48894000  1.0
  O  O52  1  0.55085000  0.76268000  0.80893000  1.0
  O  O53  1  0.44913000  0.23731000  0.19107000  1.0
  O  O54  1  0.75391000  0.06955000  0.17721000  1.0
  O  O55  1  0.24609000  0.93045000  0.82279000  1.0
  O  O56  1  0.87487000  0.97509000  0.81999000  1.0
  O  O57  1  0.12513000  0.02492000  0.17998000  1.0
  O  O58  1  0.05455000  0.21039000  0.02916000  1.0
  O  O59  1  0.94544000  0.78959000  0.97085000  1.0
