# generated using pymatgen
data_CdH6C11N10
_symmetry_space_group_name_H-M   'P 1'
_cell_length_a   7.90261000
_cell_length_b   13.64960000
_cell_length_c   13.81110000
_cell_angle_alpha   110.79200000
_cell_angle_beta   94.62000000
_cell_angle_gamma   95.61110000
_symmetry_Int_Tables_number   1
_chemical_formula_structural   CdH6C11N10
_chemical_formula_sum   'Cd4 H24 C44 N40'
_cell_volume   1375.39799810
_cell_formula_units_Z   4
loop_
 _symmetry_equiv_pos_site_id
 _symmetry_equiv_pos_as_xyz
  1  'x, y, z'
loop_
 _atom_site_type_symbol
 _atom_site_label
 _atom_site_symmetry_multiplicity
 _atom_site_fract_x
 _atom_site_fract_y
 _atom_site_fract_z
 _atom_site_occupancy
  Cd  Cd0  1  0.00000000  0.00000000  0.00000000  1.0
  Cd  Cd1  1  0.14019000  0.51801000  0.71127000  1.0
  Cd  Cd2  1  0.85981000  0.48199000  0.28873000  1.0
  Cd  Cd3  1  0.50000000  0.00000000  0.50000000  1.0
  H  H4  1  0.00874000  0.31863000  0.77704000  1.0
  H  H5  1  0.99126000  0.68137000  0.22296000  1.0
  H  H6  1  0.87366000  0.62132000  0.86697000  1.0
  H  H7  1  0.12634000  0.37868000  0.13303000  1.0
  H  H8  1  0.67239000  0.58485000  0.98615000  1.0
  H  H9  1  0.32762000  0.41515000  0.01385000  1.0
  H  H10  1  0.64589000  0.40642000  0.00127000  1.0
  H  H11  1  0.35411000  0.59358000  0.99873000  1.0
  H  H12  1  0.06726000  0.23324000  0.94285000  1.0
  H  H13  1  0.93274000  0.76676000  0.05715000  1.0
  H  H14  1  0.53484000  0.19054000  0.84692000  1.0
  H  H15  1  0.46516000  0.80946000  0.15308000  1.0
  H  H16  1  0.08817000  0.13928000  0.24296000  1.0
  H  H17  1  0.91183000  0.86072000  0.75704000  1.0
  H  H18  1  0.61685000  0.01246000  0.06415000  1.0
  H  H19  1  0.38316000  0.98753000  0.93585000  1.0
  H  H20  1  0.45851000  0.09224000  0.21589000  1.0
  H  H21  1  0.54150000  0.90776000  0.78412000  1.0
  H  H22  1  0.62732000  0.19681000  0.39149000  1.0
  H  H23  1  0.37269000  0.80319000  0.60851000  1.0
  H  H24  1  0.18653000  0.14224000  0.42261000  1.0
  H  H25  1  0.81347000  0.85776000  0.57739000  1.0
  H  H26  1  0.83071000  0.36374000  0.49516000  1.0
  H  H27  1  0.16929000  0.63626000  0.50484000  1.0
  C  C28  1  0.93352000  0.37620000  0.82499000  1.0
  C  C29  1  0.06647000  0.62380000  0.17500000  1.0
  C  C30  1  0.85646000  0.54481000  0.87587000  1.0
  C  C31  1  0.14354000  0.45519000  0.12413000  1.0
  C  C32  1  0.74500000  0.52416000  0.94146000  1.0
  C  C33  1  0.25500000  0.47584000  0.05854000  1.0
  C  C34  1  0.72806000  0.42465000  0.94867000  1.0
  C  C35  1  0.27194000  0.57535000  0.05133000  1.0
  C  C36  1  0.82231000  0.34963000  0.88807000  1.0
  C  C37  1  0.17769000  0.65037000  0.11193000  1.0
  C  C38  1  0.93397000  0.19868000  0.92223000  1.0
  C  C39  1  0.06603000  0.80132000  0.07777000  1.0
  C  C40  1  0.65915000  0.17699000  0.87510000  1.0
  C  C41  1  0.34084000  0.82301000  0.12490000  1.0
  C  C42  1  0.94895000  0.12939000  0.24071000  1.0
  C  C43  1  0.05106000  0.87061000  0.75930000  1.0
  C  C44  1  0.68531000  0.06041000  0.14072000  1.0
  C  C45  1  0.31469000  0.93958000  0.85928000  1.0
  C  C46  1  0.59778000  0.10611000  0.22557000  1.0
  C  C47  1  0.40223000  0.89389000  0.77443000  1.0
  C  C48  1  0.69111000  0.16457000  0.32210000  1.0
  C  C49  1  0.30890000  0.83543000  0.67791000  1.0
  C  C50  1  0.86947000  0.17526000  0.32945000  1.0
  C  C51  1  0.13053000  0.82474000  0.67055000  1.0
  C  C52  1  0.12463000  0.21012000  0.46379000  1.0
  C  C53  1  0.87538000  0.78988000  0.53620000  1.0
  C  C54  1  0.93797000  0.32179000  0.50261000  1.0
  C  C55  1  0.06204000  0.67821000  0.49739000  1.0
  C  C56  1  0.82915000  0.92273000  0.35292000  1.0
  C  C57  1  0.17084000  0.07728000  0.64708000  1.0
  C  C58  1  0.12075000  0.93398000  0.34956000  1.0
  C  C59  1  0.87924000  0.06602000  0.65044000  1.0
  C  C60  1  0.54904000  0.25768000  0.60798000  1.0
  C  C61  1  0.45096000  0.74232000  0.39202000  1.0
  C  C62  1  0.44198000  0.39104000  0.73443000  1.0
  C  C63  1  0.55803000  0.60896000  0.26557000  1.0
  C  C64  1  0.37647000  0.70753000  0.88273000  1.0
  C  C65  1  0.62353000  0.29247000  0.11727000  1.0
  C  C66  1  0.65274000  0.79927000  0.92151000  1.0
  C  C67  1  0.34726000  0.20073000  0.07848000  1.0
  C  C68  1  0.77438000  0.60719000  0.64973000  1.0
  C  C69  1  0.22560000  0.39281000  0.35027000  1.0
  C  C70  1  0.48046000  0.60216000  0.63165000  1.0
  C  C71  1  0.51953000  0.39784000  0.36834000  1.0
  N  N72  1  0.86745000  0.10733000  0.92448000  1.0
  N  N73  1  0.13255000  0.89267000  0.07551000  1.0
  N  N74  1  0.69316000  0.09308000  0.89483000  1.0
  N  N75  1  0.30684000  0.90692000  0.10517000  1.0
  N  N76  1  0.80677000  0.24618000  0.89165000  1.0
  N  N77  1  0.19323000  0.75382000  0.10835000  1.0
  N  N78  1  0.95005000  0.47273000  0.82019000  1.0
  N  N79  1  0.04995000  0.52727000  0.17981000  1.0
  N  N80  1  0.06345000  0.35196000  0.58016000  1.0
  N  N81  1  0.93656000  0.64804000  0.41984000  1.0
  N  N82  1  0.18161000  0.28156000  0.55630000  1.0
  N  N83  1  0.81839000  0.71844000  0.44369000  1.0
  N  N84  1  0.97063000  0.23159000  0.42679000  1.0
  N  N85  1  0.02938000  0.76841000  0.57321000  1.0
  N  N86  1  0.85733000  0.07217000  0.14829000  1.0
  N  N87  1  0.14267000  0.92783000  0.85172000  1.0
  N  N88  1  0.69663000  0.95075000  0.37608000  1.0
  N  N89  1  0.30337000  0.04926000  0.62392000  1.0
  N  N90  1  0.96656000  0.88437000  0.31960000  1.0
  N  N91  1  0.03344000  0.11564000  0.68040000  1.0
  N  N92  1  0.26586000  0.97299000  0.36983000  1.0
  N  N93  1  0.73414000  0.02701000  0.63017000  1.0
  N  N94  1  0.55734000  0.18029000  0.53532000  1.0
  N  N95  1  0.44266000  0.81971000  0.46468000  1.0
  N  N96  1  0.56283000  0.34458000  0.68762000  1.0
  N  N97  1  0.43716000  0.65542000  0.31238000  1.0
  N  N98  1  0.34751000  0.44229000  0.78732000  1.0
  N  N99  1  0.65250000  0.55772000  0.21268000  1.0
  N  N100  1  0.22902000  0.67992000  0.85182000  1.0
  N  N101  1  0.77098000  0.32008000  0.14818000  1.0
  N  N102  1  0.53480000  0.72795000  0.92343000  1.0
  N  N103  1  0.46521000  0.27205000  0.07657000  1.0
  N  N104  1  0.77299000  0.85982000  0.92567000  1.0
  N  N105  1  0.22701000  0.14017000  0.07433000  1.0
  N  N106  1  0.91091000  0.57917000  0.64765000  1.0
  N  N107  1  0.08908000  0.42083000  0.35235000  1.0
  N  N108  1  0.63517000  0.65005000  0.65571000  1.0
  N  N109  1  0.36482000  0.34994000  0.34429000  1.0
  N  N110  1  0.33275000  0.56855000  0.61210000  1.0
  N  N111  1  0.66723000  0.43145000  0.38789000  1.0
