# generated using pymatgen
data_Tb2H40C52O19
_symmetry_space_group_name_H-M   'P 1'
_cell_length_a   7.03094000
_cell_length_b   14.58250000
_cell_length_c   16.69590440
_cell_angle_alpha   104.01038617
_cell_angle_beta   102.03007300
_cell_angle_gamma   90.03100000
_symmetry_Int_Tables_number   1
_chemical_formula_structural   Tb2H40C52O19
_chemical_formula_sum   'Tb2 H40 C52 O19'
_cell_volume   1622.06241642
_cell_formula_units_Z   1
loop_
 _symmetry_equiv_pos_site_id
 _symmetry_equiv_pos_as_xyz
  1  'x, y, z'
loop_
 _atom_site_type_symbol
 _atom_site_label
 _atom_site_symmetry_multiplicity
 _atom_site_fract_x
 _atom_site_fract_y
 _atom_site_fract_z
 _atom_site_occupancy
  Tb  Tb0  1  0.50609000  0.97127000  0.50279000  1.0
  Tb  Tb1  1  0.00342000  0.02919000  0.49721000  1.0
  H  H2  1  0.30695000  0.53481000  0.10733000  1.0
  H  H3  1  0.19910000  0.46451000  0.89231000  1.0
  H  H4  1  0.33382000  0.42840000  0.03031000  1.0
  H  H5  1  0.30344000  0.57084000  0.96921000  1.0
  H  H6  1  0.88351000  0.49969000  0.10764000  1.0
  H  H7  1  0.77560000  0.50005000  0.89249000  1.0
  H  H8  1  0.90392000  0.42461000  0.17970000  1.0
  H  H9  1  0.72500000  0.57549000  0.82073000  1.0
  H  H10  1  0.39408000  0.33852000  0.13135000  1.0
  H  H11  1  0.26312000  0.66104000  0.86849000  1.0
  H  H12  1  0.37511000  0.44145000  0.21348000  1.0
  H  H13  1  0.16247000  0.55812000  0.78642000  1.0
  H  H14  1  0.96102000  0.27859000  0.07568000  1.0
  H  H15  1  0.88653000  0.72113000  0.92460000  1.0
  H  H16  1  0.88227000  0.35438000  0.00607000  1.0
  H  H17  1  0.87670000  0.64550000  0.99435000  1.0
  H  H18  1  0.60699000  0.35284000  0.25467000  1.0
  H  H19  1  0.35295000  0.64706000  0.74496000  1.0
  H  H20  1  0.82573000  0.26778000  0.34519000  1.0
  H  H21  1  0.48098000  0.73266000  0.65447000  1.0
  H  H22  1  0.33312000  0.11261000  0.37268000  1.0
  H  H23  1  0.96049000  0.88723000  0.62774000  1.0
  H  H24  1  0.10981000  0.19717000  0.28176000  1.0
  H  H25  1  0.82853000  0.80225000  0.71886000  1.0
  H  H26  1  0.29181000  0.21695000  0.86233000  1.0
  H  H27  1  0.42998000  0.78225000  0.13741000  1.0
  H  H28  1  0.12941000  0.11812000  0.72007000  1.0
  H  H29  1  0.40967000  0.88139000  0.27973000  1.0
  H  H30  1  0.59046000  0.11549000  0.80231000  1.0
  H  H31  1  0.78948000  0.88527000  0.19787000  1.0
  H  H32  1  0.74946000  0.21226000  0.94468000  1.0
  H  H33  1  0.80619000  0.78808000  0.05551000  1.0
  H  H34  1  0.69711000  0.55777000  0.19276000  1.0
  H  H35  1  0.50388000  0.44269000  0.80730000  1.0
  H  H36  1  0.53478000  0.68242000  0.27993000  1.0
  H  H37  1  0.25415000  0.31837000  0.72030000  1.0
  H  H38  1  0.09063000  0.79671000  0.43547000  1.0
  H  H39  1  0.65443000  0.20351000  0.56431000  1.0
  H  H40  1  0.25740000  0.67539000  0.34758000  1.0
  H  H41  1  0.90922000  0.32449000  0.65194000  1.0
  C  C42  1  0.13016000  0.41201000  0.10684000  1.0
  C  C43  1  0.02365000  0.58750000  0.89322000  1.0
  C  C44  1  0.22836000  0.47160000  0.06142000  1.0
  C  C45  1  0.16681000  0.52775000  0.93838000  1.0
  C  C46  1  0.98614000  0.47004000  0.15311000  1.0
  C  C47  1  0.83322000  0.52977000  0.84704000  1.0
  C  C48  1  0.29399000  0.37939000  0.16749000  1.0
  C  C49  1  0.12713000  0.62014000  0.83247000  1.0
  C  C50  1  0.01006000  0.32798000  0.04262000  1.0
  C  C51  1  0.96814000  0.67166000  0.95758000  1.0
  C  C52  1  0.34387000  0.27866000  0.26133000  1.0
  C  C53  1  0.08311000  0.72099000  0.73875000  1.0
  C  C54  1  0.54559000  0.29972000  0.27924000  1.0
  C  C55  1  0.26690000  0.70018000  0.72058000  1.0
  C  C56  1  0.66881000  0.25233000  0.33010000  1.0
  C  C57  1  0.33909000  0.74785000  0.66972000  1.0
  C  C58  1  0.59388000  0.18399000  0.36308000  1.0
  C  C59  1  0.23096000  0.81615000  0.63698000  1.0
  C  C60  1  0.39158000  0.16463000  0.34596000  1.0
  C  C61  1  0.04578000  0.83524000  0.65432000  1.0
  C  C62  1  0.26683000  0.21181000  0.29562000  1.0
  C  C63  1  0.97163000  0.78782000  0.70472000  1.0
  C  C64  1  0.03052000  0.22257000  0.91143000  1.0
  C  C65  1  0.11997000  0.77714000  0.08854000  1.0
  C  C66  1  0.13859000  0.19348000  0.84872000  1.0
  C  C67  1  0.29051000  0.80602000  0.15111000  1.0
  C  C68  1  0.04820000  0.13813000  0.76984000  1.0
  C  C69  1  0.27900000  0.86160000  0.23001000  1.0
  C  C70  1  0.84914000  0.11123000  0.75234000  1.0
  C  C71  1  0.09766000  0.88893000  0.24765000  1.0
  C  C72  1  0.74426000  0.13793000  0.81630000  1.0
  C  C73  1  0.92909000  0.86248000  0.18381000  1.0
  C  C74  1  0.83333000  0.19294000  0.89575000  1.0
  C  C75  1  0.93874000  0.80724000  0.10436000  1.0
  C  C76  1  0.74280000  0.05999000  0.66710000  1.0
  C  C77  1  0.07633000  0.94036000  0.33290000  1.0
  C  C78  1  0.98876000  0.60851000  0.26487000  1.0
  C  C79  1  0.72345000  0.39165000  0.73497000  1.0
  C  C80  1  0.78462000  0.60978000  0.24580000  1.0
  C  C81  1  0.53829000  0.39063000  0.75418000  1.0
  C  C82  1  0.69285000  0.67951000  0.29496000  1.0
  C  C83  1  0.39722000  0.32107000  0.70510000  1.0
  C  C84  1  0.80155000  0.74748000  0.36352000  1.0
  C  C85  1  0.43731000  0.25301000  0.63646000  1.0
  C  C86  1  0.00534000  0.74421000  0.38235000  1.0
  C  C87  1  0.62232000  0.25608000  0.61747000  1.0
  C  C88  1  0.09907000  0.67608000  0.33355000  1.0
  C  C89  1  0.76496000  0.32404000  0.66616000  1.0
  C  C90  1  0.70231000  0.82315000  0.41277000  1.0
  C  C91  1  0.28881000  0.17742000  0.58727000  1.0
  C  C92  1  0.73127000  0.13396000  0.41444000  1.0
  C  C93  1  0.31680000  0.86641000  0.58558000  1.0
  O  O94  1  0.83019000  0.03808000  0.60432000  1.0
  O  O95  1  0.22602000  0.96213000  0.39566000  1.0
  O  O96  1  0.56250000  0.03876000  0.65415000  1.0
  O  O97  1  0.90907000  0.96190000  0.34590000  1.0
  O  O98  1  0.91282000  0.15434000  0.43076000  1.0
  O  O99  1  0.48220000  0.84625000  0.56919000  1.0
  O  O100  1  0.66694000  0.06728000  0.44338000  1.0
  O  O101  1  0.22345000  0.93301000  0.55671000  1.0
  O  O102  1  0.80378000  0.88953000  0.47310000  1.0
  O  O103  1  0.33024000  0.11088000  0.52696000  1.0
  O  O104  1  0.51813000  0.82503000  0.39687000  1.0
  O  O105  1  0.12033000  0.17570000  0.60313000  1.0
  O  O106  1  0.21281000  0.32065000  0.21048000  1.0
  O  O107  1  0.00301000  0.67882000  0.78966000  1.0
  O  O108  1  0.09281000  0.54431000  0.21954000  1.0
  O  O109  1  0.87304000  0.45555000  0.78032000  1.0
  O  O110  1  0.12742000  0.28088000  0.98617000  1.0
  O  O111  1  0.14199000  0.71859000  0.01379000  1.0
  O  O112  1  0.08379000  0.49974000  0.00003000  1.0
