# generated using pymatgen
data_SnH16C18O
_symmetry_space_group_name_H-M   'P 1'
_cell_length_a   8.31059000
_cell_length_b   10.15310000
_cell_length_c   17.51510000
_cell_angle_alpha   90.00000000
_cell_angle_beta   90.00020000
_cell_angle_gamma   89.99990000
_symmetry_Int_Tables_number   1
_chemical_formula_structural   SnH16C18O
_chemical_formula_sum   'Sn4 H64 C72 O4'
_cell_volume   1477.89350984
_cell_formula_units_Z   4
loop_
 _symmetry_equiv_pos_site_id
 _symmetry_equiv_pos_as_xyz
  1  'x, y, z'
loop_
 _atom_site_type_symbol
 _atom_site_label
 _atom_site_symmetry_multiplicity
 _atom_site_fract_x
 _atom_site_fract_y
 _atom_site_fract_z
 _atom_site_occupancy
  Sn  Sn0  1  0.56673000  0.24764000  0.00348000  1.0
  Sn  Sn1  1  0.93327000  0.75236000  0.50348000  1.0
  Sn  Sn2  1  0.43327000  0.74764000  0.49652000  1.0
  Sn  Sn3  1  0.06673000  0.25236000  0.99652000  1.0
  H  H4  1  0.77064000  0.00007000  0.05889000  1.0
  H  H5  1  0.72936000  0.99993000  0.55889000  1.0
  H  H6  1  0.22936000  0.50007000  0.44111000  1.0
  H  H7  1  0.27064000  0.49993000  0.94111000  1.0
  H  H8  1  0.81831000  0.88126000  0.17977000  1.0
  H  H9  1  0.68169000  0.11873000  0.67977000  1.0
  H  H10  1  0.18169000  0.38127000  0.32023000  1.0
  H  H11  1  0.31831000  0.61873000  0.82023000  1.0
  H  H12  1  0.69494000  0.95989000  0.30021000  1.0
  H  H13  1  0.80506000  0.04011000  0.80021000  1.0
  H  H14  1  0.30506000  0.45989000  0.19979000  1.0
  H  H15  1  0.19494000  0.54011000  0.69979000  1.0
  H  H16  1  0.50782000  0.15371000  0.29774000  1.0
  H  H17  1  0.99218000  0.84629000  0.79775000  1.0
  H  H18  1  0.49218000  0.65371000  0.20225000  1.0
  H  H19  1  0.00782000  0.34629000  0.70225000  1.0
  H  H20  1  0.45298000  0.26845000  0.17654000  1.0
  H  H21  1  0.04703000  0.73155000  0.67654000  1.0
  H  H22  1  0.54703000  0.76845000  0.32346000  1.0
  H  H23  1  0.95297000  0.23155000  0.82346000  1.0
  H  H24  1  0.52002000  0.94672000  0.96836000  1.0
  H  H25  1  0.97998000  0.05328000  0.46836000  1.0
  H  H26  1  0.47998000  0.44673000  0.53163000  1.0
  H  H27  1  0.02002000  0.55328000  0.03164000  1.0
  H  H28  1  0.43920000  0.29624000  0.83262000  1.0
  H  H29  1  0.06080000  0.70376000  0.33262000  1.0
  H  H30  1  0.56080000  0.79624000  0.66738000  1.0
  H  H31  1  0.93920000  0.20376000  0.16738000  1.0
  H  H32  1  0.35885000  0.15690000  0.72394000  1.0
  H  H33  1  0.14115000  0.84310000  0.22394000  1.0
  H  H34  1  0.64115000  0.65690000  0.77606000  1.0
  H  H35  1  0.85885000  0.34310000  0.27606000  1.0
  H  H36  1  0.35998000  0.91257000  0.73590000  1.0
  H  H37  1  0.14002000  0.08743000  0.23590000  1.0
  H  H38  1  0.64001000  0.41256000  0.76409000  1.0
  H  H39  1  0.85998000  0.58743000  0.26410000  1.0
  H  H40  1  0.44493000  0.80833000  0.85868000  1.0
  H  H41  1  0.05507000  0.19166000  0.35868000  1.0
  H  H42  1  0.55506000  0.30834000  0.64132000  1.0
  H  H43  1  0.94493000  0.69166000  0.14133000  1.0
  H  H44  1  0.51211000  0.52092000  0.09288000  1.0
  H  H45  1  0.98789000  0.47908000  0.59288000  1.0
  H  H46  1  0.48789000  0.02092000  0.40712000  1.0
  H  H47  1  0.01211000  0.97908000  0.90712000  1.0
  H  H48  1  0.59309000  0.75325000  0.07475000  1.0
  H  H49  1  0.90691000  0.24675000  0.57475000  1.0
  H  H50  1  0.40691000  0.25326000  0.42524000  1.0
  H  H51  1  0.09309000  0.74675000  0.92525000  1.0
  H  H52  1  0.75884000  0.81753000  0.96289000  1.0
  H  H53  1  0.74116000  0.18247000  0.46289000  1.0
  H  H54  1  0.24116000  0.31754000  0.53711000  1.0
  H  H55  1  0.25884000  0.68247000  0.03711000  1.0
  H  H56  1  0.84035000  0.64821000  0.86729000  1.0
  H  H57  1  0.65965000  0.35179000  0.36729000  1.0
  H  H58  1  0.15966000  0.14821000  0.63271000  1.0
  H  H59  1  0.34035000  0.85179000  0.13272000  1.0
  H  H60  1  0.76063000  0.41598000  0.88513000  1.0
  H  H61  1  0.73937000  0.58402000  0.38513000  1.0
  H  H62  1  0.23938000  0.91599000  0.61487000  1.0
  H  H63  1  0.26063000  0.08402000  0.11487000  1.0
  H  H64  1  0.31386000  0.38805000  0.06202000  1.0
  H  H65  1  0.18614000  0.61196000  0.56202000  1.0
  H  H66  1  0.68614000  0.88805000  0.43798000  1.0
  H  H67  1  0.81386000  0.11195000  0.93799000  1.0
  C  C68  1  0.60717000  0.14285000  0.10856000  1.0
  C  C69  1  0.89283000  0.85715000  0.60856000  1.0
  C  C70  1  0.39283000  0.64285000  0.39144000  1.0
  C  C71  1  0.10717000  0.35715000  0.89144000  1.0
  C  C72  1  0.70894000  0.03275000  0.11053000  1.0
  C  C73  1  0.79106000  0.96724000  0.61053000  1.0
  C  C74  1  0.29106000  0.53276000  0.38947000  1.0
  C  C75  1  0.20894000  0.46724000  0.88947000  1.0
  C  C76  1  0.73782000  0.96597000  0.17894000  1.0
  C  C77  1  0.76218000  0.03402000  0.67894000  1.0
  C  C78  1  0.26219000  0.46598000  0.32106000  1.0
  C  C79  1  0.23781000  0.53402000  0.82106000  1.0
  C  C80  1  0.66721000  0.00988000  0.24668000  1.0
  C  C81  1  0.83279000  0.99011000  0.74668000  1.0
  C  C82  1  0.33279000  0.50989000  0.25332000  1.0
  C  C83  1  0.16721000  0.49011000  0.75332000  1.0
  C  C84  1  0.56472000  0.11886000  0.24537000  1.0
  C  C85  1  0.93527000  0.88114000  0.74537000  1.0
  C  C86  1  0.43527000  0.61886000  0.25463000  1.0
  C  C87  1  0.06473000  0.38114000  0.75463000  1.0
  C  C88  1  0.53419000  0.18408000  0.17662000  1.0
  C  C89  1  0.96581000  0.81591000  0.67662000  1.0
  C  C90  1  0.46581000  0.68409000  0.32338000  1.0
  C  C91  1  0.03419000  0.31591000  0.82338000  1.0
  C  C92  1  0.48880000  0.99398000  0.91442000  1.0
  C  C93  1  0.01120000  0.00602000  0.41442000  1.0
  C  C94  1  0.51120000  0.49398000  0.58558000  1.0
  C  C95  1  0.98880000  0.50602000  0.08558000  1.0
  C  C96  1  0.48806000  0.13168000  0.90838000  1.0
  C  C97  1  0.01194000  0.86832000  0.40838000  1.0
  C  C98  1  0.51194000  0.63168000  0.59162000  1.0
  C  C99  1  0.98806000  0.36832000  0.09162000  1.0
  C  C100  1  0.44225000  0.18936000  0.83892000  1.0
  C  C101  1  0.05775000  0.81064000  0.33892000  1.0
  C  C102  1  0.55775000  0.68936000  0.66107000  1.0
  C  C103  1  0.94225000  0.31064000  0.16108000  1.0
  C  C104  1  0.39574000  0.11066000  0.77733000  1.0
  C  C105  1  0.10427000  0.88934000  0.27733000  1.0
  C  C106  1  0.60426000  0.61065000  0.72267000  1.0
  C  C107  1  0.89574000  0.38934000  0.22267000  1.0
  C  C108  1  0.39634000  0.97358000  0.78408000  1.0
  C  C109  1  0.10366000  0.02642000  0.28408000  1.0
  C  C110  1  0.60366000  0.47358000  0.71592000  1.0
  C  C111  1  0.89634000  0.52642000  0.21592000  1.0
  C  C112  1  0.44386000  0.91522000  0.85259000  1.0
  C  C113  1  0.05614000  0.08478000  0.35259000  1.0
  C  C114  1  0.55614000  0.41522000  0.64741000  1.0
  C  C115  1  0.94386000  0.58478000  0.14742000  1.0
  C  C116  1  0.62726000  0.45160000  0.98911000  1.0
  C  C117  1  0.87274000  0.54840000  0.48910000  1.0
  C  C118  1  0.37274000  0.95160000  0.51090000  1.0
  C  C119  1  0.12726000  0.04840000  0.01090000  1.0
  C  C120  1  0.58084000  0.54794000  0.04200000  1.0
  C  C121  1  0.91916000  0.45205000  0.54200000  1.0
  C  C122  1  0.41916000  0.04795000  0.45799000  1.0
  C  C123  1  0.08084000  0.95206000  0.95800000  1.0
  C  C124  1  0.62729000  0.67924000  0.03261000  1.0
  C  C125  1  0.87270000  0.32076000  0.53261000  1.0
  C  C126  1  0.37270000  0.17925000  0.46739000  1.0
  C  C127  1  0.12729000  0.82076000  0.96740000  1.0
  C  C128  1  0.72043000  0.71566000  0.96974000  1.0
  C  C129  1  0.77957000  0.28434000  0.46974000  1.0
  C  C130  1  0.27957000  0.21567000  0.53026000  1.0
  C  C131  1  0.22043000  0.78434000  0.03026000  1.0
  C  C132  1  0.76638000  0.62085000  0.91628000  1.0
  C  C133  1  0.73362000  0.37915000  0.41628000  1.0
  C  C134  1  0.23362000  0.12085000  0.58372000  1.0
  C  C135  1  0.26638000  0.87915000  0.08372000  1.0
  C  C136  1  0.71999000  0.48971000  0.92600000  1.0
  C  C137  1  0.78001000  0.51029000  0.42600000  1.0
  C  C138  1  0.28002000  0.98972000  0.57400000  1.0
  C  C139  1  0.21999000  0.01029000  0.07400000  1.0
  O  O140  1  0.31905000  0.30161000  0.03822000  1.0
  O  O141  1  0.18095000  0.69839000  0.53822000  1.0
  O  O142  1  0.68095000  0.80162000  0.46178000  1.0
  O  O143  1  0.81905000  0.19839000  0.96178000  1.0
