# generated using pymatgen
data_AlH6C10NClO5
_symmetry_space_group_name_H-M   'P 1'
_cell_length_a   6.69009000
_cell_length_b   11.08500000
_cell_length_c   11.15738570
_cell_angle_alpha   87.59027481
_cell_angle_beta   72.60808009
_cell_angle_gamma   73.50360000
_symmetry_Int_Tables_number   1
_chemical_formula_structural   AlH6C10NClO5
_chemical_formula_sum   'Al2 H12 C20 N2 Cl2 O10'
_cell_volume   756.26811109
_cell_formula_units_Z   2
loop_
 _symmetry_equiv_pos_site_id
 _symmetry_equiv_pos_as_xyz
  1  'x, y, z'
loop_
 _atom_site_type_symbol
 _atom_site_label
 _atom_site_symmetry_multiplicity
 _atom_site_fract_x
 _atom_site_fract_y
 _atom_site_fract_z
 _atom_site_occupancy
  Al  Al0  1  0.99017000  0.50370000  0.50193000  1.0
  Al  Al1  1  0.49086000  0.50416000  0.49978000  1.0
  H  H2  1  0.62870000  0.58211000  0.64727000  1.0
  H  H3  1  0.34854000  0.43613000  0.35216000  1.0
  H  H4  1  0.19122000  0.13316000  0.56363000  1.0
  H  H5  1  0.79502000  0.87285000  0.43516000  1.0
  H  H6  1  0.50069000  0.34172000  0.76233000  1.0
  H  H7  1  0.25355000  0.33300000  0.22781000  1.0
  H  H8  1  0.62111000  0.58155000  0.12043000  1.0
  H  H9  1  0.74073000  0.57897000  0.88579000  1.0
  H  H10  1  0.45277000  0.79996000  0.54617000  1.0
  H  H11  1  0.45521000  0.95023000  0.58231000  1.0
  H  H12  1  0.54145000  0.21092000  0.44909000  1.0
  H  H13  1  0.55026000  0.06668000  0.39195000  1.0
  C  C14  1  0.13340000  0.49183000  0.72794000  1.0
  C  C15  1  0.13661000  0.73183000  0.49197000  1.0
  C  C16  1  0.85700000  0.49470000  0.27262000  1.0
  C  C17  1  0.84714000  0.27466000  0.50897000  1.0
  C  C18  1  0.07034000  0.87100000  0.49503000  1.0
  C  C19  1  0.91181000  0.13547000  0.50729000  1.0
  C  C20  1  0.18788000  0.94335000  0.53391000  1.0
  C  C21  1  0.79054000  0.06307000  0.47238000  1.0
  C  C22  1  0.10386000  0.07475000  0.53681000  1.0
  C  C23  1  0.87902000  0.93191000  0.46453000  1.0
  C  C24  1  0.07239000  0.47711000  0.86684000  1.0
  C  C25  1  0.22727000  0.41188000  0.92993000  1.0
  C  C26  1  0.85677000  0.53249000  0.93568000  1.0
  C  C27  1  0.44506000  0.34371000  0.86431000  1.0
  C  C28  1  0.58936000  0.27894000  0.92696000  1.0
  C  C29  1  0.93628000  0.47804000  0.13258000  1.0
  C  C30  1  0.78928000  0.53360000  0.06743000  1.0
  C  C31  1  0.15673000  0.41120000  0.06523000  1.0
  C  C32  1  0.30673000  0.34005000  0.12646000  1.0
  C  C33  1  0.51860000  0.27680000  0.06023000  1.0
  N  N34  1  0.36881000  0.89118000  0.57342000  1.0
  N  N35  1  0.59131000  0.11542000  0.45109000  1.0
  Cl  Cl36  1  0.85193000  0.19892000  0.84276000  1.0
  Cl  Cl37  1  0.69450000  0.19451000  0.14043000  1.0
  O  O38  1  0.98605000  0.50073000  0.67481000  1.0
  O  O39  1  0.33232000  0.67564000  0.49335000  1.0
  O  O40  1  0.65590000  0.50391000  0.32622000  1.0
  O  O41  1  0.98935000  0.33035000  0.51027000  1.0
  O  O42  1  0.99304000  0.50126000  0.32938000  1.0
  O  O43  1  0.65203000  0.33170000  0.50643000  1.0
  O  O44  1  0.32604000  0.49833000  0.67202000  1.0
  O  O45  1  0.99468000  0.67575000  0.49063000  1.0
  O  O46  1  0.68461000  0.56129000  0.55755000  1.0
  O  O47  1  0.29673000  0.44600000  0.44334000  1.0
