# generated using pymatgen
data_CdH34C26(NO)4
_symmetry_space_group_name_H-M   'P 1'
_cell_length_a   11.35340000
_cell_length_b   11.40830000
_cell_length_c   13.02470000
_cell_angle_alpha   80.71950000
_cell_angle_beta   76.95340000
_cell_angle_gamma   65.10140000
_symmetry_Int_Tables_number   1
_chemical_formula_structural   CdH34C26(NO)4
_chemical_formula_sum   'Cd2 H68 C52 N8 O8'
_cell_volume   1486.50690591
_cell_formula_units_Z   2
loop_
 _symmetry_equiv_pos_site_id
 _symmetry_equiv_pos_as_xyz
  1  'x, y, z'
loop_
 _atom_site_type_symbol
 _atom_site_label
 _atom_site_symmetry_multiplicity
 _atom_site_fract_x
 _atom_site_fract_y
 _atom_site_fract_z
 _atom_site_occupancy
  Cd  Cd0  1  0.38162000  0.34016000  0.81881000  1.0
  Cd  Cd1  1  0.61839000  0.65984000  0.18119000  1.0
  H  H2  1  0.46289000  0.49267000  0.59456000  1.0
  H  H3  1  0.53713000  0.50731000  0.40543000  1.0
  H  H4  1  0.67746000  0.56243000  0.53563000  1.0
  H  H5  1  0.32255000  0.43756000  0.46437000  1.0
  H  H6  1  0.63028000  0.30694000  0.91633000  1.0
  H  H7  1  0.36972000  0.69306000  0.08366000  1.0
  H  H8  1  0.68226000  0.43521000  0.91894000  1.0
  H  H9  1  0.31773000  0.56480000  0.08105000  1.0
  H  H10  1  0.79491000  0.28880000  0.86179000  1.0
  H  H11  1  0.20508000  0.71120000  0.13821000  1.0
  H  H12  1  0.88115000  0.42200000  0.75494000  1.0
  H  H13  1  0.11886000  0.57800000  0.24506000  1.0
  H  H14  1  0.79130000  0.58950000  0.73697000  1.0
  H  H15  1  0.20870000  0.41051000  0.26302000  1.0
  H  H16  1  0.07890000  0.24212000  0.69289000  1.0
  H  H17  1  0.92110000  0.75789000  0.30710000  1.0
  H  H18  1  0.08152000  0.17276000  0.57952000  1.0
  H  H19  1  0.91848000  0.82725000  0.42047000  1.0
  H  H20  1  0.92971000  0.25502000  0.65980000  1.0
  H  H21  1  0.07029000  0.74498000  0.34020000  1.0
  H  H22  1  0.81533000  0.80625000  0.59729000  1.0
  H  H23  1  0.18467000  0.19376000  0.40271000  1.0
  H  H24  1  0.70655000  0.72635000  0.62673000  1.0
  H  H25  1  0.29345000  0.27366000  0.37326000  1.0
  H  H26  1  0.73611000  0.79733000  0.49876000  1.0
  H  H27  1  0.26389000  0.20268000  0.50124000  1.0
  H  H28  1  0.15287000  0.45571000  0.66266000  1.0
  H  H29  1  0.84713000  0.54429000  0.33734000  1.0
  H  H30  1  0.03401000  0.71608000  0.59223000  1.0
  H  H31  1  0.96599000  0.28391000  0.40777000  1.0
  H  H32  1  0.31773000  0.60425000  0.89894000  1.0
  H  H33  1  0.68227000  0.39575000  0.10107000  1.0
  H  H34  1  0.19388000  0.76506000  0.89885000  1.0
  H  H35  1  0.80612000  0.23494000  0.10115000  1.0
  H  H36  1  0.34224000  0.72757000  0.80480000  1.0
  H  H37  1  0.65776000  0.27242000  0.19521000  1.0
  H  H38  1  0.16903000  0.90102000  0.70787000  1.0
  H  H39  1  0.83097000  0.09898000  0.29214000  1.0
  H  H40  1  0.00666000  0.91991000  0.76635000  1.0
  H  H41  1  0.99334000  0.08009000  0.23365000  1.0
  H  H42  1  0.30162000  0.80458000  0.58241000  1.0
  H  H43  1  0.69838000  0.19542000  0.41759000  1.0
  H  H44  1  0.33900000  0.91174000  0.47888000  1.0
  H  H45  1  0.66100000  0.08826000  0.52112000  1.0
  H  H46  1  0.32403000  0.77500000  0.44928000  1.0
  H  H47  1  0.67597000  0.22500000  0.55072000  1.0
  H  H48  1  0.82419000  0.92775000  0.74073000  1.0
  H  H49  1  0.17581000  0.07225000  0.25927000  1.0
  H  H50  1  0.70312000  0.05696000  0.67864000  1.0
  H  H51  1  0.29688000  0.94304000  0.32136000  1.0
  H  H52  1  0.80265000  0.08944000  0.74579000  1.0
  H  H53  1  0.19735000  0.91056000  0.25421000  1.0
  H  H54  1  0.36435000  0.05091000  0.59823000  1.0
  H  H55  1  0.63566000  0.94909000  0.40177000  1.0
  H  H56  1  0.25911000  0.03290000  0.71812000  1.0
  H  H57  1  0.74089000  0.96710000  0.28188000  1.0
  H  H58  1  0.56135000  0.92663000  0.67812000  1.0
  H  H59  1  0.43865000  0.07337000  0.32188000  1.0
  H  H60  1  0.46918000  0.83326000  0.68263000  1.0
  H  H61  1  0.53082000  0.16674000  0.31737000  1.0
  H  H62  1  0.47394000  0.96804000  0.86821000  1.0
  H  H63  1  0.52606000  0.03196000  0.13179000  1.0
  H  H64  1  0.37092000  0.88640000  0.87548000  1.0
  H  H65  1  0.62908000  0.11360000  0.12452000  1.0
  H  H66  1  0.67372000  0.76546000  0.82086000  1.0
  H  H67  1  0.32628000  0.23453000  0.17914000  1.0
  H  H68  1  0.57360000  0.68100000  0.82542000  1.0
  H  H69  1  0.42640000  0.31900000  0.17458000  1.0
  C  C70  1  0.53979000  0.47834000  0.63762000  1.0
  C  C71  1  0.46021000  0.52166000  0.36237000  1.0
  C  C72  1  0.64390000  0.51500000  0.60790000  1.0
  C  C73  1  0.35611000  0.48499000  0.39209000  1.0
  C  C74  1  0.64835000  0.41346000  0.76937000  1.0
  C  C75  1  0.35165000  0.58654000  0.23062000  1.0
  C  C76  1  0.69104000  0.35829000  0.87251000  1.0
  C  C77  1  0.30896000  0.64171000  0.12749000  1.0
  C  C78  1  0.82615000  0.49819000  0.70009000  1.0
  C  C79  1  0.17386000  0.50181000  0.29991000  1.0
  C  C80  1  0.91370000  0.49995000  0.59465000  1.0
  C  C81  1  0.08630000  0.50006000  0.40534000  1.0
  C  C82  1  0.01467000  0.38195000  0.56144000  1.0
  C  C83  1  0.98533000  0.61806000  0.43855000  1.0
  C  C84  1  0.02691000  0.25680000  0.62672000  1.0
  C  C85  1  0.97308000  0.74321000  0.37327000  1.0
  C  C86  1  0.89623000  0.61756000  0.53316000  1.0
  C  C87  1  0.10376000  0.38244000  0.46683000  1.0
  C  C88  1  0.78332000  0.74231000  0.56615000  1.0
  C  C89  1  0.21668000  0.25769000  0.43385000  1.0
  C  C90  1  0.15549000  0.54127000  0.68624000  1.0
  C  C91  1  0.84451000  0.45872000  0.31376000  1.0
  C  C92  1  0.09484000  0.66897000  0.65185000  1.0
  C  C93  1  0.90516000  0.33103000  0.34815000  1.0
  C  C94  1  0.20945000  0.65289000  0.77512000  1.0
  C  C95  1  0.79054000  0.34711000  0.22488000  1.0
  C  C96  1  0.26883000  0.68985000  0.84825000  1.0
  C  C97  1  0.73117000  0.31015000  0.15175000  1.0
  C  C98  1  0.08579000  0.88016000  0.69946000  1.0
  C  C99  1  0.91421000  0.11983000  0.30055000  1.0
  C  C100  1  0.04092000  0.94141000  0.59555000  1.0
  C  C101  1  0.95908000  0.05859000  0.40445000  1.0
  C  C102  1  0.13649000  0.92922000  0.50276000  1.0
  C  C103  1  0.86351000  0.07079000  0.49725000  1.0
  C  C104  1  0.28153000  0.85176000  0.50450000  1.0
  C  C105  1  0.71847000  0.14824000  0.49550000  1.0
  C  C106  1  0.90488000  0.01043000  0.59385000  1.0
  C  C107  1  0.09513000  0.98957000  0.40615000  1.0
  C  C108  1  0.80391000  0.02130000  0.69398000  1.0
  C  C109  1  0.19609000  0.97870000  0.30603000  1.0
  C  C110  1  0.35442000  0.15864000  0.72296000  1.0
  C  C111  1  0.64557000  0.84137000  0.27704000  1.0
  C  C112  1  0.35427000  0.03941000  0.68491000  1.0
  C  C113  1  0.64573000  0.96059000  0.31510000  1.0
  C  C114  1  0.46878000  0.91657000  0.71599000  1.0
  C  C115  1  0.53122000  0.08343000  0.28401000  1.0
  C  C116  1  0.46617000  0.88923000  0.83514000  1.0
  C  C117  1  0.53383000  0.11076000  0.16486000  1.0
  C  C118  1  0.57829000  0.76113000  0.85934000  1.0
  C  C119  1  0.42170000  0.23886000  0.14066000  1.0
  C  C120  1  0.58823000  0.72084000  0.97507000  1.0
  C  C121  1  0.41177000  0.27915000  0.02493000  1.0
  N  N122  1  0.54368000  0.41530000  0.73747000  1.0
  N  N123  1  0.45633000  0.58468000  0.26252000  1.0
  N  N124  1  0.71171000  0.47364000  0.69187000  1.0
  N  N125  1  0.28829000  0.52637000  0.30813000  1.0
  N  N126  1  0.22620000  0.53265000  0.76245000  1.0
  N  N127  1  0.77380000  0.46735000  0.23755000  1.0
  N  N128  1  0.12949000  0.73846000  0.70845000  1.0
  N  N129  1  0.87051000  0.26154000  0.29155000  1.0
  O  O130  1  0.25394000  0.22840000  0.78552000  1.0
  O  O131  1  0.74605000  0.77160000  0.21449000  1.0
  O  O132  1  0.45849000  0.18140000  0.69278000  1.0
  O  O133  1  0.54150000  0.81860000  0.30722000  1.0
  O  O134  1  0.52190000  0.80332000  0.04384000  1.0
  O  O135  1  0.47810000  0.19667000  0.95616000  1.0
  O  O136  1  0.66527000  0.60454000  0.99906000  1.0
  O  O137  1  0.33472000  0.39545000  0.00094000  1.0
