# generated using pymatgen
data_CuH11C14NO3
_symmetry_space_group_name_H-M   'P 1'
_cell_length_a   4.79180000
_cell_length_b   9.91354000
_cell_length_c   15.90900000
_cell_angle_alpha   92.56360000
_cell_angle_beta   89.99890000
_cell_angle_gamma   89.99890000
_symmetry_Int_Tables_number   1
_chemical_formula_structural   CuH11C14NO3
_chemical_formula_sum   'Cu2 H22 C28 N2 O6'
_cell_volume   754.98002790
_cell_formula_units_Z   2
loop_
 _symmetry_equiv_pos_site_id
 _symmetry_equiv_pos_as_xyz
  1  'x, y, z'
loop_
 _atom_site_type_symbol
 _atom_site_label
 _atom_site_symmetry_multiplicity
 _atom_site_fract_x
 _atom_site_fract_y
 _atom_site_fract_z
 _atom_site_occupancy
  Cu  Cu0  1  0.69955000  0.04438000  0.57973000  1.0
  Cu  Cu1  1  0.19960000  0.95561000  0.42028000  1.0
  H  H2  1  0.55637000  0.37173000  0.86439000  1.0
  H  H3  1  0.05647000  0.62826000  0.13562000  1.0
  H  H4  1  0.63701000  0.44188000  0.00993000  1.0
  H  H5  1  0.13702000  0.55814000  0.99007000  1.0
  H  H6  1  0.99381000  0.32670000  0.09652000  1.0
  H  H7  1  0.49378000  0.67334000  0.90346000  1.0
  H  H8  1  0.26930000  0.13596000  0.03102000  1.0
  H  H9  1  0.76930000  0.86405000  0.96897000  1.0
  H  H10  1  0.37347000  0.98343000  0.91339000  1.0
  H  H11  1  0.87353000  0.01657000  0.08662000  1.0
  H  H12  1  0.29964000  0.90231000  0.76485000  1.0
  H  H13  1  0.79969000  0.09767000  0.23515000  1.0
  H  H14  1  0.51332000  0.31451000  0.75136000  1.0
  H  H15  1  0.01337000  0.68548000  0.24864000  1.0
  H  H16  1  0.17663000  0.30149000  0.64222000  1.0
  H  H17  1  0.67664000  0.69852000  0.35779000  1.0
  H  H18  1  0.55872000  0.46992000  0.62370000  1.0
  H  H19  1  0.05873000  0.53007000  0.37630000  1.0
  H  H20  1  0.34313000  0.46027000  0.53259000  1.0
  H  H21  1  0.84313000  0.53973000  0.46741000  1.0
  H  H22  1  0.67489000  0.37637000  0.53168000  1.0
  H  H23  1  0.17489000  0.62361000  0.46832000  1.0
  C  C24  1  0.98154000  0.04906000  0.73947000  1.0
  C  C25  1  0.48158000  0.95092000  0.26053000  1.0
  C  C26  1  0.82494000  0.16237000  0.77271000  1.0
  C  C27  1  0.32499000  0.83762000  0.22729000  1.0
  C  C28  1  0.86682000  0.21015000  0.85950000  1.0
  C  C29  1  0.36684000  0.78986000  0.14050000  1.0
  C  C30  1  0.71654000  0.31893000  0.89871000  1.0
  C  C31  1  0.21656000  0.68108000  0.10129000  1.0
  C  C32  1  0.76085000  0.35916000  0.98211000  1.0
  C  C33  1  0.26087000  0.64086000  0.01788000  1.0
  C  C34  1  0.96016000  0.29387000  0.03098000  1.0
  C  C35  1  0.46017000  0.70615000  0.96901000  1.0
  C  C36  1  0.11146000  0.18770000  0.99486000  1.0
  C  C37  1  0.61147000  0.81231000  0.00514000  1.0
  C  C38  1  0.06709000  0.14378000  0.91013000  1.0
  C  C39  1  0.56711000  0.85624000  0.08987000  1.0
  C  C40  1  0.22108000  0.03254000  0.87403000  1.0
  C  C41  1  0.72115000  0.96745000  0.12597000  1.0
  C  C42  1  0.18101000  0.98681000  0.79278000  1.0
  C  C43  1  0.68104000  0.01319000  0.20722000  1.0
  C  C44  1  0.62431000  0.22756000  0.72235000  1.0
  C  C45  1  0.12436000  0.77243000  0.27766000  1.0
  C  C46  1  0.35482000  0.27572000  0.60062000  1.0
  C  C47  1  0.85484000  0.72428000  0.39938000  1.0
  C  C48  1  0.49162000  0.40434000  0.57002000  1.0
  C  C49  1  0.99162000  0.59565000  0.42997000  1.0
  C  C50  1  0.23816000  0.19299000  0.52509000  1.0
  C  C51  1  0.73821000  0.80702000  0.47491000  1.0
  N  N52  1  0.55730000  0.19448000  0.64485000  1.0
  N  N53  1  0.05732000  0.80551000  0.35515000  1.0
  O  O54  1  0.96132000  0.99625000  0.66321000  1.0
  O  O55  1  0.46140000  0.00372000  0.33680000  1.0
  O  O56  1  0.37799000  0.08222000  0.50446000  1.0
  O  O57  1  0.87804000  0.91778000  0.49555000  1.0
  O  O58  1  0.02911000  0.22916000  0.48672000  1.0
  O  O59  1  0.52911000  0.77086000  0.51329000  1.0
