# generated using pymatgen
data_Ni3H18C34(O5F6)2
_symmetry_space_group_name_H-M   'P 1'
_cell_length_a   7.05830000
_cell_length_b   16.24970000
_cell_length_c   31.81700000
_cell_angle_alpha   89.99970000
_cell_angle_beta   89.99990000
_cell_angle_gamma   99.54880000
_symmetry_Int_Tables_number   1
_chemical_formula_structural   Ni3H18C34(O5F6)2
_chemical_formula_sum   'Ni12 H72 C136 O40 F48'
_cell_volume   3598.69731797
_cell_formula_units_Z   4
loop_
 _symmetry_equiv_pos_site_id
 _symmetry_equiv_pos_as_xyz
  1  'x, y, z'
loop_
 _atom_site_type_symbol
 _atom_site_label
 _atom_site_symmetry_multiplicity
 _atom_site_fract_x
 _atom_site_fract_y
 _atom_site_fract_z
 _atom_site_occupancy
  Ni  Ni0  1  0.25815000  0.40076000  0.93023000  1.0
  Ni  Ni1  1  0.26514000  0.61927000  0.06656000  1.0
  Ni  Ni2  1  0.74186000  0.09924000  0.43023000  1.0
  Ni  Ni3  1  0.73486000  0.88073000  0.56656000  1.0
  Ni  Ni4  1  0.74186000  0.59924000  0.06977000  1.0
  Ni  Ni5  1  0.73487000  0.38073000  0.93344000  1.0
  Ni  Ni6  1  0.25815000  0.90076000  0.56977000  1.0
  Ni  Ni7  1  0.26514000  0.11927000  0.43344000  1.0
  Ni  Ni8  1  0.00000000  0.50000000  0.00000000  1.0
  Ni  Ni9  1  0.00000000  0.00000000  0.50000000  1.0
  Ni  Ni10  1  0.50000000  0.50000000  0.00000000  1.0
  Ni  Ni11  1  0.50000000  0.00000000  0.50000000  1.0
  H  H12  1  0.15797000  0.76897000  0.00836000  1.0
  H  H13  1  0.05374000  0.88633000  0.97048000  1.0
  H  H14  1  0.21629000  0.78383000  0.85292000  1.0
  H  H15  1  0.33968000  0.67314000  0.89183000  1.0
  H  H16  1  0.57198000  0.49965000  0.92111000  1.0
  H  H17  1  0.79419000  0.61106000  0.99382000  1.0
  H  H18  1  0.86818000  0.05518000  0.90458000  1.0
  H  H19  1  0.03085000  0.19143000  0.93100000  1.0
  H  H20  1  0.57073000  0.10263000  0.93251000  1.0
  H  H21  1  0.40705000  0.96287000  0.91004000  1.0
  H  H22  1  0.24457000  0.38240000  0.09401000  1.0
  H  H23  1  0.42223000  0.33212000  0.15162000  1.0
  H  H24  1  0.08475000  0.44536000  0.24135000  1.0
  H  H25  1  0.90493000  0.49592000  0.18241000  1.0
  H  H26  1  0.03705000  0.26715000  0.23514000  1.0
  H  H27  1  0.85258000  0.18830000  0.29286000  1.0
  H  H28  1  0.29682000  0.28674000  0.38051000  1.0
  H  H29  1  0.47668000  0.36832000  0.32418000  1.0
  H  H30  1  0.84204000  0.73103000  0.50836000  1.0
  H  H31  1  0.94627000  0.61367000  0.47048000  1.0
  H  H32  1  0.78371000  0.71617000  0.35292000  1.0
  H  H33  1  0.66031000  0.82686000  0.39182000  1.0
  H  H34  1  0.42803000  0.00035000  0.42111000  1.0
  H  H35  1  0.20582000  0.88895000  0.49382000  1.0
  H  H36  1  0.13182000  0.44482000  0.40458000  1.0
  H  H37  1  0.96916000  0.30858000  0.43099000  1.0
  H  H38  1  0.42928000  0.39737000  0.43251000  1.0
  H  H39  1  0.59295000  0.53713000  0.41004000  1.0
  H  H40  1  0.75542000  0.11760000  0.59401000  1.0
  H  H41  1  0.57776000  0.16788000  0.65162000  1.0
  H  H42  1  0.91525000  0.05464000  0.74135000  1.0
  H  H43  1  0.09507000  0.00408000  0.68241000  1.0
  H  H44  1  0.96295000  0.23285000  0.73514000  1.0
  H  H45  1  0.14742000  0.31170000  0.79287000  1.0
  H  H46  1  0.70318000  0.21326000  0.88052000  1.0
  H  H47  1  0.52332000  0.13168000  0.82418000  1.0
  H  H48  1  0.84203000  0.23103000  0.99164000  1.0
  H  H49  1  0.94626000  0.11366000  0.02952000  1.0
  H  H50  1  0.78372000  0.21617000  0.14708000  1.0
  H  H51  1  0.66032000  0.32686000  0.10818000  1.0
  H  H52  1  0.42803000  0.50035000  0.07889000  1.0
  H  H53  1  0.20582000  0.38894000  0.00618000  1.0
  H  H54  1  0.13182000  0.94482000  0.09542000  1.0
  H  H55  1  0.96914000  0.80857000  0.06901000  1.0
  H  H56  1  0.42927000  0.89737000  0.06749000  1.0
  H  H57  1  0.59295000  0.03713000  0.08996000  1.0
  H  H58  1  0.75543000  0.61760000  0.90599000  1.0
  H  H59  1  0.57776000  0.66788000  0.84838000  1.0
  H  H60  1  0.91525000  0.55464000  0.75865000  1.0
  H  H61  1  0.09507000  0.50408000  0.81759000  1.0
  H  H62  1  0.96294000  0.73285000  0.76486000  1.0
  H  H63  1  0.14741000  0.81170000  0.70714000  1.0
  H  H64  1  0.70318000  0.71326000  0.61949000  1.0
  H  H65  1  0.52332000  0.63168000  0.67582000  1.0
  H  H66  1  0.15797000  0.26897000  0.49164000  1.0
  H  H67  1  0.05373000  0.38633000  0.52952000  1.0
  H  H68  1  0.21628000  0.28383000  0.64708000  1.0
  H  H69  1  0.33969000  0.17314000  0.60818000  1.0
  H  H70  1  0.57198000  0.99965000  0.57889000  1.0
  H  H71  1  0.79419000  0.11105000  0.50618000  1.0
  H  H72  1  0.86818000  0.55518000  0.59542000  1.0
  H  H73  1  0.03085000  0.69143000  0.56901000  1.0
  H  H74  1  0.57073000  0.60263000  0.56749000  1.0
  H  H75  1  0.40705000  0.46287000  0.58996000  1.0
  H  H76  1  0.24457000  0.88240000  0.40599000  1.0
  H  H77  1  0.42224000  0.83212000  0.34838000  1.0
  H  H78  1  0.08475000  0.94536000  0.25865000  1.0
  H  H79  1  0.90493000  0.99592000  0.31759000  1.0
  H  H80  1  0.03705000  0.76715000  0.26486000  1.0
  H  H81  1  0.85258000  0.68830000  0.20713000  1.0
  H  H82  1  0.29683000  0.78674000  0.11948000  1.0
  H  H83  1  0.47668000  0.86832000  0.17582000  1.0
  C  C84  1  0.30761000  0.64245000  0.97619000  1.0
  C  C85  1  0.25695000  0.71423000  0.95236000  1.0
  C  C86  1  0.17384000  0.77406000  0.97438000  1.0
  C  C87  1  0.11316000  0.83910000  0.95288000  1.0
  C  C88  1  0.12311000  0.84307000  0.90879000  1.0
  C  C89  1  0.20619000  0.78321000  0.88697000  1.0
  C  C90  1  0.27716000  0.72032000  0.90878000  1.0
  C  C91  1  0.03521000  0.91307000  0.88767000  1.0
  C  C92  1  0.07018000  0.91770000  0.83926000  1.0
  C  C93  1  0.81278000  0.89196000  0.89523000  1.0
  C  C94  1  0.12569000  0.99850000  0.90563000  1.0
  C  C95  1  0.02091000  0.06354000  0.91165000  1.0
  C  C96  1  0.11215000  0.14087000  0.92603000  1.0
  C  C97  1  0.31102000  0.15629000  0.93287000  1.0
  C  C98  1  0.41623000  0.09141000  0.92695000  1.0
  C  C99  1  0.32379000  0.01301000  0.91411000  1.0
  C  C100  1  0.40205000  0.24380000  0.94334000  1.0
  C  C101  1  0.96945000  0.48039000  0.09893000  1.0
  C  C102  1  0.06558000  0.44418000  0.13444000  1.0
  C  C103  1  0.21071000  0.39719000  0.12631000  1.0
  C  C104  1  0.31076000  0.36818000  0.15925000  1.0
  C  C105  1  0.26915000  0.38573000  0.20103000  1.0
  C  C106  1  0.12076000  0.43147000  0.20909000  1.0
  C  C107  1  0.01921000  0.46007000  0.17613000  1.0
  C  C108  1  0.39077000  0.36315000  0.23807000  1.0
  C  C109  1  0.51970000  0.29749000  0.22556000  1.0
  C  C110  1  0.52340000  0.44645000  0.25069000  1.0
  C  C111  1  0.26972000  0.32358000  0.27530000  1.0
  C  C112  1  0.09345000  0.27244000  0.26703000  1.0
  C  C113  1  0.99013000  0.22766000  0.29920000  1.0
  C  C114  1  0.06376000  0.23213000  0.34017000  1.0
  C  C115  1  0.23872000  0.28368000  0.34873000  1.0
  C  C116  1  0.34015000  0.32949000  0.31661000  1.0
  C  C117  1  0.95197000  0.18351000  0.37395000  1.0
  C  C118  1  0.69240000  0.85755000  0.47619000  1.0
  C  C119  1  0.74305000  0.78577000  0.45236000  1.0
  C  C120  1  0.82616000  0.72594000  0.47438000  1.0
  C  C121  1  0.88685000  0.66090000  0.45288000  1.0
  C  C122  1  0.87689000  0.65693000  0.40879000  1.0
  C  C123  1  0.79380000  0.71679000  0.38697000  1.0
  C  C124  1  0.72283000  0.77968000  0.40878000  1.0
  C  C125  1  0.96479000  0.58693000  0.38766000  1.0
  C  C126  1  0.92982000  0.58231000  0.33926000  1.0
  C  C127  1  0.18723000  0.60805000  0.39523000  1.0
  C  C128  1  0.87431000  0.50151000  0.40563000  1.0
  C  C129  1  0.97910000  0.43647000  0.41165000  1.0
  C  C130  1  0.88786000  0.35913000  0.42603000  1.0
  C  C131  1  0.68899000  0.34372000  0.43287000  1.0
  C  C132  1  0.58377000  0.40859000  0.42695000  1.0
  C  C133  1  0.67622000  0.48699000  0.41411000  1.0
  C  C134  1  0.59796000  0.25620000  0.44334000  1.0
  C  C135  1  0.03056000  0.01961000  0.59893000  1.0
  C  C136  1  0.93442000  0.05582000  0.63444000  1.0
  C  C137  1  0.78929000  0.10281000  0.62631000  1.0
  C  C138  1  0.68924000  0.13183000  0.65925000  1.0
  C  C139  1  0.73085000  0.11427000  0.70103000  1.0
  C  C140  1  0.87924000  0.06853000  0.70909000  1.0
  C  C141  1  0.98079000  0.03993000  0.67613000  1.0
  C  C142  1  0.60924000  0.13685000  0.73807000  1.0
  C  C143  1  0.48030000  0.20252000  0.72556000  1.0
  C  C144  1  0.47661000  0.05355000  0.75069000  1.0
  C  C145  1  0.73028000  0.17642000  0.77530000  1.0
  C  C146  1  0.90655000  0.22756000  0.76703000  1.0
  C  C147  1  0.00987000  0.27234000  0.79920000  1.0
  C  C148  1  0.93625000  0.26787000  0.84017000  1.0
  C  C149  1  0.76128000  0.21632000  0.84873000  1.0
  C  C150  1  0.65985000  0.17051000  0.81661000  1.0
  C  C151  1  0.04803000  0.31649000  0.87395000  1.0
  C  C152  1  0.69240000  0.35755000  0.02382000  1.0
  C  C153  1  0.74305000  0.28576000  0.04764000  1.0
  C  C154  1  0.82616000  0.22594000  0.02562000  1.0
  C  C155  1  0.88684000  0.16090000  0.04712000  1.0
  C  C156  1  0.87689000  0.15693000  0.09121000  1.0
  C  C157  1  0.79381000  0.21679000  0.11303000  1.0
  C  C158  1  0.72284000  0.27968000  0.09122000  1.0
  C  C159  1  0.96479000  0.08693000  0.11233000  1.0
  C  C160  1  0.92983000  0.08230000  0.16074000  1.0
  C  C161  1  0.18722000  0.10804000  0.10477000  1.0
  C  C162  1  0.87431000  0.00150000  0.09437000  1.0
  C  C163  1  0.97909000  0.93647000  0.08835000  1.0
  C  C164  1  0.88785000  0.85913000  0.07397000  1.0
  C  C165  1  0.68898000  0.84372000  0.06713000  1.0
  C  C166  1  0.58376000  0.90859000  0.07305000  1.0
  C  C167  1  0.67621000  0.98699000  0.08589000  1.0
  C  C168  1  0.59795000  0.75620000  0.05666000  1.0
  C  C169  1  0.03056000  0.51961000  0.90107000  1.0
  C  C170  1  0.93442000  0.55582000  0.86556000  1.0
  C  C171  1  0.78929000  0.60281000  0.87369000  1.0
  C  C172  1  0.68924000  0.63182000  0.84075000  1.0
  C  C173  1  0.73085000  0.61426000  0.79897000  1.0
  C  C174  1  0.87923000  0.56853000  0.79091000  1.0
  C  C175  1  0.98079000  0.53993000  0.82387000  1.0
  C  C176  1  0.60923000  0.63685000  0.76193000  1.0
  C  C177  1  0.48029000  0.70251000  0.77444000  1.0
  C  C178  1  0.47660000  0.55355000  0.74931000  1.0
  C  C179  1  0.73028000  0.67642000  0.72470000  1.0
  C  C180  1  0.90655000  0.72756000  0.73297000  1.0
  C  C181  1  0.00987000  0.77235000  0.70080000  1.0
  C  C182  1  0.93624000  0.76787000  0.65983000  1.0
  C  C183  1  0.76128000  0.71632000  0.65127000  1.0
  C  C184  1  0.65985000  0.67051000  0.68339000  1.0
  C  C185  1  0.04803000  0.81649000  0.62605000  1.0
  C  C186  1  0.30760000  0.14245000  0.52381000  1.0
  C  C187  1  0.25696000  0.21423000  0.54764000  1.0
  C  C188  1  0.17384000  0.27406000  0.52562000  1.0
  C  C189  1  0.11316000  0.33910000  0.54712000  1.0
  C  C190  1  0.12311000  0.34307000  0.59121000  1.0
  C  C191  1  0.20619000  0.28321000  0.61303000  1.0
  C  C192  1  0.27717000  0.22032000  0.59122000  1.0
  C  C193  1  0.03521000  0.41307000  0.61233000  1.0
  C  C194  1  0.07017000  0.41769000  0.66074000  1.0
  C  C195  1  0.81277000  0.39196000  0.60477000  1.0
  C  C196  1  0.12569000  0.49849000  0.59437000  1.0
  C  C197  1  0.02091000  0.56353000  0.58835000  1.0
  C  C198  1  0.11215000  0.64087000  0.57397000  1.0
  C  C199  1  0.31102000  0.65628000  0.56713000  1.0
  C  C200  1  0.41623000  0.59141000  0.57305000  1.0
  C  C201  1  0.32379000  0.51301000  0.58589000  1.0
  C  C202  1  0.40205000  0.74380000  0.55666000  1.0
  C  C203  1  0.96945000  0.98039000  0.40107000  1.0
  C  C204  1  0.06558000  0.94418000  0.36556000  1.0
  C  C205  1  0.21071000  0.89718000  0.37369000  1.0
  C  C206  1  0.31076000  0.86817000  0.34075000  1.0
  C  C207  1  0.26915000  0.88573000  0.29897000  1.0
  C  C208  1  0.12076000  0.93147000  0.29091000  1.0
  C  C209  1  0.01921000  0.96007000  0.32387000  1.0
  C  C210  1  0.39077000  0.86315000  0.26193000  1.0
  C  C211  1  0.51970000  0.79748000  0.27444000  1.0
  C  C212  1  0.52340000  0.94645000  0.24931000  1.0
  C  C213  1  0.26972000  0.82358000  0.22470000  1.0
  C  C214  1  0.09345000  0.77244000  0.23297000  1.0
  C  C215  1  0.99013000  0.72766000  0.20080000  1.0
  C  C216  1  0.06376000  0.73213000  0.15983000  1.0
  C  C217  1  0.23873000  0.78368000  0.15127000  1.0
  C  C218  1  0.34015000  0.82949000  0.18339000  1.0
  C  C219  1  0.95197000  0.68351000  0.12605000  1.0
  O  O220  1  0.45030000  0.60910000  0.96712000  1.0
  O  O221  1  0.18584000  0.61765000  0.00656000  1.0
  O  O222  1  0.29337000  0.29025000  0.95923000  1.0
  O  O223  1  0.58011000  0.26604000  0.93382000  1.0
  O  O224  1  0.07496000  0.49866000  0.06565000  1.0
  O  O225  1  0.79983000  0.49415000  0.10299000  1.0
  O  O226  1  0.77206000  0.16222000  0.37004000  1.0
  O  O227  1  0.03477000  0.16336000  0.40823000  1.0
  O  O228  1  0.53644000  0.45067000  0.93900000  1.0
  O  O229  1  0.77719000  0.55871000  0.00952000  1.0
  O  O230  1  0.54971000  0.89090000  0.46712000  1.0
  O  O231  1  0.81416000  0.88235000  0.50656000  1.0
  O  O232  1  0.70664000  0.20975000  0.45923000  1.0
  O  O233  1  0.41990000  0.23396000  0.43382000  1.0
  O  O234  1  0.92504000  0.00134000  0.56565000  1.0
  O  O235  1  0.20017000  0.00585000  0.60299000  1.0
  O  O236  1  0.22795000  0.33778000  0.87004000  1.0
  O  O237  1  0.96525000  0.33664000  0.90823000  1.0
  O  O238  1  0.46357000  0.04933000  0.43900000  1.0
  O  O239  1  0.22281000  0.94130000  0.50952000  1.0
  O  O240  1  0.54970000  0.39090000  0.03289000  1.0
  O  O241  1  0.81416000  0.38235000  0.99344000  1.0
  O  O242  1  0.70663000  0.70976000  0.04077000  1.0
  O  O243  1  0.41989000  0.73396000  0.06618000  1.0
  O  O244  1  0.92504000  0.50134000  0.93435000  1.0
  O  O245  1  0.20017000  0.50585000  0.89701000  1.0
  O  O246  1  0.22795000  0.83778000  0.62996000  1.0
  O  O247  1  0.96524000  0.83664000  0.59177000  1.0
  O  O248  1  0.46356000  0.54933000  0.06100000  1.0
  O  O249  1  0.22281000  0.44129000  0.99048000  1.0
  O  O250  1  0.45030000  0.10910000  0.53288000  1.0
  O  O251  1  0.18584000  0.11765000  0.49344000  1.0
  O  O252  1  0.29337000  0.79025000  0.54077000  1.0
  O  O253  1  0.58011000  0.76604000  0.56618000  1.0
  O  O254  1  0.07496000  0.99866000  0.43435000  1.0
  O  O255  1  0.79983000  0.99415000  0.39701000  1.0
  O  O256  1  0.77206000  0.66222000  0.12996000  1.0
  O  O257  1  0.03476000  0.66336000  0.09177000  1.0
  O  O258  1  0.53643000  0.95067000  0.56100000  1.0
  O  O259  1  0.77719000  0.05870000  0.49048000  1.0
  F  F260  1  0.97838000  0.84887000  0.81855000  1.0
  F  F261  1  0.26076000  0.92453000  0.83044000  1.0
  F  F262  1  0.00867000  0.98492000  0.82188000  1.0
  F  F263  1  0.74578000  0.80988000  0.88809000  1.0
  F  F264  1  0.70921000  0.93604000  0.87006000  1.0
  F  F265  1  0.76563000  0.90809000  0.93566000  1.0
  F  F266  1  0.66319000  0.32829000  0.19796000  1.0
  F  F267  1  0.41294000  0.22965000  0.20719000  1.0
  F  F268  1  0.60744000  0.26924000  0.25930000  1.0
  F  F269  1  0.67882000  0.43389000  0.27378000  1.0
  F  F270  1  0.42452000  0.49572000  0.27366000  1.0
  F  F271  1  0.59372000  0.49155000  0.21636000  1.0
  F  F272  1  0.02161000  0.65114000  0.31855000  1.0
  F  F273  1  0.73923000  0.57547000  0.33044000  1.0
  F  F274  1  0.99132000  0.51508000  0.32187000  1.0
  F  F275  1  0.25423000  0.69013000  0.38808000  1.0
  F  F276  1  0.29079000  0.56397000  0.37005000  1.0
  F  F277  1  0.23438000  0.59191000  0.43566000  1.0
  F  F278  1  0.33681000  0.17171000  0.69796000  1.0
  F  F279  1  0.58706000  0.27035000  0.70719000  1.0
  F  F280  1  0.39256000  0.23077000  0.75930000  1.0
  F  F281  1  0.32118000  0.06611000  0.77378000  1.0
  F  F282  1  0.57548000  0.00428000  0.77366000  1.0
  F  F283  1  0.40628000  0.00846000  0.71637000  1.0
  F  F284  1  0.02162000  0.15113000  0.18145000  1.0
  F  F285  1  0.73924000  0.07547000  0.16956000  1.0
  F  F286  1  0.99133000  0.01508000  0.17813000  1.0
  F  F287  1  0.25423000  0.19012000  0.11191000  1.0
  F  F288  1  0.29078000  0.06396000  0.12994000  1.0
  F  F289  1  0.23437000  0.09191000  0.06434000  1.0
  F  F290  1  0.33681000  0.67171000  0.80204000  1.0
  F  F291  1  0.58706000  0.77035000  0.79281000  1.0
  F  F292  1  0.39255000  0.73076000  0.74070000  1.0
  F  F293  1  0.32117000  0.56611000  0.72622000  1.0
  F  F294  1  0.57548000  0.50428000  0.72634000  1.0
  F  F295  1  0.40629000  0.50845000  0.78364000  1.0
  F  F296  1  0.97838000  0.34886000  0.68145000  1.0
  F  F297  1  0.26076000  0.42453000  0.66956000  1.0
  F  F298  1  0.00868000  0.48492000  0.67813000  1.0
  F  F299  1  0.74577000  0.30988000  0.61191000  1.0
  F  F300  1  0.70921000  0.43603000  0.62994000  1.0
  F  F301  1  0.76562000  0.40809000  0.56434000  1.0
  F  F302  1  0.66319000  0.82829000  0.30204000  1.0
  F  F303  1  0.41294000  0.72965000  0.29281000  1.0
  F  F304  1  0.60744000  0.76923000  0.24070000  1.0
  F  F305  1  0.67883000  0.93389000  0.22622000  1.0
  F  F306  1  0.42452000  0.99572000  0.22634000  1.0
  F  F307  1  0.59372000  0.99154000  0.28363000  1.0
