# generated using pymatgen
data_Zr3H14C26O21F
_symmetry_space_group_name_H-M   'P 1'
_cell_length_a   14.77240000
_cell_length_b   14.78530000
_cell_length_c   14.77890000
_cell_angle_alpha   60.05050000
_cell_angle_beta   60.09510000
_cell_angle_gamma   60.11820000
_symmetry_Int_Tables_number   1
_chemical_formula_structural   Zr3H14C26O21F
_chemical_formula_sum   'Zr6 H28 C52 O42 F2'
_cell_volume   2287.03334654
_cell_formula_units_Z   2
loop_
 _symmetry_equiv_pos_site_id
 _symmetry_equiv_pos_as_xyz
  1  'x, y, z'
loop_
 _atom_site_type_symbol
 _atom_site_label
 _atom_site_symmetry_multiplicity
 _atom_site_fract_x
 _atom_site_fract_y
 _atom_site_fract_z
 _atom_site_occupancy
  Zr  Zr0  1  0.11664000  0.12035000  0.38028000  1.0
  Zr  Zr1  1  0.88166000  0.87956000  0.61537000  1.0
  Zr  Zr2  1  0.12064000  0.88135000  0.37615000  1.0
  Zr  Zr3  1  0.87833000  0.11877000  0.61830000  1.0
  Zr  Zr4  1  0.11846000  0.88062000  0.61668000  1.0
  Zr  Zr5  1  0.88010000  0.11888000  0.37840000  1.0
  H  H6  1  0.28190000  0.90629000  0.40539000  1.0
  H  H7  1  0.90720000  0.90231000  0.77984000  1.0
  H  H8  1  0.90627000  0.90566000  0.40179000  1.0
  H  H9  1  0.90387000  0.28175000  0.40502000  1.0
  H  H10  1  0.41322000  0.85547000  0.64208000  1.0
  H  H11  1  0.55825000  0.16897000  0.38327000  1.0
  H  H12  1  0.85946000  0.40929000  0.07870000  1.0
  H  H13  1  0.14930000  0.58047000  0.90698000  1.0
  H  H14  1  0.87453000  0.16181000  0.89274000  1.0
  H  H15  1  0.15030000  0.86174000  0.07768000  1.0
  H  H16  1  0.58088000  0.40815000  0.64675000  1.0
  H  H17  1  0.40707000  0.58059000  0.35892000  1.0
  H  H18  1  0.42179000  0.02602000  0.25488000  1.0
  H  H19  1  0.58343000  0.03959000  0.24939000  1.0
  H  H20  1  0.75873000  0.02261000  0.92021000  1.0
  H  H21  1  0.75277000  0.03826000  0.08052000  1.0
  H  H22  1  0.14963000  0.40587000  0.36085000  1.0
  H  H23  1  0.86391000  0.57960000  0.64876000  1.0
  H  H24  1  0.65120000  0.84430000  0.65308000  1.0
  H  H25  1  0.32069000  0.17909000  0.37168000  1.0
  H  H26  1  0.84987000  0.64633000  0.84030000  1.0
  H  H27  1  0.15804000  0.34429000  0.14629000  1.0
  H  H28  1  0.86349000  0.17135000  0.13181000  1.0
  H  H29  1  0.15930000  0.84985000  0.84085000  1.0
  H  H30  1  0.34414000  0.64715000  0.65668000  1.0
  H  H31  1  0.64487000  0.34255000  0.34827000  1.0
  H  H32  1  0.16285000  0.64375000  0.34775000  1.0
  H  H33  1  0.84957000  0.34280000  0.66058000  1.0
  C  C34  1  0.29639000  0.00709000  0.50698000  1.0
  C  C35  1  0.00469000  0.68980000  0.79841000  1.0
  C  C36  1  0.68807000  0.00571000  0.50382000  1.0
  C  C37  1  0.00117000  0.30275000  0.18999000  1.0
  C  C38  1  0.29914000  0.00614000  0.19168000  1.0
  C  C39  1  0.00221000  0.30108000  0.50354000  1.0
  C  C40  1  0.69409000  0.00038000  0.79842000  1.0
  C  C41  1  0.00568000  0.68998000  0.50056000  1.0
  C  C42  1  0.30192000  0.69151000  0.50048000  1.0
  C  C43  1  0.00750000  0.00675000  0.18482000  1.0
  C  C44  1  0.68952000  0.30084000  0.50185000  1.0
  C  C45  1  0.00504000  0.00548000  0.79741000  1.0
  C  C46  1  0.58257000  0.00945000  0.51197000  1.0
  C  C47  1  0.39127000  0.01292000  0.51082000  1.0
  C  C48  1  0.53955000  0.92075000  0.58843000  1.0
  C  C49  1  0.43107000  0.10425000  0.43810000  1.0
  C  C50  1  0.44485000  0.92425000  0.58565000  1.0
  C  C51  1  0.52642000  0.10031000  0.43994000  1.0
  C  C52  1  0.00375000  0.58939000  0.89744000  1.0
  C  C53  1  0.00465000  0.40071000  0.08856000  1.0
  C  C54  1  0.92052000  0.54039000  0.94631000  1.0
  C  C55  1  0.08816000  0.44940000  0.03942000  1.0
  C  C56  1  0.92296000  0.44678000  0.04101000  1.0
  C  C57  1  0.08585000  0.54292000  0.94462000  1.0
  C  C58  1  0.01054000  0.01232000  0.08076000  1.0
  C  C59  1  0.01212000  0.00901000  0.89164000  1.0
  C  C60  1  0.93258000  0.09980000  0.02683000  1.0
  C  C61  1  0.09290000  0.92399000  0.94293000  1.0
  C  C62  1  0.93496000  0.09618000  0.93324000  1.0
  C  C63  1  0.09006000  0.92739000  0.03696000  1.0
  C  C64  1  0.39962000  0.58988000  0.50377000  1.0
  C  C65  1  0.58860000  0.39937000  0.50158000  1.0
  C  C66  1  0.44882000  0.54044000  0.58690000  1.0
  C  C67  1  0.53888000  0.44821000  0.41900000  1.0
  C  C68  1  0.54253000  0.44600000  0.58391000  1.0
  C  C69  1  0.44519000  0.54267000  0.42196000  1.0
  C  C70  1  0.40245000  0.00480000  0.09305000  1.0
  C  C71  1  0.49573000  0.01421000  0.09055000  1.0
  C  C72  1  0.40866000  0.99236000  0.00334000  1.0
  C  C73  1  0.49567000  0.02303000  0.18199000  1.0
  C  C74  1  0.58626000  0.03121000  0.17869000  1.0
  C  C75  1  0.59577000  0.00035000  0.90203000  1.0
  C  C76  1  0.50464000  0.98994000  0.90870000  1.0
  C  C77  1  0.59341000  0.01252000  0.99374000  1.0
  C  C78  1  0.68525000  0.02084000  0.99359000  1.0
  C  C79  1  0.68167000  0.03034000  0.08362000  1.0
  C  C80  1  0.00887000  0.58778000  0.50234000  1.0
  C  C81  1  0.00401000  0.39828000  0.50666000  1.0
  C  C82  1  0.09170000  0.53772000  0.42011000  1.0
  C  C83  1  0.92234000  0.44718000  0.59003000  1.0
  C  C84  1  0.08727000  0.44383000  0.42402000  1.0
  C  C85  1  0.92658000  0.54124000  0.58594000  1.0
  O  O86  1  0.25706000  0.08332000  0.42776000  1.0
  O  O87  1  0.92666000  0.73167000  0.75757000  1.0
  O  O88  1  0.73344000  0.92451000  0.57703000  1.0
  O  O89  1  0.07698000  0.26307000  0.23298000  1.0
  O  O90  1  0.26165000  0.92811000  0.23066000  1.0
  O  O91  1  0.92328000  0.26137000  0.57956000  1.0
  O  O92  1  0.73256000  0.07856000  0.75656000  1.0
  O  O93  1  0.08167000  0.73262000  0.42148000  1.0
  O  O94  1  0.26211000  0.73388000  0.57685000  1.0
  O  O95  1  0.92785000  0.08225000  0.22777000  1.0
  O  O96  1  0.73167000  0.26071000  0.42325000  1.0
  O  O97  1  0.07925000  0.92516000  0.75930000  1.0
  O  O98  1  0.08018000  0.92819000  0.22879000  1.0
  O  O99  1  0.73162000  0.26073000  0.57669000  1.0
  O  O100  1  0.92617000  0.07848000  0.75949000  1.0
  O  O101  1  0.26199000  0.73408000  0.42338000  1.0
  O  O102  1  0.25756000  0.08347000  0.23102000  1.0
  O  O103  1  0.92825000  0.73278000  0.57469000  1.0
  O  O104  1  0.73328000  0.92277000  0.76046000  1.0
  O  O105  1  0.07636000  0.26153000  0.42615000  1.0
  O  O106  1  0.92451000  0.26235000  0.23172000  1.0
  O  O107  1  0.25938000  0.92743000  0.57844000  1.0
  O  O108  1  0.07955000  0.73211000  0.75825000  1.0
  O  O109  1  0.73121000  0.07927000  0.42521000  1.0
  O  O110  1  0.93071000  0.20150000  0.43175000  1.0
  O  O111  1  0.93311000  0.93262000  0.42843000  1.0
  O  O112  1  0.93237000  0.93130000  0.69957000  1.0
  O  O113  1  0.20163000  0.93404000  0.43044000  1.0
  O  O114  1  0.05020000  0.85110000  0.54569000  1.0
  O  O115  1  0.04774000  0.04943000  0.54866000  1.0
  O  O116  1  0.85096000  0.04832000  0.54706000  1.0
  O  O117  1  0.04881000  0.04983000  0.34938000  1.0
  O  O118  1  0.58680000  0.83150000  0.66229000  1.0
  O  O119  1  0.38173000  0.19456000  0.36597000  1.0
  O  O120  1  0.83840000  0.58011000  0.90618000  1.0
  O  O121  1  0.17000000  0.40997000  0.07987000  1.0
  O  O122  1  0.85467000  0.18581000  0.06294000  1.0
  O  O123  1  0.17156000  0.83862000  0.90648000  1.0
  O  O124  1  0.40971000  0.58064000  0.66879000  1.0
  O  O125  1  0.57822000  0.40793000  0.33709000  1.0
  O  O126  1  0.17433000  0.57693000  0.33753000  1.0
  O  O127  1  0.83993000  0.40764000  0.67286000  1.0
  F  F128  1  0.50179000  0.98180000  0.82313000  1.0
  F  F129  1  0.32186000  0.98625000  0.00058000  1.0
