# generated using pymatgen
data_AgH8C2BrN2
_symmetry_space_group_name_H-M   'P 1'
_cell_length_a   6.62097000
_cell_length_b   7.62043000
_cell_length_c   11.39200000
_cell_angle_alpha   89.99970000
_cell_angle_beta   82.73310000
_cell_angle_gamma   89.99990000
_symmetry_Int_Tables_number   1
_chemical_formula_structural   AgH8C2BrN2
_chemical_formula_sum   'Ag4 H32 C8 Br4 N8'
_cell_volume   570.16243166
_cell_formula_units_Z   4
loop_
 _symmetry_equiv_pos_site_id
 _symmetry_equiv_pos_as_xyz
  1  'x, y, z'
loop_
 _atom_site_type_symbol
 _atom_site_label
 _atom_site_symmetry_multiplicity
 _atom_site_fract_x
 _atom_site_fract_y
 _atom_site_fract_z
 _atom_site_occupancy
  Ag  Ag0  1  0.62934000  0.53422000  0.38206000  1.0
  Ag  Ag1  1  0.62936000  0.96579000  0.88206000  1.0
  Ag  Ag2  1  0.37063000  0.46578000  0.61795000  1.0
  Ag  Ag3  1  0.37063000  0.03421000  0.11794000  1.0
  H  H4  1  0.38373000  0.57428000  0.20106000  1.0
  H  H5  1  0.38375000  0.92573000  0.70106000  1.0
  H  H6  1  0.61627000  0.42574000  0.79894000  1.0
  H  H7  1  0.61625000  0.07425000  0.29894000  1.0
  H  H8  1  0.49699000  0.38504000  0.18229000  1.0
  H  H9  1  0.49700000  0.11497000  0.68229000  1.0
  H  H10  1  0.50301000  0.61496000  0.81772000  1.0
  H  H11  1  0.50301000  0.88503000  0.31772000  1.0
  H  H12  1  0.15742000  0.45159000  0.37199000  1.0
  H  H13  1  0.15745000  0.04840000  0.87199000  1.0
  H  H14  1  0.84255000  0.54844000  0.62802000  1.0
  H  H15  1  0.84254000  0.95157000  0.12802000  1.0
  H  H16  1  0.26811000  0.24587000  0.32824000  1.0
  H  H17  1  0.26812000  0.25413000  0.82825000  1.0
  H  H18  1  0.73188000  0.75413000  0.67177000  1.0
  H  H19  1  0.73188000  0.74587000  0.17177000  1.0
  H  H20  1  0.94395000  0.27716000  0.25034000  1.0
  H  H21  1  0.94396000  0.22285000  0.75034000  1.0
  H  H22  1  0.05602000  0.72284000  0.74967000  1.0
  H  H23  1  0.05602000  0.77715000  0.24966000  1.0
  H  H24  1  0.01336000  0.48413000  0.18653000  1.0
  H  H25  1  0.01336000  0.01587000  0.68654000  1.0
  H  H26  1  0.98664000  0.51591000  0.81346000  1.0
  H  H27  1  0.98664000  0.98408000  0.31346000  1.0
  H  H28  1  0.25330000  0.35024000  0.04767000  1.0
  H  H29  1  0.25331000  0.14974000  0.54767000  1.0
  H  H30  1  0.74672000  0.64975000  0.95233000  1.0
  H  H31  1  0.74672000  0.85024000  0.45233000  1.0
  H  H32  1  0.04300000  0.23609000  0.05057000  1.0
  H  H33  1  0.04301000  0.26391000  0.55057000  1.0
  H  H34  1  0.95700000  0.76390000  0.94943000  1.0
  H  H35  1  0.95700000  0.73609000  0.44943000  1.0
  C  C36  1  0.22741000  0.37553000  0.29542000  1.0
  C  C37  1  0.22743000  0.12447000  0.79542000  1.0
  C  C38  1  0.77259000  0.62449000  0.70459000  1.0
  C  C39  1  0.77258000  0.87551000  0.20459000  1.0
  C  C40  1  0.07322000  0.35435000  0.20794000  1.0
  C  C41  1  0.07323000  0.14564000  0.70794000  1.0
  C  C42  1  0.92677000  0.64565000  0.79205000  1.0
  C  C43  1  0.92676000  0.85435000  0.29205000  1.0
  Br  Br44  1  0.70276000  0.22662000  0.48857000  1.0
  Br  Br45  1  0.70270000  0.27340000  0.98859000  1.0
  Br  Br46  1  0.29723000  0.77338000  0.51144000  1.0
  Br  Br47  1  0.29726000  0.72663000  0.01140000  1.0
  N  N48  1  0.41803000  0.46335000  0.24598000  1.0
  N  N49  1  0.41805000  0.03665000  0.74598000  1.0
  N  N50  1  0.58200000  0.53666000  0.75402000  1.0
  N  N51  1  0.58198000  0.96334000  0.25403000  1.0
  N  N52  1  0.16076000  0.26393000  0.09852000  1.0
  N  N53  1  0.16078000  0.23607000  0.59852000  1.0
  N  N54  1  0.83928000  0.73603000  0.90146000  1.0
  N  N55  1  0.83927000  0.76397000  0.40146000  1.0
