# generated using pymatgen
data_CdH20C19(NO)4
_symmetry_space_group_name_H-M   'P 1'
_cell_length_a   9.74899000
_cell_length_b   10.09140000
_cell_length_c   12.04850000
_cell_angle_alpha   103.94500000
_cell_angle_beta   109.85200000
_cell_angle_gamma   97.34370000
_symmetry_Int_Tables_number   1
_chemical_formula_structural   CdH20C19(NO)4
_chemical_formula_sum   'Cd2 H40 C38 N8 O8'
_cell_volume   1053.11673091
_cell_formula_units_Z   2
loop_
 _symmetry_equiv_pos_site_id
 _symmetry_equiv_pos_as_xyz
  1  'x, y, z'
loop_
 _atom_site_type_symbol
 _atom_site_label
 _atom_site_symmetry_multiplicity
 _atom_site_fract_x
 _atom_site_fract_y
 _atom_site_fract_z
 _atom_site_occupancy
  Cd  Cd0  1  0.43188000  0.02276000  0.33916000  1.0
  Cd  Cd1  1  0.56812000  0.97725000  0.66084000  1.0
  H  H2  1  0.25659000  0.73974000  0.14293000  1.0
  H  H3  1  0.74341000  0.26026000  0.85706000  1.0
  H  H4  1  0.37921000  0.47284000  0.33264000  1.0
  H  H5  1  0.62079000  0.52716000  0.66736000  1.0
  H  H6  1  0.28269000  0.12970000  0.60200000  1.0
  H  H7  1  0.71732000  0.87030000  0.39800000  1.0
  H  H8  1  0.17786000  0.35960000  0.57364000  1.0
  H  H9  1  0.82212000  0.64040000  0.42635000  1.0
  H  H10  1  0.96635000  0.95542000  0.79783000  1.0
  H  H11  1  0.03366000  0.04458000  0.20217000  1.0
  H  H12  1  0.98715000  0.78747000  0.73421000  1.0
  H  H13  1  0.01285000  0.21253000  0.26579000  1.0
  H  H14  1  0.02299000  0.16538000  0.57220000  1.0
  H  H15  1  0.97701000  0.83462000  0.42780000  1.0
  H  H16  1  0.01878000  0.20720000  0.72285000  1.0
  H  H17  1  0.98123000  0.79279000  0.27715000  1.0
  H  H18  1  0.90692000  0.04705000  0.60941000  1.0
  H  H19  1  0.09309000  0.95294000  0.39060000  1.0
  H  H20  1  0.20238000  0.77312000  0.53043000  1.0
  H  H21  1  0.79762000  0.22689000  0.46957000  1.0
  H  H22  1  0.11933000  0.59585000  0.62056000  1.0
  H  H23  1  0.88067000  0.40415000  0.37943000  1.0
  H  H24  1  0.48231000  0.82262000  0.80695000  1.0
  H  H25  1  0.51770000  0.17738000  0.19305000  1.0
  H  H26  1  0.31531000  0.73551000  0.81002000  1.0
  H  H27  1  0.68469000  0.26449000  0.18998000  1.0
  H  H28  1  0.42996000  0.88499000  0.93487000  1.0
  H  H29  1  0.57005000  0.11501000  0.06513000  1.0
  H  H30  1  0.27552000  0.20704000  0.14848000  1.0
  H  H31  1  0.72449000  0.79297000  0.85151000  1.0
  H  H32  1  0.11597000  0.16946000  0.00798000  1.0
  H  H33  1  0.88404000  0.83054000  0.99202000  1.0
  H  H34  1  0.29551000  0.17248000  0.00274000  1.0
  H  H35  1  0.70450000  0.82752000  0.99725000  1.0
  H  H36  1  0.10429000  0.53769000  0.94521000  1.0
  H  H37  1  0.89570000  0.46230000  0.05477000  1.0
  H  H38  1  0.11940000  0.57782000  0.81375000  1.0
  H  H39  1  0.88060000  0.42219000  0.18624000  1.0
  H  H40  1  0.95083000  0.57891000  0.83866000  1.0
  H  H41  1  0.04916000  0.42110000  0.16133000  1.0
  C  C42  1  0.34442000  0.73854000  0.36964000  1.0
  C  C43  1  0.65558000  0.26146000  0.63036000  1.0
  C  C44  1  0.32276000  0.49980000  0.39610000  1.0
  C  C45  1  0.67724000  0.50020000  0.60390000  1.0
  C  C46  1  0.13259000  0.75621000  0.96025000  1.0
  C  C47  1  0.86741000  0.24379000  0.03975000  1.0
  C  C48  1  0.28268000  0.40180000  0.45089000  1.0
  C  C49  1  0.71730000  0.59820000  0.54911000  1.0
  C  C50  1  0.16132000  0.95574000  0.75439000  1.0
  C  C51  1  0.83869000  0.04426000  0.24561000  1.0
  C  C52  1  0.20097000  0.99077000  0.03725000  1.0
  C  C53  1  0.79903000  0.00923000  0.96275000  1.0
  C  C54  1  0.14139000  0.05103000  0.68612000  1.0
  C  C55  1  0.85861000  0.94897000  0.31389000  1.0
  C  C56  1  0.31999000  0.26120000  0.42380000  1.0
  C  C57  1  0.68000000  0.73880000  0.57620000  1.0
  C  C58  1  0.29504000  0.63367000  0.42555000  1.0
  C  C59  1  0.70495000  0.36633000  0.57445000  1.0
  C  C60  1  0.20997000  0.43717000  0.53248000  1.0
  C  C61  1  0.79001000  0.56283000  0.46751000  1.0
  C  C62  1  0.05057000  0.89191000  0.79956000  1.0
  C  C63  1  0.94943000  0.10809000  0.20044000  1.0
  C  C64  1  0.01595000  0.12110000  0.64534000  1.0
  C  C65  1  0.98405000  0.87890000  0.35467000  1.0
  C  C66  1  0.22287000  0.66839000  0.50753000  1.0
  C  C67  1  0.77713000  0.33161000  0.49247000  1.0
  C  C68  1  0.30483000  0.93029000  0.76852000  1.0
  C  C69  1  0.69518000  0.06971000  0.23148000  1.0
  C  C70  1  0.17894000  0.56953000  0.55942000  1.0
  C  C71  1  0.82105000  0.43047000  0.44058000  1.0
  C  C72  1  0.12236000  0.87886000  0.92657000  1.0
  C  C73  1  0.87765000  0.12114000  0.07343000  1.0
  C  C74  1  0.38759000  0.83905000  0.83368000  1.0
  C  C75  1  0.61242000  0.16095000  0.16633000  1.0
  C  C76  1  0.22391000  0.14361000  0.05077000  1.0
  C  C77  1  0.77610000  0.85639000  0.94923000  1.0
  C  C78  1  0.07356000  0.60515000  0.88586000  1.0
  C  C79  1  0.92644000  0.39485000  0.11413000  1.0
  N  N80  1  0.25571000  0.93903000  0.13277000  1.0
  N  N81  1  0.74429000  0.06097000  0.86723000  1.0
  N  N82  1  0.21257000  0.79747000  0.08396000  1.0
  N  N83  1  0.78744000  0.20253000  0.91604000  1.0
  N  N84  1  0.36639000  0.00398000  0.71051000  1.0
  N  N85  1  0.63362000  0.99602000  0.28949000  1.0
  N  N86  1  0.26660000  0.07682000  0.66218000  1.0
  N  N87  1  0.73341000  0.92318000  0.33783000  1.0
  O  O88  1  0.37428000  0.86981000  0.43300000  1.0
  O  O89  1  0.62573000  0.13019000  0.56701000  1.0
  O  O90  1  0.39306000  0.23940000  0.35289000  1.0
  O  O91  1  0.60693000  0.76059000  0.64711000  1.0
  O  O92  1  0.35378000  0.69549000  0.26600000  1.0
  O  O93  1  0.64623000  0.30452000  0.73400000  1.0
  O  O94  1  0.27985000  0.16998000  0.46970000  1.0
  O  O95  1  0.72014000  0.83002000  0.53030000  1.0
