# generated using pymatgen
data_CuH10C16(N3O)2
_symmetry_space_group_name_H-M   'P 1'
_cell_length_a   9.02440000
_cell_length_b   9.23661000
_cell_length_c   9.89928000
_cell_angle_alpha   80.01130000
_cell_angle_beta   67.96300000
_cell_angle_gamma   70.57310000
_symmetry_Int_Tables_number   1
_chemical_formula_structural   CuH10C16(N3O)2
_chemical_formula_sum   'Cu2 H20 C32 N12 O4'
_cell_volume   720.20395979
_cell_formula_units_Z   2
loop_
 _symmetry_equiv_pos_site_id
 _symmetry_equiv_pos_as_xyz
  1  'x, y, z'
loop_
 _atom_site_type_symbol
 _atom_site_label
 _atom_site_symmetry_multiplicity
 _atom_site_fract_x
 _atom_site_fract_y
 _atom_site_fract_z
 _atom_site_occupancy
  Cu  Cu0  1  0.17009000  0.39082000  0.06824000  1.0
  Cu  Cu1  1  0.82991000  0.60918000  0.93175000  1.0
  H  H2  1  0.37927000  0.08266000  0.94704000  1.0
  H  H3  1  0.62073000  0.91734000  0.05296000  1.0
  H  H4  1  0.64073000  0.98234000  0.73637000  1.0
  H  H5  1  0.35928000  0.01766000  0.26363000  1.0
  H  H6  1  0.79265000  0.17023000  0.57814000  1.0
  H  H7  1  0.20735000  0.82976000  0.42187000  1.0
  H  H8  1  0.68393000  0.44271000  0.64312000  1.0
  H  H9  1  0.31608000  0.55729000  0.35688000  1.0
  H  H10  1  0.03821000  0.71912000  0.13637000  1.0
  H  H11  1  0.96179000  0.28087000  0.86363000  1.0
  H  H12  1  0.13721000  0.95970000  0.02961000  1.0
  H  H13  1  0.86279000  0.04030000  0.97039000  1.0
  H  H14  1  0.42931000  0.83069000  0.55685000  1.0
  H  H15  1  0.57069000  0.16932000  0.44315000  1.0
  H  H16  1  0.67122000  0.88159000  0.34134000  1.0
  H  H17  1  0.32878000  0.11841000  0.65866000  1.0
  H  H18  1  0.95745000  0.78624000  0.36286000  1.0
  H  H19  1  0.04255000  0.21376000  0.63715000  1.0
  H  H20  1  0.99126000  0.63959000  0.59042000  1.0
  H  H21  1  0.00874000  0.36041000  0.40959000  1.0
  C  C22  1  0.45385000  0.15675000  0.87846000  1.0
  C  C23  1  0.54615000  0.84325000  0.12154000  1.0
  C  C24  1  0.59825000  0.10292000  0.76017000  1.0
  C  C25  1  0.40175000  0.89707000  0.23984000  1.0
  C  C26  1  0.68247000  0.20690000  0.67443000  1.0
  C  C27  1  0.31753000  0.79310000  0.32558000  1.0
  C  C28  1  0.62178000  0.36003000  0.71099000  1.0
  C  C29  1  0.37822000  0.63997000  0.28902000  1.0
  C  C30  1  0.47688000  0.40664000  0.83160000  1.0
  C  C31  1  0.52313000  0.59336000  0.16840000  1.0
  C  C32  1  0.39282000  0.56563000  0.87955000  1.0
  C  C33  1  0.60718000  0.43437000  0.12045000  1.0
  C  C34  1  0.15547000  0.71694000  0.04766000  1.0
  C  C35  1  0.84453000  0.28306000  0.95234000  1.0
  C  C36  1  0.20811000  0.84649000  0.98655000  1.0
  C  C37  1  0.79189000  0.15351000  0.01345000  1.0
  C  C38  1  0.44086000  0.69996000  0.81671000  1.0
  C  C39  1  0.55914000  0.30004000  0.18329000  1.0
  C  C40  1  0.58737000  0.71174000  0.68396000  1.0
  C  C41  1  0.41262000  0.28826000  0.31604000  1.0
  C  C42  1  0.55656000  0.79101000  0.55866000  1.0
  C  C43  1  0.44344000  0.20899000  0.44135000  1.0
  C  C44  1  0.69052000  0.81827000  0.44001000  1.0
  C  C45  1  0.30948000  0.18174000  0.55999000  1.0
  C  C46  1  0.84959000  0.76435000  0.45092000  1.0
  C  C47  1  0.15040000  0.23566000  0.54909000  1.0
  C  C48  1  0.86846000  0.68401000  0.57890000  1.0
  C  C49  1  0.13153000  0.31599000  0.42110000  1.0
  C  C50  1  0.02462000  0.14061000  0.22041000  1.0
  C  C51  1  0.97539000  0.85939000  0.77957000  1.0
  C  C52  1  0.83266000  0.48200000  0.27973000  1.0
  C  C53  1  0.16734000  0.51800000  0.72027000  1.0
  N  N54  1  0.39507000  0.30384000  0.91290000  1.0
  N  N55  1  0.60493000  0.69615000  0.08710000  1.0
  N  N56  1  0.24788000  0.58005000  0.99418000  1.0
  N  N57  1  0.75211000  0.41994000  0.00582000  1.0
  N  N58  1  0.34778000  0.83784000  0.87149000  1.0
  N  N59  1  0.65221000  0.16216000  0.12850000  1.0
  N  N60  1  0.74049000  0.65795000  0.69516000  1.0
  N  N61  1  0.25951000  0.34205000  0.30484000  1.0
  N  N62  1  0.11815000  0.19625000  0.11936000  1.0
  N  N63  1  0.88186000  0.80374000  0.88062000  1.0
  N  N64  1  0.94542000  0.51455000  0.17911000  1.0
  N  N65  1  0.05459000  0.48544000  0.82089000  1.0
  O  O66  1  0.93567000  0.07580000  0.31671000  1.0
  O  O67  1  0.06434000  0.92421000  0.68328000  1.0
  O  O68  1  0.71631000  0.45484000  0.37962000  1.0
  O  O69  1  0.28368000  0.54516000  0.62037000  1.0
