# generated using pymatgen
data_CdH26C22(N3O2)2
_symmetry_space_group_name_H-M   'P 1'
_cell_length_a   6.58648000
_cell_length_b   9.66423000
_cell_length_c   18.16700000
_cell_angle_alpha   90.00000000
_cell_angle_beta   90.00000000
_cell_angle_gamma   96.91350000
_symmetry_Int_Tables_number   1
_chemical_formula_structural   CdH26C22(N3O2)2
_chemical_formula_sum   'Cd2 H52 C44 N12 O8'
_cell_volume   1147.98063756
_cell_formula_units_Z   2
loop_
 _symmetry_equiv_pos_site_id
 _symmetry_equiv_pos_as_xyz
  1  'x, y, z'
loop_
 _atom_site_type_symbol
 _atom_site_label
 _atom_site_symmetry_multiplicity
 _atom_site_fract_x
 _atom_site_fract_y
 _atom_site_fract_z
 _atom_site_occupancy
  Cd  Cd0  1  0.66224000  0.19461000  0.73965000  1.0
  Cd  Cd1  1  0.33776000  0.80539000  0.23965000  1.0
  H  H2  1  0.11805000  0.87554000  0.78705000  1.0
  H  H3  1  0.88196000  0.12446000  0.28705000  1.0
  H  H4  1  0.03931000  0.59108000  0.63358000  1.0
  H  H5  1  0.96068000  0.40891000  0.13358000  1.0
  H  H6  1  0.26904000  0.60657000  0.68331000  1.0
  H  H7  1  0.73095000  0.39342000  0.18332000  1.0
  H  H8  1  0.05592000  0.83280000  0.62307000  1.0
  H  H9  1  0.94408000  0.16719000  0.12307000  1.0
  H  H10  1  0.28902000  0.85438000  0.67165000  1.0
  H  H11  1  0.71099000  0.14562000  0.17165000  1.0
  H  H12  1  0.06784000  0.56870000  0.86919000  1.0
  H  H13  1  0.93217000  0.43129000  0.36919000  1.0
  H  H14  1  0.24001000  0.69925000  0.82531000  1.0
  H  H15  1  0.76000000  0.30075000  0.32531000  1.0
  H  H16  1  0.25330000  0.52170000  0.80550000  1.0
  H  H17  1  0.74671000  0.47829000  0.30550000  1.0
  H  H18  1  0.58005000  0.61151000  0.71686000  1.0
  H  H19  1  0.41996000  0.38848000  0.21686000  1.0
  H  H20  1  0.73936000  0.69811000  0.64782000  1.0
  H  H21  1  0.26065000  0.30189000  0.14782000  1.0
  H  H22  1  0.59507000  0.79572000  0.70590000  1.0
  H  H23  1  0.40494000  0.20427000  0.20590000  1.0
  H  H24  1  0.67635000  0.82663000  0.83888000  1.0
  H  H25  1  0.32364000  0.17337000  0.33889000  1.0
  H  H26  1  0.88680000  0.75664000  0.87914000  1.0
  H  H27  1  0.11320000  0.24336000  0.37914000  1.0
  H  H28  1  0.66760000  0.64196000  0.85150000  1.0
  H  H29  1  0.33241000  0.35804000  0.35150000  1.0
  H  H30  1  0.33413000  0.10415000  0.47099000  1.0
  H  H31  1  0.66588000  0.89586000  0.97099000  1.0
  H  H32  1  0.19046000  0.28631000  0.67328000  1.0
  H  H33  1  0.80955000  0.71369000  0.17328000  1.0
  H  H34  1  0.97272000  0.17651000  0.48417000  1.0
  H  H35  1  0.02728000  0.82349000  0.98417000  1.0
  H  H36  1  0.88564000  0.20312000  0.57436000  1.0
  H  H37  1  0.11436000  0.79688000  0.07435000  1.0
  H  H38  1  0.32479000  0.42334000  0.48219000  1.0
  H  H39  1  0.67520000  0.57666000  0.98219000  1.0
  H  H40  1  0.31660000  0.66862000  0.44534000  1.0
  H  H41  1  0.68339000  0.33139000  0.94534000  1.0
  H  H42  1  0.68520000  0.64204000  0.51166000  1.0
  H  H43  1  0.31479000  0.35795000  0.01166000  1.0
  H  H44  1  0.69299000  0.39577000  0.54753000  1.0
  H  H45  1  0.30700000  0.60422000  0.04753000  1.0
  H  H46  1  0.01696000  0.88968000  0.50629000  1.0
  H  H47  1  0.98303000  0.11032000  0.00628000  1.0
  H  H48  1  0.13207000  0.86060000  0.42015000  1.0
  H  H49  1  0.86792000  0.13940000  0.92014000  1.0
  H  H50  1  0.66133000  0.96069000  0.50484000  1.0
  H  H51  1  0.33866000  0.03931000  0.00484000  1.0
  H  H52  1  0.84269000  0.76232000  0.31188000  1.0
  H  H53  1  0.15733000  0.23769000  0.81188000  1.0
  C  C54  1  0.90801000  0.98160000  0.72828000  1.0
  C  C55  1  0.09199000  0.01840000  0.22828000  1.0
  C  C56  1  0.01469000  0.85294000  0.73986000  1.0
  C  C57  1  0.98532000  0.14706000  0.23987000  1.0
  C  C58  1  0.85763000  0.72429000  0.76094000  1.0
  C  C59  1  0.14237000  0.27570000  0.26094000  1.0
  C  C60  1  0.99599000  0.60372000  0.75272000  1.0
  C  C61  1  0.00401000  0.39628000  0.25272000  1.0
  C  C62  1  0.11797000  0.64302000  0.68093000  1.0
  C  C63  1  0.88203000  0.35697000  0.18093000  1.0
  C  C64  1  0.13095000  0.80320000  0.67366000  1.0
  C  C65  1  0.86906000  0.19679000  0.17366000  1.0
  C  C66  1  0.87738000  0.45758000  0.74835000  1.0
  C  C67  1  0.12263000  0.54242000  0.24835000  1.0
  C  C68  1  0.14704000  0.59815000  0.81745000  1.0
  C  C69  1  0.85297000  0.40185000  0.31745000  1.0
  C  C70  1  0.68299000  0.70621000  0.70432000  1.0
  C  C71  1  0.31702000  0.29379000  0.20433000  1.0
  C  C72  1  0.76612000  0.73796000  0.83740000  1.0
  C  C73  1  0.23387000  0.26204000  0.33740000  1.0
  C  C74  1  0.34526000  0.13955000  0.52787000  1.0
  C  C75  1  0.65475000  0.86047000  0.02786000  1.0
  C  C76  1  0.27293000  0.23233000  0.63219000  1.0
  C  C77  1  0.72708000  0.76767000  0.13219000  1.0
  C  C78  1  0.00491000  0.23923000  0.53435000  1.0
  C  C79  1  0.99510000  0.76077000  0.03435000  1.0
  C  C80  1  0.00855000  0.39222000  0.51694000  1.0
  C  C81  1  0.99144000  0.60779000  0.01694000  1.0
  C  C82  1  0.18431000  0.47099000  0.48949000  1.0
  C  C83  1  0.81568000  0.52902000  0.98949000  1.0
  C  C84  1  0.18057000  0.60958000  0.46892000  1.0
  C  C85  1  0.81941000  0.39042000  0.96891000  1.0
  C  C86  1  0.00148000  0.67270000  0.47636000  1.0
  C  C87  1  0.99851000  0.32729000  0.97635000  1.0
  C  C88  1  0.82593000  0.59433000  0.50460000  1.0
  C  C89  1  0.17406000  0.40567000  0.00461000  1.0
  C  C90  1  0.82949000  0.45551000  0.52474000  1.0
  C  C91  1  0.17050000  0.54448000  0.02474000  1.0
  C  C92  1  0.00281000  0.82461000  0.45634000  1.0
  C  C93  1  0.99719000  0.17539000  0.95634000  1.0
  C  C94  1  0.66019000  0.91874000  0.44908000  1.0
  C  C95  1  0.33980000  0.08127000  0.94908000  1.0
  C  C96  1  0.75287000  0.81583000  0.35032000  1.0
  C  C97  1  0.24713000  0.18417000  0.85032000  1.0
  N  N98  1  0.45301000  0.18543000  0.63851000  1.0
  N  N99  1  0.54699000  0.81457000  0.13851000  1.0
  N  N100  1  0.19980000  0.20473000  0.56315000  1.0
  N  N101  1  0.80021000  0.79528000  0.06315000  1.0
  N  N102  1  0.50000000  0.12605000  0.57236000  1.0
  N  N103  1  0.50001000  0.87396000  0.07235000  1.0
  N  N104  1  0.81398000  0.85257000  0.41994000  1.0
  N  N105  1  0.18600000  0.14744000  0.91994000  1.0
  N  N106  1  0.57248000  0.85832000  0.33764000  1.0
  N  N107  1  0.42752000  0.14168000  0.83764000  1.0
  N  N108  1  0.51259000  0.92415000  0.40032000  1.0
  N  N109  1  0.48740000  0.07586000  0.90033000  1.0
  O  O110  1  0.86083000  0.04409000  0.78784000  1.0
  O  O111  1  0.13918000  0.95592000  0.28784000  1.0
  O  O112  1  0.85899000  0.02016000  0.66496000  1.0
  O  O113  1  0.14100000  0.97984000  0.16496000  1.0
  O  O114  1  0.70380000  0.42910000  0.77967000  1.0
  O  O115  1  0.29620000  0.57091000  0.27967000  1.0
  O  O116  1  0.96102000  0.36320000  0.71430000  1.0
  O  O117  1  0.03896000  0.63679000  0.21430000  1.0
