# generated using pymatgen
data_Tb2Zn3H36(C2O3)12
_symmetry_space_group_name_H-M   'P 1'
_cell_length_a   14.70945000
_cell_length_b   14.70940000
_cell_length_c   15.91570000
_cell_angle_alpha   90.00000000
_cell_angle_beta   90.00000000
_cell_angle_gamma   119.99966267
_symmetry_Int_Tables_number   1
_chemical_formula_structural   Tb2Zn3H36(C2O3)12
_chemical_formula_sum   'Tb4 Zn6 H72 C48 O72'
_cell_volume   2982.28569118
_cell_formula_units_Z   2
loop_
 _symmetry_equiv_pos_site_id
 _symmetry_equiv_pos_as_xyz
  1  'x, y, z'
loop_
 _atom_site_type_symbol
 _atom_site_label
 _atom_site_symmetry_multiplicity
 _atom_site_fract_x
 _atom_site_fract_y
 _atom_site_fract_z
 _atom_site_occupancy
  Tb  Tb0  1  0.66666667  0.33333333  0.25000000  1.0
  Tb  Tb1  1  0.33333333  0.66666667  0.25000000  1.0
  Tb  Tb2  1  0.33333333  0.66666667  0.75000000  1.0
  Tb  Tb3  1  0.66666667  0.33333333  0.75000000  1.0
  Zn  Zn4  1  0.50000000  0.00000000  0.50000000  1.0
  Zn  Zn5  1  0.50000000  0.50000000  0.50000000  1.0
  Zn  Zn6  1  1.00000000  0.50000000  0.50000000  1.0
  Zn  Zn7  1  0.50000000  0.00000000  0.00000000  1.0
  Zn  Zn8  1  1.00000000  0.50000000  1.00000000  1.0
  Zn  Zn9  1  0.50000000  0.50000000  0.00000000  1.0
  H  H10  1  0.35997000  0.07947000  0.26787000  1.0
  H  H11  1  0.71950000  0.64002000  0.26787000  1.0
  H  H12  1  0.92052000  0.28050000  0.26787000  1.0
  H  H13  1  0.64003000  0.92053000  0.26787000  1.0
  H  H14  1  0.28050000  0.35998000  0.26787000  1.0
  H  H15  1  0.07948000  0.71951000  0.26787000  1.0
  H  H16  1  0.28050000  0.92053000  0.23213000  1.0
  H  H17  1  0.07947000  0.35997000  0.23213000  1.0
  H  H18  1  0.64003000  0.71950000  0.23213000  1.0
  H  H19  1  0.71950000  0.07947000  0.23213000  1.0
  H  H20  1  0.92053000  0.64003000  0.23213000  1.0
  H  H21  1  0.35997000  0.28050000  0.23213000  1.0
  H  H22  1  0.64003000  0.92053000  0.73213000  1.0
  H  H23  1  0.28050000  0.35998000  0.73213000  1.0
  H  H24  1  0.07947000  0.71950000  0.73213000  1.0
  H  H25  1  0.35997000  0.07947000  0.73213000  1.0
  H  H26  1  0.71950000  0.64002000  0.73213000  1.0
  H  H27  1  0.92052000  0.28050000  0.73213000  1.0
  H  H28  1  0.71950000  0.07947000  0.76787000  1.0
  H  H29  1  0.92053000  0.64003000  0.76787000  1.0
  H  H30  1  0.35997000  0.28050000  0.76787000  1.0
  H  H31  1  0.28050000  0.92053000  0.76787000  1.0
  H  H32  1  0.07947000  0.35997000  0.76787000  1.0
  H  H33  1  0.64003000  0.71950000  0.76787000  1.0
  H  H34  1  0.36081000  0.16869000  0.34517000  1.0
  H  H35  1  0.80788000  0.63918000  0.34517000  1.0
  H  H36  1  0.83130000  0.19211000  0.34517000  1.0
  H  H37  1  0.63919000  0.83131000  0.34517000  1.0
  H  H38  1  0.19212000  0.36082000  0.34517000  1.0
  H  H39  1  0.16870000  0.80789000  0.34517000  1.0
  H  H40  1  0.19212000  0.83130000  0.15483000  1.0
  H  H41  1  0.16870000  0.36082000  0.15483000  1.0
  H  H42  1  0.63918000  0.80788000  0.15483000  1.0
  H  H43  1  0.80788000  0.16870000  0.15483000  1.0
  H  H44  1  0.83130000  0.63918000  0.15483000  1.0
  H  H45  1  0.36082000  0.19212000  0.15483000  1.0
  H  H46  1  0.63919000  0.83131000  0.65483000  1.0
  H  H47  1  0.19212000  0.36082000  0.65483000  1.0
  H  H48  1  0.16870000  0.80789000  0.65483000  1.0
  H  H49  1  0.36081000  0.16869000  0.65483000  1.0
  H  H50  1  0.80788000  0.63918000  0.65483000  1.0
  H  H51  1  0.83130000  0.19211000  0.65483000  1.0
  H  H52  1  0.80788000  0.16870000  0.84517000  1.0
  H  H53  1  0.83130000  0.63918000  0.84517000  1.0
  H  H54  1  0.36082000  0.19212000  0.84517000  1.0
  H  H55  1  0.19212000  0.83130000  0.84517000  1.0
  H  H56  1  0.16870000  0.36082000  0.84517000  1.0
  H  H57  1  0.63918000  0.80788000  0.84517000  1.0
  H  H58  1  0.64208000  0.18123000  0.44972000  1.0
  H  H59  1  0.53914000  0.35791000  0.44972000  1.0
  H  H60  1  0.81877000  0.46085000  0.44972000  1.0
  H  H61  1  0.35792000  0.81878000  0.44972000  1.0
  H  H62  1  0.46086000  0.64209000  0.44972000  1.0
  H  H63  1  0.18123000  0.53915000  0.44972000  1.0
  H  H64  1  0.46086000  0.81877000  0.05028000  1.0
  H  H65  1  0.18123000  0.64209000  0.05028000  1.0
  H  H66  1  0.35791000  0.53914000  0.05028000  1.0
  H  H67  1  0.53914000  0.18123000  0.05028000  1.0
  H  H68  1  0.81877000  0.35791000  0.05028000  1.0
  H  H69  1  0.64209000  0.46086000  0.05028000  1.0
  H  H70  1  0.35792000  0.81878000  0.55028000  1.0
  H  H71  1  0.46086000  0.64209000  0.55028000  1.0
  H  H72  1  0.18123000  0.53915000  0.55029000  1.0
  H  H73  1  0.64208000  0.18122000  0.55028000  1.0
  H  H74  1  0.53914000  0.35791000  0.55028000  1.0
  H  H75  1  0.81877000  0.46085000  0.55028000  1.0
  H  H76  1  0.53914000  0.18123000  0.94971000  1.0
  H  H77  1  0.81877000  0.35791000  0.94971000  1.0
  H  H78  1  0.64209000  0.46086000  0.94972000  1.0
  H  H79  1  0.46086000  0.81877000  0.94971000  1.0
  H  H80  1  0.18123000  0.64209000  0.94971000  1.0
  H  H81  1  0.35791000  0.53914000  0.94972000  1.0
  C  C82  1  0.41077000  0.15087000  0.30457000  1.0
  C  C83  1  0.74010000  0.58923000  0.30458000  1.0
  C  C84  1  0.84913000  0.25990000  0.30457000  1.0
  C  C85  1  0.58923000  0.84913000  0.30457000  1.0
  C  C86  1  0.25990000  0.41077000  0.30458000  1.0
  C  C87  1  0.15087000  0.74010000  0.30457000  1.0
  C  C88  1  0.25990000  0.84913000  0.19543000  1.0
  C  C89  1  0.15087000  0.41077000  0.19543000  1.0
  C  C90  1  0.58923000  0.74010000  0.19543000  1.0
  C  C91  1  0.74010000  0.15087000  0.19543000  1.0
  C  C92  1  0.84913000  0.58923000  0.19543000  1.0
  C  C93  1  0.41077000  0.25990000  0.19543000  1.0
  C  C94  1  0.58923000  0.84913000  0.69543000  1.0
  C  C95  1  0.25990000  0.41077000  0.69543000  1.0
  C  C96  1  0.15087000  0.74010000  0.69543000  1.0
  C  C97  1  0.41077000  0.15087000  0.69543000  1.0
  C  C98  1  0.74010000  0.58923000  0.69542000  1.0
  C  C99  1  0.84913000  0.25990000  0.69543000  1.0
  C  C100  1  0.74010000  0.15087000  0.80457000  1.0
  C  C101  1  0.84913000  0.58923000  0.80457000  1.0
  C  C102  1  0.41077000  0.25990000  0.80457000  1.0
  C  C103  1  0.25990000  0.84913000  0.80457000  1.0
  C  C104  1  0.15087000  0.41077000  0.80457000  1.0
  C  C105  1  0.58923000  0.74010000  0.80457000  1.0
  C  C106  1  0.48361000  0.13224000  0.35987000  1.0
  C  C107  1  0.64863000  0.51639000  0.35987000  1.0
  C  C108  1  0.86776000  0.35137000  0.35987000  1.0
  C  C109  1  0.51639000  0.86776000  0.35987000  1.0
  C  C110  1  0.35137000  0.48361000  0.35987000  1.0
  C  C111  1  0.13224000  0.64863000  0.35987000  1.0
  C  C112  1  0.35137000  0.86776000  0.14014000  1.0
  C  C113  1  0.13224000  0.48361000  0.14014000  1.0
  C  C114  1  0.51639000  0.64863000  0.14014000  1.0
  C  C115  1  0.64863000  0.13224000  0.14014000  1.0
  C  C116  1  0.86776000  0.51639000  0.14014000  1.0
  C  C117  1  0.48361000  0.35137000  0.14014000  1.0
  C  C118  1  0.51639000  0.86776000  0.64013000  1.0
  C  C119  1  0.35137000  0.48361000  0.64013000  1.0
  C  C120  1  0.13224000  0.64863000  0.64013000  1.0
  C  C121  1  0.48361000  0.13224000  0.64013000  1.0
  C  C122  1  0.64863000  0.51639000  0.64013000  1.0
  C  C123  1  0.86776000  0.35137000  0.64013000  1.0
  C  C124  1  0.64863000  0.13224000  0.85986000  1.0
  C  C125  1  0.86776000  0.51639000  0.85986000  1.0
  C  C126  1  0.48361000  0.35137000  0.85986000  1.0
  C  C127  1  0.35137000  0.86776000  0.85986000  1.0
  C  C128  1  0.13224000  0.48361000  0.85986000  1.0
  C  C129  1  0.51639000  0.64863000  0.85986000  1.0
  O  O130  1  0.47227000  0.23614000  0.25000000  1.0
  O  O131  1  0.76387000  0.52773000  0.25000000  1.0
  O  O132  1  0.76386000  0.23613000  0.25000000  1.0
  O  O133  1  0.52773000  0.76386000  0.25000000  1.0
  O  O134  1  0.23613000  0.47227000  0.25000000  1.0
  O  O135  1  0.23614000  0.76387000  0.25000000  1.0
  O  O136  1  0.52773000  0.76386000  0.75000000  1.0
  O  O137  1  0.23613000  0.47227000  0.75000000  1.0
  O  O138  1  0.23614000  0.76387000  0.75000000  1.0
  O  O139  1  0.47227000  0.23614000  0.75000000  1.0
  O  O140  1  0.76387000  0.52773000  0.75000000  1.0
  O  O141  1  0.76386000  0.23613000  0.75000000  1.0
  O  O142  1  0.58244000  0.19700000  0.35390000  1.0
  O  O143  1  0.61456000  0.41756000  0.35391000  1.0
  O  O144  1  0.80300000  0.38545000  0.35390000  1.0
  O  O145  1  0.41756000  0.80300000  0.35390000  1.0
  O  O146  1  0.38544000  0.58244000  0.35391000  1.0
  O  O147  1  0.19700000  0.61456000  0.35390000  1.0
  O  O148  1  0.38544000  0.80300000  0.14610000  1.0
  O  O149  1  0.19699000  0.58243000  0.14610000  1.0
  O  O150  1  0.41756000  0.61455000  0.14610000  1.0
  O  O151  1  0.61456000  0.19700000  0.14610000  1.0
  O  O152  1  0.80301000  0.41757000  0.14610000  1.0
  O  O153  1  0.58244000  0.38545000  0.14610000  1.0
  O  O154  1  0.41756000  0.80300000  0.64610000  1.0
  O  O155  1  0.38544000  0.58244000  0.64610000  1.0
  O  O156  1  0.19700000  0.61455000  0.64609000  1.0
  O  O157  1  0.58244000  0.19700000  0.64610000  1.0
  O  O158  1  0.61456000  0.41756000  0.64609000  1.0
  O  O159  1  0.80300000  0.38545000  0.64609000  1.0
  O  O160  1  0.61456000  0.19700000  0.85390000  1.0
  O  O161  1  0.80301000  0.41757000  0.85390000  1.0
  O  O162  1  0.58244000  0.38545000  0.85390000  1.0
  O  O163  1  0.38544000  0.80300000  0.85390000  1.0
  O  O164  1  0.19699000  0.58243000  0.85390000  1.0
  O  O165  1  0.41756000  0.61455000  0.85390000  1.0
  O  O166  1  0.43836000  0.05427000  0.40766000  1.0
  O  O167  1  0.61591000  0.56163000  0.40766000  1.0
  O  O168  1  0.94573000  0.38410000  0.40766000  1.0
  O  O169  1  0.56164000  0.94573000  0.40766000  1.0
  O  O170  1  0.38409000  0.43837000  0.40766000  1.0
  O  O171  1  0.05427000  0.61591000  0.40766000  1.0
  O  O172  1  0.38409000  0.94573000  0.09234000  1.0
  O  O173  1  0.05427000  0.43836000  0.09234000  1.0
  O  O174  1  0.56164000  0.61591000  0.09234000  1.0
  O  O175  1  0.61591000  0.05427000  0.09234000  1.0
  O  O176  1  0.94573000  0.56163000  0.09234000  1.0
  O  O177  1  0.43836000  0.38409000  0.09234000  1.0
  O  O178  1  0.56164000  0.94573000  0.59234000  1.0
  O  O179  1  0.38409000  0.43837000  0.59234000  1.0
  O  O180  1  0.05427000  0.61590000  0.59234000  1.0
  O  O181  1  0.43836000  0.05427000  0.59234000  1.0
  O  O182  1  0.61591000  0.56163000  0.59234000  1.0
  O  O183  1  0.94573000  0.38410000  0.59234000  1.0
  O  O184  1  0.61591000  0.05427000  0.90766000  1.0
  O  O185  1  0.94573000  0.56164000  0.90766000  1.0
  O  O186  1  0.43837000  0.38410000  0.90766000  1.0
  O  O187  1  0.38409000  0.94573000  0.90766000  1.0
  O  O188  1  0.05427000  0.43836000  0.90766000  1.0
  O  O189  1  0.56164000  0.61591000  0.90766000  1.0
  O  O190  1  0.65067000  0.14656000  0.50000000  1.0
  O  O191  1  0.49589000  0.34933000  0.50000000  1.0
  O  O192  1  0.85344000  0.50411000  0.50000000  1.0
  O  O193  1  0.34933000  0.85344000  0.50000000  1.0
  O  O194  1  0.50411000  0.65067000  0.50000000  1.0
  O  O195  1  0.14656000  0.49589000  0.50000000  1.0
  O  O196  1  0.50411000  0.85344000  0.00000000  1.0
  O  O197  1  0.14656000  0.65067000  1.00000000  1.0
  O  O198  1  0.34933000  0.49589000  0.00000000  1.0
  O  O199  1  0.49589000  0.14656000  0.00000000  1.0
  O  O200  1  0.85344000  0.34933000  1.00000000  1.0
  O  O201  1  0.65067000  0.50411000  0.00000000  1.0
