# generated using pymatgen
data_Zr3H26(C21O8)2
_symmetry_space_group_name_H-M   'P 1'
_cell_length_a   19.13000000
_cell_length_b   19.13000783
_cell_length_c   19.12995000
_cell_angle_alpha   120.00002708
_cell_angle_beta   89.99959044
_cell_angle_gamma   120.00035938
_symmetry_Int_Tables_number   1
_chemical_formula_structural   Zr3H26(C21O8)2
_chemical_formula_sum   'Zr6 H52 C84 O32'
_cell_volume   4950.25954938
_cell_formula_units_Z   2
loop_
 _symmetry_equiv_pos_site_id
 _symmetry_equiv_pos_as_xyz
  1  'x, y, z'
loop_
 _atom_site_type_symbol
 _atom_site_label
 _atom_site_symmetry_multiplicity
 _atom_site_fract_x
 _atom_site_fract_y
 _atom_site_fract_z
 _atom_site_occupancy
  Zr  Zr0  1  0.09246000  0.50000000  0.40754000  1.0
  Zr  Zr1  1  0.90756000  0.50001000  0.59246000  1.0
  Zr  Zr2  1  0.90754000  0.31508000  0.40754000  1.0
  Zr  Zr3  1  0.09246000  0.68492000  0.59246000  1.0
  Zr  Zr4  1  0.90754000  0.50000000  0.40754000  1.0
  Zr  Zr5  1  0.09246000  0.50000000  0.59246000  1.0
  H  H6  1  0.92720000  0.35440000  0.28160000  1.0
  H  H7  1  0.92721000  0.64560000  0.57280000  1.0
  H  H8  1  0.92720000  0.35440000  0.57280000  1.0
  H  H9  1  0.21840000  0.64560000  0.57280000  1.0
  H  H10  1  0.88855000  0.50111000  0.82164000  1.0
  H  H11  1  0.88678000  0.49956000  0.94957000  1.0
  H  H12  1  0.11256000  0.50111000  0.17947000  1.0
  H  H13  1  0.11279000  0.49955000  0.04998000  1.0
  H  H14  1  0.88855000  0.50111000  0.17947000  1.0
  H  H15  1  0.88677000  0.49955000  0.04998000  1.0
  H  H16  1  0.11257000  0.50112000  0.82164000  1.0
  H  H17  1  0.11279000  0.49955000  0.94956000  1.0
  H  H18  1  0.67836000  0.49889000  0.61145000  1.0
  H  H19  1  0.55043000  0.50045000  0.61323000  1.0
  H  H20  1  0.32053000  0.49889000  0.38743000  1.0
  H  H21  1  0.45003000  0.50046000  0.38722000  1.0
  H  H22  1  0.32053000  0.49889000  0.61145000  1.0
  H  H23  1  0.45002000  0.50045000  0.61323000  1.0
  H  H24  1  0.67836000  0.49889000  0.38744000  1.0
  H  H25  1  0.55043000  0.50045000  0.38721000  1.0
  H  H26  1  0.11257000  0.29093000  0.61145000  1.0
  H  H27  1  0.11279000  0.16322000  0.61323000  1.0
  H  H28  1  0.88855000  0.70908000  0.38744000  1.0
  H  H29  1  0.88676000  0.83678000  0.38721000  1.0
  H  H30  1  0.11256000  0.93309000  0.61145000  1.0
  H  H31  1  0.11278000  0.06280000  0.61323000  1.0
  H  H32  1  0.88855000  0.06691000  0.38744000  1.0
  H  H33  1  0.88677000  0.93720000  0.38722000  1.0
  H  H34  1  0.67836000  0.29092000  0.17947000  1.0
  H  H35  1  0.55043000  0.16321000  0.04998000  1.0
  H  H36  1  0.32053000  0.70908000  0.82164000  1.0
  H  H37  1  0.45001000  0.83678000  0.94956000  1.0
  H  H38  1  0.32053000  0.93309000  0.82164000  1.0
  H  H39  1  0.45002000  0.06280000  0.94957000  1.0
  H  H40  1  0.67836000  0.06691000  0.17947000  1.0
  H  H41  1  0.55044000  0.93720000  0.04998000  1.0
  H  H42  1  0.11256000  0.93309000  0.82164000  1.0
  H  H43  1  0.11279000  0.06281000  0.94957000  1.0
  H  H44  1  0.88855000  0.06691000  0.17947000  1.0
  H  H45  1  0.88677000  0.93720000  0.04998000  1.0
  H  H46  1  0.11256000  0.29092000  0.17947000  1.0
  H  H47  1  0.11279000  0.16322000  0.04998000  1.0
  H  H48  1  0.88855000  0.70908000  0.82164000  1.0
  H  H49  1  0.88677000  0.83679000  0.94957000  1.0
  H  H50  1  0.67836000  0.06691000  0.38744000  1.0
  H  H51  1  0.55045000  0.93721000  0.38722000  1.0
  H  H52  1  0.32053000  0.93309000  0.61145000  1.0
  H  H53  1  0.45002000  0.06280000  0.61323000  1.0
  H  H54  1  0.32053000  0.70908000  0.38744000  1.0
  H  H55  1  0.45002000  0.83679000  0.38722000  1.0
  H  H56  1  0.67836000  0.29092000  0.61145000  1.0
  H  H57  1  0.55044000  0.16322000  0.61323000  1.0
  C  C58  1  0.00190000  0.50381000  0.26682000  1.0
  C  C59  1  0.76301000  0.49619000  0.49809000  1.0
  C  C60  1  0.00190000  0.50380000  0.73698000  1.0
  C  C61  1  0.23318000  0.49619000  0.49810000  1.0
  C  C62  1  0.00191000  0.26492000  0.26682000  1.0
  C  C63  1  0.23318000  0.73508000  0.49809000  1.0
  C  C64  1  0.00191000  0.73508000  0.73698000  1.0
  C  C65  1  0.76301000  0.26491000  0.49809000  1.0
  C  C66  1  0.76302000  0.26492000  0.26682000  1.0
  C  C67  1  0.00191000  0.26492000  0.49810000  1.0
  C  C68  1  0.23318000  0.73508000  0.73699000  1.0
  C  C69  1  0.00190000  0.73508000  0.49809000  1.0
  C  C70  1  0.00097000  0.50195000  0.81391000  1.0
  C  C71  1  0.00099000  0.50196000  0.18804000  1.0
  C  C72  1  0.93740000  0.50092000  0.85061000  1.0
  C  C73  1  0.93703000  0.49990000  0.92271000  1.0
  C  C74  1  0.06352000  0.50092000  0.15031000  1.0
  C  C75  1  0.06287000  0.49990000  0.07719000  1.0
  C  C76  1  0.93740000  0.50092000  0.15031000  1.0
  C  C77  1  0.93703000  0.49990000  0.07719000  1.0
  C  C78  1  0.06352000  0.50092000  0.85061000  1.0
  C  C79  1  0.06287000  0.49990000  0.92271000  1.0
  C  C80  1  0.99986000  0.49972000  0.96107000  1.0
  C  C81  1  0.99986000  0.49972000  0.03864000  1.0
  C  C82  1  0.68608000  0.49804000  0.49902000  1.0
  C  C83  1  0.31197000  0.49805000  0.49902000  1.0
  C  C84  1  0.64939000  0.49908000  0.56260000  1.0
  C  C85  1  0.57729000  0.50010000  0.56297000  1.0
  C  C86  1  0.34969000  0.49908000  0.43648000  1.0
  C  C87  1  0.42282000  0.50011000  0.43713000  1.0
  C  C88  1  0.34969000  0.49908000  0.56260000  1.0
  C  C89  1  0.42281000  0.50010000  0.56297000  1.0
  C  C90  1  0.64939000  0.49908000  0.43648000  1.0
  C  C91  1  0.57729000  0.50010000  0.43713000  1.0
  C  C92  1  0.53893000  0.50029000  0.50014000  1.0
  C  C93  1  0.46135000  0.50028000  0.50014000  1.0
  C  C94  1  0.00098000  0.18706000  0.49902000  1.0
  C  C95  1  0.00098000  0.81294000  0.49902000  1.0
  C  C96  1  0.06352000  0.21291000  0.56260000  1.0
  C  C97  1  0.06287000  0.14016000  0.56297000  1.0
  C  C98  1  0.93740000  0.78709000  0.43648000  1.0
  C  C99  1  0.93703000  0.85984000  0.43713000  1.0
  C  C100  1  0.06352000  0.91321000  0.56260000  1.0
  C  C101  1  0.06287000  0.98568000  0.56297000  1.0
  C  C102  1  0.93740000  0.08679000  0.43648000  1.0
  C  C103  1  0.93703000  0.01432000  0.43713000  1.0
  C  C104  1  0.99986000  0.03879000  0.50014000  1.0
  C  C105  1  0.99986000  0.96122000  0.50014000  1.0
  C  C106  1  0.68608000  0.18706000  0.18804000  1.0
  C  C107  1  0.31197000  0.81295000  0.81392000  1.0
  C  C108  1  0.64939000  0.21291000  0.15031000  1.0
  C  C109  1  0.57729000  0.14016000  0.07719000  1.0
  C  C110  1  0.34969000  0.78709000  0.85061000  1.0
  C  C111  1  0.42281000  0.85984000  0.92271000  1.0
  C  C112  1  0.34969000  0.91321000  0.85061000  1.0
  C  C113  1  0.42282000  0.98569000  0.92271000  1.0
  C  C114  1  0.64939000  0.08679000  0.15031000  1.0
  C  C115  1  0.57729000  0.01432000  0.07719000  1.0
  C  C116  1  0.53892000  0.03878000  0.03864000  1.0
  C  C117  1  0.46135000  0.96121000  0.96107000  1.0
  C  C118  1  0.00098000  0.81294000  0.81392000  1.0
  C  C119  1  0.00099000  0.18707000  0.18804000  1.0
  C  C120  1  0.06352000  0.91321000  0.85061000  1.0
  C  C121  1  0.06287000  0.98568000  0.92271000  1.0
  C  C122  1  0.93740000  0.08679000  0.15031000  1.0
  C  C123  1  0.93703000  0.01432000  0.07719000  1.0
  C  C124  1  0.06352000  0.21291000  0.15031000  1.0
  C  C125  1  0.06288000  0.14017000  0.07719000  1.0
  C  C126  1  0.93740000  0.78709000  0.85061000  1.0
  C  C127  1  0.93703000  0.85984000  0.92271000  1.0
  C  C128  1  0.99985000  0.96121000  0.96107000  1.0
  C  C129  1  0.99985000  0.03878000  0.03864000  1.0
  C  C130  1  0.68609000  0.18707000  0.49903000  1.0
  C  C131  1  0.31197000  0.81294000  0.49902000  1.0
  C  C132  1  0.64939000  0.08679000  0.43648000  1.0
  C  C133  1  0.57729000  0.01432000  0.43713000  1.0
  C  C134  1  0.34969000  0.91321000  0.56260000  1.0
  C  C135  1  0.42281000  0.98568000  0.56297000  1.0
  C  C136  1  0.34969000  0.78709000  0.43648000  1.0
  C  C137  1  0.42281000  0.85984000  0.43713000  1.0
  C  C138  1  0.64939000  0.21291000  0.56260000  1.0
  C  C139  1  0.57729000  0.14016000  0.56297000  1.0
  C  C140  1  0.53893000  0.03879000  0.50014000  1.0
  C  C141  1  0.46135000  0.96121000  0.50014000  1.0
  O  O142  1  0.06141000  0.50390000  0.29748000  1.0
  O  O143  1  0.79359000  0.49611000  0.55751000  1.0
  O  O144  1  0.94250000  0.50390000  0.70642000  1.0
  O  O145  1  0.20253000  0.49611000  0.43860000  1.0
  O  O146  1  0.94250000  0.23608000  0.29748000  1.0
  O  O147  1  0.20252000  0.76392000  0.55750000  1.0
  O  O148  1  0.06141000  0.76393000  0.70642000  1.0
  O  O149  1  0.79359000  0.23608000  0.43860000  1.0
  O  O150  1  0.79359000  0.35499000  0.29748000  1.0
  O  O151  1  0.06141000  0.35499000  0.55751000  1.0
  O  O152  1  0.20252000  0.64501000  0.70641000  1.0
  O  O153  1  0.94250000  0.64502000  0.43860000  1.0
  O  O154  1  0.94250000  0.23608000  0.43860000  1.0
  O  O155  1  0.20253000  0.76393000  0.70642000  1.0
  O  O156  1  0.06141000  0.76393000  0.55751000  1.0
  O  O157  1  0.79359000  0.23608000  0.29748000  1.0
  O  O158  1  0.06141000  0.35499000  0.29748000  1.0
  O  O159  1  0.79358000  0.35498000  0.55750000  1.0
  O  O160  1  0.94250000  0.64502000  0.70642000  1.0
  O  O161  1  0.20252000  0.64501000  0.43859000  1.0
  O  O162  1  0.20253000  0.49611000  0.55751000  1.0
  O  O163  1  0.94250000  0.50390000  0.29748000  1.0
  O  O164  1  0.79359000  0.49611000  0.43860000  1.0
  O  O165  1  0.06140000  0.50389000  0.70641000  1.0
  O  O166  1  0.15632000  0.60421000  0.55210000  1.0
  O  O167  1  0.94790000  0.39579000  0.55211000  1.0
  O  O168  1  0.94790000  0.60422000  0.55211000  1.0
  O  O169  1  0.94790000  0.39579000  0.34368000  1.0
  O  O170  1  0.88516000  0.42344000  0.46172000  1.0
  O  O171  1  0.03828000  0.57656000  0.46172000  1.0
  O  O172  1  0.03828000  0.57656000  0.61484000  1.0
  O  O173  1  0.03828000  0.42344000  0.46172000  1.0
