# generated using pymatgen
data_Cd3H30(C21O8)2
_symmetry_space_group_name_H-M   'P 1'
_cell_length_a   7.12419000
_cell_length_b   21.36210000
_cell_length_c   21.41180000
_cell_angle_alpha   119.90680000
_cell_angle_beta   95.80590000
_cell_angle_gamma   90.09940000
_symmetry_Int_Tables_number   1
_chemical_formula_structural   Cd3H30(C21O8)2
_chemical_formula_sum   'Cd6 H60 C84 O32'
_cell_volume   2805.05016182
_cell_formula_units_Z   2
loop_
 _symmetry_equiv_pos_site_id
 _symmetry_equiv_pos_as_xyz
  1  'x, y, z'
loop_
 _atom_site_type_symbol
 _atom_site_label
 _atom_site_symmetry_multiplicity
 _atom_site_fract_x
 _atom_site_fract_y
 _atom_site_fract_z
 _atom_site_occupancy
  Cd  Cd0  1  0.84434000  0.30668000  0.55129000  1.0
  Cd  Cd1  1  0.34837000  0.24901000  0.55483000  1.0
  Cd  Cd2  1  0.74286000  0.08159000  0.00161000  1.0
  Cd  Cd3  1  0.15567000  0.69332000  0.44871000  1.0
  Cd  Cd4  1  0.65164000  0.75098000  0.44515000  1.0
  Cd  Cd5  1  0.25713000  0.91841000  0.99839000  1.0
  H  H6  1  0.08464000  0.08679000  0.91772000  1.0
  H  H7  1  0.83076000  0.09405000  0.83401000  1.0
  H  H8  1  0.25236000  0.14632000  0.73303000  1.0
  H  H9  1  0.50445000  0.14032000  0.81853000  1.0
  H  H10  1  0.00758000  0.21354000  0.72592000  1.0
  H  H11  1  0.51122000  0.11608000  0.57162000  1.0
  H  H12  1  0.70502000  0.03170000  0.71108000  1.0
  H  H13  1  0.58826000  0.93227000  0.61722000  1.0
  H  H14  1  0.32139000  0.84200000  0.57348000  1.0
  H  H15  1  0.95315000  0.98851000  0.54681000  1.0
  H  H16  1  0.22041000  0.07981000  0.59038000  1.0
  H  H17  1  0.53916000  0.44192000  0.45207000  1.0
  H  H18  1  0.27049000  0.48885000  0.40819000  1.0
  H  H19  1  0.90425000  0.31465000  0.38309000  1.0
  H  H20  1  0.17302000  0.26806000  0.42587000  1.0
  H  H21  1  0.99400000  0.54332000  0.42401000  1.0
  H  H22  1  0.47726000  0.49040000  0.28052000  1.0
  H  H23  1  0.77702000  0.32148000  0.29190000  1.0
  H  H24  1  0.65180000  0.26191000  0.17240000  1.0
  H  H25  1  0.22901000  0.41576000  0.26892000  1.0
  H  H26  1  0.97856000  0.32182000  0.18709000  1.0
  H  H27  1  0.40055000  0.16945000  0.09084000  1.0
  H  H28  1  0.77356000  0.07600000  0.13502000  1.0
  H  H29  1  0.66414000  0.00040000  0.07416000  1.0
  H  H30  1  0.79745000  0.92835000  0.92971000  1.0
  H  H31  1  0.59333000  0.94361000  0.90251000  1.0
  H  H32  1  0.16448000  0.25064000  0.66327000  1.0
  H  H33  1  0.34529000  0.20562000  0.66139000  1.0
  H  H34  1  0.66625000  0.40406000  0.66510000  1.0
  H  H35  1  0.85798000  0.38792000  0.69724000  1.0
  H  H36  1  0.91534000  0.91321000  0.08228000  1.0
  H  H37  1  0.16922000  0.90596000  0.16600000  1.0
  H  H38  1  0.74765000  0.85369000  0.26698000  1.0
  H  H39  1  0.49554000  0.85969000  0.18149000  1.0
  H  H40  1  0.99240000  0.78646000  0.27408000  1.0
  H  H41  1  0.48879000  0.88391000  0.42837000  1.0
  H  H42  1  0.29498000  0.96831000  0.28893000  1.0
  H  H43  1  0.41174000  0.06773000  0.38278000  1.0
  H  H44  1  0.67862000  0.15800000  0.42651000  1.0
  H  H45  1  0.04685000  0.01149000  0.45319000  1.0
  H  H46  1  0.77957000  0.92020000  0.40963000  1.0
  H  H47  1  0.46085000  0.55809000  0.54794000  1.0
  H  H48  1  0.72951000  0.51117000  0.59183000  1.0
  H  H49  1  0.09579000  0.68534000  0.61691000  1.0
  H  H50  1  0.82703000  0.73194000  0.57411000  1.0
  H  H51  1  0.00599000  0.45668000  0.57598000  1.0
  H  H52  1  0.52273000  0.50959000  0.71948000  1.0
  H  H53  1  0.22298000  0.67852000  0.70810000  1.0
  H  H54  1  0.34819000  0.73809000  0.82761000  1.0
  H  H55  1  0.77095000  0.58422000  0.73109000  1.0
  H  H56  1  0.02143000  0.67816000  0.81292000  1.0
  H  H57  1  0.59945000  0.83054000  0.90918000  1.0
  H  H58  1  0.22643000  0.92399000  0.86498000  1.0
  H  H59  1  0.33585000  0.99959000  0.92584000  1.0
  H  H60  1  0.20254000  0.07165000  0.07028000  1.0
  H  H61  1  0.40666000  0.05639000  0.09749000  1.0
  H  H62  1  0.83550000  0.74936000  0.33671000  1.0
  H  H63  1  0.65471000  0.79438000  0.33860000  1.0
  H  H64  1  0.33375000  0.59594000  0.33489000  1.0
  H  H65  1  0.14202000  0.61209000  0.30276000  1.0
  C  C66  1  0.46266000  0.10340000  0.91956000  1.0
  C  C67  1  0.31003000  0.11110000  0.87186000  1.0
  C  C68  1  0.11969000  0.09826000  0.87588000  1.0
  C  C69  1  0.97793000  0.10204000  0.82839000  1.0
  C  C70  1  0.02371000  0.11923000  0.77618000  1.0
  C  C71  1  0.21471000  0.13388000  0.77386000  1.0
  C  C72  1  0.35645000  0.12990000  0.82097000  1.0
  C  C73  1  0.87649000  0.12091000  0.72340000  1.0
  C  C74  1  0.89255000  0.17180000  0.70094000  1.0
  C  C75  1  0.76003000  0.17108000  0.64773000  1.0
  C  C76  1  0.60734000  0.11910000  0.61625000  1.0
  C  C77  1  0.58471000  0.06876000  0.63950000  1.0
  C  C78  1  0.72038000  0.07078000  0.69306000  1.0
  C  C79  1  0.42447000  0.01376000  0.60909000  1.0
  C  C80  1  0.44853000  0.94594000  0.60371000  1.0
  C  C81  1  0.29844000  0.89456000  0.57837000  1.0
  C  C82  1  0.11892000  0.90927000  0.55711000  1.0
  C  C83  1  0.09306000  0.97675000  0.56240000  1.0
  C  C84  1  0.24409000  0.02798000  0.58740000  1.0
  C  C85  1  0.96139000  0.85236000  0.52608000  1.0
  C  C86  1  0.79019000  0.22505000  0.62417000  1.0
  C  C87  1  0.53242000  0.32613000  0.47234000  1.0
  C  C88  1  0.37433000  0.35198000  0.44192000  1.0
  C  C89  1  0.39930000  0.41438000  0.43676000  1.0
  C  C90  1  0.24776000  0.44038000  0.41194000  1.0
  C  C91  1  0.06739000  0.40423000  0.39062000  1.0
  C  C92  1  0.04402000  0.34179000  0.39611000  1.0
  C  C93  1  0.19481000  0.31579000  0.42095000  1.0
  C  C94  1  0.90664000  0.42914000  0.36099000  1.0
  C  C95  1  0.88981000  0.50252000  0.38286000  1.0
  C  C96  1  0.73516000  0.52401000  0.35367000  1.0
  C  C97  1  0.59545000  0.47274000  0.30306000  1.0
  C  C98  1  0.60842000  0.39932000  0.28052000  1.0
  C  C99  1  0.76543000  0.37865000  0.30956000  1.0
  C  C100  1  0.71148000  0.60166000  0.37792000  1.0
  C  C101  1  0.45890000  0.34497000  0.22889000  1.0
  C  C102  1  0.50456000  0.27504000  0.17805000  1.0
  C  C103  1  0.26781000  0.36169000  0.23042000  1.0
  C  C104  1  0.12658000  0.30914000  0.18494000  1.0
  C  C105  1  0.17278000  0.23863000  0.13606000  1.0
  C  C106  1  0.36352000  0.22266000  0.13187000  1.0
  C  C107  1  0.01982000  0.18263000  0.09000000  1.0
  C  C108  1  0.53732000  0.89660000  0.08044000  1.0
  C  C109  1  0.68997000  0.88891000  0.12815000  1.0
  C  C110  1  0.88031000  0.90175000  0.12412000  1.0
  C  C111  1  0.02207000  0.89797000  0.17161000  1.0
  C  C112  1  0.97627000  0.88078000  0.22382000  1.0
  C  C113  1  0.78529000  0.86614000  0.22615000  1.0
  C  C114  1  0.64355000  0.87011000  0.17904000  1.0
  C  C115  1  0.12350000  0.87909000  0.27660000  1.0
  C  C116  1  0.10745000  0.82820000  0.29906000  1.0
  C  C117  1  0.23998000  0.82892000  0.35227000  1.0
  C  C118  1  0.39268000  0.88090000  0.38374000  1.0
  C  C119  1  0.41529000  0.93124000  0.36051000  1.0
  C  C120  1  0.27962000  0.92922000  0.30694000  1.0
  C  C121  1  0.57552000  0.98625000  0.39092000  1.0
  C  C122  1  0.55146000  0.05407000  0.39629000  1.0
  C  C123  1  0.70156000  0.10544000  0.42162000  1.0
  C  C124  1  0.88109000  0.09073000  0.44289000  1.0
  C  C125  1  0.90693000  0.02325000  0.43760000  1.0
  C  C126  1  0.75590000  0.97202000  0.41260000  1.0
  C  C127  1  0.03862000  0.14764000  0.47391000  1.0
  C  C128  1  0.20982000  0.77494000  0.37582000  1.0
  C  C129  1  0.46763000  0.67388000  0.52766000  1.0
  C  C130  1  0.62570000  0.64803000  0.55808000  1.0
  C  C131  1  0.60071000  0.58563000  0.56325000  1.0
  C  C132  1  0.75225000  0.55963000  0.58808000  1.0
  C  C133  1  0.93262000  0.59577000  0.60938000  1.0
  C  C134  1  0.95601000  0.65821000  0.60389000  1.0
  C  C135  1  0.80523000  0.68421000  0.57904000  1.0
  C  C136  1  0.09337000  0.57086000  0.63902000  1.0
  C  C137  1  0.11018000  0.49748000  0.61714000  1.0
  C  C138  1  0.26483000  0.47599000  0.64633000  1.0
  C  C139  1  0.40453000  0.52726000  0.69694000  1.0
  C  C140  1  0.39156000  0.60068000  0.71949000  1.0
  C  C141  1  0.23456000  0.62135000  0.69045000  1.0
  C  C142  1  0.28853000  0.39834000  0.62207000  1.0
  C  C143  1  0.54108000  0.65502000  0.77111000  1.0
  C  C144  1  0.49543000  0.72496000  0.82196000  1.0
  C  C145  1  0.73217000  0.63830000  0.76959000  1.0
  C  C146  1  0.87341000  0.69084000  0.81507000  1.0
  C  C147  1  0.82722000  0.76136000  0.86395000  1.0
  C  C148  1  0.63648000  0.77733000  0.86814000  1.0
  C  C149  1  0.98017000  0.81736000  0.91000000  1.0
  O  O150  1  0.41858000  0.07833000  0.96079000  1.0
  O  O151  1  0.63330000  0.11974000  0.91914000  1.0
  O  O152  1  0.94199000  0.26554000  0.64793000  1.0
  O  O153  1  0.66624000  0.22893000  0.57861000  1.0
  O  O154  1  0.98959000  0.79087000  0.52143000  1.0
  O  O155  1  0.80052000  0.86519000  0.50378000  1.0
  O  O156  1  0.69299000  0.36170000  0.49464000  1.0
  O  O157  1  0.50632000  0.26878000  0.47666000  1.0
  O  O158  1  0.84204000  0.64997000  0.42039000  1.0
  O  O159  1  0.55750000  0.62147000  0.35916000  1.0
  O  O160  1  0.84865000  0.19921000  0.09214000  1.0
  O  O161  1  0.06071000  0.11624000  0.04736000  1.0
  O  O162  1  0.67693000  0.05499000  0.09338000  1.0
  O  O163  1  0.72695000  0.96145000  0.91571000  1.0
  O  O164  1  0.30555000  0.25030000  0.66384000  1.0
  O  O165  1  0.80744000  0.40687000  0.66631000  1.0
  O  O166  1  0.58142000  0.92167000  0.03920000  1.0
  O  O167  1  0.36668000  0.88025000  0.08086000  1.0
  O  O168  1  0.05801000  0.73446000  0.35207000  1.0
  O  O169  1  0.33377000  0.77106000  0.42138000  1.0
  O  O170  1  0.01043000  0.20913000  0.47857000  1.0
  O  O171  1  0.19950000  0.13479000  0.49619000  1.0
  O  O172  1  0.30706000  0.63831000  0.50535000  1.0
  O  O173  1  0.49374000  0.73123000  0.52335000  1.0
  O  O174  1  0.15797000  0.35002000  0.57960000  1.0
  O  O175  1  0.44251000  0.37853000  0.64084000  1.0
  O  O176  1  0.15134000  0.80078000  0.90785000  1.0
  O  O177  1  0.93929000  0.88375000  0.95263000  1.0
  O  O178  1  0.32306000  0.94500000  0.90663000  1.0
  O  O179  1  0.27303000  0.03855000  0.08429000  1.0
  O  O180  1  0.69444000  0.74969000  0.33614000  1.0
  O  O181  1  0.19256000  0.59313000  0.33369000  1.0
