# generated using pymatgen
data_Zn2H28C25N4O9
_symmetry_space_group_name_H-M   'P 1'
_cell_length_a   9.88773000
_cell_length_b   11.28900000
_cell_length_c   16.07990000
_cell_angle_alpha   89.70080000
_cell_angle_beta   81.58230000
_cell_angle_gamma   82.56420000
_symmetry_Int_Tables_number   1
_chemical_formula_structural   Zn2H28C25N4O9
_chemical_formula_sum   'Zn2 H28 C25 N4 O9'
_cell_volume   1760.44027738
_cell_formula_units_Z   1
loop_
 _symmetry_equiv_pos_site_id
 _symmetry_equiv_pos_as_xyz
  1  'x, y, z'
loop_
 _atom_site_type_symbol
 _atom_site_label
 _atom_site_symmetry_multiplicity
 _atom_site_fract_x
 _atom_site_fract_y
 _atom_site_fract_z
 _atom_site_occupancy
  Zn  Zn0  1  0.63492000  0.49780000  0.48570000  1.0
  Zn  Zn1  1  0.35141000  0.48351000  0.52360000  1.0
  H  H2  1  0.47477000  0.68625000  0.94257000  1.0
  H  H3  1  0.68134000  0.57935000  0.05405000  1.0
  H  H4  1  0.65023000  0.63430000  0.91360000  1.0
  H  H5  1  0.58582000  0.30526000  0.92097000  1.0
  H  H6  1  0.35403000  0.09543000  0.51160000  1.0
  H  H7  1  0.59321000  0.88258000  0.47758000  1.0
  H  H8  1  0.66943000  0.08934000  0.47037000  1.0
  H  H9  1  0.27792000  0.89131000  0.52214000  1.0
  H  H10  1  0.11286000  0.58197000  0.43923000  1.0
  H  H11  1  0.84500000  0.62716000  0.48527000  1.0
  H  H12  1  0.53403000  0.68565000  0.07996000  1.0
  H  H13  1  0.11205000  0.38258000  0.55648000  1.0
  H  H14  1  0.28456000  0.45401000  0.09390000  1.0
  H  H15  1  0.29755000  0.60620000  0.07283000  1.0
  H  H16  1  0.29187000  0.55099000  0.93197000  1.0
  H  H17  1  0.33682000  0.39781000  0.95061000  1.0
  H  H18  1  0.48982000  0.31471000  0.05821000  1.0
  H  H19  1  0.13422000  0.26212000  0.43803000  1.0
  H  H20  1  0.07632000  0.30534000  0.34086000  1.0
  H  H21  1  0.95286000  0.12416000  0.46300000  1.0
  H  H22  1  0.89702000  0.16658000  0.36665000  1.0
  H  H23  1  0.13087000  0.08038000  0.28812000  1.0
  H  H24  1  0.05284000  0.97082000  0.35046000  1.0
  H  H25  1  0.18781000  0.03790000  0.38499000  1.0
  H  H26  1  0.77654000  0.34489000  0.04968000  1.0
  H  H27  1  0.68139000  0.34948000  0.14600000  1.0
  H  H28  1  0.77837000  0.47829000  0.92397000  1.0
  H  H29  1  0.78609000  0.35946000  0.86488000  1.0
  C  C30  1  0.41597000  0.72182000  0.50778000  1.0
  C  C31  1  0.55540000  0.61291000  0.95209000  1.0
  C  C32  1  0.51251000  0.49536000  0.92053000  1.0
  C  C33  1  0.60880000  0.38684000  0.95002000  1.0
  C  C34  1  0.56959000  0.37550000  0.04770000  1.0
  C  C35  1  0.52058000  0.49373000  0.82966000  1.0
  C  C36  1  0.48504000  0.50072000  0.17542000  1.0
  C  C37  1  0.48468000  0.49759000  0.25110000  1.0
  C  C38  1  0.38633000  0.85388000  0.50752000  1.0
  C  C39  1  0.48653000  0.92526000  0.49211000  1.0
  C  C40  1  0.56077000  0.12564000  0.48557000  1.0
  C  C41  1  0.49089000  0.49463000  0.34043000  1.0
  C  C42  1  0.46094000  0.05346000  0.49636000  1.0
  C  C43  1  0.07715000  0.50479000  0.47334000  1.0
  C  C44  1  0.94265000  0.46731000  0.46022000  1.0
  C  C45  1  0.53032000  0.25731000  0.49517000  1.0
  C  C46  1  0.51593000  0.49101000  0.66444000  1.0
  C  C47  1  0.57242000  0.60124000  0.04571000  1.0
  C  C48  1  0.34803000  0.51475000  0.05749000  1.0
  C  C49  1  0.36237000  0.48757000  0.96246000  1.0
  C  C50  1  0.52112000  0.49192000  0.75398000  1.0
  C  C51  1  0.49296000  0.50014000  0.08483000  1.0
  C  C52  1  0.04519000  0.26974000  0.40363000  1.0
  C  C53  1  0.98868000  0.15176000  0.39863000  1.0
  C  C54  1  0.09623000  0.05521000  0.35313000  1.0
  N  N55  1  0.14925000  0.45482000  0.52655000  1.0
  N  N56  1  0.83162000  0.54196000  0.47050000  1.0
  N  N57  1  0.68802000  0.32424000  0.08461000  1.0
  N  N58  1  0.75598000  0.39263000  0.92440000  1.0
  O  O59  1  0.54153000  0.67442000  0.49722000  1.0
  O  O60  1  0.31073000  0.66524000  0.51960000  1.0
  O  O61  1  0.60947000  0.49979000  0.36130000  1.0
  O  O62  1  0.37908000  0.48690000  0.38971000  1.0
  O  O63  1  0.63394000  0.31501000  0.48314000  1.0
  O  O64  1  0.40431000  0.30259000  0.51490000  1.0
  O  O65  1  0.62913000  0.49236000  0.61543000  1.0
  O  O66  1  0.39681000  0.48909000  0.64314000  1.0
  O  O67  1  0.93105000  0.35312000  0.44716000  1.0
