# generated using pymatgen
data_CuH17C18N2O7
_symmetry_space_group_name_H-M   'P 1'
_cell_length_a   7.49712000
_cell_length_b   9.67750000
_cell_length_c   13.28160000
_cell_angle_alpha   69.13670000
_cell_angle_beta   89.46760000
_cell_angle_gamma   73.64870000
_symmetry_Int_Tables_number   1
_chemical_formula_structural   CuH17C18N2O7
_chemical_formula_sum   'Cu2 H34 C36 N4 O14'
_cell_volume   859.56464274
_cell_formula_units_Z   2
loop_
 _symmetry_equiv_pos_site_id
 _symmetry_equiv_pos_as_xyz
  1  'x, y, z'
loop_
 _atom_site_type_symbol
 _atom_site_label
 _atom_site_symmetry_multiplicity
 _atom_site_fract_x
 _atom_site_fract_y
 _atom_site_fract_z
 _atom_site_occupancy
  Cu  Cu0  1  0.73733000  0.83921000  0.81775000  1.0
  Cu  Cu1  1  0.26267000  0.16079000  0.18225000  1.0
  H  H2  1  0.53449000  0.83408000  0.02837000  1.0
  H  H3  1  0.46551000  0.16592000  0.97163000  1.0
  H  H4  1  0.50475000  0.61819000  0.19531000  1.0
  H  H5  1  0.49525000  0.38181000  0.80470000  1.0
  H  H6  1  0.64275000  0.34453000  0.21084000  1.0
  H  H7  1  0.35725000  0.65548000  0.78916000  1.0
  H  H8  1  0.82313000  0.15644000  0.12054000  1.0
  H  H9  1  0.17686000  0.84356000  0.87946000  1.0
  H  H10  1  0.98303000  0.12095000  0.96330000  1.0
  H  H11  1  0.01697000  0.87905000  0.03670000  1.0
  H  H12  1  0.08898000  0.24061000  0.77600000  1.0
  H  H13  1  0.91102000  0.75939000  0.22400000  1.0
  H  H14  1  0.10263000  0.48349000  0.62650000  1.0
  H  H15  1  0.89738000  0.51650000  0.37351000  1.0
  H  H16  1  0.95757000  0.74000000  0.64338000  1.0
  H  H17  1  0.04243000  0.26000000  0.35662000  1.0
  H  H18  1  0.15735000  0.91524000  0.60419000  1.0
  H  H19  1  0.84265000  0.08476000  0.39581000  1.0
  H  H20  1  0.24631000  0.06237000  0.52114000  1.0
  H  H21  1  0.75369000  0.93764000  0.47886000  1.0
  H  H22  1  0.02459000  0.25083000  0.59797000  1.0
  H  H23  1  0.97541000  0.74917000  0.40204000  1.0
  H  H24  1  0.91423000  0.18526000  0.51558000  1.0
  H  H25  1  0.08577000  0.81475000  0.48442000  1.0
  H  H26  1  0.47255000  0.03974000  0.82072000  1.0
  H  H27  1  0.52745000  0.96026000  0.17927000  1.0
  H  H28  1  0.65647000  0.10294000  0.79930000  1.0
  H  H29  1  0.34352000  0.89707000  0.20069000  1.0
  H  H30  1  0.70112000  0.48105000  0.53963000  1.0
  H  H31  1  0.29889000  0.51894000  0.46037000  1.0
  H  H32  1  0.57390000  0.62610000  0.41914000  1.0
  H  H33  1  0.42610000  0.37390000  0.58086000  1.0
  H  H34  1  0.52670000  0.81092000  0.61264000  1.0
  H  H35  1  0.47330000  0.18907000  0.38736000  1.0
  C  C36  1  0.59342000  0.71336000  0.03678000  1.0
  C  C37  1  0.40658000  0.28664000  0.96322000  1.0
  C  C38  1  0.57722000  0.59142000  0.13002000  1.0
  C  C39  1  0.42278000  0.40858000  0.86999000  1.0
  C  C40  1  0.65364000  0.43932000  0.13827000  1.0
  C  C41  1  0.34636000  0.56068000  0.86174000  1.0
  C  C42  1  0.74799000  0.40848000  0.05247000  1.0
  C  C43  1  0.25201000  0.59152000  0.94753000  1.0
  C  C44  1  0.83217000  0.25638000  0.05119000  1.0
  C  C45  1  0.16782000  0.74363000  0.94881000  1.0
  C  C46  1  0.91982000  0.23663000  0.96413000  1.0
  C  C47  1  0.08018000  0.76337000  0.03587000  1.0
  C  C48  1  0.93265000  0.36604000  0.87190000  1.0
  C  C49  1  0.06734000  0.63396000  0.12810000  1.0
  C  C50  1  0.02259000  0.35415000  0.78000000  1.0
  C  C51  1  0.97741000  0.64584000  0.22000000  1.0
  C  C52  1  0.02963000  0.48774000  0.69700000  1.0
  C  C53  1  0.97037000  0.51225000  0.30301000  1.0
  C  C54  1  0.94955000  0.63274000  0.70518000  1.0
  C  C55  1  0.05046000  0.36726000  0.29482000  1.0
  C  C56  1  0.85312000  0.51645000  0.87259000  1.0
  C  C57  1  0.14688000  0.48355000  0.12741000  1.0
  C  C58  1  0.75884000  0.53813000  0.96215000  1.0
  C  C59  1  0.24116000  0.46188000  0.03785000  1.0
  C  C60  1  0.32641000  0.98861000  0.68875000  1.0
  C  C61  1  0.67359000  0.01139000  0.31125000  1.0
  C  C62  1  0.18130000  0.02527000  0.59673000  1.0
  C  C63  1  0.81870000  0.97473000  0.40326000  1.0
  C  C64  1  0.99908000  0.14704000  0.59323000  1.0
  C  C65  1  0.00092000  0.85296000  0.40677000  1.0
  C  C66  1  0.87331000  0.09376000  0.67987000  1.0
  C  C67  1  0.12668000  0.90625000  0.32013000  1.0
  C  C68  1  0.47972000  0.65405000  0.56404000  1.0
  C  C69  1  0.52030000  0.34594000  0.43595000  1.0
  C  C70  1  0.55903000  0.55158000  0.50142000  1.0
  C  C71  1  0.44098000  0.44842000  0.49857000  1.0
  N  N72  1  0.68265000  0.68691000  0.95512000  1.0
  N  N73  1  0.31735000  0.31309000  0.04488000  1.0
  N  N74  1  0.86371000  0.64603000  0.79078000  1.0
  N  N75  1  0.13629000  0.35397000  0.20922000  1.0
  O  O76  1  0.48583000  0.89084000  0.69319000  1.0
  O  O77  1  0.51417000  0.10916000  0.30681000  1.0
  O  O78  1  0.28701000  0.05285000  0.75775000  1.0
  O  O79  1  0.71300000  0.94715000  0.24224000  1.0
  O  O80  1  0.88466000  0.94873000  0.71231000  1.0
  O  O81  1  0.11534000  0.05127000  0.28769000  1.0
  O  O82  1  0.76370000  0.19176000  0.71188000  1.0
  O  O83  1  0.23629000  0.80825000  0.28812000  1.0
  O  O84  1  0.60349000  0.02231000  0.85434000  1.0
  O  O85  1  0.39651000  0.97769000  0.14566000  1.0
  O  O86  1  0.33902000  0.64879000  0.61275000  1.0
  O  O87  1  0.66097000  0.35120000  0.38725000  1.0
  O  O88  1  0.57785000  0.74987000  0.56229000  1.0
  O  O89  1  0.42216000  0.25012000  0.43771000  1.0
