# generated using pymatgen
data_AlH5C18O8F3
_symmetry_space_group_name_H-M   'P 1'
_cell_length_a   6.67081000
_cell_length_b   21.92250000
_cell_length_c   25.01020000
_cell_angle_alpha   83.41070000
_cell_angle_beta   89.99980000
_cell_angle_gamma   89.99850000
_symmetry_Int_Tables_number   1
_chemical_formula_structural   AlH5C18O8F3
_chemical_formula_sum   'Al4 H20 C72 O32 F12'
_cell_volume   3633.35171193
_cell_formula_units_Z   4
loop_
 _symmetry_equiv_pos_site_id
 _symmetry_equiv_pos_as_xyz
  1  'x, y, z'
loop_
 _atom_site_type_symbol
 _atom_site_label
 _atom_site_symmetry_multiplicity
 _atom_site_fract_x
 _atom_site_fract_y
 _atom_site_fract_z
 _atom_site_occupancy
  Al  Al0  1  0.79814000  0.24922000  0.75192000  1.0
  Al  Al1  1  0.20085000  0.75069000  0.24801000  1.0
  Al  Al2  1  0.29814000  0.25078000  0.74808000  1.0
  Al  Al3  1  0.70085000  0.74931000  0.25199000  1.0
  H  H4  1  0.28091000  0.90240000  0.45949000  1.0
  H  H5  1  0.72053000  0.10015000  0.53840000  1.0
  H  H6  1  0.78089000  0.59758000  0.04051000  1.0
  H  H7  1  0.22052000  0.39984000  0.96160000  1.0
  H  H8  1  0.78731000  0.90824000  0.91349000  1.0
  H  H9  1  0.31759000  0.08842000  0.07403000  1.0
  H  H10  1  0.28729000  0.59174000  0.58653000  1.0
  H  H11  1  0.81770000  0.41159000  0.42599000  1.0
  H  H12  1  0.22176000  0.89265000  0.92994000  1.0
  H  H13  1  0.67061000  0.08865000  0.07146000  1.0
  H  H14  1  0.72173000  0.60736000  0.57008000  1.0
  H  H15  1  0.17066000  0.41135000  0.42855000  1.0
  H  H16  1  0.63826000  0.04430000  0.90619000  1.0
  H  H17  1  0.36489000  0.89712000  0.04665000  1.0
  H  H18  1  0.13821000  0.45572000  0.59381000  1.0
  H  H19  1  0.86486000  0.60290000  0.45335000  1.0
  H  H20  1  0.54829000  0.17571000  0.73234000  1.0
  H  H21  1  0.45128000  0.82754000  0.26059000  1.0
  H  H22  1  0.04828000  0.32429000  0.76765000  1.0
  H  H23  1  0.95130000  0.67246000  0.23940000  1.0
  C  C24  1  0.55431000  0.32853000  0.67374000  1.0
  C  C25  1  0.44489000  0.67282000  0.32727000  1.0
  C  C26  1  0.05429000  0.17147000  0.82626000  1.0
  C  C27  1  0.94488000  0.82718000  0.17273000  1.0
  C  C28  1  0.54528000  0.31690000  0.82016000  1.0
  C  C29  1  0.45403000  0.68119000  0.18133000  1.0
  C  C30  1  0.04531000  0.18311000  0.67983000  1.0
  C  C31  1  0.95400000  0.81881000  0.31867000  1.0
  C  C32  1  0.81330000  0.93902000  0.41117000  1.0
  C  C33  1  0.18564000  0.06232000  0.58796000  1.0
  C  C34  1  0.31331000  0.56098000  0.08884000  1.0
  C  C35  1  0.68559000  0.43769000  0.91202000  1.0
  C  C36  1  0.80352000  0.89960000  0.37138000  1.0
  C  C37  1  0.19564000  0.10206000  0.62747000  1.0
  C  C38  1  0.30353000  0.60039000  0.12862000  1.0
  C  C39  1  0.69559000  0.39796000  0.87252000  1.0
  C  C40  1  0.96277000  0.86008000  0.36222000  1.0
  C  C41  1  0.03695000  0.14192000  0.63629000  1.0
  C  C42  1  0.46277000  0.63991000  0.13778000  1.0
  C  C43  1  0.53691000  0.35809000  0.86370000  1.0
  C  C44  1  0.13177000  0.86271000  0.39586000  1.0
  C  C45  1  0.86838000  0.13943000  0.60245000  1.0
  C  C46  1  0.63177000  0.63729000  0.10414000  1.0
  C  C47  1  0.36836000  0.36057000  0.89755000  1.0
  C  C48  1  0.14578000  0.90198000  0.43519000  1.0
  C  C49  1  0.85464000  0.10006000  0.56317000  1.0
  C  C50  1  0.64577000  0.59801000  0.06481000  1.0
  C  C51  1  0.35463000  0.39994000  0.93683000  1.0
  C  C52  1  0.98484000  0.94152000  0.44347000  1.0
  C  C53  1  0.01481000  0.06007000  0.55538000  1.0
  C  C54  1  0.48482000  0.55848000  0.05653000  1.0
  C  C55  1  0.51478000  0.43993000  0.94462000  1.0
  C  C56  1  0.99466000  0.98274000  0.48268000  1.0
  C  C57  1  0.00493000  0.01865000  0.51635000  1.0
  C  C58  1  0.49462000  0.51725000  0.01731000  1.0
  C  C59  1  0.50489000  0.48135000  0.98365000  1.0
  C  C60  1  0.10847000  0.97539000  0.96168000  1.0
  C  C61  1  0.88920000  0.02571000  0.03826000  1.0
  C  C62  1  0.60847000  0.52462000  0.53833000  1.0
  C  C63  1  0.38923000  0.47429000  0.46174000  1.0
  C  C64  1  0.89436000  0.95354000  0.98204000  1.0
  C  C65  1  0.11062000  0.04653000  0.01877000  1.0
  C  C66  1  0.39435000  0.54646000  0.51796000  1.0
  C  C67  1  0.61066000  0.45348000  0.48123000  1.0
  C  C68  1  0.93630000  0.87128000  0.12524000  1.0
  C  C69  1  0.06314000  0.12784000  0.87405000  1.0
  C  C70  1  0.43630000  0.62871000  0.37476000  1.0
  C  C71  1  0.56317000  0.37217000  0.62595000  1.0
  C  C72  1  0.17540000  0.97812000  0.02288000  1.0
  C  C73  1  0.82578000  0.02405000  0.97875000  1.0
  C  C74  1  0.67541000  0.52189000  0.47712000  1.0
  C  C75  1  0.32581000  0.47595000  0.52126000  1.0
  C  C76  1  0.95706000  0.95599000  0.04249000  1.0
  C  C77  1  0.04401000  0.04488000  0.95813000  1.0
  C  C78  1  0.45706000  0.54402000  0.45752000  1.0
  C  C79  1  0.54404000  0.45512000  0.54187000  1.0
  C  C80  1  0.92991000  0.91036000  0.08663000  1.0
  C  C81  1  0.07043000  0.09026000  0.91372000  1.0
  C  C82  1  0.42990000  0.58964000  0.41337000  1.0
  C  C83  1  0.57048000  0.40974000  0.58628000  1.0
  C  C84  1  0.76889000  0.90785000  0.95801000  1.0
  C  C85  1  0.20831000  0.09988000  0.04086000  1.0
  C  C86  1  0.26889000  0.59214000  0.54200000  1.0
  C  C87  1  0.70834000  0.40013000  0.45914000  1.0
  C  C88  1  0.23423000  0.94389000  0.92425000  1.0
  C  C89  1  0.79137000  0.05482000  0.08299000  1.0
  C  C90  1  0.73422000  0.55611000  0.57576000  1.0
  C  C91  1  0.29140000  0.44518000  0.41701000  1.0
  C  C92  1  0.64348000  0.04894000  0.95003000  1.0
  C  C93  1  0.35641000  0.94761000  0.04797000  1.0
  C  C94  1  0.14352000  0.45105000  0.54997000  1.0
  C  C95  1  0.85643000  0.55240000  0.45205000  1.0
  O  O96  1  0.37871000  0.30372000  0.79986000  1.0
  O  O97  1  0.62043000  0.69448000  0.20165000  1.0
  O  O98  1  0.87874000  0.19628000  0.70014000  1.0
  O  O99  1  0.12041000  0.80552000  0.29835000  1.0
  O  O100  1  0.72174000  0.31192000  0.69482000  1.0
  O  O101  1  0.27747000  0.68943000  0.30621000  1.0
  O  O102  1  0.22173000  0.18808000  0.80518000  1.0
  O  O103  1  0.77748000  0.81057000  0.19379000  1.0
  O  O104  1  0.71670000  0.29915000  0.80625000  1.0
  O  O105  1  0.28226000  0.69898000  0.19496000  1.0
  O  O106  1  0.21673000  0.20086000  0.69375000  1.0
  O  O107  1  0.78225000  0.80102000  0.30504000  1.0
  O  O108  1  0.87968000  0.18778000  0.80976000  1.0
  O  O109  1  0.11936000  0.81045000  0.18897000  1.0
  O  O110  1  0.37969000  0.31222000  0.69024000  1.0
  O  O111  1  0.61936000  0.68954000  0.31103000  1.0
  O  O112  1  0.54746000  0.21302000  0.74978000  1.0
  O  O113  1  0.45152000  0.78685000  0.24896000  1.0
  O  O114  1  0.04746000  0.28697000  0.75023000  1.0
  O  O115  1  0.95153000  0.71315000  0.25104000  1.0
  O  O116  1  0.64870000  0.87349000  0.98305000  1.0
  O  O117  1  0.16124000  0.15249000  0.02462000  1.0
  O  O118  1  0.14873000  0.62652000  0.51697000  1.0
  O  O119  1  0.66116000  0.34752000  0.47535000  1.0
  O  O120  1  0.34826000  0.96985000  0.89079000  1.0
  O  O121  1  0.85037000  0.04307000  0.12917000  1.0
  O  O122  1  0.84828000  0.53014000  0.60921000  1.0
  O  O123  1  0.35036000  0.45695000  0.37083000  1.0
  O  O124  1  0.50744000  0.07388000  0.97200000  1.0
  O  O125  1  0.48721000  0.97485000  0.06986000  1.0
  O  O126  1  0.00759000  0.42606000  0.52800000  1.0
  O  O127  1  0.98730000  0.52516000  0.43019000  1.0
  F  F128  1  0.65454000  0.97566000  0.41810000  1.0
  F  F129  1  0.34347000  0.02500000  0.58169000  1.0
  F  F130  1  0.15453000  0.52433000  0.08192000  1.0
  F  F131  1  0.84340000  0.47502000  0.91829000  1.0
  F  F132  1  0.63677000  0.90223000  0.34087000  1.0
  F  F133  1  0.36196000  0.09919000  0.65834000  1.0
  F  F134  1  0.13679000  0.59777000  0.15913000  1.0
  F  F135  1  0.86190000  0.40083000  0.84163000  1.0
  F  F136  1  0.28830000  0.82442000  0.39112000  1.0
  F  F137  1  0.71223000  0.17778000  0.60708000  1.0
  F  F138  1  0.78829000  0.67558000  0.10887000  1.0
  F  F139  1  0.21223000  0.32222000  0.89292000  1.0
