# generated using pymatgen
data_BaH10C12(N2O5)2
_symmetry_space_group_name_H-M   'P 1'
_cell_length_a   8.89469000
_cell_length_b   10.89370000
_cell_length_c   15.63570000
_cell_angle_alpha   90.00030000
_cell_angle_beta   89.99980000
_cell_angle_gamma   89.99980000
_symmetry_Int_Tables_number   1
_chemical_formula_structural   BaH10C12(N2O5)2
_chemical_formula_sum   'Ba4 H40 C48 N16 O40'
_cell_volume   1515.03810764
_cell_formula_units_Z   4
loop_
 _symmetry_equiv_pos_site_id
 _symmetry_equiv_pos_as_xyz
  1  'x, y, z'
loop_
 _atom_site_type_symbol
 _atom_site_label
 _atom_site_symmetry_multiplicity
 _atom_site_fract_x
 _atom_site_fract_y
 _atom_site_fract_z
 _atom_site_occupancy
  Ba  Ba0  1  0.60120000  0.97874000  0.45852000  1.0
  Ba  Ba1  1  0.10121000  0.02126000  0.54148000  1.0
  Ba  Ba2  1  0.10120000  0.47873000  0.04149000  1.0
  Ba  Ba3  1  0.60121000  0.52127000  0.95852000  1.0
  H  H4  1  0.23740000  0.96106000  0.17695000  1.0
  H  H5  1  0.73739000  0.03893000  0.82304000  1.0
  H  H6  1  0.73739000  0.46107000  0.32305000  1.0
  H  H7  1  0.23739000  0.53893000  0.67696000  1.0
  H  H8  1  0.88416000  0.77836000  0.54166000  1.0
  H  H9  1  0.38415000  0.22164000  0.45834000  1.0
  H  H10  1  0.38415000  0.27836000  0.95834000  1.0
  H  H11  1  0.88415000  0.72163000  0.04166000  1.0
  H  H12  1  0.92284000  0.66190000  0.25493000  1.0
  H  H13  1  0.42284000  0.33809000  0.74507000  1.0
  H  H14  1  0.42283000  0.16191000  0.24507000  1.0
  H  H15  1  0.92284000  0.83809000  0.75493000  1.0
  H  H16  1  0.76437000  0.67232000  0.39236000  1.0
  H  H17  1  0.26436000  0.32768000  0.60764000  1.0
  H  H18  1  0.26436000  0.17232000  0.10764000  1.0
  H  H19  1  0.76436000  0.82768000  0.89236000  1.0
  H  H20  1  0.91055000  0.61533000  0.45870000  1.0
  H  H21  1  0.41055000  0.38467000  0.54130000  1.0
  H  H22  1  0.41055000  0.11533000  0.04130000  1.0
  H  H23  1  0.91055000  0.88467000  0.95870000  1.0
  H  H24  1  0.61186000  0.69487000  0.61011000  1.0
  H  H25  1  0.11186000  0.30513000  0.38989000  1.0
  H  H26  1  0.11186000  0.19487000  0.88989000  1.0
  H  H27  1  0.61186000  0.80513000  0.11011000  1.0
  H  H28  1  0.53932000  0.99548000  0.93681000  1.0
  H  H29  1  0.03931000  0.00452000  0.06319000  1.0
  H  H30  1  0.03931000  0.49548000  0.56319000  1.0
  H  H31  1  0.53931000  0.50452000  0.43681000  1.0
  H  H32  1  0.30146000  0.94884000  0.75894000  1.0
  H  H33  1  0.80146000  0.05117000  0.24107000  1.0
  H  H34  1  0.80146000  0.44883000  0.74106000  1.0
  H  H35  1  0.30146000  0.55117000  0.25894000  1.0
  H  H36  1  0.32219000  0.81294000  0.97846000  1.0
  H  H37  1  0.82218000  0.18707000  0.02155000  1.0
  H  H38  1  0.82219000  0.31293000  0.52154000  1.0
  H  H39  1  0.32218000  0.68707000  0.47846000  1.0
  H  H40  1  0.26298000  0.94725000  0.92228000  1.0
  H  H41  1  0.76298000  0.05276000  0.07772000  1.0
  H  H42  1  0.76298000  0.44724000  0.57772000  1.0
  H  H43  1  0.26298000  0.55276000  0.42228000  1.0
  C  C44  1  0.25602000  0.97980000  0.31765000  1.0
  C  C45  1  0.75602000  0.02020000  0.68234000  1.0
  C  C46  1  0.75601000  0.47981000  0.18235000  1.0
  C  C47  1  0.25602000  0.52019000  0.81766000  1.0
  C  C48  1  0.14026000  0.88151000  0.31631000  1.0
  C  C49  1  0.64026000  0.11848000  0.68369000  1.0
  C  C50  1  0.64026000  0.38152000  0.18368000  1.0
  C  C51  1  0.14027000  0.61848000  0.81632000  1.0
  C  C52  1  0.08499000  0.81092000  0.24814000  1.0
  C  C53  1  0.58500000  0.18908000  0.75185000  1.0
  C  C54  1  0.58499000  0.31092000  0.25185000  1.0
  C  C55  1  0.08499000  0.68908000  0.74815000  1.0
  C  C56  1  0.10867000  0.81360000  0.15571000  1.0
  C  C57  1  0.60867000  0.18640000  0.84429000  1.0
  C  C58  1  0.60866000  0.31360000  0.34429000  1.0
  C  C59  1  0.10867000  0.68640000  0.65571000  1.0
  C  C60  1  0.97594000  0.75668000  0.36949000  1.0
  C  C61  1  0.47594000  0.24332000  0.63051000  1.0
  C  C62  1  0.47593000  0.25668000  0.13050000  1.0
  C  C63  1  0.97593000  0.74332000  0.86950000  1.0
  C  C64  1  0.86465000  0.69916000  0.42888000  1.0
  C  C65  1  0.36465000  0.30083000  0.57112000  1.0
  C  C66  1  0.36464000  0.19916000  0.07112000  1.0
  C  C67  1  0.86464000  0.80083000  0.92888000  1.0
  C  C68  1  0.63046000  0.62239000  0.72884000  1.0
  C  C69  1  0.13046000  0.37761000  0.27116000  1.0
  C  C70  1  0.13046000  0.12240000  0.77116000  1.0
  C  C71  1  0.63046000  0.87761000  0.22884000  1.0
  C  C72  1  0.53075000  0.72063000  0.75961000  1.0
  C  C73  1  0.03074000  0.27937000  0.24039000  1.0
  C  C74  1  0.03075000  0.22063000  0.74039000  1.0
  C  C75  1  0.53075000  0.77937000  0.25961000  1.0
  C  C76  1  0.45276000  0.81059000  0.71376000  1.0
  C  C77  1  0.95276000  0.18942000  0.28624000  1.0
  C  C78  1  0.95276000  0.31059000  0.78624000  1.0
  C  C79  1  0.45276000  0.68942000  0.21376000  1.0
  C  C80  1  0.44728000  0.83933000  0.62173000  1.0
  C  C81  1  0.94728000  0.16068000  0.37827000  1.0
  C  C82  1  0.94728000  0.33933000  0.87826000  1.0
  C  C83  1  0.44728000  0.66068000  0.12174000  1.0
  C  C84  1  0.41098000  0.83039000  0.85279000  1.0
  C  C85  1  0.91097000  0.16961000  0.14721000  1.0
  C  C86  1  0.91098000  0.33039000  0.64721000  1.0
  C  C87  1  0.41098000  0.66961000  0.35279000  1.0
  C  C88  1  0.35877000  0.88587000  0.93488000  1.0
  C  C89  1  0.85877000  0.11414000  0.06513000  1.0
  C  C90  1  0.85877000  0.38586000  0.56512000  1.0
  C  C91  1  0.35877000  0.61414000  0.43488000  1.0
  N  N92  1  0.07198000  0.84586000  0.39087000  1.0
  N  N93  1  0.57198000  0.15414000  0.60913000  1.0
  N  N94  1  0.57198000  0.34586000  0.10913000  1.0
  N  N95  1  0.07198000  0.65414000  0.89087000  1.0
  N  N96  1  0.98299000  0.73159000  0.28458000  1.0
  N  N97  1  0.48299000  0.26841000  0.71542000  1.0
  N  N98  1  0.48298000  0.23159000  0.21542000  1.0
  N  N99  1  0.98299000  0.76841000  0.78458000  1.0
  N  N100  1  0.50307000  0.73354000  0.84551000  1.0
  N  N101  1  0.00306000  0.26646000  0.15449000  1.0
  N  N102  1  0.00307000  0.23354000  0.65448000  1.0
  N  N103  1  0.50306000  0.76646000  0.34552000  1.0
  N  N104  1  0.37844000  0.87820000  0.77435000  1.0
  N  N105  1  0.87844000  0.12180000  0.22565000  1.0
  N  N106  1  0.87844000  0.37820000  0.72565000  1.0
  N  N107  1  0.37844000  0.62180000  0.27435000  1.0
  O  O108  1  0.30425000  0.01618000  0.38899000  1.0
  O  O109  1  0.80426000  0.98382000  0.61100000  1.0
  O  O110  1  0.80425000  0.51618000  0.11100000  1.0
  O  O111  1  0.30426000  0.48382000  0.88900000  1.0
  O  O112  1  0.30084000  0.02304000  0.24486000  1.0
  O  O113  1  0.80084000  0.97695000  0.75513000  1.0
  O  O114  1  0.80083000  0.52305000  0.25513000  1.0
  O  O115  1  0.30084000  0.47695000  0.74487000  1.0
  O  O116  1  0.18742000  0.90701000  0.12504000  1.0
  O  O117  1  0.68742000  0.09298000  0.87496000  1.0
  O  O118  1  0.68742000  0.40702000  0.37496000  1.0
  O  O119  1  0.18742000  0.59298000  0.62505000  1.0
  O  O120  1  0.05330000  0.73396000  0.10796000  1.0
  O  O121  1  0.55330000  0.26603000  0.89204000  1.0
  O  O122  1  0.55330000  0.23397000  0.39204000  1.0
  O  O123  1  0.05330000  0.76603000  0.60796000  1.0
  O  O124  1  0.81845000  0.78632000  0.49141000  1.0
  O  O125  1  0.31844000  0.21367000  0.50859000  1.0
  O  O126  1  0.31844000  0.28632000  0.00859000  1.0
  O  O127  1  0.81844000  0.71368000  0.99142000  1.0
  O  O128  1  0.67540000  0.54281000  0.78124000  1.0
  O  O129  1  0.17541000  0.45718000  0.21876000  1.0
  O  O130  1  0.17542000  0.04282000  0.71876000  1.0
  O  O131  1  0.67542000  0.95718000  0.28124000  1.0
  O  O132  1  0.67208000  0.62102000  0.64926000  1.0
  O  O133  1  0.17208000  0.37898000  0.35074000  1.0
  O  O134  1  0.17208000  0.12103000  0.85074000  1.0
  O  O135  1  0.67209000  0.87897000  0.14926000  1.0
  O  O136  1  0.53605000  0.77857000  0.57211000  1.0
  O  O137  1  0.03605000  0.22143000  0.42789000  1.0
  O  O138  1  0.03604000  0.27857000  0.92789000  1.0
  O  O139  1  0.53605000  0.72143000  0.07211000  1.0
  O  O140  1  0.36424000  0.92372000  0.59350000  1.0
  O  O141  1  0.86423000  0.07628000  0.40650000  1.0
  O  O142  1  0.86424000  0.42373000  0.90649000  1.0
  O  O143  1  0.36424000  0.57628000  0.09351000  1.0
  O  O144  1  0.47803000  0.94975000  0.97804000  1.0
  O  O145  1  0.97803000  0.05025000  0.02196000  1.0
  O  O146  1  0.97803000  0.44975000  0.52196000  1.0
  O  O147  1  0.47803000  0.55025000  0.47804000  1.0
