# generated using pymatgen
data_ZnH14C22N2O7
_symmetry_space_group_name_H-M   'P 1'
_cell_length_a   9.58516000
_cell_length_b   11.01030000
_cell_length_c   23.72580000
_cell_angle_alpha   90.59140000
_cell_angle_beta   89.99530000
_cell_angle_gamma   89.92410000
_symmetry_Int_Tables_number   1
_chemical_formula_structural   ZnH14C22N2O7
_chemical_formula_sum   'Zn2 H28 C44 N4 O14'
_cell_volume   2503.77826889
_cell_formula_units_Z   2
loop_
 _symmetry_equiv_pos_site_id
 _symmetry_equiv_pos_as_xyz
  1  'x, y, z'
loop_
 _atom_site_type_symbol
 _atom_site_label
 _atom_site_symmetry_multiplicity
 _atom_site_fract_x
 _atom_site_fract_y
 _atom_site_fract_z
 _atom_site_occupancy
  Zn  Zn0  1  0.36990000  0.50096000  0.50018000  1.0
  Zn  Zn1  1  0.65265000  0.50036000  0.49974000  1.0
  H  H2  1  0.49847000  0.19047000  0.94933000  1.0
  H  H3  1  0.28480000  0.45725000  0.67894000  1.0
  H  H4  1  0.74204000  0.11317000  0.49140000  1.0
  H  H5  1  0.29480000  0.88803000  0.50813000  1.0
  H  H6  1  0.74183000  0.88570000  0.49994000  1.0
  H  H7  1  0.29497000  0.11562000  0.49947000  1.0
  H  H8  1  0.87623000  0.63330000  0.56236000  1.0
  H  H9  1  0.14630000  0.36884000  0.43708000  1.0
  H  H10  1  0.87775000  0.36751000  0.43732000  1.0
  H  H11  1  0.14476000  0.63204000  0.56335000  1.0
  H  H12  1  0.13282000  0.64187000  0.25831000  1.0
  H  H13  1  0.49739000  0.80823000  0.05060000  1.0
  H  H14  1  0.10875000  0.48099000  0.26188000  1.0
  H  H15  1  0.01292000  0.47866000  0.16344000  1.0
  H  H16  1  0.91594000  0.58110000  0.20722000  1.0
  H  H17  1  0.03983000  0.63858000  0.15866000  1.0
  H  H18  1  0.13629000  0.35863000  0.74207000  1.0
  H  H19  1  0.11198000  0.51955000  0.73884000  1.0
  H  H20  1  0.01681000  0.52115000  0.83738000  1.0
  H  H21  1  0.91977000  0.41914000  0.79354000  1.0
  H  H22  1  0.04408000  0.36115000  0.84184000  1.0
  H  H23  1  0.49459000  0.19737000  0.05616000  1.0
  H  H24  1  0.49751000  0.80135000  0.94375000  1.0
  H  H25  1  0.72409000  0.48822000  0.21440000  1.0
  H  H26  1  0.72790000  0.50986000  0.78506000  1.0
  H  H27  1  0.72645000  0.49638000  0.32071000  1.0
  H  H28  1  0.72881000  0.50270000  0.67875000  1.0
  H  H29  1  0.28251000  0.54360000  0.32141000  1.0
  C  C30  1  0.51880000  0.26291000  0.49119000  1.0
  C  C31  1  0.38052000  0.46804000  0.70306000  1.0
  C  C32  1  0.37659000  0.52894000  0.23820000  1.0
  C  C33  1  0.38002000  0.47070000  0.76197000  1.0
  C  C34  1  0.50357000  0.51330000  0.20923000  1.0
  C  C35  1  0.50741000  0.48560000  0.79069000  1.0
  C  C36  1  0.64472000  0.06281000  0.49495000  1.0
  C  C37  1  0.39204000  0.93842000  0.50451000  1.0
  C  C38  1  0.64466000  0.93712000  0.49995000  1.0
  C  C39  1  0.39209000  0.06413000  0.49949000  1.0
  C  C40  1  0.51829000  0.87403000  0.50481000  1.0
  C  C41  1  0.51836000  0.73839000  0.50854000  1.0
  C  C42  1  0.51841000  0.12722000  0.49467000  1.0
  C  C43  1  0.93825000  0.57425000  0.53496000  1.0
  C  C44  1  0.08434000  0.42694000  0.46493000  1.0
  C  C45  1  0.93907000  0.42658000  0.46490000  1.0
  C  C46  1  0.08352000  0.57391000  0.53531000  1.0
  C  C47  1  0.50337000  0.51927000  0.38954000  1.0
  C  C48  1  0.50459000  0.48158000  0.61037000  1.0
  C  C49  1  0.50072000  0.60549000  0.87713000  1.0
  C  C50  1  0.49601000  0.39327000  0.12280000  1.0
  C  C51  1  0.50344000  0.37734000  0.87925000  1.0
  C  C52  1  0.62827000  0.50148000  0.23839000  1.0
  C  C53  1  0.50000000  0.62140000  0.12068000  1.0
  C  C54  1  0.49945000  0.38342000  0.94170000  1.0
  C  C55  1  0.49762000  0.61529000  0.05822000  1.0
  C  C56  1  0.49853000  0.49739000  0.96993000  1.0
  C  C57  1  0.49741000  0.50133000  0.02999000  1.0
  C  C58  1  0.49884000  0.60755000  0.93964000  1.0
  C  C59  1  0.49620000  0.39118000  0.06029000  1.0
  C  C60  1  0.49781000  0.27665000  0.97240000  1.0
  C  C61  1  0.49734000  0.72208000  0.02752000  1.0
  C  C62  1  0.49590000  0.28051000  0.03159000  1.0
  C  C63  1  0.63174000  0.49720000  0.76127000  1.0
  C  C64  1  0.49771000  0.71822000  0.96833000  1.0
  C  C65  1  0.12872000  0.55718000  0.23308000  1.0
  C  C66  1  0.01808000  0.56403000  0.18772000  1.0
  C  C67  1  0.13227000  0.44310000  0.76746000  1.0
  C  C68  1  0.02201000  0.43598000  0.81295000  1.0
  C  C69  1  0.62973000  0.50529000  0.29707000  1.0
  C  C70  1  0.63239000  0.49390000  0.70258000  1.0
  C  C71  1  0.50412000  0.51996000  0.32635000  1.0
  C  C72  1  0.50636000  0.48014000  0.67355000  1.0
  C  C73  1  0.37789000  0.53217000  0.29711000  1.0
  N  N74  1  0.50704000  0.48967000  0.85129000  1.0
  N  N75  1  0.50278000  0.50905000  0.14864000  1.0
  N  N76  1  0.15472000  0.50047000  0.50020000  1.0
  N  N77  1  0.86787000  0.50042000  0.49983000  1.0
  O  O78  1  0.40080000  0.31661000  0.49036000  1.0
  O  O79  1  0.49160000  0.30080000  0.15124000  1.0
  O  O80  1  0.50501000  0.28118000  0.85256000  1.0
  O  O81  1  0.50123000  0.71755000  0.14737000  1.0
  O  O82  1  0.26070000  0.53869000  0.20540000  1.0
  O  O83  1  0.26447000  0.46116000  0.79497000  1.0
  O  O84  1  0.63679000  0.68543000  0.50899000  1.0
  O  O85  1  0.40026000  0.68518000  0.51004000  1.0
  O  O86  1  0.63737000  0.31534000  0.49027000  1.0
  O  O87  1  0.38492000  0.51972000  0.41407000  1.0
  O  O88  1  0.62222000  0.48370000  0.58530000  1.0
  O  O89  1  0.38570000  0.48182000  0.58620000  1.0
  O  O90  1  0.62142000  0.51693000  0.41425000  1.0
  O  O91  1  0.49802000  0.69803000  0.84870000  1.0
