# generated using pymatgen
data_Cd2H28C47(N3O)6
_symmetry_space_group_name_H-M   'P 1'
_cell_length_a   10.23790000
_cell_length_b   15.46930000
_cell_length_c   15.97401058
_cell_angle_alpha   89.20312564
_cell_angle_beta   71.51342367
_cell_angle_gamma   73.65930000
_symmetry_Int_Tables_number   1
_chemical_formula_structural   Cd2H28C47(N3O)6
_chemical_formula_sum   'Cd4 H56 C94 N36 O12'
_cell_volume   2294.49525110
_cell_formula_units_Z   2
loop_
 _symmetry_equiv_pos_site_id
 _symmetry_equiv_pos_as_xyz
  1  'x, y, z'
loop_
 _atom_site_type_symbol
 _atom_site_label
 _atom_site_symmetry_multiplicity
 _atom_site_fract_x
 _atom_site_fract_y
 _atom_site_fract_z
 _atom_site_occupancy
  Cd  Cd0  1  0.33875000  0.35940000  0.05729000  1.0
  Cd  Cd1  1  0.66125000  0.64060000  0.94271000  1.0
  Cd  Cd2  1  0.84378000  0.04883000  0.34958000  1.0
  Cd  Cd3  1  0.15622000  0.95117000  0.65043000  1.0
  H  H4  1  0.20823000  0.41373000  0.26831000  1.0
  H  H5  1  0.79176000  0.58627000  0.73170000  1.0
  H  H6  1  0.59098000  0.23183000  0.11637000  1.0
  H  H7  1  0.40903000  0.76817000  0.88363000  1.0
  H  H8  1  0.24800000  0.27374000  0.52957000  1.0
  H  H9  1  0.75200000  0.72626000  0.47043000  1.0
  H  H10  1  0.69575000  0.57358000  0.27804000  1.0
  H  H11  1  0.30426000  0.42643000  0.72196000  1.0
  H  H12  1  0.45677000  0.05899000  0.67490000  1.0
  H  H13  1  0.54324000  0.94100000  0.32510000  1.0
  H  H14  1  0.95355000  0.67535000  0.04658000  1.0
  H  H15  1  0.04643000  0.32464000  0.95343000  1.0
  H  H16  1  0.71494000  0.26076000  0.41238000  1.0
  H  H17  1  0.28507000  0.73924000  0.58761000  1.0
  H  H18  1  0.10074000  0.11477000  0.22884000  1.0
  H  H19  1  0.89927000  0.88523000  0.77116000  1.0
  H  H20  1  0.15489000  0.25314000  0.16811000  1.0
  H  H21  1  0.84513000  0.74686000  0.83189000  1.0
  H  H22  1  0.24439000  0.15890000  0.85855000  1.0
  H  H23  1  0.75558000  0.84111000  0.14145000  1.0
  H  H24  1  0.20515000  0.89553000  0.92638000  1.0
  H  H25  1  0.79485000  0.10448000  0.07362000  1.0
  H  H26  1  0.86311000  0.84818000  0.61986000  1.0
  H  H27  1  0.13690000  0.15181000  0.38013000  1.0
  H  H28  1  0.41350000  0.81050000  0.22552000  1.0
  H  H29  1  0.58652000  0.18949000  0.77447000  1.0
  H  H30  1  0.93923000  0.24692000  0.80141000  1.0
  H  H31  1  0.06076000  0.75310000  0.19859000  1.0
  H  H32  1  0.74789000  0.40754000  0.35639000  1.0
  H  H33  1  0.25214000  0.59246000  0.64360000  1.0
  H  H34  1  0.75834000  0.46467000  0.66197000  1.0
  H  H35  1  0.24167000  0.53533000  0.33802000  1.0
  H  H36  1  0.16513000  0.21054000  0.67383000  1.0
  H  H37  1  0.83487000  0.78947000  0.32618000  1.0
  H  H38  1  0.61692000  0.92914000  0.72579000  1.0
  H  H39  1  0.38309000  0.07084000  0.27421000  1.0
  H  H40  1  0.52862000  0.56383000  0.41331000  1.0
  H  H41  1  0.47139000  0.43617000  0.58668000  1.0
  H  H42  1  0.35799000  0.61528000  0.83015000  1.0
  H  H43  1  0.64200000  0.38472000  0.16985000  1.0
  H  H44  1  0.99423000  0.41982000  0.53845000  1.0
  H  H45  1  0.00578000  0.58019000  0.46155000  1.0
  H  H46  1  0.23527000  0.35171000  0.40808000  1.0
  H  H47  1  0.76472000  0.64828000  0.59192000  1.0
  H  H48  1  0.64244000  0.16551000  0.24906000  1.0
  H  H49  1  0.35756000  0.83449000  0.75094000  1.0
  H  H50  1  0.65287000  0.68962000  0.18220000  1.0
  H  H51  1  0.34713000  0.31038000  0.81780000  1.0
  H  H52  1  0.28257000  0.68017000  0.46630000  1.0
  H  H53  1  0.71744000  0.31983000  0.53370000  1.0
  H  H54  1  0.34869000  0.04633000  0.08556000  1.0
  H  H55  1  0.65132000  0.95368000  0.91443000  1.0
  H  H56  1  0.28688000  0.76038000  0.08111000  1.0
  H  H57  1  0.71314000  0.23962000  0.91889000  1.0
  H  H58  1  0.10892000  0.71944000  0.90686000  1.0
  H  H59  1  0.89106000  0.28055000  0.09314000  1.0
  C  C60  1  0.19338000  0.01064000  0.80014000  1.0
  C  C61  1  0.80661000  0.98936000  0.19986000  1.0
  C  C62  1  0.30227000  0.35850000  0.26737000  1.0
  C  C63  1  0.69771000  0.64150000  0.73264000  1.0
  C  C64  1  0.51646000  0.25777000  0.18256000  1.0
  C  C65  1  0.48353000  0.74224000  0.81745000  1.0
  C  C66  1  0.48308000  0.45840000  0.89460000  1.0
  C  C67  1  0.51691000  0.54161000  0.10541000  1.0
  C  C68  1  0.96925000  0.42609000  0.21553000  1.0
  C  C69  1  0.03077000  0.57390000  0.78447000  1.0
  C  C70  1  0.62005000  0.05017000  0.54735000  1.0
  C  C71  1  0.37997000  0.94983000  0.45264000  1.0
  C  C72  1  0.82981000  0.36077000  0.74287000  1.0
  C  C73  1  0.17018000  0.63924000  0.25713000  1.0
  C  C74  1  0.56610000  0.02414000  0.63271000  1.0
  C  C75  1  0.43390000  0.97586000  0.36729000  1.0
  C  C76  1  0.69334000  0.38703000  0.81514000  1.0
  C  C77  1  0.30665000  0.61298000  0.18486000  1.0
  C  C78  1  0.46084000  0.21038000  0.42032000  1.0
  C  C79  1  0.53917000  0.78961000  0.57968000  1.0
  C  C80  1  0.12141000  0.55344000  0.04724000  1.0
  C  C81  1  0.87858000  0.44655000  0.95275000  1.0
  C  C82  1  0.03762000  0.51786000  0.12403000  1.0
  C  C83  1  0.96239000  0.48213000  0.87596000  1.0
  C  C84  1  0.53391000  0.12344000  0.51123000  1.0
  C  C85  1  0.46610000  0.87655000  0.48877000  1.0
  C  C86  1  0.19285000  0.82404000  0.38050000  1.0
  C  C87  1  0.80715000  0.17597000  0.61950000  1.0
  C  C88  1  0.44228000  0.25256000  0.34102000  1.0
  C  C89  1  0.55772000  0.74744000  0.65898000  1.0
  C  C90  1  0.33163000  0.75621000  0.35169000  1.0
  C  C91  1  0.66837000  0.24379000  0.64831000  1.0
  C  C92  1  0.83899000  0.93736000  0.51807000  1.0
  C  C93  1  0.16103000  0.06263000  0.48193000  1.0
  C  C94  1  0.06435000  0.63447000  0.01382000  1.0
  C  C95  1  0.93564000  0.36553000  0.98619000  1.0
  C  C96  1  0.29292000  0.11323000  0.97664000  1.0
  C  C97  1  0.70706000  0.88678000  0.02336000  1.0
  C  C98  1  0.81091000  0.26286000  0.35868000  1.0
  C  C99  1  0.18910000  0.73716000  0.64132000  1.0
  C  C100  1  0.98175000  0.89886000  0.45334000  1.0
  C  C101  1  0.01825000  0.10113000  0.54666000  1.0
  C  C102  1  0.02635000  0.18114000  0.25681000  1.0
  C  C103  1  0.97366000  0.81885000  0.74319000  1.0
  C  C104  1  0.05562000  0.25916000  0.22259000  1.0
  C  C105  1  0.94442000  0.74082000  0.77741000  1.0
  C  C106  1  0.22381000  0.02506000  0.88330000  1.0
  C  C107  1  0.77618000  0.97495000  0.11669000  1.0
  C  C108  1  0.31560000  0.19993000  0.99925000  1.0
  C  C109  1  0.68439000  0.80008000  0.00073000  1.0
  C  C110  1  0.25255000  0.10429000  0.90214000  1.0
  C  C111  1  0.74743000  0.89572000  0.09786000  1.0
  C  C112  1  0.23273000  0.95555000  0.94003000  1.0
  C  C113  1  0.76726000  0.04445000  0.05997000  1.0
  C  C114  1  0.95391000  0.34353000  0.25661000  1.0
  C  C115  1  0.04614000  0.65646000  0.74338000  1.0
  C  C116  1  0.79143000  0.90605000  0.60174000  1.0
  C  C117  1  0.20857000  0.09395000  0.39826000  1.0
  C  C118  1  0.43656000  0.75846000  0.26999000  1.0
  C  C119  1  0.56345000  0.24153000  0.73001000  1.0
  C  C120  1  0.94623000  0.28763000  0.74495000  1.0
  C  C121  1  0.05376000  0.71238000  0.25505000  1.0
  C  C122  1  0.82990000  0.34403000  0.32762000  1.0
  C  C123  1  0.17012000  0.65598000  0.67237000  1.0
  C  C124  1  0.84780000  0.40906000  0.66677000  1.0
  C  C125  1  0.15220000  0.59094000  0.33322000  1.0
  C  C126  1  0.33994000  0.52255000  0.93174000  1.0
  C  C127  1  0.66005000  0.47745000  0.06827000  1.0
  C  C128  1  0.07325000  0.26707000  0.67356000  1.0
  C  C129  1  0.92674000  0.73293000  0.32645000  1.0
  C  C130  1  0.65493000  0.95101000  0.65954000  1.0
  C  C131  1  0.34507000  0.04898000  0.34046000  1.0
  C  C132  1  0.49647000  0.62079000  0.37599000  1.0
  C  C133  1  0.50353000  0.37922000  0.62401000  1.0
  C  C134  1  0.28916000  0.60079000  0.89268000  1.0
  C  C135  1  0.71082000  0.39921000  0.10732000  1.0
  C  C136  1  0.97830000  0.38371000  0.59851000  1.0
  C  C137  1  0.02170000  0.61629000  0.40149000  1.0
  C  C138  1  0.31904000  0.32381000  0.34524000  1.0
  C  C139  1  0.68094000  0.67619000  0.65477000  1.0
  C  C140  1  0.54390000  0.22023000  0.25711000  1.0
  C  C141  1  0.45610000  0.77977000  0.74288000  1.0
  C  C142  1  0.27963000  0.96223000  0.01213000  1.0
  C  C143  1  0.72037000  0.03777000  0.98787000  1.0
  C  C144  1  0.56775000  0.69213000  0.24479000  1.0
  C  C145  1  0.43225000  0.30787000  0.75522000  1.0
  C  C146  1  0.36386000  0.68473000  0.40458000  1.0
  C  C147  1  0.63615000  0.31527000  0.59542000  1.0
  C  C148  1  0.31041000  0.04120000  0.03005000  1.0
  C  C149  1  0.68957000  0.95881000  0.96995000  1.0
  C  C150  1  0.15078000  0.65754000  0.93540000  1.0
  C  C151  1  0.84920000  0.34246000  0.06460000  1.0
  C  C152  1  0.30537000  0.88443000  0.06711000  1.0
  C  C153  1  0.69465000  0.11557000  0.93288000  1.0
  N  N154  1  0.57470000  0.14319000  0.42491000  1.0
  N  N155  1  0.42529000  0.85681000  0.57510000  1.0
  N  N156  1  0.08381000  0.43229000  0.14642000  1.0
  N  N157  1  0.91620000  0.56771000  0.85359000  1.0
  N  N158  1  0.75270000  0.00822000  0.49248000  1.0
  N  N159  1  0.24731000  0.99177000  0.50752000  1.0
  N  N160  1  0.65966000  0.33836000  0.88596000  1.0
  N  N161  1  0.34035000  0.66165000  0.11404000  1.0
  N  N162  1  0.58504000  0.46293000  0.81822000  1.0
  N  N163  1  0.41494000  0.53707000  0.18178000  1.0
  N  N164  1  0.08689000  0.82647000  0.45900000  1.0
  N  N165  1  0.91312000  0.17353000  0.54100000  1.0
  N  N166  1  0.52534000  0.38411000  0.93662000  1.0
  N  N167  1  0.47465000  0.61589000  0.06338000  1.0
  N  N168  1  0.40338000  0.17533000  0.55983000  1.0
  N  N169  1  0.59663000  0.82467000  0.44018000  1.0
  N  N170  1  0.35893000  0.22988000  0.50182000  1.0
  N  N171  1  0.64108000  0.77012000  0.49818000  1.0
  N  N172  1  0.86085000  0.50479000  0.23491000  1.0
  N  N173  1  0.13915000  0.49521000  0.76510000  1.0
  N  N174  1  0.02191000  0.93848000  0.37610000  1.0
  N  N175  1  0.97808000  0.06151000  0.62390000  1.0
  N  N176  1  0.25624000  0.50044000  0.00741000  1.0
  N  N177  1  0.74375000  0.49956000  0.99260000  1.0
  N  N178  1  0.90596000  0.18218000  0.32374000  1.0
  N  N179  1  0.09403000  0.81782000  0.67627000  1.0
  N  N180  1  0.90408000  0.56317000  0.17625000  1.0
  N  N181  1  0.09591000  0.43682000  0.82376000  1.0
  N  N182  1  0.09043000  0.31434000  0.60117000  1.0
  N  N183  1  0.90956000  0.68566000  0.39884000  1.0
  N  N184  1  0.15609000  0.89147000  0.32936000  1.0
  N  N185  1  0.84392000  0.10852000  0.67063000  1.0
  N  N186  1  0.59509000  0.62547000  0.29802000  1.0
  N  N187  1  0.40492000  0.37453000  0.70198000  1.0
  N  N188  1  0.39816000  0.32599000  0.18707000  1.0
  N  N189  1  0.60182000  0.67402000  0.81294000  1.0
  O  O190  1  0.21308000  0.06372000  0.73935000  1.0
  O  O191  1  0.78691000  0.93628000  0.26065000  1.0
  O  O192  1  0.15471000  0.93955000  0.79193000  1.0
  O  O193  1  0.84528000  0.06045000  0.20807000  1.0
  O  O194  1  0.36463000  0.20358000  0.06327000  1.0
  O  O195  1  0.63534000  0.79643000  0.93672000  1.0
  O  O196  1  0.26026000  0.81656000  0.04696000  1.0
  O  O197  1  0.73974000  0.18344000  0.95305000  1.0
  O  O198  1  0.36482000  0.88356000  0.12315000  1.0
  O  O199  1  0.63520000  0.11645000  0.87685000  1.0
  O  O200  1  0.27982000  0.26873000  0.95760000  1.0
  O  O201  1  0.72015000  0.73128000  0.04239000  1.0
