# generated using pymatgen
data_CuH24(C6N)4
_symmetry_space_group_name_H-M   'P 1'
_cell_length_a   12.95306322
_cell_length_b   12.95590000
_cell_length_c   20.92992742
_cell_angle_alpha   99.15761741
_cell_angle_beta   99.01321250
_cell_angle_gamma   118.11452852
_symmetry_Int_Tables_number   1
_chemical_formula_structural   CuH24(C6N)4
_chemical_formula_sum   'Cu4 H96 C96 N16'
_cell_volume   2948.28023590
_cell_formula_units_Z   4
loop_
 _symmetry_equiv_pos_site_id
 _symmetry_equiv_pos_as_xyz
  1  'x, y, z'
loop_
 _atom_site_type_symbol
 _atom_site_label
 _atom_site_symmetry_multiplicity
 _atom_site_fract_x
 _atom_site_fract_y
 _atom_site_fract_z
 _atom_site_occupancy
  Cu  Cu0  1  0.99823000  0.49243000  0.49518000  1.0
  Cu  Cu1  1  0.99238000  0.50053000  0.99612000  1.0
  Cu  Cu2  1  0.99453000  0.98994000  0.99400000  1.0
  Cu  Cu3  1  0.51437000  0.50951000  0.51132000  1.0
  H  H4  1  0.13369000  0.83077000  0.64115000  1.0
  H  H5  1  0.35339000  0.98252000  0.69150000  1.0
  H  H6  1  0.42500000  0.68847000  0.64993000  1.0
  H  H7  1  0.20203000  0.54898000  0.60099000  1.0
  H  H8  1  0.56538000  0.02367000  0.69867000  1.0
  H  H9  1  0.59777000  0.90484000  0.69373000  1.0
  H  H10  1  0.93791000  0.14676000  0.07300000  1.0
  H  H11  1  0.74946000  0.13661000  0.09067000  1.0
  H  H12  1  0.54694000  0.80677000  0.92796000  1.0
  H  H13  1  0.74404000  0.83106000  0.91510000  1.0
  H  H14  1  0.43722000  0.86664000  0.00093000  1.0
  H  H15  1  0.51977000  0.99212000  0.07320000  1.0
  H  H16  1  0.04668000  0.47315000  0.36505000  1.0
  H  H17  1  0.09484000  0.60554000  0.28738000  1.0
  H  H18  1  0.12184000  0.88693000  0.44380000  1.0
  H  H19  1  0.07528000  0.74544000  0.51515000  1.0
  H  H20  1  0.11174000  0.78241000  0.25907000  1.0
  H  H21  1  0.21440000  0.91639000  0.32299000  1.0
  H  H22  1  0.87280000  0.87707000  0.08699000  1.0
  H  H23  1  0.86283000  0.77778000  0.18064000  1.0
  H  H24  1  0.19174000  0.10619000  0.29941000  1.0
  H  H25  1  0.18748000  0.19089000  0.20035000  1.0
  H  H26  1  0.93777000  0.79595000  0.29724000  1.0
  H  H27  1  0.04828000  0.93926000  0.35280000  1.0
  H  H28  1  0.68060000  0.36900000  0.86399000  1.0
  H  H29  1  0.52442000  0.15101000  0.81242000  1.0
  H  H30  1  0.81170000  0.06877000  0.84864000  1.0
  H  H31  1  0.95572000  0.29020000  0.89973000  1.0
  H  H32  1  0.47737000  0.93657000  0.80208000  1.0
  H  H33  1  0.59344000  0.90030000  0.80589000  1.0
  H  H34  1  0.35528000  0.56194000  0.43042000  1.0
  H  H35  1  0.36351000  0.74830000  0.41038000  1.0
  H  H36  1  0.69445000  0.95686000  0.57189000  1.0
  H  H37  1  0.67243000  0.76181000  0.58700000  1.0
  H  H38  1  0.63271000  0.06268000  0.49788000  1.0
  H  H39  1  0.50651000  0.97858000  0.42613000  1.0
  H  H40  1  0.01998000  0.45355000  0.12685000  1.0
  H  H41  1  0.89209000  0.40435000  0.20695000  1.0
  H  H42  1  0.60707000  0.38425000  0.05682000  1.0
  H  H43  1  0.74398000  0.43223000  0.98317000  1.0
  H  H44  1  0.71874000  0.39201000  0.23986000  1.0
  H  H45  1  0.58368000  0.28676000  0.17729000  1.0
  H  H46  1  0.61676000  0.62127000  0.41397000  1.0
  H  H47  1  0.71742000  0.63359000  0.32063000  1.0
  H  H48  1  0.38916000  0.30699000  0.19958000  1.0
  H  H49  1  0.30304000  0.30877000  0.29844000  1.0
  H  H50  1  0.69833000  0.56288000  0.20283000  1.0
  H  H51  1  0.55558000  0.45053000  0.14754000  1.0
  H  H52  1  0.86569000  0.18013000  0.36463000  1.0
  H  H53  1  0.64742000  0.02497000  0.31342000  1.0
  H  H54  1  0.56818000  0.31467000  0.34799000  1.0
  H  H55  1  0.78976000  0.45766000  0.39882000  1.0
  H  H56  1  0.43327000  0.97980000  0.30225000  1.0
  H  H57  1  0.39835000  0.09678000  0.30550000  1.0
  H  H58  1  0.06361000  0.84016000  0.91871000  1.0
  H  H59  1  0.25869000  0.86240000  0.90541000  1.0
  H  H60  1  0.44179000  0.18567000  0.07229000  1.0
  H  H61  1  0.23822000  0.14851000  0.08084000  1.0
  H  H62  1  0.56282000  0.13633000  0.00136000  1.0
  H  H63  1  0.48582000  0.01235000  0.92823000  1.0
  H  H64  1  0.95208000  0.52132000  0.62625000  1.0
  H  H65  1  0.90572000  0.39534000  0.70722000  1.0
  H  H66  1  0.88766000  0.10999000  0.55788000  1.0
  H  H67  1  0.93202000  0.24467000  0.48326000  1.0
  H  H68  1  0.90160000  0.22596000  0.74160000  1.0
  H  H69  1  0.78873000  0.09152000  0.68110000  1.0
  H  H70  1  0.13639000  0.11883000  0.90963000  1.0
  H  H71  1  0.14271000  0.21489000  0.81486000  1.0
  H  H72  1  0.80044000  0.89374000  0.70413000  1.0
  H  H73  1  0.80945000  0.81073000  0.80346000  1.0
  H  H74  1  0.06130000  0.19195000  0.69788000  1.0
  H  H75  1  0.94126000  0.04969000  0.64584000  1.0
  H  H76  1  0.32868000  0.63515000  0.14060000  1.0
  H  H77  1  0.48089000  0.85484000  0.19057000  1.0
  H  H78  1  0.18711000  0.92706000  0.15060000  1.0
  H  H79  1  0.04718000  0.70411000  0.10199000  1.0
  H  H80  1  0.52261000  0.06701000  0.19897000  1.0
  H  H81  1  0.40394000  0.09974000  0.19353000  1.0
  H  H82  1  0.66259000  0.43679000  0.58448000  1.0
  H  H83  1  0.63808000  0.24010000  0.59578000  1.0
  H  H84  1  0.31682000  0.06218000  0.42811000  1.0
  H  H85  1  0.35639000  0.26738000  0.42157000  1.0
  H  H86  1  0.36336000  0.93816000  0.49815000  1.0
  H  H87  1  0.48702000  0.01364000  0.57129000  1.0
  H  H88  1  0.97243000  0.54836000  0.86602000  1.0
  H  H89  1  0.10401000  0.59567000  0.78781000  1.0
  H  H90  1  0.38496000  0.62019000  0.94303000  1.0
  H  H91  1  0.24454000  0.57524000  0.01497000  1.0
  H  H92  1  0.27766000  0.60581000  0.75802000  1.0
  H  H93  1  0.41082000  0.71602000  0.82025000  1.0
  H  H94  1  0.37720000  0.36190000  0.59083000  1.0
  H  H95  1  0.28293000  0.35760000  0.68629000  1.0
  H  H96  1  0.60447000  0.70131000  0.79490000  1.0
  H  H97  1  0.68540000  0.69056000  0.69485000  1.0
  H  H98  1  0.30486000  0.44251000  0.80223000  1.0
  H  H99  1  0.44777000  0.56088000  0.85453000  1.0
  C  C100  1  0.20089000  0.80194000  0.64396000  1.0
  C  C101  1  0.32367000  0.88670000  0.67237000  1.0
  C  C102  1  0.40828000  0.84793000  0.67607000  1.0
  C  C103  1  0.36374000  0.72419000  0.64936000  1.0
  C  C104  1  0.23904000  0.64617000  0.62198000  1.0
  C  C105  1  0.53964000  0.93696000  0.71124000  1.0
  C  C106  1  0.84941000  0.07359000  0.04179000  1.0
  C  C107  1  0.74364000  0.06543000  0.05188000  1.0
  C  C108  1  0.62943000  0.96622000  0.01303000  1.0
  C  C109  1  0.63176000  0.88307000  0.96152000  1.0
  C  C110  1  0.74073000  0.89606000  0.95360000  1.0
  C  C111  1  0.51472000  0.96025000  0.02015000  1.0
  C  C112  1  0.06556000  0.56593000  0.38045000  1.0
  C  C113  1  0.09150000  0.64033000  0.33762000  1.0
  C  C114  1  0.11066000  0.75845000  0.35746000  1.0
  C  C115  1  0.10640000  0.79629000  0.42377000  1.0
  C  C116  1  0.07977000  0.71788000  0.46422000  1.0
  C  C117  1  0.12318000  0.83453000  0.30918000  1.0
  C  C118  1  0.94237000  0.92508000  0.13495000  1.0
  C  C119  1  0.93690000  0.87007000  0.18729000  1.0
  C  C120  1  0.02686000  0.93374000  0.24845000  1.0
  C  C121  1  0.11917000  0.05171000  0.25307000  1.0
  C  C122  1  0.11713000  0.09889000  0.19776000  1.0
  C  C123  1  0.02798000  0.87568000  0.30464000  1.0
  C  C124  1  0.70681000  0.29983000  0.86001000  1.0
  C  C125  1  0.61964000  0.17798000  0.83069000  1.0
  C  C126  1  0.65513000  0.09087000  0.82495000  1.0
  C  C127  1  0.77847000  0.13212000  0.85071000  1.0
  C  C128  1  0.85899000  0.25593000  0.87928000  1.0
  C  C129  1  0.56351000  0.96036000  0.78912000  1.0
  C  C130  1  0.42828000  0.65125000  0.46080000  1.0
  C  C131  1  0.43529000  0.75587000  0.44941000  1.0
  C  C132  1  0.53413000  0.87103000  0.48727000  1.0
  C  C133  1  0.61828000  0.87111000  0.53912000  1.0
  C  C134  1  0.60651000  0.76327000  0.54829000  1.0
  C  C135  1  0.53916000  0.98492000  0.47925000  1.0
  C  C136  1  0.92747000  0.43598000  0.11351000  1.0
  C  C137  1  0.85557000  0.40964000  0.15768000  1.0
  C  C138  1  0.73781000  0.39228000  0.14043000  1.0
  C  C139  1  0.69767000  0.39859000  0.07508000  1.0
  C  C140  1  0.77364000  0.42583000  0.03325000  1.0
  C  C141  1  0.66410000  0.37884000  0.19017000  1.0
  C  C142  1  0.56911000  0.55276000  0.36560000  1.0
  C  C143  1  0.62491000  0.55947000  0.31344000  1.0
  C  C144  1  0.56165000  0.47090000  0.25177000  1.0
  C  C145  1  0.44330000  0.37846000  0.24641000  1.0
  C  C146  1  0.39537000  0.37917000  0.30160000  1.0
  C  C147  1  0.62002000  0.47172000  0.19547000  1.0
  C  C148  1  0.79712000  0.20715000  0.36045000  1.0
  C  C149  1  0.67508000  0.12050000  0.33135000  1.0
  C  C150  1  0.58869000  0.15690000  0.32517000  1.0
  C  C151  1  0.63084000  0.28062000  0.35042000  1.0
  C  C152  1  0.75474000  0.36063000  0.37885000  1.0
  C  C153  1  0.45813000  0.06595000  0.28916000  1.0
  C  C154  1  0.14940000  0.91491000  0.95177000  1.0
  C  C155  1  0.25877000  0.92975000  0.94414000  1.0
  C  C156  1  0.36946000  0.03064000  0.98551000  1.0
  C  C157  1  0.36007000  0.10834000  0.03690000  1.0
  C  C158  1  0.24771000  0.08864000  0.04233000  1.0
  C  C159  1  0.48726000  0.04185000  0.98085000  1.0
  C  C160  1  0.93530000  0.42905000  0.61321000  1.0
  C  C161  1  0.91059000  0.35822000  0.65789000  1.0
  C  C162  1  0.89459000  0.24090000  0.64115000  1.0
  C  C163  1  0.90049000  0.20011000  0.57576000  1.0
  C  C164  1  0.92588000  0.27499000  0.53336000  1.0
  C  C165  1  0.88229000  0.16852000  0.69147000  1.0
  C  C166  1  0.06311000  0.07162000  0.86311000  1.0
  C  C167  1  0.06642000  0.12488000  0.81022000  1.0
  C  C168  1  0.97160000  0.06203000  0.75085000  1.0
  C  C169  1  0.87691000  0.94708000  0.74888000  1.0
  C  C170  1  0.88137000  0.90102000  0.80448000  1.0
  C  C171  1  0.96943000  0.11764000  0.69367000  1.0
  C  C172  1  0.30001000  0.70249000  0.14368000  1.0
  C  C173  1  0.38506000  0.82532000  0.17192000  1.0
  C  C174  1  0.34653000  0.91013000  0.17606000  1.0
  C  C175  1  0.22269000  0.86568000  0.14984000  1.0
  C  C176  1  0.14440000  0.74099000  0.12257000  1.0
  C  C177  1  0.43565000  0.04156000  0.21123000  1.0
  C  C178  1  0.58770000  0.35174000  0.55076000  1.0
  C  C179  1  0.57162000  0.24147000  0.55727000  1.0
  C  C180  1  0.47066000  0.13175000  0.51506000  1.0
  C  C181  1  0.39419000  0.14311000  0.46410000  1.0
  C  C182  1  0.41517000  0.25639000  0.45983000  1.0
  C  C183  1  0.45805000  0.01307000  0.51882000  1.0
  C  C184  1  0.06505000  0.56679000  0.88106000  1.0
  C  C185  1  0.13895000  0.59210000  0.83790000  1.0
  C  C186  1  0.25682000  0.61044000  0.85725000  1.0
  C  C187  1  0.29470000  0.60578000  0.92338000  1.0
  C  C188  1  0.21674000  0.57994000  0.96417000  1.0
  C  C189  1  0.33232000  0.62300000  0.80853000  1.0
  C  C190  1  0.42479000  0.43601000  0.63703000  1.0
  C  C191  1  0.37262000  0.43381000  0.69033000  1.0
  C  C192  1  0.43595000  0.52976000  0.74933000  1.0
  C  C193  1  0.55056000  0.62419000  0.75047000  1.0
  C  C194  1  0.59555000  0.61875000  0.69450000  1.0
  C  C195  1  0.38063000  0.53362000  0.80656000  1.0
  N  N196  1  0.15759000  0.68284000  0.61916000  1.0
  N  N197  1  0.85097000  0.98837000  0.99430000  1.0
  N  N198  1  0.05611000  0.60144000  0.44363000  1.0
  N  N199  1  0.03109000  0.03798000  0.13919000  1.0
  N  N200  1  0.82545000  0.33989000  0.88403000  1.0
  N  N201  1  0.51444000  0.65190000  0.50863000  1.0
  N  N202  1  0.88981000  0.44778000  0.05141000  1.0
  N  N203  1  0.45584000  0.46392000  0.36065000  1.0
  N  N204  1  0.83804000  0.32617000  0.38397000  1.0
  N  N205  1  0.14100000  0.99507000  0.99909000  1.0
  N  N206  1  0.94653000  0.39076000  0.55101000  1.0
  N  N207  1  0.97239000  0.96110000  0.86125000  1.0
  N  N208  1  0.18088000  0.65933000  0.11940000  1.0
  N  N209  1  0.50879000  0.36203000  0.50381000  1.0
  N  N210  1  0.10072000  0.55735000  0.94409000  1.0
  N  N211  1  0.53487000  0.52671000  0.63802000  1.0
