# generated using pymatgen
data_Li2H8C9O5
_symmetry_space_group_name_H-M   'P 1'
_cell_length_a   7.47224000
_cell_length_b   9.99648000
_cell_length_c   13.47930000
_cell_angle_alpha   106.67900000
_cell_angle_beta   91.21150000
_cell_angle_gamma   103.51300000
_symmetry_Int_Tables_number   1
_chemical_formula_structural   Li2H8C9O5
_chemical_formula_sum   'Li8 H32 C36 O20'
_cell_volume   933.57570960
_cell_formula_units_Z   4
loop_
 _symmetry_equiv_pos_site_id
 _symmetry_equiv_pos_as_xyz
  1  'x, y, z'
loop_
 _atom_site_type_symbol
 _atom_site_label
 _atom_site_symmetry_multiplicity
 _atom_site_fract_x
 _atom_site_fract_y
 _atom_site_fract_z
 _atom_site_occupancy
  Li  Li0  1  0.32021000  0.68757000  0.61213000  1.0
  Li  Li1  1  0.67979000  0.31242000  0.38787000  1.0
  Li  Li2  1  0.18432000  0.36676000  0.49554000  1.0
  Li  Li3  1  0.81568000  0.63324000  0.50446000  1.0
  Li  Li4  1  0.85570000  0.09949000  0.56008000  1.0
  Li  Li5  1  0.14430000  0.90051000  0.43992000  1.0
  Li  Li6  1  0.43033000  0.17102000  0.54293000  1.0
  Li  Li7  1  0.56967000  0.82898000  0.45707000  1.0
  H  H8  1  0.01691000  0.72465000  0.69478000  1.0
  H  H9  1  0.98309000  0.27536000  0.30522000  1.0
  H  H10  1  0.29697000  0.27826000  0.32988000  1.0
  H  H11  1  0.70303000  0.72174000  0.67012000  1.0
  H  H12  1  0.14821000  0.13437000  0.33769000  1.0
  H  H13  1  0.85180000  0.86563000  0.66231000  1.0
  H  H14  1  0.47404000  0.50683000  0.85368000  1.0
  H  H15  1  0.52597000  0.49317000  0.14632000  1.0
  H  H16  1  0.68277000  0.46653000  0.98222000  1.0
  H  H17  1  0.31723000  0.53347000  0.01778000  1.0
  H  H18  1  0.96971000  0.39036000  0.92735000  1.0
  H  H19  1  0.03029000  0.60964000  0.07265000  1.0
  H  H20  1  0.04304000  0.35405000  0.74299000  1.0
  H  H21  1  0.95696000  0.64595000  0.25701000  1.0
  H  H22  1  0.07713000  0.16224000  0.86055000  1.0
  H  H23  1  0.92287000  0.83776000  0.13945000  1.0
  H  H24  1  0.28804000  0.20785000  0.02044000  1.0
  H  H25  1  0.71196000  0.79215000  0.97956000  1.0
  H  H26  1  0.59241000  0.14727000  0.00190000  1.0
  H  H27  1  0.40759000  0.85273000  0.99810000  1.0
  H  H28  1  0.69153000  0.05120000  0.82588000  1.0
  H  H29  1  0.30847000  0.94880000  0.17412000  1.0
  H  H30  1  0.31415000  0.82752000  0.83898000  1.0
  H  H31  1  0.68585000  0.17247000  0.16102000  1.0
  H  H32  1  0.21693000  0.64527000  0.83443000  1.0
  H  H33  1  0.78306000  0.35472000  0.16557000  1.0
  H  H34  1  0.00442000  0.88185000  0.86956000  1.0
  H  H35  1  0.99558000  0.11815000  0.13044000  1.0
  H  H36  1  0.07745000  0.81232000  0.96632000  1.0
  H  H37  1  0.92255000  0.18768000  0.03368000  1.0
  H  H38  1  0.90743000  0.69830000  0.86384000  1.0
  H  H39  1  0.09257000  0.30170000  0.13616000  1.0
  C  C40  1  0.50218000  0.47621000  0.65376000  1.0
  C  C41  1  0.49783000  0.52379000  0.34624000  1.0
  C  C42  1  0.64049000  0.45345000  0.72665000  1.0
  C  C43  1  0.35951000  0.54655000  0.27335000  1.0
  C  C44  1  0.59955000  0.47342000  0.83015000  1.0
  C  C45  1  0.40045000  0.52659000  0.16986000  1.0
  C  C46  1  0.71686000  0.45090000  0.90210000  1.0
  C  C47  1  0.28314000  0.54910000  0.09790000  1.0
  C  C48  1  0.87754000  0.40816000  0.87131000  1.0
  C  C49  1  0.12246000  0.59184000  0.12869000  1.0
  C  C50  1  0.91907000  0.38807000  0.76877000  1.0
  C  C51  1  0.08093000  0.61194000  0.23123000  1.0
  C  C52  1  0.80215000  0.41057000  0.69568000  1.0
  C  C53  1  0.19785000  0.58943000  0.30432000  1.0
  C  C54  1  0.85102000  0.38458000  0.58547000  1.0
  C  C55  1  0.14899000  0.61542000  0.41453000  1.0
  C  C56  1  0.13700000  0.05782000  0.66136000  1.0
  C  C57  1  0.86300000  0.94218000  0.33864000  1.0
  C  C58  1  0.26631000  0.08376000  0.75524000  1.0
  C  C59  1  0.73369000  0.91624000  0.24476000  1.0
  C  C60  1  0.21280000  0.13910000  0.85480000  1.0
  C  C61  1  0.78720000  0.86090000  0.14521000  1.0
  C  C62  1  0.32986000  0.16348000  0.94342000  1.0
  C  C63  1  0.67013000  0.83652000  0.05658000  1.0
  C  C64  1  0.50126000  0.13015000  0.93292000  1.0
  C  C65  1  0.49874000  0.86986000  0.06708000  1.0
  C  C66  1  0.55646000  0.07518000  0.83446000  1.0
  C  C67  1  0.44353000  0.92482000  0.16554000  1.0
  C  C68  1  0.44057000  0.05274000  0.74522000  1.0
  C  C69  1  0.55943000  0.94726000  0.25478000  1.0
  C  C70  1  0.51205000  0.99811000  0.64158000  1.0
  C  C71  1  0.48795000  0.00189000  0.35842000  1.0
  C  C72  1  0.18600000  0.74026000  0.81862000  1.0
  C  C73  1  0.81400000  0.25974000  0.18138000  1.0
  C  C74  1  0.03440000  0.78572000  0.88299000  1.0
  C  C75  1  0.96560000  0.21428000  0.11700000  1.0
  O  O76  1  0.49247000  0.60540000  0.66775000  1.0
  O  O77  1  0.50753000  0.39460000  0.33225000  1.0
  O  O78  1  0.39574000  0.36594000  0.58885000  1.0
  O  O79  1  0.60426000  0.63406000  0.41115000  1.0
  O  O80  1  0.78458000  0.44559000  0.52784000  1.0
  O  O81  1  0.21542000  0.55441000  0.47216000  1.0
  O  O82  1  0.95431000  0.29827000  0.55385000  1.0
  O  O83  1  0.04569000  0.70172000  0.44615000  1.0
  O  O84  1  0.20456000  0.05141000  0.57430000  1.0
  O  O85  1  0.79543000  0.94859000  0.42570000  1.0
  O  O86  1  0.96532000  0.04425000  0.67216000  1.0
  O  O87  1  0.03468000  0.95575000  0.32784000  1.0
  O  O88  1  0.60810000  0.09300000  0.60531000  1.0
  O  O89  1  0.39190000  0.90700000  0.39469000  1.0
  O  O90  1  0.48357000  0.86314000  0.59888000  1.0
  O  O91  1  0.51643000  0.13685000  0.40112000  1.0
  O  O92  1  0.13684000  0.70287000  0.70893000  1.0
  O  O93  1  0.86316000  0.29713000  0.29107000  1.0
  O  O94  1  0.17366000  0.24032000  0.35211000  1.0
  O  O95  1  0.82634000  0.75968000  0.64789000  1.0
