# generated using pymatgen
data_Zn5H60C75(N3O2)6
_symmetry_space_group_name_H-M   'P 1'
_cell_length_a   19.13110000
_cell_length_b   20.84040000
_cell_length_c   23.74202676
_cell_angle_alpha   113.95988614
_cell_angle_beta   112.57523841
_cell_angle_gamma   93.57310000
_symmetry_Int_Tables_number   1
_chemical_formula_structural   Zn5H60C75(N3O2)6
_chemical_formula_sum   'Zn10 H120 C150 N36 O24'
_cell_volume   7715.71727150
_cell_formula_units_Z   2
loop_
 _symmetry_equiv_pos_site_id
 _symmetry_equiv_pos_as_xyz
  1  'x, y, z'
loop_
 _atom_site_type_symbol
 _atom_site_label
 _atom_site_symmetry_multiplicity
 _atom_site_fract_x
 _atom_site_fract_y
 _atom_site_fract_z
 _atom_site_occupancy
  Zn  Zn0  1  0.19906000  0.83150000  0.41725000  1.0
  Zn  Zn1  1  0.31198000  0.79644000  0.32460000  1.0
  Zn  Zn2  1  0.25240000  0.02172000  0.53479000  1.0
  Zn  Zn3  1  0.99876000  0.77566000  0.29998000  1.0
  Zn  Zn4  1  0.23582000  0.73689000  0.51937000  1.0
  Zn  Zn5  1  0.80094000  0.16850000  0.58275000  1.0
  Zn  Zn6  1  0.68802000  0.20355000  0.67540000  1.0
  Zn  Zn7  1  0.74759000  0.97828000  0.46520000  1.0
  Zn  Zn8  1  0.00124000  0.22434000  0.70002000  1.0
  Zn  Zn9  1  0.76418000  0.26310000  0.48063000  1.0
  H  H10  1  0.43984000  0.69439000  0.35233000  1.0
  H  H11  1  0.51432000  0.62520000  0.40905000  1.0
  H  H12  1  0.38111000  0.64726000  0.52464000  1.0
  H  H13  1  0.48191000  0.58398000  0.53872000  1.0
  H  H14  1  0.49071000  0.53429000  0.46172000  1.0
  H  H15  1  0.56197000  0.61613000  0.52802000  1.0
  H  H16  1  0.21369000  0.72353000  0.14270000  1.0
  H  H17  1  0.09604000  0.67737000  0.03031000  1.0
  H  H18  1  0.94157000  0.70859000  0.12692000  1.0
  H  H19  1  0.07725000  0.62262000  0.49401000  1.0
  H  H20  1  0.93473000  0.56229000  0.44238000  1.0
  H  H21  1  0.87294000  0.65548000  0.30256000  1.0
  H  H22  1  0.80238000  0.53697000  0.36701000  1.0
  H  H23  1  0.77538000  0.60906000  0.34863000  1.0
  H  H24  1  0.78441000  0.53181000  0.28610000  1.0
  H  H25  1  0.10817000  0.11266000  0.52428000  1.0
  H  H26  1  0.86363000  0.01789000  0.37623000  1.0
  H  H27  1  0.88742000  0.89698000  0.32202000  1.0
  H  H28  1  0.01674000  0.18690000  0.52540000  1.0
  H  H29  1  0.93939000  0.16269000  0.44281000  1.0
  H  H30  1  0.92089000  0.13848000  0.49989000  1.0
  H  H31  1  0.29139000  0.82985000  0.69358000  1.0
  H  H32  1  0.32516000  0.93979000  0.80407000  1.0
  H  H33  1  0.30317000  0.07939000  0.70746000  1.0
  H  H34  1  0.77175000  0.57194000  0.09191000  1.0
  H  H35  1  0.63697000  0.54066000  0.99940000  1.0
  H  H36  1  0.64013000  0.76822000  0.08242000  1.0
  H  H37  1  0.77598000  0.79798000  0.17597000  1.0
  H  H38  1  0.53484000  0.54087000  0.90661000  1.0
  H  H39  1  0.50984000  0.54073000  0.97198000  1.0
  H  H40  1  0.22823000  0.23754000  0.71889000  1.0
  H  H41  1  0.28350000  0.36890000  0.80190000  1.0
  H  H42  1  0.45001000  0.37953000  0.72240000  1.0
  H  H43  1  0.39421000  0.24647000  0.63978000  1.0
  H  H44  1  0.42350000  0.64782000  0.21145000  1.0
  H  H45  1  0.44333000  0.57451000  0.10801000  1.0
  H  H46  1  0.35231000  0.71635000  0.02262000  1.0
  H  H47  1  0.33741000  0.79036000  0.12773000  1.0
  H  H48  1  0.33318000  0.61331000  0.92251000  1.0
  H  H49  1  0.42872000  0.67508000  0.97580000  1.0
  H  H50  1  0.31406000  0.49226000  0.82836000  1.0
  H  H51  1  0.37636000  0.46789000  0.89088000  1.0
  H  H52  1  0.44989000  0.57167000  0.81943000  1.0
  H  H53  1  0.46703000  0.66053000  0.88715000  1.0
  H  H54  1  0.18306000  0.64355000  0.64479000  1.0
  H  H55  1  0.21438000  0.60730000  0.73856000  1.0
  H  H56  1  0.45935000  0.65656000  0.78680000  1.0
  H  H57  1  0.42680000  0.69370000  0.69468000  1.0
  H  H58  1  0.39829000  0.13162000  0.54382000  1.0
  H  H59  1  0.50076000  0.16305000  0.51160000  1.0
  H  H60  1  0.44886000  0.93958000  0.35933000  1.0
  H  H61  1  0.55318000  0.03070000  0.38009000  1.0
  H  H62  1  0.52838000  0.11519000  0.39629000  1.0
  H  H63  1  0.60006000  0.10585000  0.46431000  1.0
  H  H64  1  0.35129000  0.06460000  0.87238000  1.0
  H  H65  1  0.38478000  0.12373000  0.84573000  1.0
  H  H66  1  0.28497000  0.10320000  0.82808000  1.0
  H  H67  1  0.88742000  0.65991000  0.00419000  1.0
  H  H68  1  0.94764000  0.69882000  0.97874000  1.0
  H  H69  1  0.94232000  0.60851000  0.96571000  1.0
  H  H70  1  0.56016000  0.30560000  0.64766000  1.0
  H  H71  1  0.48567000  0.37479000  0.59094000  1.0
  H  H72  1  0.61890000  0.35275000  0.47536000  1.0
  H  H73  1  0.51810000  0.41603000  0.46129000  1.0
  H  H74  1  0.50929000  0.46570000  0.53828000  1.0
  H  H75  1  0.43804000  0.38388000  0.47199000  1.0
  H  H76  1  0.78631000  0.27646000  0.85730000  1.0
  H  H77  1  0.90398000  0.32264000  0.96970000  1.0
  H  H78  1  0.05842000  0.29139000  0.87307000  1.0
  H  H79  1  0.92275000  0.37739000  0.50600000  1.0
  H  H80  1  0.06526000  0.43771000  0.55762000  1.0
  H  H81  1  0.12706000  0.34453000  0.69744000  1.0
  H  H82  1  0.19761000  0.46304000  0.63299000  1.0
  H  H83  1  0.22462000  0.39094000  0.65137000  1.0
  H  H84  1  0.21558000  0.46820000  0.71390000  1.0
  H  H85  1  0.89182000  0.88734000  0.47571000  1.0
  H  H86  1  0.13636000  0.98210000  0.62377000  1.0
  H  H87  1  0.11257000  0.10302000  0.67798000  1.0
  H  H88  1  0.98326000  0.81310000  0.47460000  1.0
  H  H89  1  0.06061000  0.83731000  0.55719000  1.0
  H  H90  1  0.07911000  0.86152000  0.50011000  1.0
  H  H91  1  0.70861000  0.17015000  0.30642000  1.0
  H  H92  1  0.67483000  0.06021000  0.19593000  1.0
  H  H93  1  0.69683000  0.92061000  0.29254000  1.0
  H  H94  1  0.22825000  0.42806000  0.90809000  1.0
  H  H95  1  0.36303000  0.45934000  0.00060000  1.0
  H  H96  1  0.35988000  0.23178000  0.91758000  1.0
  H  H97  1  0.22403000  0.20202000  0.82403000  1.0
  H  H98  1  0.46517000  0.45913000  0.09339000  1.0
  H  H99  1  0.49017000  0.45927000  0.02802000  1.0
  H  H100  1  0.77177000  0.76247000  0.28111000  1.0
  H  H101  1  0.71650000  0.63110000  0.19810000  1.0
  H  H102  1  0.54998000  0.62046000  0.27759000  1.0
  H  H103  1  0.60578000  0.75352000  0.36021000  1.0
  H  H104  1  0.57651000  0.35218000  0.78855000  1.0
  H  H105  1  0.55669000  0.42549000  0.89199000  1.0
  H  H106  1  0.64768000  0.28366000  0.97738000  1.0
  H  H107  1  0.66258000  0.20964000  0.87227000  1.0
  H  H108  1  0.66683000  0.38670000  0.07749000  1.0
  H  H109  1  0.57129000  0.32492000  0.02420000  1.0
  H  H110  1  0.68595000  0.50774000  0.17164000  1.0
  H  H111  1  0.62364000  0.53211000  0.10912000  1.0
  H  H112  1  0.55013000  0.42832000  0.18057000  1.0
  H  H113  1  0.53298000  0.33947000  0.11285000  1.0
  H  H114  1  0.81695000  0.35645000  0.35522000  1.0
  H  H115  1  0.78563000  0.39270000  0.26144000  1.0
  H  H116  1  0.54066000  0.34344000  0.21320000  1.0
  H  H117  1  0.57322000  0.30631000  0.30533000  1.0
  H  H118  1  0.60169000  0.86837000  0.45618000  1.0
  H  H119  1  0.49924000  0.83696000  0.48841000  1.0
  H  H120  1  0.55114000  0.06042000  0.64067000  1.0
  H  H121  1  0.44682000  0.96931000  0.61992000  1.0
  H  H122  1  0.47162000  0.88481000  0.60372000  1.0
  H  H123  1  0.39994000  0.89416000  0.53570000  1.0
  H  H124  1  0.64870000  0.93541000  0.12762000  1.0
  H  H125  1  0.61522000  0.87627000  0.15427000  1.0
  H  H126  1  0.71502000  0.89681000  0.17192000  1.0
  H  H127  1  0.11258000  0.34009000  0.99581000  1.0
  H  H128  1  0.05237000  0.30118000  0.02126000  1.0
  H  H129  1  0.05768000  0.39149000  0.03429000  1.0
  C  C130  1  0.35215000  0.69495000  0.45512000  1.0
  C  C131  1  0.36904000  0.70894000  0.40749000  1.0
  C  C132  1  0.42774000  0.68370000  0.38939000  1.0
  C  C133  1  0.46779000  0.64536000  0.42098000  1.0
  C  C134  1  0.45162000  0.63106000  0.46933000  1.0
  C  C135  1  0.39337000  0.65563000  0.48661000  1.0
  C  C136  1  0.49891000  0.58926000  0.50130000  1.0
  C  C137  1  0.06690000  0.73773000  0.19396000  1.0
  C  C138  1  0.14344000  0.74171000  0.19908000  1.0
  C  C139  1  0.15532000  0.71977000  0.13970000  1.0
  C  C140  1  0.08917000  0.69468000  0.07749000  1.0
  C  C141  1  0.01169000  0.69044000  0.07166000  1.0
  C  C142  1  0.00015000  0.71194000  0.13021000  1.0
  C  C143  1  0.99601000  0.68236000  0.37348000  1.0
  C  C144  1  0.05365000  0.67327000  0.42686000  1.0
  C  C145  1  0.03288000  0.62912000  0.45262000  1.0
  C  C146  1  0.95375000  0.59643000  0.42348000  1.0
  C  C147  1  0.89503000  0.60542000  0.36991000  1.0
  C  C148  1  0.91618000  0.64831000  0.34406000  1.0
  C  C149  1  0.81004000  0.56888000  0.34176000  1.0
  C  C150  1  0.01275000  0.93848000  0.39133000  1.0
  C  C151  1  0.07422000  0.99890000  0.44806000  1.0
  C  C152  1  0.06078000  0.06720000  0.47935000  1.0
  C  C153  1  0.98457000  0.07317000  0.45195000  1.0
  C  C154  1  0.92309000  0.01145000  0.39509000  1.0
  C  C155  1  0.93517000  0.94396000  0.36404000  1.0
  C  C156  1  0.96479000  0.14418000  0.48184000  1.0
  C  C157  1  0.27879000  0.89367000  0.63824000  1.0
  C  C158  1  0.29425000  0.88347000  0.69646000  1.0
  C  C159  1  0.31312000  0.94522000  0.75760000  1.0
  C  C160  1  0.31715000  0.01615000  0.76289000  1.0
  C  C161  1  0.30260000  0.02609000  0.70532000  1.0
  C  C162  1  0.28338000  0.96387000  0.64287000  1.0
  C  C163  1  0.86082000  0.70302000  0.19575000  1.0
  C  C164  1  0.78156000  0.68646000  0.13940000  1.0
  C  C165  1  0.74215000  0.61445000  0.08926000  1.0
  C  C166  1  0.66656000  0.59717000  0.03745000  1.0
  C  C167  1  0.63047000  0.65341000  0.03579000  1.0
  C  C168  1  0.66991000  0.72594000  0.08516000  1.0
  C  C169  1  0.74474000  0.74210000  0.13658000  1.0
  C  C170  1  0.51040000  0.56951000  0.94209000  1.0
  C  C171  1  0.27507000  0.15456000  0.62699000  1.0
  C  C172  1  0.30763000  0.23386000  0.67428000  1.0
  C  C173  1  0.27674000  0.26907000  0.71985000  1.0
  C  C174  1  0.30764000  0.34291000  0.76624000  1.0
  C  C175  1  0.37047000  0.38200000  0.76696000  1.0
  C  C176  1  0.40131000  0.34766000  0.72089000  1.0
  C  C177  1  0.37015000  0.27411000  0.67517000  1.0
  C  C178  1  0.37951000  0.72384000  0.17594000  1.0
  C  C179  1  0.40889000  0.66250000  0.16997000  1.0
  C  C180  1  0.41891000  0.62117000  0.11219000  1.0
  C  C181  1  0.39811000  0.63985000  0.05843000  1.0
  C  C182  1  0.36901000  0.70116000  0.06382000  1.0
  C  C183  1  0.36042000  0.74278000  0.12267000  1.0
  C  C184  1  0.39587000  0.61793000  0.95083000  1.0
  C  C185  1  0.42664000  0.57119000  0.90141000  1.0
  C  C186  1  0.37513000  0.49297000  0.85772000  1.0
  C  C187  1  0.42797000  0.60506000  0.85526000  1.0
  C  C188  1  0.28684000  0.69350000  0.60949000  1.0
  C  C189  1  0.30319000  0.67005000  0.66352000  1.0
  C  C190  1  0.24322000  0.64590000  0.67618000  1.0
  C  C191  1  0.26033000  0.62588000  0.72811000  1.0
  C  C192  1  0.33816000  0.62887000  0.76786000  1.0
  C  C193  1  0.39867000  0.65317000  0.75601000  1.0
  C  C194  1  0.38063000  0.67383000  0.70423000  1.0
  C  C195  1  0.38199000  0.96395000  0.41819000  1.0
  C  C196  1  0.36731000  0.01747000  0.46947000  1.0
  C  C197  1  0.40987000  0.09077000  0.50437000  1.0
  C  C198  1  0.46616000  0.10694000  0.48580000  1.0
  C  C199  1  0.48155000  0.05352000  0.43400000  1.0
  C  C200  1  0.43924000  0.98141000  0.39964000  1.0
  C  C201  1  0.54397000  0.07718000  0.41758000  1.0
  C  C202  1  0.36322000  0.76577000  0.23514000  1.0
  C  C203  1  0.33575000  0.08020000  0.83103000  1.0
  C  C204  1  0.94348000  0.66298000  0.00156000  1.0
  C  C205  1  0.64786000  0.30505000  0.54488000  1.0
  C  C206  1  0.63096000  0.29106000  0.59251000  1.0
  C  C207  1  0.57226000  0.31630000  0.61061000  1.0
  C  C208  1  0.53221000  0.35463000  0.57901000  1.0
  C  C209  1  0.54839000  0.36894000  0.53067000  1.0
  C  C210  1  0.60665000  0.34439000  0.51340000  1.0
  C  C211  1  0.50110000  0.41074000  0.49870000  1.0
  C  C212  1  0.93310000  0.26226000  0.80604000  1.0
  C  C213  1  0.85656000  0.25828000  0.80092000  1.0
  C  C214  1  0.84468000  0.28022000  0.86030000  1.0
  C  C215  1  0.91083000  0.30531000  0.92251000  1.0
  C  C216  1  0.98831000  0.30956000  0.92834000  1.0
  C  C217  1  0.99985000  0.28805000  0.86979000  1.0
  C  C218  1  0.00400000  0.31765000  0.62653000  1.0
  C  C219  1  0.94636000  0.32674000  0.57315000  1.0
  C  C220  1  0.96711000  0.37088000  0.54738000  1.0
  C  C221  1  0.04624000  0.40357000  0.57652000  1.0
  C  C222  1  0.10496000  0.39459000  0.63009000  1.0
  C  C223  1  0.08382000  0.35169000  0.65594000  1.0
  C  C224  1  0.18995000  0.43113000  0.65824000  1.0
  C  C225  1  0.98725000  0.06152000  0.60867000  1.0
  C  C226  1  0.92578000  0.00111000  0.55194000  1.0
  C  C227  1  0.93922000  0.93280000  0.52065000  1.0
  C  C228  1  0.01543000  0.92683000  0.54805000  1.0
  C  C229  1  0.07691000  0.98855000  0.60491000  1.0
  C  C230  1  0.06483000  0.05604000  0.63596000  1.0
  C  C231  1  0.03521000  0.85582000  0.51816000  1.0
  C  C232  1  0.72120000  0.10633000  0.36176000  1.0
  C  C233  1  0.70574000  0.11653000  0.30354000  1.0
  C  C234  1  0.68688000  0.05479000  0.24241000  1.0
  C  C235  1  0.68284000  0.98386000  0.23711000  1.0
  C  C236  1  0.69739000  0.97392000  0.29468000  1.0
  C  C237  1  0.71661000  0.03613000  0.35713000  1.0
  C  C238  1  0.13918000  0.29698000  0.80425000  1.0
  C  C239  1  0.21844000  0.31354000  0.86060000  1.0
  C  C240  1  0.25785000  0.38555000  0.91074000  1.0
  C  C241  1  0.33344000  0.40283000  0.96255000  1.0
  C  C242  1  0.36954000  0.34660000  0.96421000  1.0
  C  C243  1  0.33009000  0.27406000  0.91483000  1.0
  C  C244  1  0.25526000  0.25790000  0.86342000  1.0
  C  C245  1  0.48961000  0.43049000  0.05791000  1.0
  C  C246  1  0.72493000  0.84544000  0.37301000  1.0
  C  C247  1  0.69237000  0.76614000  0.32572000  1.0
  C  C248  1  0.72326000  0.73093000  0.28015000  1.0
  C  C249  1  0.69236000  0.65709000  0.23376000  1.0
  C  C250  1  0.62953000  0.61799000  0.23304000  1.0
  C  C251  1  0.59868000  0.65234000  0.27911000  1.0
  C  C252  1  0.62985000  0.72589000  0.32483000  1.0
  C  C253  1  0.62049000  0.27615000  0.82406000  1.0
  C  C254  1  0.59112000  0.33750000  0.83003000  1.0
  C  C255  1  0.58109000  0.37883000  0.88781000  1.0
  C  C256  1  0.60189000  0.36015000  0.94156000  1.0
  C  C257  1  0.63098000  0.29884000  0.93618000  1.0
  C  C258  1  0.63957000  0.25722000  0.87733000  1.0
  C  C259  1  0.60414000  0.38207000  0.04917000  1.0
  C  C260  1  0.57337000  0.42881000  0.09859000  1.0
  C  C261  1  0.62488000  0.50703000  0.14229000  1.0
  C  C262  1  0.57204000  0.39494000  0.14474000  1.0
  C  C263  1  0.71315000  0.30650000  0.39051000  1.0
  C  C264  1  0.69681000  0.32995000  0.33648000  1.0
  C  C265  1  0.75679000  0.35411000  0.32383000  1.0
  C  C266  1  0.73969000  0.37413000  0.27190000  1.0
  C  C267  1  0.66185000  0.37113000  0.23214000  1.0
  C  C268  1  0.60134000  0.34683000  0.24399000  1.0
  C  C269  1  0.61939000  0.32618000  0.29578000  1.0
  C  C270  1  0.61800000  0.03604000  0.58181000  1.0
  C  C271  1  0.63269000  0.98253000  0.53053000  1.0
  C  C272  1  0.59011000  0.90921000  0.49562000  1.0
  C  C273  1  0.53384000  0.89307000  0.51421000  1.0
  C  C274  1  0.51844000  0.94648000  0.56600000  1.0
  C  C275  1  0.56076000  0.01859000  0.60036000  1.0
  C  C276  1  0.45604000  0.92282000  0.58243000  1.0
  C  C277  1  0.63677000  0.23424000  0.76486000  1.0
  C  C278  1  0.66423000  0.91980000  0.16896000  1.0
  C  C279  1  0.05653000  0.33703000  0.99845000  1.0
  N  N280  1  0.29372000  0.72716000  0.46174000  1.0
  N  N281  1  0.27681000  0.75957000  0.42152000  1.0
  N  N282  1  0.32061000  0.74945000  0.38826000  1.0
  N  N283  1  0.19376000  0.76913000  0.26762000  1.0
  N  N284  1  0.15119000  0.78149000  0.30228000  1.0
  N  N285  1  0.07508000  0.76314000  0.25957000  1.0
  N  N286  1  0.03442000  0.72962000  0.36213000  1.0
  N  N287  1  0.11038000  0.74858000  0.40562000  1.0
  N  N288  1  0.12393000  0.71529000  0.44471000  1.0
  N  N289  1  0.14067000  0.97502000  0.46222000  1.0
  N  N290  1  0.12139000  0.90449000  0.41740000  1.0
  N  N291  1  0.04523000  0.88136000  0.37432000  1.0
  N  N292  1  0.30924000  0.98259000  0.47493000  1.0
  N  N293  1  0.28962000  0.91242000  0.43036000  1.0
  N  N294  1  0.33226000  0.89943000  0.39549000  1.0
  N  N295  1  0.26408000  0.95470000  0.57784000  1.0
  N  N296  1  0.24802000  0.88382000  0.53595000  1.0
  N  N297  1  0.25664000  0.84608000  0.57078000  1.0
  N  N298  1  0.70629000  0.27284000  0.53826000  1.0
  N  N299  1  0.72320000  0.24043000  0.57848000  1.0
  N  N300  1  0.67940000  0.25055000  0.61174000  1.0
  N  N301  1  0.80624000  0.23086000  0.73238000  1.0
  N  N302  1  0.84881000  0.21850000  0.69772000  1.0
  N  N303  1  0.92492000  0.23685000  0.74043000  1.0
  N  N304  1  0.96558000  0.27038000  0.63787000  1.0
  N  N305  1  0.88962000  0.25142000  0.59438000  1.0
  N  N306  1  0.87607000  0.28471000  0.55529000  1.0
  N  N307  1  0.85932000  0.02498000  0.53777000  1.0
  N  N308  1  0.87860000  0.09550000  0.58259000  1.0
  N  N309  1  0.95477000  0.11865000  0.62568000  1.0
  N  N310  1  0.69076000  0.01741000  0.52507000  1.0
  N  N311  1  0.71037000  0.08758000  0.56964000  1.0
  N  N312  1  0.66772000  0.10056000  0.60450000  1.0
  N  N313  1  0.73590000  0.04530000  0.42215000  1.0
  N  N314  1  0.75198000  0.11619000  0.46405000  1.0
  N  N315  1  0.74336000  0.15393000  0.42922000  1.0
  O  O316  1  0.30590000  0.12510000  0.58518000  1.0
  O  O317  1  0.22130000  0.11771000  0.62782000  1.0
  O  O318  1  0.40618000  0.45418000  0.81139000  1.0
  O  O319  1  0.33750000  0.82117000  0.24091000  1.0
  O  O320  1  0.37164000  0.74022000  0.27858000  1.0
  O  O321  1  0.40787000  0.59501000  0.00244000  1.0
  O  O322  1  0.34232000  0.72264000  0.60411000  1.0
  O  O323  1  0.21427000  0.68506000  0.56886000  1.0
  O  O324  1  0.34974000  0.60693000  0.81710000  1.0
  O  O325  1  0.55660000  0.64285000  0.98775000  1.0
  O  O326  1  0.89457000  0.65411000  0.19889000  1.0
  O  O327  1  0.89274000  0.77169000  0.24129000  1.0
  O  O328  1  0.69410000  0.87491000  0.41482000  1.0
  O  O329  1  0.77870000  0.88230000  0.37219000  1.0
  O  O330  1  0.59382000  0.54582000  0.18861000  1.0
  O  O331  1  0.66249000  0.17882000  0.75908000  1.0
  O  O332  1  0.62836000  0.25976000  0.72141000  1.0
  O  O333  1  0.59213000  0.40499000  0.99755000  1.0
  O  O334  1  0.65768000  0.27736000  0.39589000  1.0
  O  O335  1  0.78573000  0.31495000  0.43115000  1.0
  O  O336  1  0.65027000  0.39306000  0.18290000  1.0
  O  O337  1  0.44341000  0.35714000  0.01224000  1.0
  O  O338  1  0.10543000  0.34590000  0.80111000  1.0
  O  O339  1  0.10726000  0.22831000  0.75871000  1.0
