# generated using pymatgen
data_MnH6C9O7
_symmetry_space_group_name_H-M   'P 1'
_cell_length_a   6.55323000
_cell_length_b   6.92738000
_cell_length_c   11.06480000
_cell_angle_alpha   102.36800000
_cell_angle_beta   92.30330000
_cell_angle_gamma   111.51300000
_symmetry_Int_Tables_number   1
_chemical_formula_structural   MnH6C9O7
_chemical_formula_sum   'Mn2 H12 C18 O14'
_cell_volume   452.55367189
_cell_formula_units_Z   2
loop_
 _symmetry_equiv_pos_site_id
 _symmetry_equiv_pos_as_xyz
  1  'x, y, z'
loop_
 _atom_site_type_symbol
 _atom_site_label
 _atom_site_symmetry_multiplicity
 _atom_site_fract_x
 _atom_site_fract_y
 _atom_site_fract_z
 _atom_site_occupancy
  Mn  Mn0  1  0.41278000  0.71692000  0.92635000  1.0
  Mn  Mn1  1  0.58721000  0.28308000  0.07367000  1.0
  H  H2  1  0.76794000  0.88348000  0.71951000  1.0
  H  H3  1  0.23205000  0.11653000  0.28048000  1.0
  H  H4  1  0.52898000  0.63168000  0.41320000  1.0
  H  H5  1  0.47103000  0.36833000  0.58680000  1.0
  H  H6  1  0.06516000  0.81755000  0.62317000  1.0
  H  H7  1  0.93482000  0.18240000  0.37682000  1.0
  H  H8  1  0.86300000  0.81129000  0.42691000  1.0
  H  H9  1  0.13698000  0.18868000  0.57311000  1.0
  H  H10  1  0.82060000  0.98606000  0.08204000  1.0
  H  H11  1  0.17941000  0.01393000  0.91795000  1.0
  H  H12  1  0.83016000  0.04293000  0.94998000  1.0
  H  H13  1  0.16980000  0.95705000  0.05001000  1.0
  C  C14  1  0.34827000  0.59796000  0.18306000  1.0
  C  C15  1  0.65174000  0.40206000  0.81695000  1.0
  C  C16  1  0.26646000  0.65928000  0.30469000  1.0
  C  C17  1  0.73354000  0.34072000  0.69531000  1.0
  C  C18  1  0.38248000  0.67027000  0.41606000  1.0
  C  C19  1  0.61752000  0.32969000  0.58392000  1.0
  C  C20  1  0.31540000  0.73581000  0.53097000  1.0
  C  C21  1  0.68460000  0.26418000  0.46902000  1.0
  C  C22  1  0.12019000  0.77418000  0.53358000  1.0
  C  C23  1  0.87980000  0.22583000  0.46642000  1.0
  C  C24  1  0.00698000  0.76847000  0.42308000  1.0
  C  C25  1  0.99303000  0.23153000  0.57692000  1.0
  C  C26  1  0.08419000  0.72090000  0.30893000  1.0
  C  C27  1  0.91581000  0.27911000  0.69109000  1.0
  C  C28  1  0.45425000  0.78181000  0.65058000  1.0
  C  C29  1  0.54575000  0.21820000  0.34942000  1.0
  C  C30  1  0.97885000  0.74528000  0.19268000  1.0
  C  C31  1  0.02116000  0.25473000  0.80730000  1.0
  O  O32  1  0.37469000  0.72515000  0.11255000  1.0
  O  O33  1  0.62530000  0.27487000  0.88746000  1.0
  O  O34  1  0.38637000  0.42800000  0.16245000  1.0
  O  O35  1  0.61368000  0.57205000  0.83756000  1.0
  O  O36  1  0.66160000  0.80797000  0.63813000  1.0
  O  O37  1  0.33841000  0.19203000  0.36186000  1.0
  O  O38  1  0.37983000  0.80250000  0.75246000  1.0
  O  O39  1  0.62015000  0.19748000  0.24754000  1.0
  O  O40  1  0.02708000  0.93836000  0.18080000  1.0
  O  O41  1  0.97291000  0.06164000  0.81919000  1.0
  O  O42  1  0.85144000  0.58259000  0.11285000  1.0
  O  O43  1  0.14860000  0.41741000  0.88716000  1.0
  O  O44  1  0.73497000  0.01642000  0.01738000  1.0
  O  O45  1  0.26506000  0.98363000  0.98260000  1.0
