# generated using pymatgen
data_KLiH6C4O7
_symmetry_space_group_name_H-M   'P 1'
_cell_length_a   9.58053000
_cell_length_b   9.69630000
_cell_length_c   10.32908760
_cell_angle_alpha   62.00073761
_cell_angle_beta   66.73695632
_cell_angle_gamma   90.00180000
_symmetry_Int_Tables_number   1
_chemical_formula_structural   KLiH6C4O7
_chemical_formula_sum   'K4 Li4 H24 C16 O28'
_cell_volume   757.72782634
_cell_formula_units_Z   4
loop_
 _symmetry_equiv_pos_site_id
 _symmetry_equiv_pos_as_xyz
  1  'x, y, z'
loop_
 _atom_site_type_symbol
 _atom_site_label
 _atom_site_symmetry_multiplicity
 _atom_site_fract_x
 _atom_site_fract_y
 _atom_site_fract_z
 _atom_site_occupancy
  K  K0  1  0.74984000  0.04125000  0.99996000  1.0
  K  K1  1  0.25016000  0.95874000  0.00004000  1.0
  K  K2  1  0.74985000  0.51813000  0.00016000  1.0
  K  K3  1  0.25014000  0.48187000  0.99985000  1.0
  Li  Li4  1  0.92377000  0.90455000  0.67158000  1.0
  Li  Li5  1  0.57625000  0.57618000  0.32836000  1.0
  Li  Li6  1  0.07623000  0.09544000  0.32842000  1.0
  Li  Li7  1  0.42375000  0.42382000  0.67164000  1.0
  H  H8  1  0.91999000  0.00839000  0.24102000  1.0
  H  H9  1  0.58001000  0.24940000  0.75901000  1.0
  H  H10  1  0.08001000  0.99161000  0.75898000  1.0
  H  H11  1  0.41999000  0.75060000  0.24099000  1.0
  H  H12  1  0.11777000  0.55619000  0.32083000  1.0
  H  H13  1  0.38226000  0.87707000  0.67920000  1.0
  H  H14  1  0.88224000  0.44381000  0.67917000  1.0
  H  H15  1  0.61774000  0.12293000  0.32080000  1.0
  H  H16  1  0.73451000  0.74284000  0.40087000  1.0
  H  H17  1  0.76556000  0.14383000  0.59906000  1.0
  H  H18  1  0.26549000  0.25716000  0.59913000  1.0
  H  H19  1  0.23444000  0.85617000  0.40094000  1.0
  H  H20  1  0.85661000  0.52214000  0.43141000  1.0
  H  H21  1  0.64342000  0.95362000  0.56856000  1.0
  H  H22  1  0.14339000  0.47786000  0.56859000  1.0
  H  H23  1  0.35658000  0.04638000  0.43144000  1.0
  H  H24  1  0.14788000  0.78230000  0.71152000  1.0
  H  H25  1  0.35205000  0.49386000  0.28850000  1.0
  H  H26  1  0.85212000  0.21770000  0.28848000  1.0
  H  H27  1  0.64795000  0.50614000  0.71150000  1.0
  H  H28  1  0.03807000  0.74297000  0.89282000  1.0
  H  H29  1  0.46189000  0.63585000  0.10717000  1.0
  H  H30  1  0.96193000  0.25703000  0.10718000  1.0
  H  H31  1  0.53811000  0.36415000  0.89283000  1.0
  C  C32  1  0.88171000  0.75436000  0.50800000  1.0
  C  C33  1  0.61830000  0.26253000  0.49195000  1.0
  C  C34  1  0.11829000  0.24564000  0.49200000  1.0
  C  C35  1  0.38170000  0.73747000  0.50805000  1.0
  C  C36  1  0.86134000  0.76850000  0.36229000  1.0
  C  C37  1  0.63874000  0.13093000  0.63763000  1.0
  C  C38  1  0.13866000  0.23150000  0.63771000  1.0
  C  C39  1  0.36126000  0.86907000  0.36237000  1.0
  C  C40  1  0.92971000  0.64079000  0.32625000  1.0
  C  C41  1  0.57035000  0.96717000  0.67367000  1.0
  C  C42  1  0.07029000  0.35921000  0.67375000  1.0
  C  C43  1  0.42965000  0.03283000  0.32633000  1.0
  C  C44  1  0.91921000  0.65792000  0.17451000  1.0
  C  C45  1  0.58085000  0.83259000  0.82544000  1.0
  C  C46  1  0.08079000  0.34208000  0.82549000  1.0
  C  C47  1  0.41915000  0.16741000  0.17456000  1.0
  O  O48  1  0.81614000  0.62245000  0.64449000  1.0
  O  O49  1  0.68390000  0.26723000  0.35542000  1.0
  O  O50  1  0.18386000  0.37755000  0.35551000  1.0
  O  O51  1  0.31610000  0.73277000  0.64458000  1.0
  O  O52  1  0.95906000  0.87493000  0.48720000  1.0
  O  O53  1  0.54083000  0.36219000  0.51284000  1.0
  O  O54  1  0.04094000  0.12507000  0.51280000  1.0
  O  O55  1  0.45917000  0.63781000  0.48716000  1.0
  O  O56  1  0.93636000  0.92076000  0.21578000  1.0
  O  O57  1  0.56370000  0.13654000  0.78419000  1.0
  O  O58  1  0.06364000  0.07925000  0.78422000  1.0
  O  O59  1  0.43630000  0.86346000  0.21581000  1.0
  O  O60  1  0.08514000  0.65697000  0.30749000  1.0
  O  O61  1  0.41491000  0.96457000  0.69243000  1.0
  O  O62  1  0.91486000  0.34303000  0.69251000  1.0
  O  O63  1  0.58509000  0.03543000  0.30757000  1.0
  O  O64  1  0.04367000  0.66518000  0.06111000  1.0
  O  O65  1  0.45640000  0.72639000  0.93883000  1.0
  O  O66  1  0.95633000  0.33482000  0.93889000  1.0
  O  O67  1  0.54360000  0.27361000  0.06117000  1.0
  O  O68  1  0.78812000  0.66307000  0.17200000  1.0
  O  O69  1  0.71192000  0.83531000  0.82799000  1.0
  O  O70  1  0.21188000  0.33694000  0.82799000  1.0
  O  O71  1  0.28808000  0.16469000  0.17201000  1.0
  O  O72  1  0.04877000  0.80145000  0.77653000  1.0
  O  O73  1  0.45114000  0.57811000  0.22347000  1.0
  O  O74  1  0.95123000  0.19855000  0.22347000  1.0
  O  O75  1  0.54886000  0.42189000  0.77653000  1.0
