# generated using pymatgen
data_ZnSiH28C40(N2F3)2
_symmetry_space_group_name_H-M   'P 1'
_cell_length_a   15.06380000
_cell_length_b   17.80250000
_cell_length_c   17.80250000
_cell_angle_alpha   90.00040000
_cell_angle_beta   90.00000000
_cell_angle_gamma   89.99970000
_symmetry_Int_Tables_number   1
_chemical_formula_structural   ZnSiH28C40(N2F3)2
_chemical_formula_sum   'Zn4 Si4 H112 C160 N16 F24'
_cell_volume   4774.15516417
_cell_formula_units_Z   4
loop_
 _symmetry_equiv_pos_site_id
 _symmetry_equiv_pos_as_xyz
  1  'x, y, z'
loop_
 _atom_site_type_symbol
 _atom_site_label
 _atom_site_symmetry_multiplicity
 _atom_site_fract_x
 _atom_site_fract_y
 _atom_site_fract_z
 _atom_site_occupancy
  Zn  Zn0  1  0.12848000  0.75000000  0.25000000  1.0
  Zn  Zn1  1  0.62848000  0.75000000  0.25000000  1.0
  Zn  Zn2  1  0.37152000  0.25000000  0.75000000  1.0
  Zn  Zn3  1  0.87152000  0.25000000  0.75000000  1.0
  Si  Si4  1  0.37842000  0.75000000  0.25000000  1.0
  Si  Si5  1  0.87842000  0.75000000  0.25000000  1.0
  Si  Si6  1  0.12157000  0.25000000  0.75000000  1.0
  Si  Si7  1  0.62158000  0.25000000  0.75000000  1.0
  H  H8  1  0.23964000  0.82492000  0.12858000  1.0
  H  H9  1  0.23817000  0.84136000  0.98879000  1.0
  H  H10  1  0.01240000  0.69224000  0.98100000  1.0
  H  H11  1  0.01617000  0.68841000  0.12176000  1.0
  H  H12  1  0.12034000  0.65398000  0.87332000  1.0
  H  H13  1  0.12550000  0.90647000  0.75169000  1.0
  H  H14  1  0.12889000  0.89531000  0.89072000  1.0
  H  H15  1  0.23965000  0.67509000  0.37141000  1.0
  H  H16  1  0.23817000  0.65864000  0.51121000  1.0
  H  H17  1  0.01240000  0.80776000  0.51901000  1.0
  H  H18  1  0.01617000  0.81159000  0.37824000  1.0
  H  H19  1  0.12035000  0.84602000  0.62668000  1.0
  H  H20  1  0.12550000  0.59353000  0.74831000  1.0
  H  H21  1  0.12889000  0.60469000  0.60928000  1.0
  H  H22  1  0.23965000  0.62858000  0.17508000  1.0
  H  H23  1  0.23817000  0.48879000  0.15864000  1.0
  H  H24  1  0.01240000  0.48099000  0.30776000  1.0
  H  H25  1  0.01617000  0.62176000  0.31159000  1.0
  H  H26  1  0.12034000  0.37332000  0.34602000  1.0
  H  H27  1  0.12550000  0.25169000  0.09353000  1.0
  H  H28  1  0.12889000  0.39072000  0.10469000  1.0
  H  H29  1  0.23965000  0.87142000  0.32492000  1.0
  H  H30  1  0.23817000  0.01121000  0.34136000  1.0
  H  H31  1  0.01240000  0.01900000  0.19224000  1.0
  H  H32  1  0.01617000  0.87824000  0.18842000  1.0
  H  H33  1  0.12034000  0.12668000  0.15398000  1.0
  H  H34  1  0.12550000  0.24831000  0.40647000  1.0
  H  H35  1  0.12890000  0.10928000  0.39531000  1.0
  H  H36  1  0.73964000  0.82492000  0.37142000  1.0
  H  H37  1  0.73817000  0.84136000  0.51121000  1.0
  H  H38  1  0.51240000  0.69224000  0.51901000  1.0
  H  H39  1  0.51617000  0.68841000  0.37824000  1.0
  H  H40  1  0.62034000  0.65398000  0.62668000  1.0
  H  H41  1  0.62550000  0.90647000  0.74831000  1.0
  H  H42  1  0.62890000  0.89531000  0.60928000  1.0
  H  H43  1  0.73965000  0.67508000  0.12858000  1.0
  H  H44  1  0.73817000  0.65864000  0.98879000  1.0
  H  H45  1  0.51241000  0.80776000  0.98100000  1.0
  H  H46  1  0.51617000  0.81159000  0.12176000  1.0
  H  H47  1  0.62034000  0.84602000  0.87332000  1.0
  H  H48  1  0.62550000  0.59353000  0.75169000  1.0
  H  H49  1  0.62889000  0.60469000  0.89072000  1.0
  H  H50  1  0.73965000  0.62858000  0.32492000  1.0
  H  H51  1  0.73817000  0.48879000  0.34136000  1.0
  H  H52  1  0.51240000  0.48099000  0.19224000  1.0
  H  H53  1  0.51617000  0.62176000  0.18841000  1.0
  H  H54  1  0.62035000  0.37332000  0.15398000  1.0
  H  H55  1  0.62550000  0.25169000  0.40647000  1.0
  H  H56  1  0.62889000  0.39072000  0.39531000  1.0
  H  H57  1  0.73964000  0.87142000  0.17508000  1.0
  H  H58  1  0.73817000  0.01121000  0.15864000  1.0
  H  H59  1  0.51240000  0.01901000  0.30776000  1.0
  H  H60  1  0.51617000  0.87824000  0.31159000  1.0
  H  H61  1  0.62034000  0.12668000  0.34602000  1.0
  H  H62  1  0.62550000  0.24831000  0.09353000  1.0
  H  H63  1  0.62889000  0.10928000  0.10469000  1.0
  H  H64  1  0.26036000  0.17508000  0.62858000  1.0
  H  H65  1  0.26183000  0.15864000  0.48879000  1.0
  H  H66  1  0.48760000  0.30776000  0.48099000  1.0
  H  H67  1  0.48383000  0.31159000  0.62176000  1.0
  H  H68  1  0.37966000  0.34602000  0.37332000  1.0
  H  H69  1  0.37450000  0.09353000  0.25169000  1.0
  H  H70  1  0.37111000  0.10469000  0.39072000  1.0
  H  H71  1  0.26035000  0.32492000  0.87142000  1.0
  H  H72  1  0.26183000  0.34136000  0.01121000  1.0
  H  H73  1  0.48760000  0.19224000  0.01900000  1.0
  H  H74  1  0.48383000  0.18841000  0.87824000  1.0
  H  H75  1  0.37966000  0.15398000  0.12668000  1.0
  H  H76  1  0.37450000  0.40647000  0.24831000  1.0
  H  H77  1  0.37111000  0.39531000  0.10928000  1.0
  H  H78  1  0.26036000  0.37142000  0.67509000  1.0
  H  H79  1  0.26183000  0.51121000  0.65864000  1.0
  H  H80  1  0.48760000  0.51901000  0.80776000  1.0
  H  H81  1  0.48383000  0.37824000  0.81159000  1.0
  H  H82  1  0.37966000  0.62668000  0.84602000  1.0
  H  H83  1  0.37450000  0.74831000  0.59353000  1.0
  H  H84  1  0.37111000  0.60928000  0.60469000  1.0
  H  H85  1  0.26036000  0.12858000  0.82492000  1.0
  H  H86  1  0.26183000  0.98879000  0.84136000  1.0
  H  H87  1  0.48760000  0.98099000  0.69224000  1.0
  H  H88  1  0.48383000  0.12176000  0.68841000  1.0
  H  H89  1  0.37966000  0.87332000  0.65398000  1.0
  H  H90  1  0.37450000  0.75169000  0.90647000  1.0
  H  H91  1  0.37111000  0.89072000  0.89531000  1.0
  H  H92  1  0.76036000  0.17508000  0.87142000  1.0
  H  H93  1  0.76183000  0.15864000  0.01121000  1.0
  H  H94  1  0.98760000  0.30775000  0.01901000  1.0
  H  H95  1  0.98383000  0.31159000  0.87824000  1.0
  H  H96  1  0.87965000  0.34601000  0.12668000  1.0
  H  H97  1  0.87450000  0.09353000  0.24831000  1.0
  H  H98  1  0.87111000  0.10469000  0.10928000  1.0
  H  H99  1  0.76036000  0.32492000  0.62859000  1.0
  H  H100  1  0.76183000  0.34136000  0.48879000  1.0
  H  H101  1  0.98760000  0.19225000  0.48099000  1.0
  H  H102  1  0.98383000  0.18841000  0.62176000  1.0
  H  H103  1  0.87966000  0.15399000  0.37332000  1.0
  H  H104  1  0.87450000  0.40647000  0.25169000  1.0
  H  H105  1  0.87111000  0.39531000  0.39072000  1.0
  H  H106  1  0.76035000  0.37142000  0.82492000  1.0
  H  H107  1  0.76183000  0.51121000  0.84136000  1.0
  H  H108  1  0.98760000  0.51900000  0.69225000  1.0
  H  H109  1  0.98383000  0.37824000  0.68842000  1.0
  H  H110  1  0.87966000  0.62668000  0.65398000  1.0
  H  H111  1  0.87450000  0.74831000  0.90647000  1.0
  H  H112  1  0.87111000  0.60928000  0.89531000  1.0
  H  H113  1  0.76035000  0.12858000  0.67508000  1.0
  H  H114  1  0.76183000  0.98879000  0.65864000  1.0
  H  H115  1  0.98760000  0.98099000  0.80776000  1.0
  H  H116  1  0.98383000  0.12176000  0.81159000  1.0
  H  H117  1  0.87966000  0.87332000  0.84602000  1.0
  H  H118  1  0.87450000  0.75169000  0.59353000  1.0
  H  H119  1  0.87111000  0.89072000  0.60469000  1.0
  C  C120  1  0.18867000  0.79847000  0.09383000  1.0
  C  C121  1  0.18815000  0.80663000  0.01620000  1.0
  C  C122  1  0.12499000  0.76770000  0.97337000  1.0
  C  C123  1  0.06342000  0.72282000  0.01180000  1.0
  C  C124  1  0.06581000  0.71972000  0.08980000  1.0
  C  C125  1  0.12387000  0.77345000  0.89077000  1.0
  C  C126  1  0.12103000  0.70930000  0.84679000  1.0
  C  C127  1  0.12228000  0.71374000  0.76751000  1.0
  C  C128  1  0.12478000  0.85134000  0.77852000  1.0
  C  C129  1  0.12677000  0.84513000  0.85552000  1.0
  C  C130  1  0.18867000  0.70153000  0.40616000  1.0
  C  C131  1  0.18816000  0.69337000  0.48380000  1.0
  C  C132  1  0.12499000  0.73230000  0.52663000  1.0
  C  C133  1  0.06342000  0.77718000  0.48820000  1.0
  C  C134  1  0.06581000  0.78028000  0.41020000  1.0
  C  C135  1  0.12388000  0.72655000  0.60923000  1.0
  C  C136  1  0.12103000  0.79071000  0.65321000  1.0
  C  C137  1  0.12228000  0.78626000  0.73249000  1.0
  C  C138  1  0.12478000  0.64866000  0.72148000  1.0
  C  C139  1  0.12676000  0.65487000  0.64448000  1.0
  C  C140  1  0.18867000  0.59384000  0.20153000  1.0
  C  C141  1  0.18816000  0.51620000  0.19337000  1.0
  C  C142  1  0.12498000  0.47337000  0.23229000  1.0
  C  C143  1  0.06341000  0.51180000  0.27718000  1.0
  C  C144  1  0.06581000  0.58980000  0.28028000  1.0
  C  C145  1  0.12387000  0.39077000  0.22655000  1.0
  C  C146  1  0.12103000  0.34679000  0.29070000  1.0
  C  C147  1  0.12227000  0.26751000  0.28626000  1.0
  C  C148  1  0.12477000  0.27852000  0.14866000  1.0
  C  C149  1  0.12676000  0.35552000  0.15487000  1.0
  C  C150  1  0.18868000  0.90616000  0.29847000  1.0
  C  C151  1  0.18816000  0.98380000  0.30663000  1.0
  C  C152  1  0.12499000  0.02663000  0.26770000  1.0
  C  C153  1  0.06342000  0.98820000  0.22282000  1.0
  C  C154  1  0.06581000  0.91021000  0.21972000  1.0
  C  C155  1  0.12387000  0.10923000  0.27345000  1.0
  C  C156  1  0.12103000  0.15321000  0.20929000  1.0
  C  C157  1  0.12228000  0.23249000  0.21374000  1.0
  C  C158  1  0.12478000  0.22148000  0.35134000  1.0
  C  C159  1  0.12676000  0.14448000  0.34513000  1.0
  C  C160  1  0.68867000  0.79847000  0.40616000  1.0
  C  C161  1  0.68816000  0.80663000  0.48380000  1.0
  C  C162  1  0.62499000  0.76770000  0.52663000  1.0
  C  C163  1  0.56342000  0.72282000  0.48820000  1.0
  C  C164  1  0.56581000  0.71972000  0.41021000  1.0
  C  C165  1  0.62387000  0.77345000  0.60923000  1.0
  C  C166  1  0.62103000  0.70929000  0.65320000  1.0
  C  C167  1  0.62228000  0.71374000  0.73248000  1.0
  C  C168  1  0.62478000  0.85134000  0.72148000  1.0
  C  C169  1  0.62677000  0.84513000  0.64448000  1.0
  C  C170  1  0.68867000  0.70153000  0.09384000  1.0
  C  C171  1  0.68816000  0.69337000  0.01620000  1.0
  C  C172  1  0.62499000  0.73230000  0.97337000  1.0
  C  C173  1  0.56342000  0.77718000  0.01180000  1.0
  C  C174  1  0.56581000  0.78028000  0.08979000  1.0
  C  C175  1  0.62387000  0.72655000  0.89077000  1.0
  C  C176  1  0.62103000  0.79071000  0.84679000  1.0
  C  C177  1  0.62228000  0.78626000  0.76751000  1.0
  C  C178  1  0.62478000  0.64866000  0.77852000  1.0
  C  C179  1  0.62676000  0.65487000  0.85552000  1.0
  C  C180  1  0.68867000  0.59384000  0.29847000  1.0
  C  C181  1  0.68816000  0.51620000  0.30663000  1.0
  C  C182  1  0.62499000  0.47337000  0.26770000  1.0
  C  C183  1  0.56342000  0.51180000  0.22282000  1.0
  C  C184  1  0.56581000  0.58979000  0.21972000  1.0
  C  C185  1  0.62387000  0.39077000  0.27345000  1.0
  C  C186  1  0.62103000  0.34679000  0.20930000  1.0
  C  C187  1  0.62228000  0.26751000  0.21374000  1.0
  C  C188  1  0.62478000  0.27852000  0.35134000  1.0
  C  C189  1  0.62676000  0.35552000  0.34512000  1.0
  C  C190  1  0.68867000  0.90617000  0.20153000  1.0
  C  C191  1  0.68816000  0.98380000  0.19337000  1.0
  C  C192  1  0.62499000  0.02663000  0.23230000  1.0
  C  C193  1  0.56342000  0.98820000  0.27718000  1.0
  C  C194  1  0.56581000  0.91020000  0.28028000  1.0
  C  C195  1  0.62387000  0.10924000  0.22655000  1.0
  C  C196  1  0.62103000  0.15321000  0.29070000  1.0
  C  C197  1  0.62228000  0.23249000  0.28626000  1.0
  C  C198  1  0.62478000  0.22148000  0.14866000  1.0
  C  C199  1  0.62676000  0.14448000  0.15487000  1.0
  C  C200  1  0.31133000  0.20153000  0.59384000  1.0
  C  C201  1  0.31184000  0.19337000  0.51620000  1.0
  C  C202  1  0.37501000  0.23230000  0.47337000  1.0
  C  C203  1  0.43659000  0.27718000  0.51180000  1.0
  C  C204  1  0.43419000  0.28028000  0.58979000  1.0
  C  C205  1  0.37613000  0.22655000  0.39077000  1.0
  C  C206  1  0.37897000  0.29071000  0.34679000  1.0
  C  C207  1  0.37772000  0.28626000  0.26751000  1.0
  C  C208  1  0.37522000  0.14866000  0.27852000  1.0
  C  C209  1  0.37324000  0.15487000  0.35552000  1.0
  C  C210  1  0.31133000  0.29847000  0.90616000  1.0
  C  C211  1  0.31184000  0.30663000  0.98380000  1.0
  C  C212  1  0.37501000  0.26770000  0.02663000  1.0
  C  C213  1  0.43658000  0.22282000  0.98820000  1.0
  C  C214  1  0.43419000  0.21972000  0.91021000  1.0
  C  C215  1  0.37613000  0.27345000  0.10923000  1.0
  C  C216  1  0.37897000  0.20929000  0.15320000  1.0
  C  C217  1  0.37772000  0.21374000  0.23248000  1.0
  C  C218  1  0.37522000  0.35134000  0.22148000  1.0
  C  C219  1  0.37324000  0.34513000  0.14448000  1.0
  C  C220  1  0.31133000  0.40616000  0.70153000  1.0
  C  C221  1  0.31184000  0.48380000  0.69337000  1.0
  C  C222  1  0.37501000  0.52663000  0.73230000  1.0
  C  C223  1  0.43658000  0.48820000  0.77718000  1.0
  C  C224  1  0.43419000  0.41020000  0.78028000  1.0
  C  C225  1  0.37613000  0.60923000  0.72655000  1.0
  C  C226  1  0.37897000  0.65321000  0.79071000  1.0
  C  C227  1  0.37772000  0.73249000  0.78626000  1.0
  C  C228  1  0.37522000  0.72148000  0.64866000  1.0
  C  C229  1  0.37323000  0.64448000  0.65487000  1.0
  C  C230  1  0.31133000  0.09384000  0.79847000  1.0
  C  C231  1  0.31184000  0.01620000  0.80663000  1.0
  C  C232  1  0.37501000  0.97337000  0.76770000  1.0
  C  C233  1  0.43658000  0.01181000  0.72282000  1.0
  C  C234  1  0.43419000  0.08980000  0.71972000  1.0
  C  C235  1  0.37613000  0.89077000  0.77345000  1.0
  C  C236  1  0.37897000  0.84679000  0.70929000  1.0
  C  C237  1  0.37772000  0.76751000  0.71374000  1.0
  C  C238  1  0.37523000  0.77852000  0.85134000  1.0
  C  C239  1  0.37323000  0.85552000  0.84512000  1.0
  C  C240  1  0.81133000  0.20153000  0.90616000  1.0
  C  C241  1  0.81185000  0.19337000  0.98380000  1.0
  C  C242  1  0.87501000  0.23230000  0.02663000  1.0
  C  C243  1  0.93658000  0.27718000  0.98820000  1.0
  C  C244  1  0.93419000  0.28028000  0.91020000  1.0
  C  C245  1  0.87613000  0.22655000  0.10924000  1.0
  C  C246  1  0.87896000  0.29070000  0.15321000  1.0
  C  C247  1  0.87772000  0.28626000  0.23249000  1.0
  C  C248  1  0.87522000  0.14866000  0.22148000  1.0
  C  C249  1  0.87324000  0.15488000  0.14448000  1.0
  C  C250  1  0.81133000  0.29847000  0.59384000  1.0
  C  C251  1  0.81185000  0.30663000  0.51620000  1.0
  C  C252  1  0.87502000  0.26770000  0.47337000  1.0
  C  C253  1  0.93658000  0.22282000  0.51180000  1.0
  C  C254  1  0.93419000  0.21972000  0.58980000  1.0
  C  C255  1  0.87613000  0.27345000  0.39076000  1.0
  C  C256  1  0.87896000  0.20930000  0.34679000  1.0
  C  C257  1  0.87772000  0.21374000  0.26751000  1.0
  C  C258  1  0.87522000  0.35134000  0.27852000  1.0
  C  C259  1  0.87324000  0.34513000  0.35552000  1.0
  C  C260  1  0.81132000  0.40616000  0.79847000  1.0
  C  C261  1  0.81184000  0.48380000  0.80664000  1.0
  C  C262  1  0.87501000  0.52663000  0.76771000  1.0
  C  C263  1  0.93658000  0.48820000  0.72282000  1.0
  C  C264  1  0.93419000  0.41021000  0.71972000  1.0
  C  C265  1  0.87613000  0.60923000  0.77345000  1.0
  C  C266  1  0.87897000  0.65320000  0.70930000  1.0
  C  C267  1  0.87772000  0.73248000  0.71374000  1.0
  C  C268  1  0.87522000  0.72148000  0.85134000  1.0
  C  C269  1  0.87324000  0.64448000  0.84513000  1.0
  C  C270  1  0.81133000  0.09384000  0.70153000  1.0
  C  C271  1  0.81184000  0.01620000  0.69337000  1.0
  C  C272  1  0.87501000  0.97337000  0.73230000  1.0
  C  C273  1  0.93659000  0.01180000  0.77718000  1.0
  C  C274  1  0.93419000  0.08979000  0.78028000  1.0
  C  C275  1  0.87613000  0.89077000  0.72655000  1.0
  C  C276  1  0.87897000  0.84680000  0.79071000  1.0
  C  C277  1  0.87772000  0.76752000  0.78626000  1.0
  C  C278  1  0.87522000  0.77852000  0.64866000  1.0
  C  C279  1  0.87324000  0.85552000  0.65487000  1.0
  N  N280  1  0.12786000  0.75642000  0.12993000  1.0
  N  N281  1  0.12786000  0.74358000  0.37007000  1.0
  N  N282  1  0.12786000  0.62993000  0.24358000  1.0
  N  N283  1  0.12786000  0.87007000  0.25643000  1.0
  N  N284  1  0.62786000  0.75642000  0.37007000  1.0
  N  N285  1  0.62786000  0.74358000  0.12993000  1.0
  N  N286  1  0.62786000  0.62993000  0.25642000  1.0
  N  N287  1  0.62786000  0.87007000  0.24358000  1.0
  N  N288  1  0.37214000  0.24358000  0.62993000  1.0
  N  N289  1  0.37214000  0.25642000  0.87007000  1.0
  N  N290  1  0.37214000  0.37007000  0.74358000  1.0
  N  N291  1  0.37213000  0.12993000  0.75642000  1.0
  N  N292  1  0.87214000  0.24358000  0.87007000  1.0
  N  N293  1  0.87214000  0.25642000  0.62993000  1.0
  N  N294  1  0.87214000  0.37007000  0.75643000  1.0
  N  N295  1  0.87214000  0.12993000  0.74358000  1.0
  F  F296  1  0.37850000  0.69127000  0.17390000  1.0
  F  F297  1  0.37850000  0.80873000  0.32610000  1.0
  F  F298  1  0.37850000  0.67390000  0.30873000  1.0
  F  F299  1  0.37850000  0.82609000  0.19127000  1.0
  F  F300  1  0.87850000  0.69127000  0.32610000  1.0
  F  F301  1  0.87849000  0.80873000  0.17391000  1.0
  F  F302  1  0.87850000  0.67390000  0.19127000  1.0
  F  F303  1  0.87850000  0.82610000  0.30873000  1.0
  F  F304  1  0.26357000  0.75000000  0.25000000  1.0
  F  F305  1  0.49322000  0.75000000  0.25000000  1.0
  F  F306  1  0.76357000  0.75000000  0.25000000  1.0
  F  F307  1  0.99322000  0.75001000  0.25000000  1.0
  F  F308  1  0.12150000  0.30873000  0.67390000  1.0
  F  F309  1  0.12150000  0.19127000  0.82610000  1.0
  F  F310  1  0.12150000  0.32610000  0.80873000  1.0
  F  F311  1  0.12150000  0.17390000  0.69127000  1.0
  F  F312  1  0.62150000  0.30874000  0.82610000  1.0
  F  F313  1  0.62151000  0.19127000  0.67391000  1.0
  F  F314  1  0.62150000  0.32610000  0.69127000  1.0
  F  F315  1  0.62151000  0.17391000  0.80874000  1.0
  F  F316  1  0.23642000  0.25000000  0.75000000  1.0
  F  F317  1  0.00678000  0.25000000  0.75000000  1.0
  F  F318  1  0.73643000  0.25001000  0.75000000  1.0
  F  F319  1  0.50678000  0.25000000  0.75000000  1.0
