# generated using pymatgen
data_CuH7C10N7O
_symmetry_space_group_name_H-M   'P 1'
_cell_length_a   9.07909000
_cell_length_b   11.25160000
_cell_length_c   11.66820000
_cell_angle_alpha   90.00000000
_cell_angle_beta   91.69140000
_cell_angle_gamma   90.00040000
_symmetry_Int_Tables_number   1
_chemical_formula_structural   CuH7C10N7O
_chemical_formula_sum   'Cu4 H28 C40 N28 O4'
_cell_volume   1191.43734191
_cell_formula_units_Z   4
loop_
 _symmetry_equiv_pos_site_id
 _symmetry_equiv_pos_as_xyz
  1  'x, y, z'
loop_
 _atom_site_type_symbol
 _atom_site_label
 _atom_site_symmetry_multiplicity
 _atom_site_fract_x
 _atom_site_fract_y
 _atom_site_fract_z
 _atom_site_occupancy
  Cu  Cu0  1  0.10126000  0.43114000  0.72458000  1.0
  Cu  Cu1  1  0.39874000  0.93113000  0.27542000  1.0
  Cu  Cu2  1  0.89874000  0.56886000  0.27542000  1.0
  Cu  Cu3  1  0.60127000  0.06886000  0.72458000  1.0
  H  H4  1  0.81069000  0.37857000  0.59905000  1.0
  H  H5  1  0.68932000  0.87855000  0.40094000  1.0
  H  H6  1  0.18930000  0.62143000  0.40095000  1.0
  H  H7  1  0.31070000  0.12143000  0.59904000  1.0
  H  H8  1  0.54822000  0.44947000  0.61693000  1.0
  H  H9  1  0.95179000  0.94946000  0.38305000  1.0
  H  H10  1  0.45178000  0.55054000  0.38307000  1.0
  H  H11  1  0.04823000  0.05053000  0.61692000  1.0
  H  H12  1  0.49371000  0.59689000  0.77201000  1.0
  H  H13  1  0.00629000  0.09689000  0.22797000  1.0
  H  H14  1  0.50629000  0.40311000  0.22798000  1.0
  H  H15  1  0.99371000  0.90312000  0.77201000  1.0
  H  H16  1  0.70316000  0.66938000  0.89966000  1.0
  H  H17  1  0.79684000  0.16938000  0.10034000  1.0
  H  H18  1  0.29685000  0.33062000  0.10034000  1.0
  H  H19  1  0.20314000  0.83063000  0.89967000  1.0
  H  H20  1  0.03863000  0.68556000  0.84101000  1.0
  H  H21  1  0.46136000  0.18555000  0.15899000  1.0
  H  H22  1  0.96137000  0.31445000  0.15898000  1.0
  H  H23  1  0.53862000  0.81445000  0.84103000  1.0
  H  H24  1  0.96662000  0.62588000  0.97079000  1.0
  H  H25  1  0.53337000  0.12588000  0.02921000  1.0
  H  H26  1  0.03338000  0.37412000  0.02920000  1.0
  H  H27  1  0.46661000  0.87413000  0.97080000  1.0
  H  H28  1  0.20151000  0.54896000  0.90869000  1.0
  H  H29  1  0.29849000  0.04896000  0.09131000  1.0
  H  H30  1  0.79849000  0.45104000  0.09130000  1.0
  H  H31  1  0.70150000  0.95104000  0.90870000  1.0
  C  C32  1  0.77939000  0.44381000  0.66270000  1.0
  C  C33  1  0.72062000  0.94380000  0.33729000  1.0
  C  C34  1  0.22062000  0.55619000  0.33730000  1.0
  C  C35  1  0.27938000  0.05618000  0.66270000  1.0
  C  C36  1  0.63577000  0.48437000  0.67310000  1.0
  C  C37  1  0.86423000  0.98436000  0.32689000  1.0
  C  C38  1  0.36422000  0.51564000  0.32689000  1.0
  C  C39  1  0.13578000  0.01564000  0.67310000  1.0
  C  C40  1  0.60588000  0.56644000  0.75905000  1.0
  C  C41  1  0.89412000  0.06644000  0.24094000  1.0
  C  C42  1  0.39412000  0.43356000  0.24095000  1.0
  C  C43  1  0.10588000  0.93357000  0.75905000  1.0
  C  C44  1  0.72097000  0.60623000  0.83064000  1.0
  C  C45  1  0.77903000  0.10624000  0.16935000  1.0
  C  C46  1  0.27904000  0.39377000  0.16936000  1.0
  C  C47  1  0.22095000  0.89378000  0.83065000  1.0
  C  C48  1  0.86285000  0.56388000  0.81373000  1.0
  C  C49  1  0.63715000  0.06388000  0.18627000  1.0
  C  C50  1  0.13715000  0.43612000  0.18627000  1.0
  C  C51  1  0.36284000  0.93613000  0.81373000  1.0
  C  C52  1  0.99466000  0.60522000  0.88215000  1.0
  C  C53  1  0.50534000  0.10522000  0.11785000  1.0
  C  C54  1  0.00534000  0.39478000  0.11784000  1.0
  C  C55  1  0.49465000  0.89479000  0.88216000  1.0
  C  C56  1  0.26793000  0.67063000  0.61801000  1.0
  C  C57  1  0.23207000  0.17064000  0.38199000  1.0
  C  C58  1  0.73207000  0.32937000  0.38199000  1.0
  C  C59  1  0.76793000  0.82936000  0.61802000  1.0
  C  C60  1  0.39337000  0.79109000  0.49406000  1.0
  C  C61  1  0.10663000  0.29109000  0.50595000  1.0
  C  C62  1  0.60664000  0.20891000  0.50595000  1.0
  C  C63  1  0.89338000  0.70891000  0.49406000  1.0
  C  C64  1  0.39133000  0.33458000  0.82683000  1.0
  C  C65  1  0.10867000  0.83457000  0.17317000  1.0
  C  C66  1  0.60867000  0.66542000  0.17317000  1.0
  C  C67  1  0.89133000  0.16542000  0.82683000  1.0
  C  C68  1  0.58133000  0.34632000  0.96350000  1.0
  C  C69  1  0.91867000  0.84632000  0.03650000  1.0
  C  C70  1  0.41867000  0.65369000  0.03649000  1.0
  C  C71  1  0.08133000  0.15369000  0.96351000  1.0
  N  N72  1  0.88991000  0.48322000  0.73161000  1.0
  N  N73  1  0.61009000  0.98321000  0.26839000  1.0
  N  N74  1  0.11009000  0.51678000  0.26839000  1.0
  N  N75  1  0.38991000  0.01678000  0.73161000  1.0
  N  N76  1  0.18822000  0.59571000  0.64970000  1.0
  N  N77  1  0.31178000  0.09572000  0.35030000  1.0
  N  N78  1  0.81178000  0.40428000  0.35030000  1.0
  N  N79  1  0.68824000  0.90427000  0.64970000  1.0
  N  N80  1  0.35810000  0.75598000  0.59406000  1.0
  N  N81  1  0.14190000  0.25598000  0.40594000  1.0
  N  N82  1  0.64189000  0.24403000  0.40595000  1.0
  N  N83  1  0.85811000  0.74401000  0.59406000  1.0
  N  N84  1  0.43895000  0.82668000  0.40647000  1.0
  N  N85  1  0.06105000  0.32668000  0.59353000  1.0
  N  N86  1  0.56106000  0.17331000  0.59354000  1.0
  N  N87  1  0.93895000  0.67331000  0.40646000  1.0
  N  N88  1  0.29174000  0.36159000  0.76533000  1.0
  N  N89  1  0.20825000  0.86158000  0.23468000  1.0
  N  N90  1  0.70825000  0.63841000  0.23468000  1.0
  N  N91  1  0.79175000  0.13840000  0.76534000  1.0
  N  N92  1  0.50061000  0.29281000  0.88671000  1.0
  N  N93  1  0.99939000  0.79280000  0.11328000  1.0
  N  N94  1  0.49940000  0.70720000  0.11329000  1.0
  N  N95  1  0.00061000  0.20720000  0.88671000  1.0
  N  N96  1  0.65991000  0.38206000  0.03822000  1.0
  N  N97  1  0.84008000  0.88206000  0.96179000  1.0
  N  N98  1  0.34009000  0.61795000  0.96178000  1.0
  N  N99  1  0.15991000  0.11795000  0.03822000  1.0
  O  O100  1  0.10271000  0.51223000  0.88210000  1.0
  O  O101  1  0.39729000  0.01222000  0.11790000  1.0
  O  O102  1  0.89730000  0.48778000  0.11789000  1.0
  O  O103  1  0.60270000  0.98778000  0.88211000  1.0
