# generated using pymatgen
data_TbH20C24NO10
_symmetry_space_group_name_H-M   'P 1'
_cell_length_a   10.24120000
_cell_length_b   16.95220000
_cell_length_c   18.42090000
_cell_angle_alpha   90.00010000
_cell_angle_beta   90.00050000
_cell_angle_gamma   89.99910000
_symmetry_Int_Tables_number   1
_chemical_formula_structural   TbH20C24NO10
_chemical_formula_sum   'Tb4 H80 C96 N4 O40'
_cell_volume   3198.06848645
_cell_formula_units_Z   4
loop_
 _symmetry_equiv_pos_site_id
 _symmetry_equiv_pos_as_xyz
  1  'x, y, z'
loop_
 _atom_site_type_symbol
 _atom_site_label
 _atom_site_symmetry_multiplicity
 _atom_site_fract_x
 _atom_site_fract_y
 _atom_site_fract_z
 _atom_site_occupancy
  Tb  Tb0  1  0.29774000  0.25000000  0.69864000  1.0
  Tb  Tb1  1  0.20227000  0.75000000  0.19865000  1.0
  Tb  Tb2  1  0.70227000  0.75000000  0.30135000  1.0
  Tb  Tb3  1  0.79773000  0.25000000  0.80136000  1.0
  H  H4  1  0.35598000  0.25000000  0.24510000  1.0
  H  H5  1  0.14398000  0.75002000  0.74510000  1.0
  H  H6  1  0.64396000  0.75000000  0.75490000  1.0
  H  H7  1  0.85601000  0.25000000  0.25490000  1.0
  H  H8  1  0.94795000  0.24999000  0.97422000  1.0
  H  H9  1  0.55206000  0.75000000  0.47424000  1.0
  H  H10  1  0.05205000  0.75001000  0.02576000  1.0
  H  H11  1  0.44795000  0.25000000  0.52576000  1.0
  H  H12  1  0.00697000  0.24999000  0.10627000  1.0
  H  H13  1  0.49304000  0.74999000  0.60629000  1.0
  H  H14  1  0.99303000  0.75001000  0.89372000  1.0
  H  H15  1  0.50697000  0.24999000  0.39372000  1.0
  H  H16  1  0.35536000  0.25002000  0.92139000  1.0
  H  H17  1  0.14465000  0.75000000  0.42138000  1.0
  H  H18  1  0.64464000  0.74999000  0.07861000  1.0
  H  H19  1  0.85535000  0.25001000  0.57862000  1.0
  H  H20  1  0.62066000  0.18368000  0.04345000  1.0
  H  H21  1  0.87933000  0.81630000  0.54347000  1.0
  H  H22  1  0.37932000  0.68369000  0.95655000  1.0
  H  H23  1  0.12067000  0.31630000  0.45653000  1.0
  H  H24  1  0.37933000  0.81631000  0.95652000  1.0
  H  H25  1  0.12067000  0.18369000  0.45654000  1.0
  H  H26  1  0.62067000  0.31631000  0.04347000  1.0
  H  H27  1  0.87933000  0.68370000  0.54349000  1.0
  H  H28  1  0.51719000  0.17590000  0.96687000  1.0
  H  H29  1  0.98276000  0.82410000  0.46689000  1.0
  H  H30  1  0.48280000  0.67590000  0.03312000  1.0
  H  H31  1  0.01723000  0.32410000  0.53311000  1.0
  H  H32  1  0.48276000  0.82410000  0.03311000  1.0
  H  H33  1  0.01723000  0.17590000  0.53312000  1.0
  H  H34  1  0.51722000  0.32410000  0.96689000  1.0
  H  H35  1  0.98275000  0.67589000  0.46690000  1.0
  H  H36  1  0.56538000  0.11188000  0.15829000  1.0
  H  H37  1  0.93459000  0.88813000  0.65831000  1.0
  H  H38  1  0.43460000  0.61186000  0.84169000  1.0
  H  H39  1  0.06541000  0.38814000  0.34169000  1.0
  H  H40  1  0.43462000  0.88813000  0.84169000  1.0
  H  H41  1  0.06542000  0.11186000  0.34170000  1.0
  H  H42  1  0.56539000  0.38813000  0.15831000  1.0
  H  H43  1  0.93461000  0.61187000  0.65832000  1.0
  H  H44  1  0.48060000  0.98447000  0.20552000  1.0
  H  H45  1  0.01937000  0.01554000  0.70553000  1.0
  H  H46  1  0.51937000  0.48445000  0.79448000  1.0
  H  H47  1  0.98064000  0.51555000  0.29448000  1.0
  H  H48  1  0.51940000  0.01554000  0.79447000  1.0
  H  H49  1  0.98064000  0.98446000  0.29448000  1.0
  H  H50  1  0.48064000  0.51555000  0.20553000  1.0
  H  H51  1  0.01939000  0.48446000  0.70553000  1.0
  H  H52  1  0.24838000  0.95569000  0.01260000  1.0
  H  H53  1  0.25162000  0.04430000  0.51261000  1.0
  H  H54  1  0.75163000  0.45568000  0.98740000  1.0
  H  H55  1  0.74838000  0.54432000  0.48739000  1.0
  H  H56  1  0.75163000  0.04431000  0.98740000  1.0
  H  H57  1  0.74839000  0.95569000  0.48739000  1.0
  H  H58  1  0.24837000  0.54432000  0.01261000  1.0
  H  H59  1  0.25163000  0.45570000  0.51262000  1.0
  H  H60  1  0.33744000  0.08230000  0.96405000  1.0
  H  H61  1  0.16253000  0.91768000  0.46406000  1.0
  H  H62  1  0.66255000  0.58231000  0.03595000  1.0
  H  H63  1  0.83744000  0.41769000  0.53593000  1.0
  H  H64  1  0.66255000  0.91769000  0.03594000  1.0
  H  H65  1  0.83745000  0.08230000  0.53594000  1.0
  H  H66  1  0.33743000  0.41769000  0.96406000  1.0
  H  H67  1  0.16254000  0.58231000  0.46407000  1.0
  H  H68  1  0.48544000  0.14058000  0.77791000  1.0
  H  H69  1  0.01453000  0.85940000  0.27790000  1.0
  H  H70  1  0.51456000  0.64060000  0.22210000  1.0
  H  H71  1  0.98547000  0.35939000  0.72209000  1.0
  H  H72  1  0.51455000  0.85942000  0.22210000  1.0
  H  H73  1  0.98546000  0.14060000  0.72210000  1.0
  H  H74  1  0.48547000  0.35940000  0.77790000  1.0
  H  H75  1  0.01454000  0.64061000  0.27790000  1.0
  H  H76  1  0.33858000  0.12427000  0.80171000  1.0
  H  H77  1  0.16140000  0.87573000  0.30172000  1.0
  H  H78  1  0.66142000  0.62429000  0.19827000  1.0
  H  H79  1  0.83860000  0.37572000  0.69827000  1.0
  H  H80  1  0.66141000  0.87574000  0.19828000  1.0
  H  H81  1  0.83859000  0.12428000  0.69828000  1.0
  H  H82  1  0.33861000  0.37572000  0.80173000  1.0
  H  H83  1  0.16140000  0.62429000  0.30173000  1.0
  C  C84  1  0.12257000  0.25000000  0.85970000  1.0
  C  C85  1  0.37746000  0.75000000  0.35972000  1.0
  C  C86  1  0.87744000  0.75000000  0.14030000  1.0
  C  C87  1  0.62254000  0.25000000  0.64029000  1.0
  C  C88  1  0.14968000  0.25000000  0.93969000  1.0
  C  C89  1  0.35034000  0.75000000  0.43970000  1.0
  C  C90  1  0.85032000  0.75000000  0.06030000  1.0
  C  C91  1  0.64968000  0.25000000  0.56030000  1.0
  C  C92  1  0.04965000  0.25000000  0.99163000  1.0
  C  C93  1  0.45036000  0.75000000  0.49164000  1.0
  C  C94  1  0.95035000  0.75000000  0.00836000  1.0
  C  C95  1  0.54964000  0.25000000  0.50836000  1.0
  C  C96  1  0.08268000  0.25000000  0.06476000  1.0
  C  C97  1  0.41734000  0.75000000  0.56478000  1.0
  C  C98  1  0.91732000  0.75001000  0.93523000  1.0
  C  C99  1  0.58268000  0.25000000  0.43523000  1.0
  C  C100  1  0.21352000  0.25000000  0.08860000  1.0
  C  C101  1  0.28649000  0.75000000  0.58861000  1.0
  C  C102  1  0.78646000  0.75001000  0.91139000  1.0
  C  C103  1  0.71352000  0.24999000  0.41139000  1.0
  C  C104  1  0.31394000  0.25000000  0.03600000  1.0
  C  C105  1  0.18606000  0.75000000  0.53599000  1.0
  C  C106  1  0.68604000  0.75000000  0.96400000  1.0
  C  C107  1  0.81393000  0.25000000  0.46401000  1.0
  C  C108  1  0.27926000  0.25001000  0.96275000  1.0
  C  C109  1  0.22076000  0.75000000  0.46275000  1.0
  C  C110  1  0.72074000  0.75000000  0.03724000  1.0
  C  C111  1  0.77925000  0.25000000  0.53725000  1.0
  C  C112  1  0.23154000  0.25000000  0.16940000  1.0
  C  C113  1  0.26844000  0.75000000  0.66941000  1.0
  C  C114  1  0.76844000  0.75001000  0.83059000  1.0
  C  C115  1  0.73154000  0.24999000  0.33059000  1.0
  C  C116  1  0.51758000  0.17895000  0.02711000  1.0
  C  C117  1  0.98240000  0.82105000  0.52712000  1.0
  C  C118  1  0.48241000  0.67894000  0.97289000  1.0
  C  C119  1  0.01761000  0.32105000  0.47288000  1.0
  C  C120  1  0.48240000  0.82105000  0.97288000  1.0
  C  C121  1  0.01760000  0.17895000  0.47289000  1.0
  C  C122  1  0.51758000  0.32106000  0.02712000  1.0
  C  C123  1  0.98239000  0.67894000  0.52713000  1.0
  C  C124  1  0.45930000  0.10436000  0.05735000  1.0
  C  C125  1  0.04068000  0.89563000  0.55737000  1.0
  C  C126  1  0.54069000  0.60437000  0.94264000  1.0
  C  C127  1  0.95932000  0.39563000  0.44263000  1.0
  C  C128  1  0.54069000  0.89563000  0.94263000  1.0
  C  C129  1  0.95932000  0.10436000  0.44264000  1.0
  C  C130  1  0.45930000  0.39564000  0.05737000  1.0
  C  C131  1  0.04068000  0.60437000  0.55738000  1.0
  C  C132  1  0.49723000  0.07697000  0.12595000  1.0
  C  C133  1  0.00274000  0.92303000  0.62596000  1.0
  C  C134  1  0.50275000  0.57697000  0.87405000  1.0
  C  C135  1  0.99725000  0.42303000  0.37404000  1.0
  C  C136  1  0.50277000  0.92303000  0.87404000  1.0
  C  C137  1  0.99726000  0.07696000  0.37405000  1.0
  C  C138  1  0.49724000  0.42303000  0.12596000  1.0
  C  C139  1  0.00276000  0.57697000  0.62597000  1.0
  C  C140  1  0.44944000  0.00575000  0.15249000  1.0
  C  C141  1  0.05055000  0.99425000  0.65249000  1.0
  C  C142  1  0.55055000  0.50574000  0.84752000  1.0
  C  C143  1  0.94946000  0.49426000  0.34751000  1.0
  C  C144  1  0.55057000  0.99425000  0.84750000  1.0
  C  C145  1  0.94946000  0.00575000  0.34751000  1.0
  C  C146  1  0.44945000  0.49425000  0.15249000  1.0
  C  C147  1  0.05057000  0.50575000  0.65250000  1.0
  C  C148  1  0.36122000  0.96117000  0.11094000  1.0
  C  C149  1  0.13878000  0.03883000  0.61095000  1.0
  C  C150  1  0.63879000  0.46115000  0.88905000  1.0
  C  C151  1  0.86123000  0.53884000  0.38905000  1.0
  C  C152  1  0.63879000  0.03883000  0.88905000  1.0
  C  C153  1  0.86122000  0.96117000  0.38904000  1.0
  C  C154  1  0.36121000  0.53884000  0.11096000  1.0
  C  C155  1  0.13879000  0.46117000  0.61096000  1.0
  C  C156  1  0.31828000  0.99028000  0.04382000  1.0
  C  C157  1  0.18170000  0.00971000  0.54383000  1.0
  C  C158  1  0.68171000  0.49028000  0.95617000  1.0
  C  C159  1  0.81829000  0.50971000  0.45616000  1.0
  C  C160  1  0.68172000  0.00971000  0.95617000  1.0
  C  C161  1  0.81829000  0.99028000  0.45616000  1.0
  C  C162  1  0.31828000  0.50972000  0.04384000  1.0
  C  C163  1  0.18172000  0.49030000  0.54385000  1.0
  C  C164  1  0.36779000  0.06101000  0.01731000  1.0
  C  C165  1  0.13218000  0.93898000  0.51733000  1.0
  C  C166  1  0.63219000  0.56102000  0.98267000  1.0
  C  C167  1  0.86781000  0.43898000  0.48266000  1.0
  C  C168  1  0.63220000  0.93898000  0.98267000  1.0
  C  C169  1  0.86782000  0.06101000  0.48267000  1.0
  C  C170  1  0.36780000  0.43898000  0.01733000  1.0
  C  C171  1  0.13219000  0.56102000  0.51734000  1.0
  C  C172  1  0.31575000  0.88254000  0.13577000  1.0
  C  C173  1  0.18425000  0.11746000  0.63578000  1.0
  C  C174  1  0.68426000  0.38253000  0.86423000  1.0
  C  C175  1  0.81576000  0.61747000  0.36423000  1.0
  C  C176  1  0.68426000  0.11747000  0.86422000  1.0
  C  C177  1  0.81576000  0.88254000  0.36422000  1.0
  C  C178  1  0.31576000  0.61747000  0.13578000  1.0
  C  C179  1  0.18426000  0.38254000  0.63578000  1.0
  N  N180  1  0.45093000  0.25000000  0.05385000  1.0
  N  N181  1  0.04908000  0.75000000  0.55385000  1.0
  N  N182  1  0.54906000  0.75000000  0.94615000  1.0
  N  N183  1  0.95093000  0.25000000  0.44615000  1.0
  O  O184  1  0.22118000  0.25000000  0.81765000  1.0
  O  O185  1  0.27883000  0.75000000  0.31766000  1.0
  O  O186  1  0.77882000  0.75000000  0.18235000  1.0
  O  O187  1  0.72118000  0.25000000  0.68235000  1.0
  O  O188  1  0.00533000  0.25000000  0.83822000  1.0
  O  O189  1  0.49468000  0.75001000  0.33824000  1.0
  O  O190  1  0.99467000  0.75000000  0.16177000  1.0
  O  O191  1  0.50533000  0.25000000  0.66176000  1.0
  O  O192  1  0.35707000  0.25000000  0.19185000  1.0
  O  O193  1  0.14292000  0.75001000  0.69185000  1.0
  O  O194  1  0.64290000  0.75000000  0.80815000  1.0
  O  O195  1  0.85708000  0.25000000  0.30815000  1.0
  O  O196  1  0.13946000  0.25000000  0.21228000  1.0
  O  O197  1  0.36050000  0.75000000  0.71230000  1.0
  O  O198  1  0.86050000  0.75000000  0.78771000  1.0
  O  O199  1  0.63948000  0.24998000  0.28771000  1.0
  O  O200  1  0.36968000  0.84952000  0.19206000  1.0
  O  O201  1  0.13031000  0.15048000  0.69205000  1.0
  O  O202  1  0.63031000  0.34951000  0.80795000  1.0
  O  O203  1  0.86970000  0.65050000  0.30795000  1.0
  O  O204  1  0.63031000  0.15048000  0.80795000  1.0
  O  O205  1  0.86968000  0.84952000  0.30794000  1.0
  O  O206  1  0.36970000  0.65050000  0.19205000  1.0
  O  O207  1  0.13032000  0.34950000  0.69204000  1.0
  O  O208  1  0.22452000  0.84638000  0.10289000  1.0
  O  O209  1  0.27547000  0.15362000  0.60290000  1.0
  O  O210  1  0.77548000  0.34638000  0.89711000  1.0
  O  O211  1  0.72453000  0.65362000  0.39711000  1.0
  O  O212  1  0.77548000  0.15362000  0.89711000  1.0
  O  O213  1  0.72454000  0.84638000  0.39710000  1.0
  O  O214  1  0.22453000  0.65362000  0.10290000  1.0
  O  O215  1  0.27550000  0.34640000  0.60290000  1.0
  O  O216  1  0.39200000  0.13801000  0.75998000  1.0
  O  O217  1  0.10799000  0.86198000  0.25998000  1.0
  O  O218  1  0.60801000  0.63801000  0.24002000  1.0
  O  O219  1  0.89201000  0.36198000  0.74002000  1.0
  O  O220  1  0.60800000  0.86199000  0.24002000  1.0
  O  O221  1  0.89201000  0.13801000  0.74002000  1.0
  O  O222  1  0.39201000  0.36199000  0.75998000  1.0
  O  O223  1  0.10799000  0.63801000  0.25998000  1.0
