# generated using pymatgen
data_SnH13C9NO2
_symmetry_space_group_name_H-M   'P 1'
_cell_length_a   6.24320000
_cell_length_b   9.19999000
_cell_length_c   9.78556904
_cell_angle_alpha   90.50465021
_cell_angle_beta   107.52877965
_cell_angle_gamma   104.49780000
_symmetry_Int_Tables_number   1
_chemical_formula_structural   SnH13C9NO2
_chemical_formula_sum   'Sn2 H26 C18 N2 O4'
_cell_volume   516.72932261
_cell_formula_units_Z   2
loop_
 _symmetry_equiv_pos_site_id
 _symmetry_equiv_pos_as_xyz
  1  'x, y, z'
loop_
 _atom_site_type_symbol
 _atom_site_label
 _atom_site_symmetry_multiplicity
 _atom_site_fract_x
 _atom_site_fract_y
 _atom_site_fract_z
 _atom_site_occupancy
  Sn  Sn0  1  0.00667000  0.84373000  0.22782000  1.0
  Sn  Sn1  1  0.99333000  0.15626000  0.77218000  1.0
  H  H2  1  0.29572000  0.45844000  0.38296000  1.0
  H  H3  1  0.70427000  0.54156000  0.61704000  1.0
  H  H4  1  0.58298000  0.69783000  0.36516000  1.0
  H  H5  1  0.41702000  0.30218000  0.63483000  1.0
  H  H6  1  0.87128000  0.46720000  0.13280000  1.0
  H  H7  1  0.12871000  0.53278000  0.86718000  1.0
  H  H8  1  0.59956000  0.22027000  0.14495000  1.0
  H  H9  1  0.40046000  0.77973000  0.85503000  1.0
  H  H10  1  0.55757000  0.85655000  0.19226000  1.0
  H  H11  1  0.44245000  0.14349000  0.80777000  1.0
  H  H12  1  0.66474000  0.94933000  0.05706000  1.0
  H  H13  1  0.33526000  0.05066000  0.94295000  1.0
  H  H14  1  0.75591000  0.03988000  0.23673000  1.0
  H  H15  1  0.24415000  0.96013000  0.76328000  1.0
  H  H16  1  0.19277000  0.70478000  0.46048000  1.0
  H  H17  1  0.80727000  0.29523000  0.53953000  1.0
  H  H18  1  0.16185000  0.88100000  0.51828000  1.0
  H  H19  1  0.83816000  0.11899000  0.48173000  1.0
  H  H20  1  0.39965000  0.87683000  0.45209000  1.0
  H  H21  1  0.60034000  0.12319000  0.54791000  1.0
  H  H22  1  0.90656000  0.66182000  0.98262000  1.0
  H  H23  1  0.09346000  0.33819000  0.01738000  1.0
  H  H24  1  0.14611000  0.82079000  0.99490000  1.0
  H  H25  1  0.85389000  0.17922000  0.00511000  1.0
  H  H26  1  0.19277000  0.66455000  0.09658000  1.0
  H  H27  1  0.80724000  0.33545000  0.90341000  1.0
  C  C28  1  0.26726000  0.17536000  0.28637000  1.0
  C  C29  1  0.73269000  0.82462000  0.71366000  1.0
  C  C30  1  0.42699000  0.32104000  0.26590000  1.0
  C  C31  1  0.57301000  0.67895000  0.73412000  1.0
  C  C32  1  0.42053000  0.45773000  0.32584000  1.0
  C  C33  1  0.57947000  0.54226000  0.67417000  1.0
  C  C34  1  0.57754000  0.59042000  0.31426000  1.0
  C  C35  1  0.42246000  0.40958000  0.68573000  1.0
  C  C36  1  0.74055000  0.46164000  0.18678000  1.0
  C  C37  1  0.25944000  0.53836000  0.81320000  1.0
  C  C38  1  0.58966000  0.32411000  0.19357000  1.0
  C  C39  1  0.41029000  0.67586000  0.80642000  1.0
  C  C40  1  0.70801000  0.93230000  0.17198000  1.0
  C  C41  1  0.29201000  0.06771000  0.82803000  1.0
  C  C42  1  0.21660000  0.82409000  0.44124000  1.0
  C  C43  1  0.78339000  0.17591000  0.55876000  1.0
  C  C44  1  0.07087000  0.73316000  0.05471000  1.0
  C  C45  1  0.92914000  0.26685000  0.94530000  1.0
  N  N46  1  0.73538000  0.59307000  0.24540000  1.0
  N  N47  1  0.26457000  0.40694000  0.75456000  1.0
  O  O48  1  0.24138000  0.06061000  0.19916000  1.0
  O  O49  1  0.75862000  0.93939000  0.80083000  1.0
  O  O50  1  0.17634000  0.17480000  0.38375000  1.0
  O  O51  1  0.82366000  0.82518000  0.61627000  1.0
