# generated using pymatgen
data_Zn3H36C54(N4O3)4
_symmetry_space_group_name_H-M   'P 1'
_cell_length_a   11.40740000
_cell_length_b   14.47420000
_cell_length_c   18.69990797
_cell_angle_alpha   74.62418017
_cell_angle_beta   72.23631376
_cell_angle_gamma   90.01330000
_symmetry_Int_Tables_number   1
_chemical_formula_structural   Zn3H36C54(N4O3)4
_chemical_formula_sum   'Zn6 H72 C108 N32 O24'
_cell_volume   2824.05884337
_cell_formula_units_Z   2
loop_
 _symmetry_equiv_pos_site_id
 _symmetry_equiv_pos_as_xyz
  1  'x, y, z'
loop_
 _atom_site_type_symbol
 _atom_site_label
 _atom_site_symmetry_multiplicity
 _atom_site_fract_x
 _atom_site_fract_y
 _atom_site_fract_z
 _atom_site_occupancy
  Zn  Zn0  1  0.19982000  0.57713000  0.30774000  1.0
  Zn  Zn1  1  0.50734000  0.92300000  0.69226000  1.0
  Zn  Zn2  1  0.80018000  0.42287000  0.69226000  1.0
  Zn  Zn3  1  0.49266000  0.07700000  0.30774000  1.0
  Zn  Zn4  1  1.00000000  0.50000000  0.50000000  1.0
  Zn  Zn5  1  0.50000000  0.00000000  0.50000000  1.0
  H  H6  1  0.47839000  0.61363000  0.23116000  1.0
  H  H7  1  0.70972000  0.88672000  0.76865000  1.0
  H  H8  1  0.52162000  0.38637000  0.76884000  1.0
  H  H9  1  0.29027000  0.11328000  0.23136000  1.0
  H  H10  1  0.62984000  0.63497000  0.09704000  1.0
  H  H11  1  0.72725000  0.86538000  0.90270000  1.0
  H  H12  1  0.37016000  0.36502000  0.90296000  1.0
  H  H13  1  0.27276000  0.13461000  0.09730000  1.0
  H  H14  1  0.32001000  0.60646000  0.01550000  1.0
  H  H15  1  0.33584000  0.89360000  0.98453000  1.0
  H  H16  1  0.67999000  0.39354000  0.98450000  1.0
  H  H17  1  0.66417000  0.10640000  0.01547000  1.0
  H  H18  1  0.18007333  0.58881000  0.15326000  1.0
  H  H19  1  0.33354000  0.91127000  0.84683000  1.0
  H  H20  1  0.81987000  0.41119000  0.84674000  1.0
  H  H21  1  0.66646000  0.08873000  0.15317000  1.0
  H  H22  1  0.46352000  0.57887000  0.79907000  1.0
  H  H23  1  0.26265000  0.92107000  0.20091000  1.0
  H  H24  1  0.53647000  0.42113000  0.20094000  1.0
  H  H25  1  0.73735000  0.07893000  0.79909000  1.0
  H  H26  1  0.47265000  0.59230000  0.66092000  1.0
  H  H27  1  0.13353000  0.90761000  0.33903000  1.0
  H  H28  1  0.52735000  0.40769000  0.33908000  1.0
  H  H29  1  0.86647000  0.09239000  0.66096000  1.0
  H  H30  1  0.80768000  0.75724000  0.57276000  1.0
  H  H31  1  0.38027000  0.74272000  0.42725000  1.0
  H  H32  1  0.19232000  0.24276000  0.42724000  1.0
  H  H33  1  0.61973000  0.25728000  0.57275000  1.0
  H  H34  1  0.81463000  0.75069000  0.70487000  1.0
  H  H35  1  0.51946000  0.74936000  0.29517000  1.0
  H  H36  1  0.18537000  0.24931000  0.29513000  1.0
  H  H37  1  0.48054000  0.25064000  0.70483000  1.0
  H  H38  1  0.89939000  0.59026000  0.87443000  1.0
  H  H39  1  0.77404000  0.90960000  0.12567000  1.0
  H  H40  1  0.10061000  0.40974000  0.12557000  1.0
  H  H41  1  0.22596000  0.09040000  0.87433000  1.0
  H  H42  1  0.88131000  0.63181000  0.77995000  1.0
  H  H43  1  0.66137000  0.86800000  0.22013000  1.0
  H  H44  1  0.11869000  0.36819000  0.22005000  1.0
  H  H45  1  0.33863000  0.13200000  0.77987000  1.0
  H  H46  1  0.00163000  0.70839000  0.92379000  1.0
  H  H47  1  0.92553000  0.79137000  0.07629000  1.0
  H  H48  1  0.99837000  0.29162000  0.07621000  1.0
  H  H49  1  0.07447000  0.20863000  0.92371000  1.0
  H  H50  1  0.02345000  0.95513000  0.74005000  1.0
  H  H51  1  0.76318000  0.54473000  0.26007000  1.0
  H  H52  1  0.97656000  0.04487000  0.25994000  1.0
  H  H53  1  0.23682000  0.45527000  0.73993000  1.0
  H  H54  1  0.92791000  0.44752000  0.24223000  1.0
  H  H55  1  0.17011000  0.05272000  0.75778000  1.0
  H  H56  1  0.07208000  0.55248000  0.75778000  1.0
  H  H57  1  0.82991000  0.94728000  0.24221000  1.0
  H  H58  1  0.75803000  0.34424000  0.23264000  1.0
  H  H59  1  0.99054000  0.15590000  0.76740000  1.0
  H  H60  1  0.24198000  0.65576000  0.76736000  1.0
  H  H61  1  0.00946000  0.84410000  0.23260000  1.0
  H  H62  1  0.70611000  0.16992000  0.46692000  1.0
  H  H63  1  0.17297000  0.33026000  0.53312000  1.0
  H  H64  1  0.29389000  0.83008000  0.53308000  1.0
  H  H65  1  0.82704000  0.66975000  0.46688000  1.0
  H  H66  1  0.87553000  0.27005000  0.47611000  1.0
  H  H67  1  0.35163000  0.23020000  0.52390000  1.0
  H  H68  1  0.12447000  0.72995000  0.52389000  1.0
  H  H69  1  0.64837000  0.76981000  0.47610000  1.0
  H  H70  1  0.28646000  0.44850000  0.59081000  1.0
  H  H71  1  0.87747000  0.05166000  0.40914000  1.0
  H  H72  1  0.71353000  0.55150000  0.40919000  1.0
  H  H73  1  0.12253000  0.94834000  0.59086000  1.0
  H  H74  1  0.53233000  0.57977000  0.35952000  1.0
  H  H75  1  0.89171000  0.92005000  0.64044000  1.0
  H  H76  1  0.46766000  0.42023000  0.64048000  1.0
  H  H77  1  0.10829000  0.07995000  0.35956000  1.0
  C  C78  1  0.44765000  0.61272000  0.18156000  1.0
  C  C79  1  0.62943000  0.88755000  0.81830000  1.0
  C  C80  1  0.55235000  0.38728000  0.81844000  1.0
  C  C81  1  0.37057000  0.11245000  0.18170000  1.0
  C  C82  1  0.53093000  0.62395000  0.10752000  1.0
  C  C83  1  0.63875000  0.87633000  0.89232000  1.0
  C  C84  1  0.46908000  0.37604000  0.89248000  1.0
  C  C85  1  0.36125000  0.12367000  0.10768000  1.0
  C  C86  1  0.48578000  0.62083000  0.04626000  1.0
  C  C87  1  0.53238000  0.87938000  0.95365000  1.0
  C  C88  1  0.51422000  0.37917000  0.95374000  1.0
  C  C89  1  0.46762000  0.12062000  0.04635000  1.0
  C  C90  1  0.35754000  0.60844000  0.06215000  1.0
  C  C91  1  0.41998000  0.89169000  0.93784000  1.0
  C  C92  1  0.64247000  0.39156000  0.93785000  1.0
  C  C93  1  0.58002000  0.10831000  0.06217000  1.0
  C  C94  1  0.28055000  0.59834000  0.13783000  1.0
  C  C95  1  0.41858000  0.90178000  0.86218000  1.0
  C  C96  1  0.71945000  0.40167000  0.86217000  1.0
  C  C97  1  0.58142000  0.09822000  0.13782000  1.0
  C  C98  1  0.56954000  0.63119000  0.96755000  1.0
  C  C99  1  0.53739000  0.86903000  0.03238000  1.0
  C  C100  1  0.43047000  0.36881000  0.03245000  1.0
  C  C101  1  0.46260000  0.13097000  0.96763000  1.0
  C  C102  1  0.63512000  0.64912000  0.84475000  1.0
  C  C103  1  0.48002000  0.85101000  0.15521000  1.0
  C  C104  1  0.36488000  0.35088000  0.15525000  1.0
  C  C105  1  0.51998000  0.14899000  0.84479000  1.0
  C  C106  1  0.64101000  0.65962000  0.76369000  1.0
  C  C107  1  0.40477000  0.84040000  0.23629000  1.0
  C  C108  1  0.35899000  0.34037000  0.23631000  1.0
  C  C109  1  0.59523000  0.15960000  0.76371000  1.0
  C  C110  1  0.54227000  0.61725000  0.75000000  1.0
  C  C111  1  0.29231000  0.88270000  0.24998000  1.0
  C  C112  1  0.45773000  0.38275000  0.25000000  1.0
  C  C113  1  0.70769000  0.11730000  0.75002000  1.0
  C  C114  1  0.54741000  0.62570000  0.67327000  1.0
  C  C115  1  0.22062000  0.87423000  0.32671000  1.0
  C  C116  1  0.45259000  0.37430000  0.32673000  1.0
  C  C117  1  0.77937000  0.12577000  0.67329000  1.0
  C  C118  1  0.73321000  0.71669000  0.62418000  1.0
  C  C119  1  0.35728000  0.78328000  0.37582000  1.0
  C  C120  1  0.26679000  0.28331000  0.37582000  1.0
  C  C121  1  0.64272000  0.21672000  0.62418000  1.0
  C  C122  1  0.73818000  0.71171000  0.69873000  1.0
  C  C123  1  0.43690000  0.78832000  0.30127000  1.0
  C  C124  1  0.26182000  0.28829000  0.30127000  1.0
  C  C125  1  0.56310000  0.21168000  0.69873000  1.0
  C  C126  1  0.86519000  0.64722000  0.83623000  1.0
  C  C127  1  0.70153000  0.85267000  0.16380000  1.0
  C  C128  1  0.13482000  0.35278000  0.16376000  1.0
  C  C129  1  0.29848000  0.14733000  0.83620000  1.0
  C  C130  1  0.99323000  0.76002000  0.87195000  1.0
  C  C131  1  0.86517000  0.73978000  0.12812000  1.0
  C  C132  1  0.00678000  0.23998000  0.12804000  1.0
  C  C133  1  0.13483000  0.26022000  0.87188000  1.0
  C  C134  1  0.00135000  0.88251000  0.77892000  1.0
  C  C135  1  0.78007000  0.61734000  0.22118000  1.0
  C  C136  1  0.99864000  0.11749000  0.22108000  1.0
  C  C137  1  0.21993000  0.38266000  0.77882000  1.0
  C  C138  1  0.01926000  0.42019000  0.36314000  1.0
  C  C139  1  0.38223000  0.07993000  0.63688000  1.0
  C  C140  1  0.98074000  0.57981000  0.63686000  1.0
  C  C141  1  0.61778000  0.92008000  0.36311000  1.0
  C  C142  1  0.91403000  0.36311000  0.35869000  1.0
  C  C143  1  0.27264000  0.13712000  0.64134000  1.0
  C  C144  1  0.08597000  0.63690000  0.64131000  1.0
  C  C145  1  0.72736000  0.86288000  0.35866000  1.0
  C  C146  1  0.87936000  0.38572000  0.29053000  1.0
  C  C147  1  0.16981000  0.11450000  0.70950000  1.0
  C  C148  1  0.12064000  0.61428000  0.70947000  1.0
  C  C149  1  0.83020000  0.88550000  0.29050000  1.0
  C  C150  1  0.78516000  0.32961000  0.28537000  1.0
  C  C151  1  0.07043000  0.17056000  0.71467000  1.0
  C  C152  1  0.21485000  0.67039000  0.71463000  1.0
  C  C153  1  0.92957000  0.82944000  0.28533000  1.0
  C  C154  1  0.72379000  0.25090000  0.34880000  1.0
  C  C155  1  0.07254000  0.24924000  0.65123000  1.0
  C  C156  1  0.27621000  0.74910000  0.65120000  1.0
  C  C157  1  0.92746000  0.75076000  0.34877000  1.0
  C  C158  1  0.75503000  0.23066000  0.41789000  1.0
  C  C159  1  0.17290000  0.26952000  0.58213000  1.0
  C  C160  1  0.24497000  0.76934000  0.58211000  1.0
  C  C161  1  0.82710000  0.73048000  0.41787000  1.0
  C  C162  1  0.85017000  0.28644000  0.42274000  1.0
  C  C163  1  0.27290000  0.21379000  0.57727000  1.0
  C  C164  1  0.14983000  0.71356000  0.57726000  1.0
  C  C165  1  0.72711000  0.78621000  0.42272000  1.0
  C  C166  1  0.62918000  0.18736000  0.34076000  1.0
  C  C167  1  0.96988000  0.31272000  0.65927000  1.0
  C  C168  1  0.37082000  0.81264000  0.65924000  1.0
  C  C169  1  0.03012000  0.68728000  0.34073000  1.0
  C  C170  1  0.28874000  0.52954000  0.44352000  1.0
  C  C171  1  0.73220000  0.97050000  0.55639000  1.0
  C  C172  1  0.71126000  0.47047000  0.55648000  1.0
  C  C173  1  0.26781000  0.02950000  0.44360000  1.0
  C  C174  1  0.39832000  0.51541000  0.47234000  1.0
  C  C175  1  0.87065000  0.98455000  0.52761000  1.0
  C  C176  1  0.60167000  0.48458000  0.52766000  1.0
  C  C177  1  0.12935000  0.01545000  0.47239000  1.0
  C  C178  1  0.38042000  0.47114000  0.55170000  1.0
  C  C179  1  0.93221000  0.02893000  0.44828000  1.0
  C  C180  1  0.61957000  0.52886000  0.44830000  1.0
  C  C181  1  0.06779000  0.97108000  0.55172000  1.0
  C  C182  1  0.51873000  0.54434000  0.42092000  1.0
  C  C183  1  0.93957000  0.95556000  0.57905000  1.0
  C  C184  1  0.48127000  0.45566000  0.57908000  1.0
  C  C185  1  0.06043000  0.04444000  0.42095000  1.0
  N  N186  1  0.32481000  0.59946000  0.19666000  1.0
  N  N187  1  0.52161000  0.90073000  0.80327000  1.0
  N  N188  1  0.67519000  0.40054000  0.80334000  1.0
  N  N189  1  0.47839000  0.09927000  0.19673000  1.0
  N  N190  1  0.53071000  0.63822000  0.90428000  1.0
  N  N191  1  0.43524000  0.86204000  0.09564000  1.0
  N  N192  1  0.46929000  0.36177000  0.09572000  1.0
  N  N193  1  0.56476000  0.13796000  0.90436000  1.0
  N  N194  1  0.69246000  0.63556000  0.95139000  1.0
  N  N195  1  0.64410000  0.86454000  0.04860000  1.0
  N  N196  1  0.30754000  0.36443000  0.04861000  1.0
  N  N197  1  0.35590000  0.13546000  0.95140000  1.0
  N  N198  1  0.73332000  0.64700000  0.87337000  1.0
  N  N199  1  0.60686000  0.85305000  0.12662000  1.0
  N  N200  1  0.26669000  0.35300000  0.12662000  1.0
  N  N201  1  0.39315000  0.14696000  0.87338000  1.0
  N  N202  1  0.64093000  0.67411000  0.61079000  1.0
  N  N203  1  0.25160000  0.82582000  0.38921000  1.0
  N  N204  1  0.35907000  0.32589000  0.38921000  1.0
  N  N205  1  0.74840000  0.17418000  0.61079000  1.0
  N  N206  1  0.93200000  0.73735000  0.82612000  1.0
  N  N207  1  0.75808000  0.76249000  0.17389000  1.0
  N  N208  1  0.06800000  0.26265000  0.17388000  1.0
  N  N209  1  0.24192000  0.23751000  0.82611000  1.0
  N  N210  1  0.93606000  0.81600000  0.76599000  1.0
  N  N211  1  0.70190000  0.68388000  0.23403000  1.0
  N  N212  1  0.06393000  0.18400000  0.23401000  1.0
  N  N213  1  0.29810000  0.31612000  0.76597000  1.0
  N  N214  1  0.03863000  0.85157000  0.84365000  1.0
  N  N215  1  0.88216000  0.64823000  0.15649000  1.0
  N  N216  1  0.96137000  0.14843000  0.15635000  1.0
  N  N217  1  0.11783000  0.35177000  0.84352000  1.0
  O  O218  1  0.08804000  0.47772000  0.29816000  1.0
  O  O219  1  0.38593000  0.02234000  0.70186000  1.0
  O  O220  1  0.91196000  0.52228000  0.70184000  1.0
  O  O221  1  0.61409000  0.97766000  0.29813000  1.0
  O  O222  1  0.03770000  0.40850000  0.42802000  1.0
  O  O223  1  0.46551000  0.09154000  0.57200000  1.0
  O  O224  1  0.96230000  0.59150000  0.57198000  1.0
  O  O225  1  0.53448000  0.90846000  0.42800000  1.0
  O  O226  1  0.61326000  0.20040000  0.27407000  1.0
  O  O227  1  0.88719000  0.29957000  0.72594000  1.0
  O  O228  1  0.38674000  0.79960000  0.72593000  1.0
  O  O229  1  0.11281000  0.70043000  0.27406000  1.0
  O  O230  1  0.56593000  0.11927000  0.39888000  1.0
  O  O231  1  0.96480000  0.38087000  0.60119000  1.0
  O  O232  1  0.43408000  0.88073000  0.60111000  1.0
  O  O233  1  0.03520000  0.61912000  0.39881000  1.0
  O  O234  1  0.31326000  0.55908000  0.36876000  1.0
  O  O235  1  0.68186000  0.94095000  0.63114000  1.0
  O  O236  1  0.68674000  0.44092000  0.63124000  1.0
  O  O237  1  0.31814000  0.05905000  0.36886000  1.0
  O  O238  1  0.18314000  0.51136000  0.49433000  1.0
  O  O239  1  0.67750000  0.98877000  0.50554000  1.0
  O  O240  1  0.81685000  0.48863000  0.50567000  1.0
  O  O241  1  0.32249000  0.01122000  0.49446000  1.0
