# generated using pymatgen
data_Zn2H45C55N7O12
_symmetry_space_group_name_H-M   'P 1'
_cell_length_a   14.65090000
_cell_length_b   16.04730000
_cell_length_c   23.71960000
_cell_angle_alpha   90.41120000
_cell_angle_beta   90.00050000
_cell_angle_gamma   89.45910000
_symmetry_Int_Tables_number   1
_chemical_formula_structural   Zn2H45C55N7O12
_chemical_formula_sum   'Zn2 H45 C55 N7 O12'
_cell_volume   5576.26106937
_cell_formula_units_Z   1
loop_
 _symmetry_equiv_pos_site_id
 _symmetry_equiv_pos_as_xyz
  1  'x, y, z'
loop_
 _atom_site_type_symbol
 _atom_site_label
 _atom_site_symmetry_multiplicity
 _atom_site_fract_x
 _atom_site_fract_y
 _atom_site_fract_z
 _atom_site_occupancy
  Zn  Zn0  1  0.40772000  0.50288000  0.49870000  1.0
  Zn  Zn1  1  0.59757000  0.49997000  0.50185000  1.0
  H  H2  1  0.42746000  0.70083000  0.05548000  1.0
  H  H3  1  0.39936000  0.92230000  0.44059000  1.0
  H  H4  1  0.63534000  0.08154000  0.54246000  1.0
  H  H5  1  0.37897000  0.06549000  0.45279000  1.0
  H  H6  1  0.36389000  0.94253000  0.54169000  1.0
  H  H7  1  0.44615000  0.92260000  0.59463000  1.0
  H  H8  1  0.07702000  0.63504000  0.48541000  1.0
  H  H9  1  0.91767000  0.63206000  0.48865000  1.0
  H  H10  1  0.92252000  0.41387000  0.43039000  1.0
  H  H11  1  0.08188000  0.41599000  0.42836000  1.0
  H  H12  1  0.91860000  0.52034000  0.41200000  1.0
  H  H13  1  0.65988000  0.51048000  0.32001000  1.0
  H  H14  1  0.07805000  0.52208000  0.40909000  1.0
  H  H15  1  0.92802000  0.44941000  0.58702000  1.0
  H  H16  1  0.08734000  0.45406000  0.58465000  1.0
  H  H17  1  0.92904000  0.37213000  0.53361000  1.0
  H  H18  1  0.08854000  0.37570000  0.53197000  1.0
  H  H19  1  0.92227000  0.60344000  0.56036000  1.0
  H  H20  1  0.08166000  0.60700000  0.55723000  1.0
  H  H21  1  0.54333000  0.29505000  0.94702000  1.0
  H  H22  1  0.55892000  0.29892000  0.05345000  1.0
  H  H23  1  0.63575000  0.50556000  0.78976000  1.0
  H  H24  1  0.36762000  0.50304000  0.32203000  1.0
  H  H25  1  0.64289000  0.50551000  0.68390000  1.0
  H  H26  1  0.35192000  0.48345000  0.67573000  1.0
  H  H27  1  0.34395000  0.48255000  0.78166000  1.0
  H  H28  1  0.65852000  0.51109000  0.21402000  1.0
  H  H29  1  0.34037000  0.07286000  0.61564000  1.0
  H  H30  1  0.22774000  0.12622000  0.56013000  1.0
  H  H31  1  0.26846000  0.04300000  0.51663000  1.0
  H  H32  1  0.30479000  0.14787000  0.50489000  1.0
  H  H33  1  0.55231000  0.01668000  0.61738000  1.0
  H  H34  1  0.58480000  0.16888000  0.60430000  1.0
  H  H35  1  0.36518000  0.50287000  0.21612000  1.0
  H  H36  1  0.56101000  0.13902000  0.67524000  1.0
  H  H37  1  0.47432000  0.18579000  0.63310000  1.0
  H  H38  1  0.37724000  0.75907000  0.97829000  1.0
  H  H39  1  0.30045000  0.65843000  0.89032000  1.0
  H  H40  1  0.37537000  0.73304000  0.86151000  1.0
  H  H41  1  0.28131000  0.76640000  0.90528000  1.0
  H  H42  1  0.48398000  0.07891000  0.41857000  1.0
  H  H43  1  0.62635000  0.06704000  0.46908000  1.0
  H  H44  1  0.51312000  0.93499000  0.41764000  1.0
  H  H45  1  0.64320000  0.92425000  0.48719000  1.0
  H  H46  1  0.62024000  0.93686000  0.55961000  1.0
  C  C47  1  0.49987000  0.66391000  0.50477000  1.0
  C  C48  1  0.49842000  0.41810000  0.87927000  1.0
  C  C49  1  0.57386000  0.50060000  0.76451000  1.0
  C  C50  1  0.50199000  0.49652000  0.61060000  1.0
  C  C51  1  0.57788000  0.50065000  0.70588000  1.0
  C  C52  1  0.49779000  0.49489000  0.67388000  1.0
  C  C53  1  0.41348000  0.48834000  0.70127000  1.0
  C  C54  1  0.40917000  0.48800000  0.75990000  1.0
  C  C55  1  0.48939000  0.49446000  0.79119000  1.0
  C  C56  1  0.59502000  0.50949000  0.23792000  1.0
  C  C57  1  0.59587000  0.50918000  0.29666000  1.0
  C  C58  1  0.44394000  0.64478000  0.03093000  1.0
  C  C59  1  0.51387000  0.50685000  0.32694000  1.0
  C  C60  1  0.43071000  0.50484000  0.29781000  1.0
  C  C61  1  0.42949000  0.50464000  0.23920000  1.0
  C  C62  1  0.49361000  0.33926000  0.49800000  1.0
  C  C63  1  0.51168000  0.50699000  0.20963000  1.0
  C  C64  1  0.46410000  0.95292000  0.45077000  1.0
  C  C65  1  0.59642000  0.95468000  0.51733000  1.0
  C  C66  1  0.59543000  0.05018000  0.50960000  1.0
  C  C67  1  0.45129000  0.04832000  0.45451000  1.0
  C  C68  1  0.49379000  0.24946000  0.50060000  1.0
  C  C69  1  0.43039000  0.64424000  0.97123000  1.0
  C  C70  1  0.49923000  0.92016000  0.50809000  1.0
  C  C71  1  0.49573000  0.08414000  0.50925000  1.0
  C  C72  1  0.44692000  0.05029000  0.56467000  1.0
  C  C73  1  0.43463000  0.95502000  0.55455000  1.0
  C  C74  1  0.49401000  0.17420000  0.50613000  1.0
  C  C75  1  0.49990000  0.82976000  0.50795000  1.0
  C  C76  1  0.51409000  0.50597000  0.39026000  1.0
  C  C77  1  0.50047000  0.75400000  0.50693000  1.0
  C  C78  1  0.94772000  0.58705000  0.51813000  1.0
  C  C79  1  0.05320000  0.58920000  0.51610000  1.0
  C  C80  1  0.45827000  0.57229000  0.94022000  1.0
  C  C81  1  0.94813000  0.47574000  0.44195000  1.0
  C  C82  1  0.05368000  0.47724000  0.44029000  1.0
  C  C83  1  0.91489000  0.49841000  0.50221000  1.0
  C  C84  1  0.09053000  0.50185000  0.49926000  1.0
  C  C85  1  0.05954000  0.43694000  0.54321000  1.0
  C  C86  1  0.95398000  0.43445000  0.54469000  1.0
  C  C87  1  0.18934000  0.50398000  0.49763000  1.0
  C  C88  1  0.81605000  0.49697000  0.50365000  1.0
  C  C89  1  0.52934000  0.42936000  0.12139000  1.0
  C  C90  1  0.48253000  0.58026000  0.12186000  1.0
  C  C91  1  0.48447000  0.49901000  0.97017000  1.0
  C  C92  1  0.47373000  0.57567000  0.05952000  1.0
  C  C93  1  0.49247000  0.50003000  0.03004000  1.0
  C  C94  1  0.51998000  0.42778000  0.05917000  1.0
  C  C95  1  0.28818000  0.10231000  0.53762000  1.0
  C  C96  1  0.53254000  0.14243000  0.63247000  1.0
  C  C97  1  0.33400000  0.71831000  0.89861000  1.0
  C  C98  1  0.50443000  0.42322000  0.94140000  1.0
  C  C99  1  0.52992000  0.35198000  0.97112000  1.0
  C  C100  1  0.53830000  0.35392000  0.02978000  1.0
  C  C101  1  0.47298000  0.57311000  0.87898000  1.0
  N  N102  1  0.50898000  0.50597000  0.14875000  1.0
  N  N103  1  0.48424000  0.49458000  0.85200000  1.0
  N  N104  1  0.26827000  0.50603000  0.49631000  1.0
  N  N105  1  0.73705000  0.49637000  0.50455000  1.0
  N  N106  1  0.36224000  0.09537000  0.57798000  1.0
  N  N107  1  0.50086000  0.05958000  0.61626000  1.0
  N  N108  1  0.38851000  0.71304000  0.94960000  1.0
  O  O109  1  0.42165000  0.62988000  0.50444000  1.0
  O  O110  1  0.46728000  0.64444000  0.14902000  1.0
  O  O111  1  0.47956000  0.63727000  0.85091000  1.0
  O  O112  1  0.50779000  0.35271000  0.85232000  1.0
  O  O113  1  0.57738000  0.62722000  0.50320000  1.0
  O  O114  1  0.42603000  0.49525000  0.58447000  1.0
  O  O115  1  0.58081000  0.49936000  0.58811000  1.0
  O  O116  1  0.41591000  0.37523000  0.49430000  1.0
  O  O117  1  0.57134000  0.37438000  0.50015000  1.0
  O  O118  1  0.43629000  0.50853000  0.41422000  1.0
  O  O119  1  0.59123000  0.50258000  0.41491000  1.0
  O  O120  1  0.55286000  0.36814000  0.14878000  1.0
