# generated using pymatgen
data_Zn2H19C23N2O10F
_symmetry_space_group_name_H-M   'P 1'
_cell_length_a   9.86745000
_cell_length_b   11.28590000
_cell_length_c   16.10400000
_cell_angle_alpha   90.02260000
_cell_angle_beta   102.45600000
_cell_angle_gamma   94.79310000
_symmetry_Int_Tables_number   1
_chemical_formula_structural   Zn2H19C23N2O10F
_chemical_formula_sum   'Zn2 H19 C23 N2 O10 F1'
_cell_volume   1744.74108008
_cell_formula_units_Z   1
loop_
 _symmetry_equiv_pos_site_id
 _symmetry_equiv_pos_as_xyz
  1  'x, y, z'
loop_
 _atom_site_type_symbol
 _atom_site_label
 _atom_site_symmetry_multiplicity
 _atom_site_fract_x
 _atom_site_fract_y
 _atom_site_fract_z
 _atom_site_occupancy
  Zn  Zn0  1  0.64223000  0.48519000  0.51962000  1.0
  Zn  Zn1  1  0.35906000  0.51280000  0.47554000  1.0
  H  H2  1  0.58895000  0.33498000  0.08168000  1.0
  H  H3  1  0.89949000  0.40538000  0.58618000  1.0
  H  H4  1  0.57739000  0.33000000  0.93499000  1.0
  H  H5  1  0.10193000  0.59391000  0.40930000  1.0
  H  H6  1  0.27375000  0.51806000  0.90107000  1.0
  H  H7  1  0.31993000  0.36999000  0.90526000  1.0
  H  H8  1  0.33629000  0.36888000  0.05230000  1.0
  H  H9  1  0.28238000  0.51436000  0.04765000  1.0
  H  H10  1  0.64266000  0.65782000  0.94331000  1.0
  H  H11  1  0.46617000  0.69177000  0.91702000  1.0
  H  H12  1  0.73790000  0.81087000  0.18738000  1.0
  H  H13  1  0.70643000  0.45110000  0.94737000  1.0
  H  H14  1  0.71809000  0.45589000  0.09319000  1.0
  H  H15  1  0.44930000  0.68564000  0.05881000  1.0
  H  H16  1  0.38248000  0.89603000  0.47949000  1.0
  H  H17  1  0.62021000  0.10415000  0.50233000  1.0
  H  H18  1  0.30063000  0.10469000  0.47206000  1.0
  H  H19  1  0.87941000  0.57075000  0.44475000  1.0
  H  H20  1  0.12445000  0.43550000  0.55479000  1.0
  C  C21  1  0.43888000  0.26944000  0.48826000  1.0
  C  C22  1  0.51295000  0.06458000  0.49189000  1.0
  C  C23  1  0.58934000  0.86137000  0.50046000  1.0
  C  C24  1  0.49296000  0.50133000  0.65971000  1.0
  C  C25  1  0.48862000  0.93756000  0.48940000  1.0
  C  C26  1  0.07557000  0.49285000  0.50386000  1.0
  C  C27  1  0.92763000  0.51144000  0.49452000  1.0
  C  C28  1  0.56391000  0.72915000  0.50184000  1.0
  C  C29  1  0.50954000  0.50281000  0.33556000  1.0
  C  C30  1  0.60525000  0.42073000  0.96143000  1.0
  C  C31  1  0.35134000  0.45944000  0.93341000  1.0
  C  C32  1  0.61323000  0.42403000  0.05835000  1.0
  C  C33  1  0.35897000  0.45909000  0.03036000  1.0
  C  C34  1  0.51158000  0.50509000  0.24605000  1.0
  C  C35  1  0.49522000  0.50254000  0.91546000  1.0
  C  C36  1  0.66950000  0.69589000  0.09984000  1.0
  C  C37  1  0.50663000  0.50586000  0.07981000  1.0
  C  C38  1  0.53484000  0.63546000  0.04815000  1.0
  C  C39  1  0.53743000  0.63037000  0.95226000  1.0
  C  C40  1  0.51095000  0.50667000  0.17053000  1.0
  C  C41  1  0.49108000  0.50210000  0.82474000  1.0
  C  C42  1  0.49087000  0.50167000  0.74921000  1.0
  C  C43  1  0.41001000  0.13864000  0.48313000  1.0
  N  N44  1  0.15164000  0.54048000  0.45572000  1.0
  N  N45  1  0.85052000  0.46076000  0.54090000  1.0
  O  O46  1  0.56615000  0.31199000  0.50389000  1.0
  O  O47  1  0.64598000  0.77849000  0.15562000  1.0
  O  O48  1  0.33297000  0.33044000  0.47681000  1.0
  O  O49  1  0.61084000  0.49181000  0.64102000  1.0
  O  O50  1  0.37743000  0.51072000  0.60742000  1.0
  O  O51  1  0.66986000  0.66972000  0.51846000  1.0
  O  O52  1  0.43636000  0.68873000  0.48621000  1.0
  O  O53  1  0.62571000  0.49613000  0.38771000  1.0
  O  O54  1  0.39080000  0.50760000  0.35409000  1.0
  O  O55  1  0.78663000  0.67516000  0.09383000  1.0
  F  F56  1  0.72571000  0.90302000  0.51315000  1.0
