# generated using pymatgen
data_ScH4C8O5
_symmetry_space_group_name_H-M   'P 1'
_cell_length_a   12.51290000
_cell_length_b   15.46500000
_cell_length_c   25.23693789
_cell_angle_alpha   107.84855259
_cell_angle_beta   104.34937707
_cell_angle_gamma   89.99790000
_symmetry_Int_Tables_number   1
_chemical_formula_structural   ScH4C8O5
_chemical_formula_sum   'Sc12 H48 C96 O60'
_cell_volume   4488.28550970
_cell_formula_units_Z   12
loop_
 _symmetry_equiv_pos_site_id
 _symmetry_equiv_pos_as_xyz
  1  'x, y, z'
loop_
 _atom_site_type_symbol
 _atom_site_label
 _atom_site_symmetry_multiplicity
 _atom_site_fract_x
 _atom_site_fract_y
 _atom_site_fract_z
 _atom_site_occupancy
  Sc  Sc0  1  0.51969000  0.82824000  0.78923000  1.0
  Sc  Sc1  1  0.31396000  0.87233000  0.87781000  1.0
  Sc  Sc2  1  0.39716000  0.33851000  0.54433000  1.0
  Sc  Sc3  1  0.76943000  0.96096000  0.78919000  1.0
  Sc  Sc4  1  0.06384000  0.00544000  0.87780000  1.0
  Sc  Sc5  1  0.64721000  0.20575000  0.54433000  1.0
  Sc  Sc6  1  0.73055000  0.67173000  0.21079000  1.0
  Sc  Sc7  1  0.43616000  0.62763000  0.12219000  1.0
  Sc  Sc8  1  0.85281000  0.16146000  0.45568000  1.0
  Sc  Sc9  1  0.98031000  0.53901000  0.21082000  1.0
  Sc  Sc10  1  0.18602000  0.49453000  0.12220000  1.0
  Sc  Sc11  1  0.10285000  0.29423000  0.45568000  1.0
  H  H12  1  0.42460000  0.97659000  0.83886000  1.0
  H  H13  1  0.07497000  0.68746000  0.75004000  1.0
  H  H14  1  0.90362000  0.72960000  0.70805000  1.0
  H  H15  1  0.58634000  0.58336000  0.66660000  1.0
  H  H16  1  0.86261000  0.43762000  0.62540000  1.0
  H  H17  1  0.99172000  0.47950000  0.58310000  1.0
  H  H18  1  0.33014000  0.58349667  0.66666667  1.0
  H  H19  1  0.75791000  0.76971000  0.91632000  1.0
  H  H20  1  0.92957000  0.85506000  0.95901000  1.0
  H  H21  1  0.91422000  0.86231000  0.83885000  1.0
  H  H22  1  0.17494000  0.06255000  0.75006000  1.0
  H  H23  1  0.30432000  0.97849000  0.70802000  1.0
  H  H24  1  0.58026000  0.08324000  0.66662000  1.0
  H  H25  1  0.26289000  0.18789000  0.62542000  1.0
  H  H26  1  0.09152000  0.10365000  0.58317000  1.0
  H  H27  1  0.83647000  0.08322000  0.66662000  1.0
  H  H28  1  0.65845000  0.14660000  0.91627000  1.0
  H  H29  1  0.52949000  0.10406000  0.95901000  1.0
  H  H30  1  0.58579000  0.52341000  0.16116000  1.0
  H  H31  1  0.32504000  0.81247000  0.24989000  1.0
  H  H32  1  0.19573000  0.77047000  0.29200000  1.0
  H  H33  1  0.91976000  0.91654333  0.33333333  1.0
  H  H34  1  0.23714000  0.06247000  0.37461000  1.0
  H  H35  1  0.40850000  0.02039000  0.41685000  1.0
  H  H36  1  0.66352000  0.91650333  0.33333333  1.0
  H  H37  1  0.84150000  0.73028000  0.08368000  1.0
  H  H38  1  0.97056000  0.64504000  0.04099000  1.0
  H  H39  1  0.07538000  0.63769000  0.16116000  1.0
  H  H40  1  0.42499000  0.43743000  0.24994000  1.0
  H  H41  1  0.59635000  0.52156000  0.29198000  1.0
  H  H42  1  0.91365000  0.41672333  0.33333333  1.0
  H  H43  1  0.63744000  0.31217000  0.37458000  1.0
  H  H44  1  0.50829000  0.39635000  0.41685000  1.0
  H  H45  1  0.16987000  0.41680333  0.33333333  1.0
  H  H46  1  0.74207000  0.35332000  0.08367000  1.0
  H  H47  1  0.57043000  0.39604000  0.04103000  1.0
  H  H48  1  0.14769000  0.89768000  0.79538000  1.0
  H  H49  1  0.35232000  0.60234000  0.20463000  1.0
  H  H50  1  0.68611000  0.93609000  0.87222000  1.0
  H  H51  1  0.81393000  0.56388000  0.12779000  1.0
  H  H52  1  0.48081000  0.23078000  0.46159000  1.0
  H  H53  1  0.01921000  0.26923000  0.53843000  1.0
  H  H54  1  0.25002000  0.19232000  0.50000000  1.0
  H  H55  1  0.75001000  0.30768000  0.50001000  1.0
  H  H56  1  0.50297000  0.75004000  0.99998000  1.0
  H  H57  1  0.24684000  0.75002000  0.00000000  1.0
  H  H58  1  0.99699000  0.25002000  1.00000000  1.0
  H  H59  1  0.25317000  0.24999000  0.00000000  1.0
  C  C60  1  0.29188000  0.71224000  0.75986000  1.0
  C  C61  1  0.20943000  0.64403000  0.71216000  1.0
  C  C62  1  0.09784000  0.64236000  0.71266000  1.0
  C  C63  1  0.01730000  0.58357000  0.66654000  1.0
  C  C64  1  0.89903000  0.58362000  0.66654000  1.0
  C  C65  1  0.85330000  0.66471000  0.69028000  1.0
  C  C66  1  0.74203000  0.66451000  0.69148000  1.0
  C  C67  1  0.69786000  0.75068000  0.72101000  1.0
  C  C68  1  0.67331000  0.58347000  0.66654000  1.0
  C  C69  1  0.71726000  0.50251000  0.64165000  1.0
  C  C70  1  0.64386000  0.41610000  0.61246000  1.0
  C  C71  1  0.82974000  0.50247000  0.64288000  1.0
  C  C72  1  0.05187000  0.52475000  0.62045000  1.0
  C  C73  1  0.16401000  0.52317000  0.62099000  1.0
  C  C74  1  0.24310000  0.58359000  0.66660000  1.0
  C  C75  1  0.19896000  0.45517000  0.57326000  1.0
  C  C76  1  0.54063000  0.78369000  0.90627000  1.0
  C  C77  1  0.62347000  0.76418000  0.95423000  1.0
  C  C78  1  0.73510000  0.76223000  0.95377000  1.0
  C  C79  1  0.97982000  0.80759000  0.97644000  1.0
  C  C80  1  0.09110000  0.80629000  0.97526000  1.0
  C  C81  1  0.13516000  0.86354000  0.94607000  1.0
  C  C82  1  0.96788000  0.04759000  0.75985000  1.0
  C  C83  1  0.00263000  0.06819000  0.71219000  1.0
  C  C84  1  0.11475000  0.07034000  0.71270000  1.0
  C  C85  1  0.14926000  0.08306000  0.66661000  1.0
  C  C86  1  0.26753000  0.08306000  0.66660000  1.0
  C  C87  1  0.33692000  0.02561000  0.69028000  1.0
  C  C88  1  0.44938000  0.02698000  0.69148000  1.0
  C  C89  1  0.52301000  0.97031000  0.72100000  1.0
  C  C90  1  0.49324000  0.08310000  0.66658000  1.0
  C  C91  1  0.42446000  0.13921000  0.64170000  1.0
  C  C92  1  0.46863000  0.19629000  0.61244000  1.0
  C  C93  1  0.31320000  0.14052000  0.64292000  1.0
  C  C94  1  0.06868000  0.09573000  0.62050000  1.0
  C  C95  1  0.95707000  0.09779000  0.62099000  1.0
  C  C96  1  0.92348000  0.08305000  0.66661000  1.0
  C  C97  1  0.87446000  0.11804000  0.57323000  1.0
  C  C98  1  0.86565000  0.12259000  0.90621000  1.0
  C  C99  1  0.83079000  0.19003000  0.95419000  1.0
  C  C100  1  0.71867000  0.19152000  0.95372000  1.0
  C  C101  1  0.49665000  0.16893000  0.97645000  1.0
  C  C102  1  0.38420000  0.16899000  0.97526000  1.0
  C  C103  1  0.31094000  0.08254000  0.94607000  1.0
  C  C104  1  0.53215000  0.78770000  0.24015000  1.0
  C  C105  1  0.49737000  0.85594000  0.28781000  1.0
  C  C106  1  0.38524000  0.85759000  0.28728000  1.0
  C  C107  1  0.35075000  0.91633333  0.33333333  1.0
  C  C108  1  0.23249000  0.91645000  0.33343000  1.0
  C  C109  1  0.16311000  0.83533000  0.30973000  1.0
  C  C110  1  0.05065000  0.83550000  0.30853000  1.0
  C  C111  1  0.97693000  0.74932000  0.27900000  1.0
  C  C112  1  0.00681000  0.91651000  0.33345000  1.0
  C  C113  1  0.07556000  0.99752000  0.35834000  1.0
  C  C114  1  0.03136000  0.08390000  0.38755000  1.0
  C  C115  1  0.18682000  0.99759000  0.35709000  1.0
  C  C116  1  0.43136000  0.97517000  0.37951000  1.0
  C  C117  1  0.54295000  0.97679000  0.37899000  1.0
  C  C118  1  0.57652000  0.91635333  0.33333333  1.0
  C  C119  1  0.62565000  0.04479000  0.42674000  1.0
  C  C120  1  0.63436000  0.71636000  0.09377000  1.0
  C  C121  1  0.66919000  0.73585000  0.04579000  1.0
  C  C122  1  0.78128000  0.73776000  0.04623000  1.0
  C  C123  1  0.00338000  0.69250000  0.02356000  1.0
  C  C124  1  0.11584000  0.69376000  0.02475000  1.0
  C  C125  1  0.18904000  0.63648000  0.05394000  1.0
  C  C126  1  0.20812000  0.45229000  0.24011000  1.0
  C  C127  1  0.29055000  0.43177000  0.28780000  1.0
  C  C128  1  0.40215000  0.42966000  0.28731000  1.0
  C  C129  1  0.48268000  0.41699000  0.33343000  1.0
  C  C130  1  0.60096000  0.41703000  0.33344000  1.0
  C  C131  1  0.64667000  0.47443000  0.30973000  1.0
  C  C132  1  0.75793000  0.47302000  0.30853000  1.0
  C  C133  1  0.80207000  0.52965000  0.27900000  1.0
  C  C134  1  0.82666000  0.41689000  0.33342000  1.0
  C  C135  1  0.78274000  0.36082000  0.35832000  1.0
  C  C136  1  0.85610000  0.30370000  0.38758000  1.0
  C  C137  1  0.67027000  0.35955000  0.35710000  1.0
  C  C138  1  0.44812000  0.40429000  0.37952000  1.0
  C  C139  1  0.33600000  0.40220000  0.37901000  1.0
  C  C140  1  0.25690000  0.41691333  0.33333333  1.0
  C  C141  1  0.30113000  0.38194000  0.42677000  1.0
  C  C142  1  0.95934000  0.37739000  0.09374000  1.0
  C  C143  1  0.87649000  0.30994000  0.04577000  1.0
  C  C144  1  0.76487000  0.30840000  0.04622000  1.0
  C  C145  1  0.52018000  0.33114000  0.02358000  1.0
  C  C146  1  0.40889000  0.33103000  0.02477000  1.0
  C  C147  1  0.36483000  0.41748000  0.05393000  1.0
  C  C148  1  0.58999000  0.75003000  0.00001000  1.0
  C  C149  1  0.81575000  0.75000000  0.00000000  1.0
  C  C150  1  0.93402000  0.75004000  0.00000000  1.0
  C  C151  1  0.15983000  0.75002000  0.00000000  1.0
  C  C152  1  0.90997000  0.25000000  0.99998000  1.0
  C  C153  1  0.68423000  0.24998000  0.99997000  1.0
  C  C154  1  0.56598000  0.25004000  1.00000000  1.0
  C  C155  1  0.34018000  0.25000000  0.00002000  1.0
  O  O156  1  0.26368000  0.75200000  0.80600000  1.0
  O  O157  1  0.38460000  0.72817000  0.75088000  1.0
  O  O158  1  0.30082000  0.43970000  0.58220000  1.0
  O  O159  1  0.12462000  0.41526000  0.52715000  1.0
  O  O160  1  0.68963000  0.34137000  0.60127000  1.0
  O  O161  1  0.53979000  0.42272000  0.59928000  1.0
  O  O162  1  0.60781000  0.74352000  0.73487000  1.0
  O  O163  1  0.75390000  0.82571000  0.73186000  1.0
  O  O164  1  0.44750000  0.80772000  0.91508000  1.0
  O  O165  1  0.56897000  0.77724000  0.86016000  1.0
  O  O166  1  0.07743000  0.92647000  0.93450000  1.0
  O  O167  1  0.22645000  0.84434000  0.93323000  1.0
  O  O168  1  0.41837000  0.91210000  0.83446000  1.0
  O  O169  1  0.04226000  0.05373000  0.80593000  1.0
  O  O170  1  0.86617000  0.02277000  0.75090000  1.0
  O  O171  1  0.78156000  0.14255000  0.58217000  1.0
  O  O172  1  0.90269000  0.11175000  0.52711000  1.0
  O  O173  1  0.41166000  0.25981000  0.60123000  1.0
  O  O174  1  0.55946000  0.17639000  0.59920000  1.0
  O  O175  1  0.62692000  0.99131000  0.73487000  1.0
  O  O176  1  0.47778000  0.90618000  0.73187000  1.0
  O  O177  1  0.96763000  0.10749000  0.91498000  1.0
  O  O178  1  0.79115000  0.08285000  0.86016000  1.0
  O  O179  1  0.35709000  0.00803000  0.93453000  1.0
  O  O180  1  0.20682000  0.08893000  0.93320000  1.0
  O  O181  1  0.91604000  0.92236000  0.83439000  1.0
  O  O182  1  0.45781000  0.74785000  0.19404000  1.0
  O  O183  1  0.63386000  0.77182000  0.24913000  1.0
  O  O184  1  0.71856000  0.06028000  0.41779000  1.0
  O  O185  1  0.59744000  0.08463000  0.47286000  1.0
  O  O186  1  0.08834000  0.15863000  0.39876000  1.0
  O  O187  1  0.94048000  0.07728000  0.40074000  1.0
  O  O188  1  0.87303000  0.75650000  0.26514000  1.0
  O  O189  1  0.02211000  0.67429000  0.26816000  1.0
  O  O190  1  0.53242000  0.69234000  0.08497000  1.0
  O  O191  1  0.70883000  0.72280000  0.13986000  1.0
  O  O192  1  0.14283000  0.57355000  0.06550000  1.0
  O  O193  1  0.29317000  0.65564000  0.06679000  1.0
  O  O194  1  0.58401000  0.58789000  0.16553000  1.0
  O  O195  1  0.23636000  0.44601000  0.19399000  1.0
  O  O196  1  0.11538000  0.47718000  0.24908000  1.0
  O  O197  1  0.19929000  0.35751000  0.41785000  1.0
  O  O198  1  0.37549000  0.38819000  0.47288000  1.0
  O  O199  1  0.81031000  0.24015000  0.39875000  1.0
  O  O200  1  0.96016000  0.32360000  0.40085000  1.0
  O  O201  1  0.89213000  0.50865000  0.26515000  1.0
  O  O202  1  0.74598000  0.59379000  0.26813000  1.0
  O  O203  1  0.05253000  0.39252000  0.08496000  1.0
  O  O204  1  0.93092000  0.41714000  0.13982000  1.0
  O  O205  1  0.42255000  0.49197000  0.06548000  1.0
  O  O206  1  0.27354000  0.41113000  0.06678000  1.0
  O  O207  1  0.08171000  0.57765000  0.16563000  1.0
  O  O208  1  0.16853000  0.91845000  0.83720000  1.0
  O  O209  1  0.33137000  0.58146000  0.16281000  1.0
  O  O210  1  0.66516000  0.91521000  0.83040000  1.0
  O  O211  1  0.83487000  0.58479000  0.16961000  1.0
  O  O212  1  0.50165000  0.25157000  0.50341000  1.0
  O  O213  1  0.99824000  0.24837000  0.49660000  1.0
  O  O214  1  0.25001000  0.25504000  0.49999000  1.0
  O  O215  1  0.75002000  0.24496000  0.50002000  1.0
