# generated using pymatgen
data_CdH7C13NO4
_symmetry_space_group_name_H-M   'P 1'
_cell_length_a   6.96263000
_cell_length_b   8.27478000
_cell_length_c   21.40380000
_cell_angle_alpha   95.01830000
_cell_angle_beta   90.00000000
_cell_angle_gamma   89.99970000
_symmetry_Int_Tables_number   1
_chemical_formula_structural   CdH7C13NO4
_chemical_formula_sum   'Cd4 H28 C52 N4 O16'
_cell_volume   1228.43653779
_cell_formula_units_Z   4
loop_
 _symmetry_equiv_pos_site_id
 _symmetry_equiv_pos_as_xyz
  1  'x, y, z'
loop_
 _atom_site_type_symbol
 _atom_site_label
 _atom_site_symmetry_multiplicity
 _atom_site_fract_x
 _atom_site_fract_y
 _atom_site_fract_z
 _atom_site_occupancy
  Cd  Cd0  1  0.71226000  0.83182000  0.28781000  1.0
  Cd  Cd1  1  0.21225000  0.66818000  0.21219000  1.0
  Cd  Cd2  1  0.28773000  0.16818000  0.71219000  1.0
  Cd  Cd3  1  0.78774000  0.33182000  0.78781000  1.0
  H  H4  1  0.30288000  0.70198000  0.41509000  1.0
  H  H5  1  0.80287000  0.79800000  0.08491000  1.0
  H  H6  1  0.69711000  0.29802000  0.58491000  1.0
  H  H7  1  0.19711000  0.20199000  0.91509000  1.0
  H  H8  1  0.30503000  0.78223000  0.53076000  1.0
  H  H9  1  0.80503000  0.71775000  0.96924000  1.0
  H  H10  1  0.69497000  0.21777000  0.46924000  1.0
  H  H11  1  0.19498000  0.28224000  0.03076000  1.0
  H  H12  1  0.20273000  0.27676000  0.49628000  1.0
  H  H13  1  0.70274000  0.22323000  0.00373000  1.0
  H  H14  1  0.79729000  0.72324000  0.50372000  1.0
  H  H15  1  0.29727000  0.77677000  0.99627000  1.0
  H  H16  1  0.96133000  0.36442000  0.41266000  1.0
  H  H17  1  0.46134000  0.13557000  0.08734000  1.0
  H  H18  1  0.03868000  0.63558000  0.58734000  1.0
  H  H19  1  0.53865000  0.86444000  0.91266000  1.0
  H  H20  1  0.95849000  0.57309000  0.33622000  1.0
  H  H21  1  0.45849000  0.92690000  0.16379000  1.0
  H  H22  1  0.04152000  0.42691000  0.66378000  1.0
  H  H23  1  0.54149000  0.07310000  0.83621000  1.0
  H  H24  1  0.41933000  0.35805000  0.23770000  1.0
  H  H25  1  0.91932000  0.14195000  0.26230000  1.0
  H  H26  1  0.58069000  0.64196000  0.76231000  1.0
  H  H27  1  0.08067000  0.85804000  0.73770000  1.0
  H  H28  1  0.45166000  0.14785000  0.31427000  1.0
  H  H29  1  0.95166000  0.35215000  0.18573000  1.0
  H  H30  1  0.54835000  0.85216000  0.68573000  1.0
  H  H31  1  0.04834000  0.64784000  0.81427000  1.0
  C  C32  1  0.23078000  0.88655000  0.32255000  1.0
  C  C33  1  0.73079000  0.61344000  0.17744000  1.0
  C  C34  1  0.76923000  0.11344000  0.67745000  1.0
  C  C35  1  0.26920000  0.38656000  0.82256000  1.0
  C  C36  1  0.24691000  0.94461000  0.39069000  1.0
  C  C37  1  0.74691000  0.55538000  0.10931000  1.0
  C  C38  1  0.75309000  0.05539000  0.60931000  1.0
  C  C39  1  0.25309000  0.44462000  0.89069000  1.0
  C  C40  1  0.27823000  0.82762000  0.43305000  1.0
  C  C41  1  0.77823000  0.67237000  0.06695000  1.0
  C  C42  1  0.72176000  0.17238000  0.56695000  1.0
  C  C43  1  0.22177000  0.32763000  0.93305000  1.0
  C  C44  1  0.27815000  0.87143000  0.49727000  1.0
  C  C45  1  0.77815000  0.62856000  0.00273000  1.0
  C  C46  1  0.72186000  0.12856000  0.50273000  1.0
  C  C47  1  0.22186000  0.37144000  0.99727000  1.0
  C  C48  1  0.24815000  0.03316000  0.52012000  1.0
  C  C49  1  0.74816000  0.46683000  0.97988000  1.0
  C  C50  1  0.75185000  0.96685000  0.47988000  1.0
  C  C51  1  0.25186000  0.53317000  0.02012000  1.0
  C  C52  1  0.21877000  0.15044000  0.47789000  1.0
  C  C53  1  0.71877000  0.34953000  0.02211000  1.0
  C  C54  1  0.78125000  0.84956000  0.52211000  1.0
  C  C55  1  0.28124000  0.65045000  0.97789000  1.0
  C  C56  1  0.21878000  0.10840000  0.41311000  1.0
  C  C57  1  0.71878000  0.39160000  0.08689000  1.0
  C  C58  1  0.78123000  0.89161000  0.58689000  1.0
  C  C59  1  0.28122000  0.60840000  0.91311000  1.0
  C  C60  1  0.25748000  0.07890000  0.58915000  1.0
  C  C61  1  0.75748000  0.42108000  0.91085000  1.0
  C  C62  1  0.74252000  0.92110000  0.41085000  1.0
  C  C63  1  0.24253000  0.57891000  0.08915000  1.0
  C  C64  1  0.20485000  0.23509000  0.36894000  1.0
  C  C65  1  0.70486000  0.26490000  0.13106000  1.0
  C  C66  1  0.79516000  0.76491000  0.63106000  1.0
  C  C67  1  0.29513000  0.73509000  0.86894000  1.0
  C  C68  1  0.06730000  0.35930000  0.37513000  1.0
  C  C69  1  0.56730000  0.14069000  0.12487000  1.0
  C  C70  1  0.93269000  0.64070000  0.62487000  1.0
  C  C71  1  0.43269000  0.85932000  0.87513000  1.0
  C  C72  1  0.06327000  0.47478000  0.33164000  1.0
  C  C73  1  0.56327000  0.02521000  0.16837000  1.0
  C  C74  1  0.93675000  0.52522000  0.66836000  1.0
  C  C75  1  0.43670000  0.97479000  0.83163000  1.0
  C  C76  1  0.32058000  0.35403000  0.27707000  1.0
  C  C77  1  0.82059000  0.14597000  0.22293000  1.0
  C  C78  1  0.67944000  0.64598000  0.72293000  1.0
  C  C79  1  0.17940000  0.85402000  0.77707000  1.0
  C  C80  1  0.33544000  0.23601000  0.31899000  1.0
  C  C81  1  0.83543000  0.26398000  0.18101000  1.0
  C  C82  1  0.66458000  0.76399000  0.68101000  1.0
  C  C83  1  0.16456000  0.73601000  0.81899000  1.0
  N  N84  1  0.18634000  0.47174000  0.28293000  1.0
  N  N85  1  0.68633000  0.02825000  0.21707000  1.0
  N  N86  1  0.81367000  0.52827000  0.71707000  1.0
  N  N87  1  0.31365000  0.97175000  0.78293000  1.0
  O  O88  1  0.37438000  0.81047000  0.29574000  1.0
  O  O89  1  0.87437000  0.68952000  0.20426000  1.0
  O  O90  1  0.62560000  0.18954000  0.70426000  1.0
  O  O91  1  0.12563000  0.31049000  0.79574000  1.0
  O  O92  1  0.07516000  0.90114000  0.29347000  1.0
  O  O93  1  0.57514000  0.59884000  0.20653000  1.0
  O  O94  1  0.92482000  0.09886000  0.70653000  1.0
  O  O95  1  0.42487000  0.40116000  0.79347000  1.0
  O  O96  1  0.28696000  0.96729000  0.62537000  1.0
  O  O97  1  0.78694000  0.53270000  0.87463000  1.0
  O  O98  1  0.71304000  0.03271000  0.37463000  1.0
  O  O99  1  0.21305000  0.46730000  0.12537000  1.0
  O  O100  1  0.23898000  0.22888000  0.60964000  1.0
  O  O101  1  0.73899000  0.27111000  0.89036000  1.0
  O  O102  1  0.76101000  0.77113000  0.39036000  1.0
  O  O103  1  0.26103000  0.72888000  0.10964000  1.0
