# generated using pymatgen
data_AgP2H24C28O2F3
_symmetry_space_group_name_H-M   'P 1'
_cell_length_a   10.03450000
_cell_length_b   10.95940000
_cell_length_c   12.56630000
_cell_angle_alpha   84.01390000
_cell_angle_beta   78.40470000
_cell_angle_gamma   72.76600000
_symmetry_Int_Tables_number   1
_chemical_formula_structural   AgP2H24C28O2F3
_chemical_formula_sum   'Ag2 P4 H48 C56 O4 F6'
_cell_volume   1291.48122929
_cell_formula_units_Z   2
loop_
 _symmetry_equiv_pos_site_id
 _symmetry_equiv_pos_as_xyz
  1  'x, y, z'
loop_
 _atom_site_type_symbol
 _atom_site_label
 _atom_site_symmetry_multiplicity
 _atom_site_fract_x
 _atom_site_fract_y
 _atom_site_fract_z
 _atom_site_occupancy
  Ag  Ag0  1  0.21084000  0.45869000  0.21752000  1.0
  Ag  Ag1  1  0.78916000  0.54131000  0.78247000  1.0
  P  P2  1  0.34455000  0.38739000  0.04375000  1.0
  P  P3  1  0.65545000  0.61261000  0.95625000  1.0
  P  P4  1  0.06267000  0.37270000  0.36062000  1.0
  P  P5  1  0.93733000  0.62730000  0.63938000  1.0
  H  H6  1  0.35854000  0.17185000  0.19888000  1.0
  H  H7  1  0.64146000  0.82815000  0.80112000  1.0
  H  H8  1  0.52821000  0.95525000  0.20768000  1.0
  H  H9  1  0.47179000  0.04475000  0.79232000  1.0
  H  H10  1  0.74615000  0.89478000  0.06702000  1.0
  H  H11  1  0.25385000  0.10522000  0.93298000  1.0
  H  H12  1  0.79328000  0.05267000  0.91613000  1.0
  H  H13  1  0.20672000  0.94733000  0.08387000  1.0
  H  H14  1  0.62582000  0.26536000  0.90562000  1.0
  H  H15  1  0.37418000  0.73464000  0.09438000  1.0
  H  H16  1  0.39635000  0.35677000  0.80428000  1.0
  H  H17  1  0.60365000  0.64323000  0.19572000  1.0
  H  H18  1  0.25780000  0.29744000  0.68811000  1.0
  H  H19  1  0.74220000  0.70257000  0.31188000  1.0
  H  H20  1  0.01766000  0.27082000  0.76588000  1.0
  H  H21  1  0.98234000  0.72918000  0.23412000  1.0
  H  H22  1  0.91803000  0.30637000  0.96143000  1.0
  H  H23  1  0.08198000  0.69363000  0.03857000  1.0
  H  H24  1  0.05858000  0.36435000  0.07994000  1.0
  H  H25  1  0.94143000  0.63564000  0.92006000  1.0
  H  H26  1  0.49867000  0.45811000  0.88624000  1.0
  H  H27  1  0.50133000  0.54189000  0.11376000  1.0
  H  H28  1  0.36823000  0.58483000  0.95464000  1.0
  H  H29  1  0.63177000  0.41517000  0.04536000  1.0
  H  H30  1  0.74670000  0.45511000  0.37356000  1.0
  H  H31  1  0.25330000  0.54489000  0.62644000  1.0
  H  H32  1  0.59195000  0.37471000  0.28872000  1.0
  H  H33  1  0.40806000  0.62529000  0.71129000  1.0
  H  H34  1  0.69317000  0.18115000  0.17689000  1.0
  H  H35  1  0.30683000  0.81885000  0.82312000  1.0
  H  H36  1  0.95182000  0.07156000  0.15076000  1.0
  H  H37  1  0.04818000  0.92845000  0.84924000  1.0
  H  H38  1  0.10973000  0.15457000  0.23436000  1.0
  H  H39  1  0.89026000  0.84543000  0.76564000  1.0
  H  H40  1  0.98382000  0.15776000  0.49395000  1.0
  H  H41  1  0.01618000  0.84224000  0.50605000  1.0
  H  H42  1  0.10943000  0.99431000  0.61919000  1.0
  H  H43  1  0.89057000  0.00569000  0.38080000  1.0
  H  H44  1  0.35444000  0.98398000  0.63748000  1.0
  H  H45  1  0.64556000  0.01602000  0.36252000  1.0
  H  H46  1  0.47550000  0.13658000  0.52812000  1.0
  H  H47  1  0.52450000  0.86342000  0.47188000  1.0
  H  H48  1  0.35047000  0.30091000  0.40250000  1.0
  H  H49  1  0.64953000  0.69910000  0.59750000  1.0
  H  H50  1  0.88708000  0.56384000  0.42885000  1.0
  H  H51  1  0.11292000  0.43616000  0.57115000  1.0
  H  H52  1  0.88158000  0.43145000  0.52246000  1.0
  H  H53  1  0.11842000  0.56856000  0.47755000  1.0
  C  C54  1  0.30449000  0.65752000  0.30498000  1.0
  C  C55  1  0.69550000  0.34248000  0.69502000  1.0
  C  C56  1  0.30539000  0.78517000  0.34968000  1.0
  C  C57  1  0.69461000  0.21482000  0.65032000  1.0
  C  C58  1  0.47778000  0.23275000  0.05055000  1.0
  C  C59  1  0.52222000  0.76725000  0.94945000  1.0
  C  C60  1  0.45309000  0.14463000  0.13605000  1.0
  C  C61  1  0.54691000  0.85537000  0.86395000  1.0
  C  C62  1  0.54902000  0.02335000  0.14157000  1.0
  C  C63  1  0.45098000  0.97665000  0.85843000  1.0
  C  C64  1  0.67147000  0.98942000  0.06249000  1.0
  C  C65  1  0.32853000  0.01059000  0.93751000  1.0
  C  C66  1  0.69784000  0.07755000  0.97819000  1.0
  C  C67  1  0.30216000  0.92245000  0.02182000  1.0
  C  C68  1  0.60166000  0.19850000  0.97190000  1.0
  C  C69  1  0.39834000  0.80150000  0.02810000  1.0
  C  C70  1  0.23756000  0.36263000  0.95091000  1.0
  C  C71  1  0.76245000  0.63736000  0.04908000  1.0
  C  C72  1  0.29197000  0.34602000  0.83985000  1.0
  C  C73  1  0.70803000  0.65397000  0.16015000  1.0
  C  C74  1  0.21289000  0.31362000  0.77366000  1.0
  C  C75  1  0.78711000  0.68638000  0.22633000  1.0
  C  C76  1  0.07878000  0.29834000  0.81691000  1.0
  C  C77  1  0.92123000  0.70166000  0.18309000  1.0
  C  C78  1  0.02265000  0.31801000  0.92707000  1.0
  C  C79  1  0.97735000  0.68198000  0.07293000  1.0
  C  C80  1  0.10168000  0.35011000  0.99383000  1.0
  C  C81  1  0.89832000  0.64989000  0.00617000  1.0
  C  C82  1  0.44625000  0.49258000  0.96757000  1.0
  C  C83  1  0.55375000  0.50742000  0.03243000  1.0
  C  C84  1  0.93959000  0.31108000  0.30933000  1.0
  C  C85  1  0.06041000  0.68893000  0.69067000  1.0
  C  C86  1  0.79357000  0.37189000  0.32412000  1.0
  C  C87  1  0.20643000  0.62811000  0.67589000  1.0
  C  C88  1  0.70520000  0.32541000  0.27632000  1.0
  C  C89  1  0.29480000  0.67459000  0.72369000  1.0
  C  C90  1  0.76196000  0.21783000  0.21378000  1.0
  C  C91  1  0.23804000  0.78217000  0.78622000  1.0
  C  C92  1  0.90759000  0.15621000  0.19901000  1.0
  C  C93  1  0.09241000  0.84379000  0.80100000  1.0
  C  C94  1  0.99612000  0.20272000  0.24608000  1.0
  C  C95  1  0.00388000  0.79728000  0.75392000  1.0
  C  C96  1  0.15899000  0.23976000  0.44017000  1.0
  C  C97  1  0.84101000  0.76024000  0.55983000  1.0
  C  C98  1  0.09166000  0.15304000  0.50122000  1.0
  C  C99  1  0.90834000  0.84696000  0.49878000  1.0
  C  C100  1  0.16224000  0.06117000  0.57161000  1.0
  C  C101  1  0.83776000  0.93884000  0.42839000  1.0
  C  C102  1  0.30015000  0.05542000  0.58160000  1.0
  C  C103  1  0.69985000  0.94458000  0.41840000  1.0
  C  C104  1  0.36811000  0.14088000  0.52037000  1.0
  C  C105  1  0.63189000  0.85912000  0.47963000  1.0
  C  C106  1  0.29814000  0.23282000  0.44939000  1.0
  C  C107  1  0.70186000  0.76718000  0.55061000  1.0
  C  C108  1  0.95299000  0.47988000  0.46839000  1.0
  C  C109  1  0.04701000  0.52013000  0.53161000  1.0
  O  O110  1  0.21073000  0.66892000  0.24740000  1.0
  O  O111  1  0.78927000  0.33107000  0.75261000  1.0
  O  O112  1  0.39532000  0.55960000  0.33130000  1.0
  O  O113  1  0.60469000  0.44038000  0.66870000  1.0
  F  F114  1  0.20926000  0.89098000  0.31555000  1.0
  F  F115  1  0.79074000  0.10901000  0.68445000  1.0
  F  F116  1  0.43585000  0.80681000  0.31868000  1.0
  F  F117  1  0.56414000  0.19319000  0.68133000  1.0
  F  F118  1  0.27753000  0.78021000  0.46080000  1.0
  F  F119  1  0.72247000  0.21978000  0.53921000  1.0
