# generated using pymatgen
data_NaH8C6N5O2
_symmetry_space_group_name_H-M   'P 1'
_cell_length_a   6.63628000
_cell_length_b   8.31913000
_cell_length_c   8.31915000
_cell_angle_alpha   91.73950000
_cell_angle_beta   106.73000000
_cell_angle_gamma   106.73000000
_symmetry_Int_Tables_number   1
_chemical_formula_structural   NaH8C6N5O2
_chemical_formula_sum   'Na2 H16 C12 N10 O4'
_cell_volume   418.00387693
_cell_formula_units_Z   2
loop_
 _symmetry_equiv_pos_site_id
 _symmetry_equiv_pos_as_xyz
  1  'x, y, z'
loop_
 _atom_site_type_symbol
 _atom_site_label
 _atom_site_symmetry_multiplicity
 _atom_site_fract_x
 _atom_site_fract_y
 _atom_site_fract_z
 _atom_site_occupancy
  Na  Na0  1  0.00000000  0.00000000  0.00000000  1.0
  Na  Na1  1  0.50000000  0.00000000  0.00000000  1.0
  H  H2  1  0.97961000  0.31014000  0.15563000  1.0
  H  H3  1  0.52039000  0.84437000  0.68986000  1.0
  H  H4  1  0.02038000  0.68986000  0.84437000  1.0
  H  H5  1  0.47961000  0.15563000  0.31014000  1.0
  H  H6  1  0.84395000  0.29052000  0.96252000  1.0
  H  H7  1  0.65605000  0.03748000  0.70948000  1.0
  H  H8  1  0.15605000  0.70948000  0.03748000  1.0
  H  H9  1  0.34395000  0.96252000  0.29052000  1.0
  H  H10  1  0.80791000  0.01195000  0.36784000  1.0
  H  H11  1  0.69209000  0.63216000  0.98805000  1.0
  H  H12  1  0.19209000  0.98804000  0.63215000  1.0
  H  H13  1  0.30791000  0.36784000  0.01195000  1.0
  H  H14  1  0.81111000  0.81229000  0.58444000  1.0
  H  H15  1  0.68888000  0.41556000  0.18770000  1.0
  H  H16  1  0.18888000  0.18770000  0.41556000  1.0
  H  H17  1  0.31112000  0.58445000  0.81230000  1.0
  C  C18  1  0.75000000  0.59609000  0.40391000  1.0
  C  C19  1  0.25000000  0.40390000  0.59609000  1.0
  C  C20  1  0.78429000  0.87873000  0.33279000  1.0
  C  C21  1  0.71571000  0.66722000  0.12127000  1.0
  C  C22  1  0.21570000  0.12127000  0.66721000  1.0
  C  C23  1  0.28430000  0.33278000  0.87873000  1.0
  C  C24  1  0.75000000  0.47400000  0.52600000  1.0
  C  C25  1  0.25001000  0.52600000  0.47401000  1.0
  C  C26  1  0.78698000  0.76734000  0.45391000  1.0
  C  C27  1  0.71302000  0.54609000  0.23265000  1.0
  C  C28  1  0.21302000  0.23266000  0.54610000  1.0
  C  C29  1  0.28699000  0.45391000  0.76735000  1.0
  N  N30  1  0.81543000  0.51456000  0.69553000  1.0
  N  N31  1  0.68457000  0.30447000  0.48544000  1.0
  N  N32  1  0.18457000  0.48545000  0.30447000  1.0
  N  N33  1  0.31544000  0.69553000  0.51456000  1.0
  N  N34  1  0.75000000  0.83177000  0.16824000  1.0
  N  N35  1  0.25001000  0.16823000  0.83177000  1.0
  N  N36  1  0.78885000  0.36659000  0.75869000  1.0
  N  N37  1  0.71115000  0.24131000  0.63341000  1.0
  N  N38  1  0.21115000  0.63341000  0.24131000  1.0
  N  N39  1  0.28885000  0.75869000  0.36659000  1.0
  O  O40  1  0.86391000  0.22617000  0.06232000  1.0
  O  O41  1  0.63609000  0.93769000  0.77384000  1.0
  O  O42  1  0.13609000  0.77384000  0.93769000  1.0
  O  O43  1  0.36391000  0.06232000  0.22617000  1.0
