# generated using pymatgen
data_YPH24(C13O2)3
_symmetry_space_group_name_H-M   'P 1'
_cell_length_a   6.93686000
_cell_length_b   17.82480000
_cell_length_c   17.82520000
_cell_angle_alpha   100.60200000
_cell_angle_beta   99.85830000
_cell_angle_gamma   99.85960000
_symmetry_Int_Tables_number   1
_chemical_formula_structural   YPH24(C13O2)3
_chemical_formula_sum   'Y2 P2 H48 C78 O12'
_cell_volume   2087.14204980
_cell_formula_units_Z   2
loop_
 _symmetry_equiv_pos_site_id
 _symmetry_equiv_pos_as_xyz
  1  'x, y, z'
loop_
 _atom_site_type_symbol
 _atom_site_label
 _atom_site_symmetry_multiplicity
 _atom_site_fract_x
 _atom_site_fract_y
 _atom_site_fract_z
 _atom_site_occupancy
  Y  Y0  1  0.78793000  0.50494000  0.47605000  1.0
  Y  Y1  1  0.28793000  0.47605000  0.50494000  1.0
  P  P2  1  0.28137000  0.07849000  0.92963000  1.0
  P  P3  1  0.78137000  0.92963000  0.07848000  1.0
  H  H4  1  0.64158000  0.08510000  0.85293000  1.0
  H  H5  1  0.14157000  0.85293000  0.08510000  1.0
  H  H6  1  0.11503000  0.91877000  0.85747000  1.0
  H  H7  1  0.61504000  0.85747000  0.91877000  1.0
  H  H8  1  0.42719000  0.25344000  0.96724000  1.0
  H  H9  1  0.92717000  0.96723000  0.25343000  1.0
  H  H10  1  0.64533000  0.05078000  0.01646000  1.0
  H  H11  1  0.14533000  0.01646000  0.05078000  1.0
  H  H12  1  0.00449000  0.17730000  0.95553000  1.0
  H  H13  1  0.50448000  0.95553000  0.17729000  1.0
  H  H14  1  0.30231000  0.10835000  0.76839000  1.0
  H  H15  1  0.80230000  0.76839000  0.10834000  1.0
  H  H16  1  0.73103000  0.98730000  0.75584000  1.0
  H  H17  1  0.23104000  0.75584000  0.98729000  1.0
  H  H18  1  0.20627000  0.82018000  0.76073000  1.0
  H  H19  1  0.70628000  0.76073000  0.82018000  1.0
  H  H20  1  0.72316000  0.33868000  0.05912000  1.0
  H  H21  1  0.22315000  0.05910000  0.33866000  1.0
  H  H22  1  0.94085000  0.13599000  0.10646000  1.0
  H  H23  1  0.44086000  0.10646000  0.13599000  1.0
  H  H24  1  0.83682000  0.25829000  0.87948000  1.0
  H  H25  1  0.33682000  0.87948000  0.25828000  1.0
  H  H26  1  0.12579000  0.18601000  0.69035000  1.0
  H  H27  1  0.62579000  0.69034000  0.18601000  1.0
  H  H28  1  0.85051000  0.37556000  0.19383000  1.0
  H  H29  1  0.35049000  0.19382000  0.37556000  1.0
  H  H30  1  0.23991000  0.22366000  0.12213000  1.0
  H  H31  1  0.73991000  0.12213000  0.22366000  1.0
  H  H32  1  0.12634000  0.45360000  0.30053000  1.0
  H  H33  1  0.62633000  0.30052000  0.45360000  1.0
  H  H34  1  0.51685000  0.30347000  0.22942000  1.0
  H  H35  1  0.01684000  0.22942000  0.30347000  1.0
  H  H36  1  0.22416000  0.78204000  0.63385000  1.0
  H  H37  1  0.72416000  0.63385000  0.78204000  1.0
  H  H38  1  0.84889000  0.87629000  0.73779000  1.0
  H  H39  1  0.34889000  0.73779000  0.87629000  1.0
  H  H40  1  0.31445000  0.67345000  0.54996000  1.0
  H  H41  1  0.81444000  0.54996000  0.67345000  1.0
  H  H42  1  0.93692000  0.76627000  0.65210000  1.0
  H  H43  1  0.43691000  0.65210000  0.76627000  1.0
  H  H44  1  0.59304000  0.25349000  0.78249000  1.0
  H  H45  1  0.09304000  0.78249000  0.25349000  1.0
  H  H46  1  0.08612000  0.30225000  0.66725000  1.0
  H  H47  1  0.58612000  0.66725000  0.30225000  1.0
  H  H48  1  0.40334000  0.32707000  0.70226000  1.0
  H  H49  1  0.90335000  0.70226000  0.32707000  1.0
  H  H50  1  0.89453000  0.37404000  0.58772000  1.0
  H  H51  1  0.39454000  0.58772000  0.37404000  1.0
  C  C52  1  0.36872000  0.00964000  0.86070000  1.0
  C  C53  1  0.86872000  0.86070000  0.00963000  1.0
  C  C54  1  0.51302000  0.14570000  0.98464000  1.0
  C  C55  1  0.01301000  0.98464000  0.14569000  1.0
  C  C56  1  0.16720000  0.13731000  0.86788000  1.0
  C  C57  1  0.66718000  0.86787000  0.13730000  1.0
  C  C58  1  0.54411000  0.02734000  0.83235000  1.0
  C  C59  1  0.04411000  0.83235000  0.02733000  1.0
  C  C60  1  0.24812000  0.93433000  0.83388000  1.0
  C  C61  1  0.74813000  0.83388000  0.93433000  1.0
  C  C62  1  0.53912000  0.22726000  0.99775000  1.0
  C  C63  1  0.03911000  0.99774000  0.22725000  1.0
  C  C64  1  0.66183000  0.11398000  0.02424000  1.0
  C  C65  1  0.16182000  0.02424000  0.11397000  1.0
  C  C66  1  0.03386000  0.17987000  0.89775000  1.0
  C  C67  1  0.53386000  0.89774000  0.17986000  1.0
  C  C68  1  0.20039000  0.14118000  0.79306000  1.0
  C  C69  1  0.70039000  0.79305000  0.14118000  1.0
  C  C70  1  0.59579000  0.97168000  0.77798000  1.0
  C  C71  1  0.09580000  0.77798000  0.97168000  1.0
  C  C72  1  0.29899000  0.87890000  0.77901000  1.0
  C  C73  1  0.79899000  0.77900000  0.87890000  1.0
  C  C74  1  0.70628000  0.27548000  0.05008000  1.0
  C  C75  1  0.20626000  0.05007000  0.27547000  1.0
  C  C76  1  0.82963000  0.16222000  0.07553000  1.0
  C  C77  1  0.32963000  0.07553000  0.16221000  1.0
  C  C78  1  0.93676000  0.22484000  0.85417000  1.0
  C  C79  1  0.43675000  0.85417000  0.22483000  1.0
  C  C80  1  0.10120000  0.18552000  0.74911000  1.0
  C  C81  1  0.60119000  0.74910000  0.18551000  1.0
  C  C82  1  0.47365000  0.89654000  0.74988000  1.0
  C  C83  1  0.97366000  0.74988000  0.89653000  1.0
  C  C84  1  0.85399000  0.24400000  0.09052000  1.0
  C  C85  1  0.35398000  0.09051000  0.24400000  1.0
  C  C86  1  0.96622000  0.22769000  0.77852000  1.0
  C  C87  1  0.46621000  0.77852000  0.22768000  1.0
  C  C88  1  0.02479000  0.29397000  0.14979000  1.0
  C  C89  1  0.52479000  0.14978000  0.29397000  1.0
  C  C90  1  0.99722000  0.36033000  0.19988000  1.0
  C  C91  1  0.49721000  0.19988000  0.36033000  1.0
  C  C92  1  0.21453000  0.27441000  0.16075000  1.0
  C  C93  1  0.71453000  0.16075000  0.27441000  1.0
  C  C94  1  0.15152000  0.40401000  0.26048000  1.0
  C  C95  1  0.65151000  0.26047000  0.40401000  1.0
  C  C96  1  0.37066000  0.31908000  0.22040000  1.0
  C  C97  1  0.87066000  0.22039000  0.31908000  1.0
  C  C98  1  0.33893000  0.38343000  0.27160000  1.0
  C  C99  1  0.83892000  0.27160000  0.38344000  1.0
  C  C100  1  0.49838000  0.42626000  0.33952000  1.0
  C  C101  1  0.99837000  0.33952000  0.42627000  1.0
  C  C102  1  0.52907000  0.83627000  0.69382000  1.0
  C  C103  1  0.02906000  0.69382000  0.83627000  1.0
  C  C104  1  0.38109000  0.77888000  0.63908000  1.0
  C  C105  1  0.88109000  0.63907000  0.77888000  1.0
  C  C106  1  0.73108000  0.83258000  0.69604000  1.0
  C  C107  1  0.23108000  0.69604000  0.83258000  1.0
  C  C108  1  0.43150000  0.71772000  0.59124000  1.0
  C  C109  1  0.93149000  0.59124000  0.71772000  1.0
  C  C110  1  0.78160000  0.77134000  0.64835000  1.0
  C  C111  1  0.28159000  0.64835000  0.77134000  1.0
  C  C112  1  0.63251000  0.71243000  0.59685000  1.0
  C  C113  1  0.13251000  0.59685000  0.71243000  1.0
  C  C114  1  0.68938000  0.64343000  0.55341000  1.0
  C  C115  1  0.18937000  0.55341000  0.64343000  1.0
  C  C116  1  0.85453000  0.27209000  0.73108000  1.0
  C  C117  1  0.35452000  0.73107000  0.27209000  1.0
  C  C118  1  0.66124000  0.28052000  0.74059000  1.0
  C  C119  1  0.16124000  0.74059000  0.28052000  1.0
  C  C120  1  0.93597000  0.30651000  0.67535000  1.0
  C  C121  1  0.43596000  0.67535000  0.30651000  1.0
  C  C122  1  0.55306000  0.32079000  0.69529000  1.0
  C  C123  1  0.05306000  0.69529000  0.32080000  1.0
  C  C124  1  0.82874000  0.34752000  0.63029000  1.0
  C  C125  1  0.32875000  0.63029000  0.34752000  1.0
  C  C126  1  0.63534000  0.35426000  0.63947000  1.0
  C  C127  1  0.13535000  0.63947000  0.35426000  1.0
  C  C128  1  0.51347000  0.39431000  0.59053000  1.0
  C  C129  1  0.01347000  0.59053000  0.39432000  1.0
  O  O130  1  0.68040000  0.42369000  0.34272000  1.0
  O  O131  1  0.18039000  0.34271000  0.42369000  1.0
  O  O132  1  0.44910000  0.46783000  0.39864000  1.0
  O  O133  1  0.94910000  0.39864000  0.46784000  1.0
  O  O134  1  0.87001000  0.64109000  0.55224000  1.0
  O  O135  1  0.37001000  0.55223000  0.64109000  1.0
  O  O136  1  0.55052000  0.58282000  0.51710000  1.0
  O  O137  1  0.05052000  0.51710000  0.58282000  1.0
  O  O138  1  0.59539000  0.43534000  0.54603000  1.0
  O  O139  1  0.09540000  0.54603000  0.43534000  1.0
  O  O140  1  0.32958000  0.38958000  0.59065000  1.0
  O  O141  1  0.82960000  0.59065000  0.38959000  1.0
