# generated using pymatgen
data_ZnSiH12C24(N2F5)2
_symmetry_space_group_name_H-M   'P 1'
_cell_length_a   7.76372000
_cell_length_b   14.14890000
_cell_length_c   14.17180000
_cell_angle_alpha   94.36580000
_cell_angle_beta   99.68610000
_cell_angle_gamma   99.69780000
_symmetry_Int_Tables_number   1
_chemical_formula_structural   ZnSiH12C24(N2F5)2
_chemical_formula_sum   'Zn1 Si1 H12 C24 N4 F10'
_cell_volume   1503.85629240
_cell_formula_units_Z   1
loop_
 _symmetry_equiv_pos_site_id
 _symmetry_equiv_pos_as_xyz
  1  'x, y, z'
loop_
 _atom_site_type_symbol
 _atom_site_label
 _atom_site_symmetry_multiplicity
 _atom_site_fract_x
 _atom_site_fract_y
 _atom_site_fract_z
 _atom_site_occupancy
  Zn  Zn0  1  0.50000000  0.50019000  0.49979000  1.0
  Si  Si1  1  0.00001000  0.49894000  0.50108000  1.0
  H  H2  1  0.25288000  0.63420000  0.44083000  1.0
  H  H3  1  0.22908000  0.80512000  0.43633000  1.0
  H  H4  1  0.79041000  0.87820000  0.56376000  1.0
  H  H5  1  0.21117000  0.12234000  0.43060000  1.0
  H  H6  1  0.74429000  0.36583000  0.56419000  1.0
  H  H7  1  0.76652000  0.19475000  0.56979000  1.0
  H  H8  1  0.25523000  0.43758000  0.63475000  1.0
  H  H9  1  0.23245000  0.43247000  0.80547000  1.0
  H  H10  1  0.79060000  0.56661000  0.87790000  1.0
  H  H11  1  0.20798000  0.43902000  0.12163000  1.0
  H  H12  1  0.74747000  0.55735000  0.36515000  1.0
  H  H13  1  0.77168000  0.56139000  0.19458000  1.0
  C  C14  1  0.36983000  0.68994000  0.46670000  1.0
  C  C15  1  0.35665000  0.78617000  0.46435000  1.0
  C  C16  1  0.50814000  0.85786000  0.49980000  1.0
  C  C17  1  0.66744000  0.82755000  0.53548000  1.0
  C  C18  1  0.66487000  0.72906000  0.53451000  1.0
  C  C19  1  0.50138000  0.95722000  0.50008000  1.0
  C  C20  1  0.49649000  0.04295000  0.50089000  1.0
  C  C21  1  0.49014000  0.14234000  0.50084000  1.0
  C  C22  1  0.33304000  0.17285000  0.46144000  1.0
  C  C23  1  0.33692000  0.27139000  0.46142000  1.0
  C  C24  1  0.62821000  0.31016000  0.53620000  1.0
  C  C25  1  0.64043000  0.21386000  0.53916000  1.0
  C  C26  1  0.37176000  0.46471000  0.69031000  1.0
  C  C27  1  0.35919000  0.46202000  0.78644000  1.0
  C  C28  1  0.51009000  0.49912000  0.85789000  1.0
  C  C29  1  0.66816000  0.53693000  0.82744000  1.0
  C  C30  1  0.66470000  0.53659000  0.72906000  1.0
  C  C31  1  0.50355000  0.49921000  0.95711000  1.0
  C  C32  1  0.49846000  0.49994000  0.04267000  1.0
  C  C33  1  0.49152000  0.50033000  0.14186000  1.0
  C  C34  1  0.33145000  0.46620000  0.17216000  1.0
  C  C35  1  0.33382000  0.46749000  0.27050000  1.0
  C  C36  1  0.63015000  0.53238000  0.30954000  1.0
  C  C37  1  0.64353000  0.53448000  0.21345000  1.0
  N  N38  1  0.52272000  0.66018000  0.50225000  1.0
  N  N39  1  0.47766000  0.34010000  0.49695000  1.0
  N  N40  1  0.52328000  0.50244000  0.66041000  1.0
  N  N41  1  0.47648000  0.49835000  0.33928000  1.0
  F  F42  1  0.22436000  0.48877000  0.49116000  1.0
  F  F43  1  0.77566000  0.50928000  0.51073000  1.0
  F  F44  1  0.00006000  0.58117000  0.41824000  1.0
  F  F45  1  0.99978000  0.41680000  0.58395000  1.0
  F  F46  1  0.08257000  0.58839000  0.58972000  1.0
  F  F47  1  0.91766000  0.40943000  0.41248000  1.0
  F  F48  1  0.81694000  0.70081000  0.56887000  1.0
  F  F49  1  0.18798000  0.29987000  0.42190000  1.0
  F  F50  1  0.81503000  0.57405000  0.70067000  1.0
  F  F51  1  0.18071000  0.43512000  0.29868000  1.0
