# generated using pymatgen
data_CdH8C14(NO2)2
_symmetry_space_group_name_H-M   'P 1'
_cell_length_a   7.82782000
_cell_length_b   9.45499000
_cell_length_c   10.21100000
_cell_angle_alpha   91.29120000
_cell_angle_beta   108.84680000
_cell_angle_gamma   111.94440000
_symmetry_Int_Tables_number   1
_chemical_formula_structural   CdH8C14(NO2)2
_chemical_formula_sum   'Cd2 H16 C28 N4 O8'
_cell_volume   654.50449547
_cell_formula_units_Z   2
loop_
 _symmetry_equiv_pos_site_id
 _symmetry_equiv_pos_as_xyz
  1  'x, y, z'
loop_
 _atom_site_type_symbol
 _atom_site_label
 _atom_site_symmetry_multiplicity
 _atom_site_fract_x
 _atom_site_fract_y
 _atom_site_fract_z
 _atom_site_occupancy
  Cd  Cd0  1  0.14294000  0.94813000  0.39861000  1.0
  Cd  Cd1  1  0.85707000  0.05187000  0.60140000  1.0
  H  H2  1  0.50031000  0.06522000  0.26781000  1.0
  H  H3  1  0.49971000  0.93479000  0.73219000  1.0
  H  H4  1  0.97186000  0.13479000  0.12959000  1.0
  H  H5  1  0.02814000  0.86520000  0.87042000  1.0
  H  H6  1  0.21488000  0.30480000  0.99121000  1.0
  H  H7  1  0.78512000  0.69519000  0.00879000  1.0
  H  H8  1  0.78034000  0.33236000  0.29779000  1.0
  H  H9  1  0.21966000  0.66764000  0.70221000  1.0
  H  H10  1  0.07086000  0.48100000  0.24152000  1.0
  H  H11  1  0.92914000  0.51902000  0.75849000  1.0
  H  H12  1  0.70289000  0.39995000  0.80482000  1.0
  H  H13  1  0.29710000  0.60005000  0.19518000  1.0
  H  H14  1  0.41340000  0.25190000  0.86083000  1.0
  H  H15  1  0.58659000  0.74810000  0.13917000  1.0
  H  H16  1  0.80285000  0.47338000  0.50276000  1.0
  H  H17  1  0.19714000  0.52663000  0.49724000  1.0
  C  C18  1  0.38956000  0.10729000  0.21233000  1.0
  C  C19  1  0.61045000  0.89271000  0.78768000  1.0
  C  C20  1  0.11696000  0.14448000  0.13660000  1.0
  C  C21  1  0.88304000  0.85551000  0.86341000  1.0
  C  C22  1  0.23468000  0.22930000  0.06768000  1.0
  C  C23  1  0.76533000  0.77069000  0.93232000  1.0
  C  C24  1  0.57870000  0.28236000  0.08326000  1.0
  C  C25  1  0.42129000  0.71764000  0.91674000  1.0
  C  C26  1  0.76474000  0.34544000  0.18928000  1.0
  C  C27  1  0.23526000  0.65457000  0.81072000  1.0
  C  C28  1  0.92912000  0.42970000  0.15605000  1.0
  C  C29  1  0.07088000  0.57033000  0.84395000  1.0
  C  C30  1  0.91296000  0.45316000  0.01754000  1.0
  C  C31  1  0.08704000  0.54687000  0.98246000  1.0
  C  C32  1  0.72363000  0.38532000  0.91329000  1.0
  C  C33  1  0.27636000  0.61470000  0.08670000  1.0
  C  C34  1  0.55776000  0.30064000  0.94446000  1.0
  C  C35  1  0.44223000  0.69938000  0.05554000  1.0
  C  C36  1  0.56904000  0.22322000  0.56604000  1.0
  C  C37  1  0.43097000  0.77677000  0.43396000  1.0
  C  C38  1  0.52659000  0.36336000  0.53032000  1.0
  C  C39  1  0.47340000  0.63662000  0.46967000  1.0
  C  C40  1  0.66981000  0.48680000  0.50096000  1.0
  C  C41  1  0.33017000  0.51320000  0.49905000  1.0
  C  C42  1  0.35302000  0.37673000  0.52917000  1.0
  C  C43  1  0.64698000  0.62327000  0.47083000  1.0
  C  C44  1  0.18638000  0.25383000  0.55767000  1.0
  C  C45  1  0.81360000  0.74615000  0.44232000  1.0
  N  N46  1  0.21440000  0.06847000  0.22521000  1.0
  N  N47  1  0.78561000  0.93153000  0.77479000  1.0
  N  N48  1  0.40770000  0.20554000  0.11746000  1.0
  N  N49  1  0.59231000  0.79445000  0.88254000  1.0
  O  O50  1  0.04652000  0.15351000  0.45291000  1.0
  O  O51  1  0.95347000  0.84647000  0.54707000  1.0
  O  O52  1  0.43593000  0.10448000  0.58196000  1.0
  O  O53  1  0.56408000  0.89552000  0.41805000  1.0
  O  O54  1  0.74347000  0.23831000  0.58140000  1.0
  O  O55  1  0.25654000  0.76170000  0.41860000  1.0
  O  O56  1  0.17913000  0.26013000  0.67929000  1.0
  O  O57  1  0.82087000  0.73986000  0.32071000  1.0
