# generated using pymatgen
data_ZnH20C20N4O5
_symmetry_space_group_name_H-M   'P 1'
_cell_length_a   9.89954000
_cell_length_b   10.72300000
_cell_length_c   11.93270000
_cell_angle_alpha   75.51920000
_cell_angle_beta   66.80560000
_cell_angle_gamma   86.74670000
_symmetry_Int_Tables_number   1
_chemical_formula_structural   ZnH20C20N4O5
_chemical_formula_sum   'Zn2 H40 C40 N8 O10'
_cell_volume   1126.07898267
_cell_formula_units_Z   2
loop_
 _symmetry_equiv_pos_site_id
 _symmetry_equiv_pos_as_xyz
  1  'x, y, z'
loop_
 _atom_site_type_symbol
 _atom_site_label
 _atom_site_symmetry_multiplicity
 _atom_site_fract_x
 _atom_site_fract_y
 _atom_site_fract_z
 _atom_site_occupancy
  Zn  Zn0  1  0.93665000  0.62515000  0.27373000  1.0
  Zn  Zn1  1  0.06335000  0.37485000  0.72627000  1.0
  H  H2  1  0.18941000  0.51720000  0.86953000  1.0
  H  H3  1  0.81057000  0.48281000  0.13047000  1.0
  H  H4  1  0.88186000  0.09562000  0.35211000  1.0
  H  H5  1  0.11814000  0.90438000  0.64789000  1.0
  H  H6  1  0.38283000  0.63426000  0.14891000  1.0
  H  H7  1  0.61717000  0.36576000  0.85109000  1.0
  H  H8  1  0.00912000  0.32966000  0.29018000  1.0
  H  H9  1  0.99087000  0.67034000  0.70982000  1.0
  H  H10  1  0.43984000  0.18795000  0.92058000  1.0
  H  H11  1  0.56015000  0.81206000  0.07941000  1.0
  H  H12  1  0.25130000  0.14273000  0.81133000  1.0
  H  H13  1  0.74868000  0.85728000  0.18869000  1.0
  H  H14  1  0.74646000  0.24523000  0.68203000  1.0
  H  H15  1  0.25355000  0.75477000  0.31797000  1.0
  H  H16  1  0.72368000  0.50293000  0.57182000  1.0
  H  H17  1  0.27634000  0.49708000  0.42819000  1.0
  H  H18  1  0.59062000  0.95090000  0.89573000  1.0
  H  H19  1  0.40939000  0.04910000  0.10424000  1.0
  H  H20  1  0.44203000  0.78386000  0.87964000  1.0
  H  H21  1  0.55799000  0.21612000  0.12035000  1.0
  H  H22  1  0.71469000  0.78985000  0.79583000  1.0
  H  H23  1  0.28532000  0.21013000  0.20416000  1.0
  H  H24  1  0.72328000  0.91674000  0.66491000  1.0
  H  H25  1  0.27674000  0.08325000  0.33508000  1.0
  H  H26  1  0.76468000  0.70638000  0.60532000  1.0
  H  H27  1  0.23533000  0.29361000  0.39466000  1.0
  H  H28  1  0.59465000  0.64165000  0.72777000  1.0
  H  H29  1  0.40537000  0.35834000  0.27222000  1.0
  H  H30  1  0.47867000  0.01047000  0.65468000  1.0
  H  H31  1  0.52133000  0.98951000  0.34531000  1.0
  H  H32  1  0.30959000  0.94206000  0.77688000  1.0
  H  H33  1  0.69040000  0.05791000  0.22312000  1.0
  H  H34  1  0.34977000  0.73608000  0.71109000  1.0
  H  H35  1  0.65023000  0.26389000  0.28890000  1.0
  H  H36  1  0.36350000  0.86532000  0.58164000  1.0
  H  H37  1  0.63650000  0.13466000  0.41835000  1.0
  H  H38  1  0.63576000  0.86757000  0.49890000  1.0
  H  H39  1  0.36424000  0.13241000  0.50108000  1.0
  H  H40  1  0.56617000  0.71108000  0.52294000  1.0
  H  H41  1  0.43383000  0.28890000  0.47705000  1.0
  C  C42  1  0.41275000  0.43736000  0.96075000  1.0
  C  C43  1  0.58725000  0.56267000  0.03924000  1.0
  C  C44  1  0.23259000  0.42249000  0.86689000  1.0
  C  C45  1  0.76739000  0.57752000  0.13312000  1.0
  C  C46  1  0.93436000  0.05423000  0.41714000  1.0
  C  C47  1  0.06565000  0.94578000  0.58287000  1.0
  C  C48  1  0.34510000  0.51545000  0.04479000  1.0
  C  C49  1  0.65490000  0.48458000  0.95521000  1.0
  C  C50  1  0.94573000  0.12266000  0.49835000  1.0
  C  C51  1  0.05427000  0.87735000  0.50165000  1.0
  C  C52  1  0.43586000  0.57657000  0.08159000  1.0
  C  C53  1  0.56414000  0.42346000  0.91841000  1.0
  C  C54  1  0.95454000  0.85990000  0.33504000  1.0
  C  C55  1  0.04546000  0.14010000  0.66497000  1.0
  C  C56  1  0.93379000  0.34258000  0.38103000  1.0
  C  C57  1  0.06621000  0.65743000  0.61897000  1.0
  C  C58  1  0.18109000  0.52846000  0.10941000  1.0
  C  C59  1  0.81891000  0.47157000  0.89059000  1.0
  C  C60  1  0.98640000  0.93041000  0.41779000  1.0
  C  C61  1  0.01360000  0.06960000  0.58221000  1.0
  C  C62  1  0.36100000  0.24865000  0.89363000  1.0
  C  C63  1  0.63898000  0.75137000  0.10637000  1.0
  C  C64  1  0.27011000  0.22746000  0.83809000  1.0
  C  C65  1  0.72986000  0.77255000  0.16194000  1.0
  C  C66  1  0.79514000  0.30140000  0.58546000  1.0
  C  C67  1  0.20487000  0.69861000  0.41454000  1.0
  C  C68  1  0.78515000  0.42801000  0.52977000  1.0
  C  C69  1  0.21485000  0.57200000  0.47024000  1.0
  C  C70  1  0.50491000  0.86901000  0.80578000  1.0
  C  C71  1  0.49510000  0.13098000  0.19421000  1.0
  C  C72  1  0.65857000  0.82938000  0.73176000  1.0
  C  C73  1  0.34144000  0.17060000  0.26822000  1.0
  C  C74  1  0.65273000  0.73123000  0.65978000  1.0
  C  C75  1  0.34728000  0.26876000  0.34021000  1.0
  C  C76  1  0.42200000  0.91944000  0.72062000  1.0
  C  C77  1  0.57800000  0.08054000  0.27937000  1.0
  C  C78  1  0.41780000  0.82292000  0.64618000  1.0
  C  C79  1  0.58221000  0.17705000  0.35381000  1.0
  C  C80  1  0.57218000  0.78322000  0.57254000  1.0
  C  C81  1  0.42782000  0.21676000  0.42745000  1.0
  N  N82  1  0.19241000  0.33718000  0.82087000  1.0
  N  N83  1  0.80756000  0.66283000  0.17915000  1.0
  N  N84  1  0.88976000  0.24860000  0.48996000  1.0
  N  N85  1  0.11025000  0.75141000  0.51005000  1.0
  N  N86  1  0.33541000  0.37249000  0.91231000  1.0
  N  N87  1  0.66459000  0.62753000  0.08769000  1.0
  N  N88  1  0.87254000  0.45246000  0.40231000  1.0
  N  N89  1  0.12747000  0.54754000  0.59770000  1.0
  O  O90  1  0.93139000  0.73630000  0.38227000  1.0
  O  O91  1  0.06861000  0.26370000  0.61774000  1.0
  O  O92  1  0.14751000  0.62101000  0.16587000  1.0
  O  O93  1  0.85249000  0.37903000  0.83411000  1.0
  O  O94  1  0.94805000  0.92244000  0.23472000  1.0
  O  O95  1  0.05194000  0.07756000  0.76529000  1.0
  O  O96  1  0.09163000  0.45004000  0.11032000  1.0
  O  O97  1  0.90837000  0.54998000  0.88970000  1.0
  O  O98  1  0.51167000  0.96941000  0.86542000  1.0
  O  O99  1  0.48833000  0.03058000  0.13457000  1.0
