# generated using pymatgen
data_ZnH22C18N11O4
_symmetry_space_group_name_H-M   'P 1'
_cell_length_a   11.10840000
_cell_length_b   16.53920000
_cell_length_c   17.79680000
_cell_angle_alpha   94.98370000
_cell_angle_beta   90.84230000
_cell_angle_gamma   92.00090000
_symmetry_Int_Tables_number   1
_chemical_formula_structural   ZnH22C18N11O4
_chemical_formula_sum   'Zn2 H44 C36 N22 O8'
_cell_volume   3254.83640270
_cell_formula_units_Z   2
loop_
 _symmetry_equiv_pos_site_id
 _symmetry_equiv_pos_as_xyz
  1  'x, y, z'
loop_
 _atom_site_type_symbol
 _atom_site_label
 _atom_site_symmetry_multiplicity
 _atom_site_fract_x
 _atom_site_fract_y
 _atom_site_fract_z
 _atom_site_occupancy
  Zn  Zn0  1  0.49957000  0.41127000  0.49425000  1.0
  Zn  Zn1  1  0.50939000  0.58841000  0.50340000  1.0
  H  H2  1  0.62348000  0.99687000  0.52220000  1.0
  H  H3  1  0.35434000  0.00906000  0.48859000  1.0
  H  H4  1  0.40588000  0.42489000  0.00704000  1.0
  H  H5  1  0.58377000  0.56941000  0.99550000  1.0
  H  H6  1  0.68597000  0.66340000  0.58454000  1.0
  H  H7  1  0.71749000  0.75686000  0.63400000  1.0
  H  H8  1  0.66444000  0.94874000  0.61488000  1.0
  H  H9  1  0.76286000  0.87565000  0.59903000  1.0
  H  H10  1  0.35128000  0.64664000  0.41895000  1.0
  H  H11  1  0.26849000  0.72676000  0.41293000  1.0
  H  H12  1  0.32135000  0.83418000  0.37073000  1.0
  H  H13  1  0.27741000  0.90098000  0.43879000  1.0
  H  H14  1  0.69571000  0.15693000  0.61857000  1.0
  H  H15  1  0.57070000  0.11764000  0.65255000  1.0
  H  H16  1  0.61708000  0.35406000  0.60197000  1.0
  H  H17  1  0.64437000  0.27119000  0.64510000  1.0
  H  H18  1  0.35903000  0.05036000  0.37865000  1.0
  H  H19  1  0.34891000  0.13281000  0.33300000  1.0
  H  H20  1  0.38686000  0.33540000  0.37626000  1.0
  H  H21  1  0.30074000  0.24667000  0.35515000  1.0
  H  H22  1  0.55553000  0.34587000  0.30793000  1.0
  H  H23  1  0.61023000  0.30887000  0.22490000  1.0
  H  H24  1  0.54731000  0.33337000  0.05088000  1.0
  H  H25  1  0.50354000  0.28718000  0.12805000  1.0
  H  H26  1  0.52461000  0.63609000  0.32486000  1.0
  H  H27  1  0.44085000  0.67333000  0.25800000  1.0
  H  H28  1  0.43762000  0.63028000  0.07065000  1.0
  H  H29  1  0.49217000  0.68223000  0.15131000  1.0
  H  H30  1  0.42373000  0.35598000  0.92111000  1.0
  H  H31  1  0.48044000  0.31666000  0.83923000  1.0
  H  H32  1  0.44022000  0.36586000  0.67172000  1.0
  H  H33  1  0.36986000  0.33392000  0.74730000  1.0
  H  H34  1  0.50900000  0.66369000  0.95158000  1.0
  H  H35  1  0.48520000  0.70727000  0.87120000  1.0
  H  H36  1  0.51814000  0.65738000  0.68928000  1.0
  H  H37  1  0.58377000  0.69837000  0.77188000  1.0
  H  H38  1  0.22384000  0.64564000  0.52111000  1.0
  H  H39  1  0.09417000  0.68940000  0.54969000  1.0
  H  H40  1  0.78607000  0.35302000  0.50012000  1.0
  H  H41  1  0.91784000  0.31100000  0.52508000  1.0
  H  H42  1  0.80873000  0.64960000  0.49203000  1.0
  H  H43  1  0.94640000  0.68948000  0.47122000  1.0
  H  H44  1  0.20238000  0.34875000  0.48371000  1.0
  H  H45  1  0.06374000  0.30655000  0.45484000  1.0
  C  C46  1  0.51598000  0.49216000  0.34923000  1.0
  C  C47  1  0.26687000  0.49682000  0.49618000  1.0
  C  C48  1  0.49284000  0.50864000  0.64796000  1.0
  C  C49  1  0.74291000  0.50206000  0.50185000  1.0
  C  C50  1  0.43169000  0.75374000  0.46179000  1.0
  C  C51  1  0.42843000  0.83897000  0.46434000  1.0
  C  C52  1  0.51389000  0.88601000  0.51091000  1.0
  C  C53  1  0.59323000  0.84580000  0.55622000  1.0
  C  C54  1  0.58864000  0.76012000  0.55216000  1.0
  C  C55  1  0.53138000  0.97341000  0.51077000  1.0
  C  C56  1  0.44849000  0.02856000  0.49853000  1.0
  C  C57  1  0.41291000  0.15465000  0.44058000  1.0
  C  C58  1  0.47270000  0.11598000  0.49672000  1.0
  C  C59  1  0.54942000  0.16266000  0.54900000  1.0
  C  C60  1  0.55922000  0.24713000  0.54480000  1.0
  C  C61  1  0.42432000  0.24008000  0.44112000  1.0
  C  C62  1  0.51850000  0.48947000  0.26593000  1.0
  C  C63  1  0.51070000  0.56255000  0.22908000  1.0
  C  C64  1  0.50062000  0.55905000  0.14972000  1.0
  C  C65  1  0.49295000  0.48346000  0.10642000  1.0
  C  C66  1  0.50433000  0.41135000  0.14266000  1.0
  C  C67  1  0.52176000  0.41362000  0.22120000  1.0
  C  C68  1  0.46986000  0.47486000  0.02493000  1.0
  C  C69  1  0.51963000  0.52107000  0.97344000  1.0
  C  C70  1  0.51105000  0.58662000  0.85536000  1.0
  C  C71  1  0.50204000  0.51420000  0.89180000  1.0
  C  C72  1  0.48166000  0.43943000  0.84714000  1.0
  C  C73  1  0.47130000  0.43800000  0.76802000  1.0
  C  C74  1  0.48866000  0.51070000  0.73113000  1.0
  C  C75  1  0.50675000  0.58579000  0.77610000  1.0
  C  C76  1  0.13380000  0.49861000  0.49881000  1.0
  C  C77  1  0.87601000  0.50115000  0.49924000  1.0
  C  C78  1  0.07380000  0.57363000  0.50421000  1.0
  C  C79  1  0.93559000  0.42621000  0.49615000  1.0
  C  C80  1  0.94726000  0.57479000  0.50149000  1.0
  C  C81  1  0.06323000  0.42495000  0.49429000  1.0
  N  N82  1  0.51076000  0.71516000  0.50434000  1.0
  N  N83  1  0.49679000  0.28494000  0.49226000  1.0
  N  N84  1  0.66093000  0.72142000  0.59923000  1.0
  N  N85  1  0.67473000  0.88760000  0.60909000  1.0
  N  N86  1  0.35466000  0.70732000  0.41156000  1.0
  N  N87  1  0.35027000  0.87495000  0.41399000  1.0
  N  N88  1  0.61738000  0.12501000  0.60446000  1.0
  N  N89  1  0.63679000  0.29390000  0.59399000  1.0
  N  N90  1  0.34015000  0.11051000  0.38438000  1.0
  N  N91  1  0.35900000  0.27934000  0.39082000  1.0
  N  N92  1  0.54140000  0.33872000  0.25106000  1.0
  N  N93  1  0.49763000  0.33662000  0.09846000  1.0
  N  N94  1  0.51388000  0.63994000  0.26820000  1.0
  N  N95  1  0.49677000  0.63182000  0.11494000  1.0
  N  N96  1  0.48235000  0.36451000  0.87920000  1.0
  N  N97  1  0.44618000  0.36109000  0.72839000  1.0
  N  N98  1  0.52875000  0.66299000  0.89604000  1.0
  N  N99  1  0.51739000  0.66104000  0.74677000  1.0
  N  N100  1  0.13404000  0.65043000  0.51073000  1.0
  N  N101  1  0.87664000  0.35040000  0.49301000  1.0
  N  N102  1  0.89876000  0.65219000  0.50363000  1.0
  N  N103  1  0.11136000  0.34819000  0.49007000  1.0
  O  O104  1  0.48775000  0.42619000  0.37980000  1.0
  O  O105  1  0.53896000  0.55925000  0.38942000  1.0
  O  O106  1  0.32716000  0.56252000  0.48474000  1.0
  O  O107  1  0.31869000  0.43029000  0.50474000  1.0
  O  O108  1  0.47914000  0.57405000  0.61560000  1.0
  O  O109  1  0.51277000  0.44050000  0.61000000  1.0
  O  O110  1  0.68173000  0.43548000  0.48679000  1.0
  O  O111  1  0.69150000  0.56978000  0.51954000  1.0
