# generated using pymatgen
data_NdH8C12(Br3O5)2
_symmetry_space_group_name_H-M   'P 1'
_cell_length_a   10.04440000
_cell_length_b   10.17540000
_cell_length_c   10.72710000
_cell_angle_alpha   92.03070000
_cell_angle_beta   98.76060000
_cell_angle_gamma   103.06450000
_symmetry_Int_Tables_number   1
_chemical_formula_structural   NdH8C12(Br3O5)2
_chemical_formula_sum   'Nd2 H16 C24 Br12 O20'
_cell_volume   1052.75071618
_cell_formula_units_Z   2
loop_
 _symmetry_equiv_pos_site_id
 _symmetry_equiv_pos_as_xyz
  1  'x, y, z'
loop_
 _atom_site_type_symbol
 _atom_site_label
 _atom_site_symmetry_multiplicity
 _atom_site_fract_x
 _atom_site_fract_y
 _atom_site_fract_z
 _atom_site_occupancy
  Nd  Nd0  1  0.02338000  0.76724000  0.04739000  1.0
  Nd  Nd1  1  0.97662000  0.23276000  0.95262000  1.0
  H  H2  1  0.82413000  0.63777000  0.83053000  1.0
  H  H3  1  0.17586000  0.36222000  0.16947000  1.0
  H  H4  1  0.71692000  0.78127000  0.03023000  1.0
  H  H5  1  0.28308000  0.21872000  0.96977000  1.0
  H  H6  1  0.92728000  0.55860000  0.78232000  1.0
  H  H7  1  0.07272000  0.44140000  0.21768000  1.0
  H  H8  1  0.82991000  0.48245000  0.06650000  1.0
  H  H9  1  0.17009000  0.51755000  0.93351000  1.0
  H  H10  1  0.77058000  0.88999000  0.93700000  1.0
  H  H11  1  0.22942000  0.11002000  0.06301000  1.0
  H  H12  1  0.32024000  0.91786000  0.10149000  1.0
  H  H13  1  0.67975000  0.08214000  0.89851000  1.0
  H  H14  1  0.25084000  0.96319000  0.21597000  1.0
  H  H15  1  0.74916000  0.03680000  0.78403000  1.0
  H  H16  1  0.85099000  0.56500000  0.19998000  1.0
  H  H17  1  0.14902000  0.43498000  0.80003000  1.0
  C  C18  1  0.46349000  0.52930000  0.11683000  1.0
  C  C19  1  0.53649000  0.47071000  0.88314000  1.0
  C  C20  1  0.18835000  0.90720000  0.63196000  1.0
  C  C21  1  0.81165000  0.09281000  0.36804000  1.0
  C  C22  1  0.43281000  0.60562000  0.01462000  1.0
  C  C23  1  0.56718000  0.39439000  0.98535000  1.0
  C  C24  1  0.09570000  0.65190000  0.34087000  1.0
  C  C25  1  0.90431000  0.34809000  0.65913000  1.0
  C  C26  1  0.05820000  0.90177000  0.66622000  1.0
  C  C27  1  0.94181000  0.09823000  0.33378000  1.0
  C  C28  1  0.94092000  0.81801000  0.59235000  1.0
  C  C29  1  0.05908000  0.18198000  0.40766000  1.0
  C  C30  1  0.04673000  0.98004000  0.78547000  1.0
  C  C31  1  0.95327000  0.01996000  0.21454000  1.0
  C  C32  1  0.19982000  0.82689000  0.52697000  1.0
  C  C33  1  0.80018000  0.17311000  0.47303000  1.0
  C  C34  1  0.95328000  0.73492000  0.48994000  1.0
  C  C35  1  0.04672000  0.26507000  0.51008000  1.0
  C  C36  1  0.35334000  0.71432000  0.02793000  1.0
  C  C37  1  0.64665000  0.28568000  0.97206000  1.0
  C  C38  1  0.08330000  0.73834000  0.45582000  1.0
  C  C39  1  0.91671000  0.26166000  0.54419000  1.0
  C  C40  1  0.47081000  0.57658000  0.89829000  1.0
  C  C41  1  0.52919000  0.42344000  0.10168000  1.0
  Br  Br42  1  0.76298000  0.81608000  0.63440000  1.0
  Br  Br43  1  0.23703000  0.18391000  0.36561000  1.0
  Br  Br44  1  0.37680000  0.83670000  0.48026000  1.0
  Br  Br45  1  0.62321000  0.16332000  0.51974000  1.0
  Br  Br46  1  0.79092000  0.61721000  0.39875000  1.0
  Br  Br47  1  0.20908000  0.38277000  0.60126000  1.0
  Br  Br48  1  0.34526000  0.02370000  0.73311000  1.0
  Br  Br49  1  0.65475000  0.97631000  0.26690000  1.0
  Br  Br50  1  0.41492000  0.57214000  0.27430000  1.0
  Br  Br51  1  0.58505000  0.42786000  0.72567000  1.0
  Br  Br52  1  0.43166000  0.68303000  0.76208000  1.0
  Br  Br53  1  0.56837000  0.31700000  0.23791000  1.0
  O  O54  1  0.24097000  0.95839000  0.12370000  1.0
  O  O55  1  0.75903000  0.04161000  0.87630000  1.0
  O  O56  1  0.22116000  0.67680000  0.99471000  1.0
  O  O57  1  0.77884000  0.32320000  0.00528000  1.0
  O  O58  1  0.04993000  0.91788000  0.88590000  1.0
  O  O59  1  0.95006000  0.08212000  0.11410000  1.0
  O  O60  1  0.13279000  0.71615000  0.24721000  1.0
  O  O61  1  0.86721000  0.28386000  0.75280000  1.0
  O  O62  1  0.03398000  0.10011000  0.77837000  1.0
  O  O63  1  0.96603000  0.89990000  0.22164000  1.0
  O  O64  1  0.78120000  0.80167000  0.97034000  1.0
  O  O65  1  0.21880000  0.19833000  0.02967000  1.0
  O  O66  1  0.42073000  0.83100000  0.06933000  1.0
  O  O67  1  0.57927000  0.16901000  0.93066000  1.0
  O  O68  1  0.91294000  0.61495000  0.85746000  1.0
  O  O69  1  0.08705000  0.38504000  0.14254000  1.0
  O  O70  1  0.06593000  0.52571000  0.34518000  1.0
  O  O71  1  0.93408000  0.47429000  0.65482000  1.0
  O  O72  1  0.85749000  0.57575000  0.11041000  1.0
  O  O73  1  0.14252000  0.42424000  0.88960000  1.0
