# generated using pymatgen
data_CuH11C11N6O5
_symmetry_space_group_name_H-M   'P 1'
_cell_length_a   6.89300000
_cell_length_b   13.33810000
_cell_length_c   16.53860000
_cell_angle_alpha   89.99980000
_cell_angle_beta   89.99990000
_cell_angle_gamma   87.98770000
_symmetry_Int_Tables_number   1
_chemical_formula_structural   CuH11C11N6O5
_chemical_formula_sum   'Cu4 H44 C44 N24 O20'
_cell_volume   1519.61329437
_cell_formula_units_Z   4
loop_
 _symmetry_equiv_pos_site_id
 _symmetry_equiv_pos_as_xyz
  1  'x, y, z'
loop_
 _atom_site_type_symbol
 _atom_site_label
 _atom_site_symmetry_multiplicity
 _atom_site_fract_x
 _atom_site_fract_y
 _atom_site_fract_z
 _atom_site_occupancy
  Cu  Cu0  1  0.07425000  0.83880000  0.69420000  1.0
  Cu  Cu1  1  0.92576000  0.66119000  0.19420000  1.0
  Cu  Cu2  1  0.92574000  0.16119000  0.30580000  1.0
  Cu  Cu3  1  0.07425000  0.33881000  0.80580000  1.0
  H  H4  1  0.89570000  0.06763000  0.70787000  1.0
  H  H5  1  0.10431000  0.43236000  0.20786000  1.0
  H  H6  1  0.10430000  0.93237000  0.29214000  1.0
  H  H7  1  0.89570000  0.56763000  0.79214000  1.0
  H  H8  1  0.83146000  0.20280000  0.51595000  1.0
  H  H9  1  0.16855000  0.29719000  0.01594000  1.0
  H  H10  1  0.16854000  0.79720000  0.48406000  1.0
  H  H11  1  0.83145000  0.70280000  0.98406000  1.0
  H  H12  1  0.81388000  0.22319000  0.62344000  1.0
  H  H13  1  0.18613000  0.27680000  0.12343000  1.0
  H  H14  1  0.18611000  0.77681000  0.37657000  1.0
  H  H15  1  0.81389000  0.72319000  0.87657000  1.0
  H  H16  1  0.53479000  0.29015000  0.53809000  1.0
  H  H17  1  0.46522000  0.20985000  0.03807000  1.0
  H  H18  1  0.46520000  0.70985000  0.46192000  1.0
  H  H19  1  0.53479000  0.79015000  0.96192000  1.0
  H  H20  1  0.47736000  0.16449000  0.51403000  1.0
  H  H21  1  0.52264000  0.33551000  0.01402000  1.0
  H  H22  1  0.52264000  0.83551000  0.48598000  1.0
  H  H23  1  0.47736000  0.66449000  0.98598000  1.0
  H  H24  1  0.36546000  0.36505000  0.65960000  1.0
  H  H25  1  0.63455000  0.13495000  0.15959000  1.0
  H  H26  1  0.63453000  0.63495000  0.34041000  1.0
  H  H27  1  0.36548000  0.86505000  0.84040000  1.0
  H  H28  1  0.83913000  0.85154000  0.52405000  1.0
  H  H29  1  0.16086000  0.64845000  0.02405000  1.0
  H  H30  1  0.16086000  0.14846000  0.47595000  1.0
  H  H31  1  0.83914000  0.35154000  0.97595000  1.0
  H  H32  1  0.40194000  0.96757000  0.65481000  1.0
  H  H33  1  0.59807000  0.53244000  0.15481000  1.0
  H  H34  1  0.59807000  0.03244000  0.34519000  1.0
  H  H35  1  0.40193000  0.46756000  0.84519000  1.0
  H  H36  1  0.31039000  0.93879000  0.57492000  1.0
  H  H37  1  0.68963000  0.56121000  0.07491000  1.0
  H  H38  1  0.68962000  0.06121000  0.42509000  1.0
  H  H39  1  0.31038000  0.43879000  0.92508000  1.0
  H  H40  1  0.99008000  0.82131000  0.96531000  1.0
  H  H41  1  0.00990000  0.67869000  0.46531000  1.0
  H  H42  1  0.00992000  0.17869000  0.03469000  1.0
  H  H43  1  0.99009000  0.32132000  0.53469000  1.0
  H  H44  1  0.21588000  0.09539000  0.77330000  1.0
  H  H45  1  0.78412000  0.40461000  0.27330000  1.0
  H  H46  1  0.78412000  0.90461000  0.22671000  1.0
  H  H47  1  0.21588000  0.59539000  0.72670000  1.0
  C  C48  1  0.97804000  0.07354000  0.93840000  1.0
  C  C49  1  0.02197000  0.42646000  0.43839000  1.0
  C  C50  1  0.02196000  0.92645000  0.06160000  1.0
  C  C51  1  0.97804000  0.57354000  0.56160000  1.0
  C  C52  1  0.95980000  0.15476000  0.87508000  1.0
  C  C53  1  0.04020000  0.34524000  0.37509000  1.0
  C  C54  1  0.04020000  0.84524000  0.12492000  1.0
  C  C55  1  0.95979000  0.65477000  0.62491000  1.0
  C  C56  1  0.86926000  0.03013000  0.65049000  1.0
  C  C57  1  0.13073000  0.46986000  0.15049000  1.0
  C  C58  1  0.13073000  0.96987000  0.34951000  1.0
  C  C59  1  0.86926000  0.53013000  0.84951000  1.0
  C  C60  1  0.75553000  0.18233000  0.57173000  1.0
  C  C61  1  0.24447000  0.31767000  0.07172000  1.0
  C  C62  1  0.24447000  0.81768000  0.42827000  1.0
  C  C63  1  0.75554000  0.68233000  0.92827000  1.0
  C  C64  1  0.54275000  0.21242000  0.55977000  1.0
  C  C65  1  0.45727000  0.28758000  0.05976000  1.0
  C  C66  1  0.45725000  0.78758000  0.44023000  1.0
  C  C67  1  0.54275000  0.71242000  0.94024000  1.0
  C  C68  1  0.27768000  0.14954000  0.73268000  1.0
  C  C69  1  0.72231000  0.35045000  0.23267000  1.0
  C  C70  1  0.72231000  0.85045000  0.26732000  1.0
  C  C71  1  0.27769000  0.64955000  0.76733000  1.0
  C  C72  1  0.35007000  0.28685000  0.67498000  1.0
  C  C73  1  0.64994000  0.21315000  0.17497000  1.0
  C  C74  1  0.64992000  0.71315000  0.32502000  1.0
  C  C75  1  0.35008000  0.78685000  0.82502000  1.0
  C  C76  1  0.83385000  0.92241000  0.55606000  1.0
  C  C77  1  0.16613000  0.57759000  0.05606000  1.0
  C  C78  1  0.16614000  0.07760000  0.44394000  1.0
  C  C79  1  0.83386000  0.42241000  0.94393000  1.0
  C  C80  1  0.94151000  0.92803000  0.83557000  1.0
  C  C81  1  0.05848000  0.57198000  0.33557000  1.0
  C  C82  1  0.05848000  0.07197000  0.16443000  1.0
  C  C83  1  0.94150000  0.42802000  0.66442000  1.0
  C  C84  1  0.97034000  0.97119000  0.91883000  1.0
  C  C85  1  0.02967000  0.52881000  0.41882000  1.0
  C  C86  1  0.02967000  0.02881000  0.08118000  1.0
  C  C87  1  0.97034000  0.47120000  0.58117000  1.0
  C  C88  1  0.99378000  0.90040000  0.98070000  1.0
  C  C89  1  0.00621000  0.59960000  0.48070000  1.0
  C  C90  1  0.00621000  0.09959000  0.01930000  1.0
  C  C91  1  0.99378000  0.40041000  0.51930000  1.0
  N  N92  1  0.76742000  0.00819000  0.52438000  1.0
  N  N93  1  0.23258000  0.49181000  0.02438000  1.0
  N  N94  1  0.23258000  0.99182000  0.47562000  1.0
  N  N95  1  0.76742000  0.50818000  0.97562000  1.0
  N  N96  1  0.89915000  0.93262000  0.63319000  1.0
  N  N97  1  0.10085000  0.56738000  0.13319000  1.0
  N  N98  1  0.10085000  0.06739000  0.36681000  1.0
  N  N99  1  0.89915000  0.43262000  0.86681000  1.0
  N  N100  1  0.79201000  0.07563000  0.58511000  1.0
  N  N101  1  0.20799000  0.42436000  0.08511000  1.0
  N  N102  1  0.20799000  0.92437000  0.41489000  1.0
  N  N103  1  0.79201000  0.57563000  0.91489000  1.0
  N  N104  1  0.42985000  0.20931000  0.63378000  1.0
  N  N105  1  0.57016000  0.29069000  0.13377000  1.0
  N  N106  1  0.57016000  0.79069000  0.36622000  1.0
  N  N107  1  0.42985000  0.70931000  0.86622000  1.0
  N  N108  1  0.38628000  0.12094000  0.67003000  1.0
  N  N109  1  0.61373000  0.37906000  0.17002000  1.0
  N  N110  1  0.61373000  0.87906000  0.32998000  1.0
  N  N111  1  0.38627000  0.62094000  0.82998000  1.0
  N  N112  1  0.24929000  0.25136000  0.73728000  1.0
  N  N113  1  0.75071000  0.24864000  0.23727000  1.0
  N  N114  1  0.75071000  0.74863000  0.26272000  1.0
  N  N115  1  0.24930000  0.75136000  0.76272000  1.0
  O  O116  1  0.35775000  0.90822000  0.62609000  1.0
  O  O117  1  0.64227000  0.59178000  0.12609000  1.0
  O  O118  1  0.64226000  0.09179000  0.37391000  1.0
  O  O119  1  0.35774000  0.40821000  0.87391000  1.0
  O  O120  1  0.86704000  0.14096000  0.81153000  1.0
  O  O121  1  0.13297000  0.35905000  0.31153000  1.0
  O  O122  1  0.13296000  0.85904000  0.18846000  1.0
  O  O123  1  0.86703000  0.64096000  0.68847000  1.0
  O  O124  1  0.05159000  0.23567000  0.89294000  1.0
  O  O125  1  0.94841000  0.26434000  0.39293000  1.0
  O  O126  1  0.94841000  0.76433000  0.10707000  1.0
  O  O127  1  0.05159000  0.73567000  0.60707000  1.0
  O  O128  1  0.08319000  0.94075000  0.78500000  1.0
  O  O129  1  0.91680000  0.55925000  0.28500000  1.0
  O  O130  1  0.91680000  0.05924000  0.21500000  1.0
  O  O131  1  0.08318000  0.44075000  0.71500000  1.0
  O  O132  1  0.79863000  0.87534000  0.82313000  1.0
  O  O133  1  0.20134000  0.62467000  0.32313000  1.0
  O  O134  1  0.20136000  0.12466000  0.17687000  1.0
  O  O135  1  0.79863000  0.37535000  0.67687000  1.0
