# generated using pymatgen
data_ZnH16C24(NO)4
_symmetry_space_group_name_H-M   'P 1'
_cell_length_a   11.51730000
_cell_length_b   19.06980000
_cell_length_c   19.06980000
_cell_angle_alpha   60.00000000
_cell_angle_beta   89.99980000
_cell_angle_gamma   89.99990000
_symmetry_Int_Tables_number   1
_chemical_formula_structural   ZnH16C24(NO)4
_chemical_formula_sum   'Zn6 H96 C144 N24 O24'
_cell_volume   3627.21741268
_cell_formula_units_Z   6
loop_
 _symmetry_equiv_pos_site_id
 _symmetry_equiv_pos_as_xyz
  1  'x, y, z'
loop_
 _atom_site_type_symbol
 _atom_site_label
 _atom_site_symmetry_multiplicity
 _atom_site_fract_x
 _atom_site_fract_y
 _atom_site_fract_z
 _atom_site_occupancy
  Zn  Zn0  1  0.19005000  0.70181000  0.30190000  1.0
  Zn  Zn1  1  0.19005000  0.99629000  0.70181000  1.0
  Zn  Zn2  1  0.19005000  0.30190000  0.99629000  1.0
  Zn  Zn3  1  0.30841000  0.66825000  0.96901000  1.0
  Zn  Zn4  1  0.30841000  0.36274000  0.66825000  1.0
  Zn  Zn5  1  0.30841000  0.96901000  0.36274000  1.0
  H  H6  1  0.90233000  0.99770000  0.85272000  1.0
  H  H7  1  0.90233000  0.14959000  0.99769000  1.0
  H  H8  1  0.90233000  0.85272000  0.14959000  1.0
  H  H9  1  0.98696000  0.74860000  0.93796000  1.0
  H  H10  1  0.98696000  0.31344000  0.74861000  1.0
  H  H11  1  0.98696000  0.93796000  0.31344000  1.0
  H  H12  1  0.83396000  0.70534000  0.04440000  1.0
  H  H13  1  0.83396000  0.25026000  0.70534000  1.0
  H  H14  1  0.83396000  0.04440000  0.25027000  1.0
  H  H15  1  0.75001000  0.95605000  0.95749000  1.0
  H  H16  1  0.75001000  0.08646000  0.95604000  1.0
  H  H17  1  0.75001000  0.95750000  0.08645000  1.0
  H  H18  1  0.57105000  0.89689000  0.99393000  1.0
  H  H19  1  0.57105000  0.10918000  0.89689000  1.0
  H  H20  1  0.57105000  0.99392000  0.10919000  1.0
  H  H21  1  0.78779000  0.70114000  0.16328000  1.0
  H  H22  1  0.78779000  0.13558000  0.70114000  1.0
  H  H23  1  0.78779000  0.16328000  0.13558000  1.0
  H  H24  1  0.62382000  0.64918000  0.26268000  1.0
  H  H25  1  0.62382000  0.08815000  0.64918000  1.0
  H  H26  1  0.62381000  0.26267000  0.08815000  1.0
  H  H27  1  0.41136000  0.84681000  0.09543000  1.0
  H  H28  1  0.41136000  0.05776000  0.84680000  1.0
  H  H29  1  0.41136000  0.09543000  0.05776000  1.0
  H  H30  1  0.16342000  0.73449000  0.44932000  1.0
  H  H31  1  0.16342000  0.81619000  0.73449000  1.0
  H  H32  1  0.16342000  0.44932000  0.81619000  1.0
  H  H33  1  0.36182000  0.56237000  0.42519000  1.0
  H  H34  1  0.36183000  0.01244000  0.56238000  1.0
  H  H35  1  0.36182000  0.42519000  0.01244000  1.0
  H  H36  1  0.39758000  0.53874000  0.58083000  1.0
  H  H37  1  0.39758000  0.88043000  0.53874000  1.0
  H  H38  1  0.39758000  0.58083000  0.88043000  1.0
  H  H39  1  0.27796000  0.78418000  0.52552000  1.0
  H  H40  1  0.27796000  0.69030000  0.78418000  1.0
  H  H41  1  0.27796000  0.52552000  0.69030000  1.0
  H  H42  1  0.24991000  0.52232000  0.32526000  1.0
  H  H43  1  0.24991000  0.15242000  0.52232000  1.0
  H  H44  1  0.24991000  0.32526000  0.15242000  1.0
  H  H45  1  0.95017000  0.66712000  0.24287000  1.0
  H  H46  1  0.95016000  0.09001000  0.66712000  1.0
  H  H47  1  0.95017000  0.24287000  0.09001000  1.0
  H  H48  1  0.90454000  0.51910000  0.24918000  1.0
  H  H49  1  0.90454000  0.23173000  0.51909000  1.0
  H  H50  1  0.90453000  0.24918000  0.23172000  1.0
  H  H51  1  0.08977000  0.44184000  0.18704000  1.0
  H  H52  1  0.08977000  0.37112000  0.44184000  1.0
  H  H53  1  0.08977000  0.18704000  0.37112000  1.0
  H  H54  1  0.98697000  0.05607000  0.51257000  1.0
  H  H55  1  0.98697000  0.43136000  0.05608000  1.0
  H  H56  1  0.98698000  0.51256000  0.43137000  1.0
  H  H57  1  0.02928000  0.83116000  0.51582000  1.0
  H  H58  1  0.02928000  0.65302000  0.83116000  1.0
  H  H59  1  0.02928000  0.51582000  0.65302000  1.0
  H  H60  1  0.87595000  0.76822000  0.62139000  1.0
  H  H61  1  0.87595000  0.61039000  0.76822000  1.0
  H  H62  1  0.87595000  0.62139000  0.61039000  1.0
  H  H63  1  0.83646000  0.99341000  0.62045000  1.0
  H  H64  1  0.83646000  0.38614000  0.99341000  1.0
  H  H65  1  0.83647000  0.62045000  0.38614000  1.0
  H  H66  1  0.81580000  0.90560000  0.75227000  1.0
  H  H67  1  0.81580000  0.34213000  0.90560000  1.0
  H  H68  1  0.81580000  0.75227000  0.34213000  1.0
  H  H69  1  0.67529000  0.76748000  0.64924000  1.0
  H  H70  1  0.67529000  0.58328000  0.76749000  1.0
  H  H71  1  0.67529000  0.64924000  0.58328000  1.0
  H  H72  1  0.52210000  0.71327000  0.75580000  1.0
  H  H73  1  0.52210000  0.53093000  0.71327000  1.0
  H  H74  1  0.52210000  0.75580000  0.53093000  1.0
  H  H75  1  0.66093000  0.85243000  0.85690000  1.0
  H  H76  1  0.66093000  0.29067000  0.85244000  1.0
  H  H77  1  0.66094000  0.85689000  0.29068000  1.0
  H  H78  1  0.31152000  0.85623000  0.92738000  1.0
  H  H79  1  0.31153000  0.21639000  0.85623000  1.0
  H  H80  1  0.31152000  0.92738000  0.21639000  1.0
  H  H81  1  0.13955000  0.64955000  0.10865000  1.0
  H  H82  1  0.13955000  0.24180000  0.64956000  1.0
  H  H83  1  0.13955000  0.10865000  0.24180000  1.0
  H  H84  1  0.08800000  0.78119000  0.13008000  1.0
  H  H85  1  0.08800000  0.08873000  0.78120000  1.0
  H  H86  1  0.08801000  0.13008000  0.08873000  1.0
  H  H87  1  0.19702000  0.97984000  0.88043000  1.0
  H  H88  1  0.19702000  0.13973000  0.97984000  1.0
  H  H89  1  0.19702000  0.88043000  0.13973000  1.0
  H  H90  1  0.52182000  0.67275000  0.06959000  1.0
  H  H91  1  0.52183000  0.25766000  0.67275000  1.0
  H  H92  1  0.52182000  0.06959000  0.25766000  1.0
  H  H93  1  0.57065000  0.54534000  0.22528000  1.0
  H  H94  1  0.57065000  0.22938000  0.54534000  1.0
  H  H95  1  0.57065000  0.22528000  0.22938000  1.0
  H  H96  1  0.30054000  0.47785000  0.11831000  1.0
  H  H97  1  0.30054000  0.40384000  0.47784000  1.0
  H  H98  1  0.30054000  0.11831000  0.40384000  1.0
  H  H99  1  0.43802000  0.34307000  0.19779000  1.0
  H  H100  1  0.43802000  0.45914000  0.34307000  1.0
  H  H101  1  0.43802000  0.19779000  0.45914000  1.0
  C  C102  1  0.04576000  0.89896000  0.82610000  1.0
  C  C103  1  0.04576000  0.27494000  0.89896000  1.0
  C  C104  1  0.04576000  0.82611000  0.27494000  1.0
  C  C105  1  0.95439000  0.87534000  0.88945000  1.0
  C  C106  1  0.95438000  0.23522000  0.87534000  1.0
  C  C107  1  0.95439000  0.88945000  0.23521000  1.0
  C  C108  1  0.88728000  0.93369000  0.89508000  1.0
  C  C109  1  0.88728000  0.17123000  0.93368000  1.0
  C  C110  1  0.88728000  0.89509000  0.17123000  1.0
  C  C111  1  0.93503000  0.79307000  0.94399000  1.0
  C  C112  1  0.93503000  0.26294000  0.79307000  1.0
  C  C113  1  0.93503000  0.94399000  0.26294000  1.0
  C  C114  1  0.85047000  0.76958000  0.00348000  1.0
  C  C115  1  0.85047000  0.22694000  0.76957000  1.0
  C  C116  1  0.85047000  0.00349000  0.22693000  1.0
  C  C117  1  0.80194000  0.91000000  0.95415000  1.0
  C  C118  1  0.80194000  0.13585000  0.90999000  1.0
  C  C119  1  0.80194000  0.95416000  0.13585000  1.0
  C  C120  1  0.78239000  0.82754000  0.00960000  1.0
  C  C121  1  0.78239000  0.16286000  0.82753000  1.0
  C  C122  1  0.78239000  0.00961000  0.16285000  1.0
  C  C123  1  0.69026000  0.80168000  0.07114000  1.0
  C  C124  1  0.69026000  0.12718000  0.80168000  1.0
  C  C125  1  0.69026000  0.07114000  0.12718000  1.0
  C  C126  1  0.58446000  0.84387000  0.05360000  1.0
  C  C127  1  0.58446000  0.10253000  0.84388000  1.0
  C  C128  1  0.58446000  0.05359000  0.10254000  1.0
  C  C129  1  0.70439000  0.73241000  0.14794000  1.0
  C  C130  1  0.70439000  0.11965000  0.73240000  1.0
  C  C131  1  0.70439000  0.14795000  0.11964000  1.0
  C  C132  1  0.61376000  0.70340000  0.20345000  1.0
  C  C133  1  0.61376000  0.09315000  0.70340000  1.0
  C  C134  1  0.61376000  0.20345000  0.09315000  1.0
  C  C135  1  0.49436000  0.81536000  0.10961000  1.0
  C  C136  1  0.49436000  0.07503000  0.81536000  1.0
  C  C137  1  0.49436000  0.10960000  0.07504000  1.0
  C  C138  1  0.50661000  0.74342000  0.18382000  1.0
  C  C139  1  0.50661000  0.07276000  0.74342000  1.0
  C  C140  1  0.50661000  0.18381000  0.07276000  1.0
  C  C141  1  0.40404000  0.70662000  0.23818000  1.0
  C  C142  1  0.40404000  0.05520000  0.70662000  1.0
  C  C143  1  0.40404000  0.23818000  0.05520000  1.0
  C  C144  1  0.22076000  0.68383000  0.46418000  1.0
  C  C145  1  0.22076000  0.85199000  0.68383000  1.0
  C  C146  1  0.22076000  0.46418000  0.85199000  1.0
  C  C147  1  0.32379000  0.59222000  0.45518000  1.0
  C  C148  1  0.32379000  0.95260000  0.59221000  1.0
  C  C149  1  0.32379000  0.45519000  0.95260000  1.0
  C  C150  1  0.34423000  0.58134000  0.53060000  1.0
  C  C151  1  0.34423000  0.88806000  0.58135000  1.0
  C  C152  1  0.34423000  0.53059000  0.88807000  1.0
  C  C153  1  0.27440000  0.65343000  0.60178000  1.0
  C  C154  1  0.27440000  0.74479000  0.65343000  1.0
  C  C155  1  0.27440000  0.60178000  0.74479000  1.0
  C  C156  1  0.27427000  0.73284000  0.58703000  1.0
  C  C157  1  0.27427000  0.68013000  0.73285000  1.0
  C  C158  1  0.27427000  0.58702000  0.68014000  1.0
  C  C159  1  0.16169000  0.54137000  0.30512000  1.0
  C  C160  1  0.16169000  0.15351000  0.54138000  1.0
  C  C161  1  0.16169000  0.30511000  0.15352000  1.0
  C  C162  1  0.00455000  0.61457000  0.26033000  1.0
  C  C163  1  0.00454000  0.12510000  0.61456000  1.0
  C  C164  1  0.00454000  0.26033000  0.12510000  1.0
  C  C165  1  0.98112000  0.54264000  0.26329000  1.0
  C  C166  1  0.98112000  0.19407000  0.54264000  1.0
  C  C167  1  0.98112000  0.26329000  0.19407000  1.0
  C  C168  1  0.09163000  0.41385000  0.31267000  1.0
  C  C169  1  0.09163000  0.27348000  0.41385000  1.0
  C  C170  1  0.09163000  0.31267000  0.27348000  1.0
  C  C171  1  0.09187000  0.39456000  0.25107000  1.0
  C  C172  1  0.09187000  0.35437000  0.39456000  1.0
  C  C173  1  0.09187000  0.25107000  0.35436000  1.0
  C  C174  1  0.11266000  0.98570000  0.44633000  1.0
  C  C175  1  0.11266000  0.56798000  0.98570000  1.0
  C  C176  1  0.11266000  0.44632000  0.56798000  1.0
  C  C177  1  0.01787000  0.94757000  0.50795000  1.0
  C  C178  1  0.01787000  0.54448000  0.94757000  1.0
  C  C179  1  0.01787000  0.50795000  0.54448000  1.0
  C  C180  1  0.96242000  0.99289000  0.53744000  1.0
  C  C181  1  0.96242000  0.46967000  0.99289000  1.0
  C  C182  1  0.96242000  0.53744000  0.46967000  1.0
  C  C183  1  0.98572000  0.86637000  0.53877000  1.0
  C  C184  1  0.98572000  0.59486000  0.86637000  1.0
  C  C185  1  0.98572000  0.53877000  0.59486000  1.0
  C  C186  1  0.89990000  0.83150000  0.59787000  1.0
  C  C187  1  0.89990000  0.57063000  0.83151000  1.0
  C  C188  1  0.89990000  0.59786000  0.57064000  1.0
  C  C189  1  0.87878000  0.95762000  0.59765000  1.0
  C  C190  1  0.87878000  0.44473000  0.95762000  1.0
  C  C191  1  0.87878000  0.59765000  0.44473000  1.0
  C  C192  1  0.84572000  0.87625000  0.62910000  1.0
  C  C193  1  0.84572000  0.49465000  0.87625000  1.0
  C  C194  1  0.84572000  0.62910000  0.49465000  1.0
  C  C195  1  0.75621000  0.84089000  0.69287000  1.0
  C  C196  1  0.75621000  0.46624000  0.84089000  1.0
  C  C197  1  0.75621000  0.69287000  0.46624000  1.0
  C  C198  1  0.75051000  0.86441000  0.75193000  1.0
  C  C199  1  0.75051000  0.38366000  0.86441000  1.0
  C  C200  1  0.75051000  0.75193000  0.38366000  1.0
  C  C201  1  0.67359000  0.78522000  0.69554000  1.0
  C  C202  1  0.67360000  0.51924000  0.78522000  1.0
  C  C203  1  0.67359000  0.69554000  0.51924000  1.0
  C  C204  1  0.58715000  0.75541000  0.75455000  1.0
  C  C205  1  0.58716000  0.49004000  0.75541000  1.0
  C  C206  1  0.58716000  0.75455000  0.49004000  1.0
  C  C207  1  0.66475000  0.83448000  0.81095000  1.0
  C  C208  1  0.66475000  0.35457000  0.83448000  1.0
  C  C209  1  0.66475000  0.81095000  0.35457000  1.0
  C  C210  1  0.58161000  0.78001000  0.81261000  1.0
  C  C211  1  0.58161000  0.40738000  0.78001000  1.0
  C  C212  1  0.58162000  0.81261000  0.40738000  1.0
  C  C213  1  0.49005000  0.74969000  0.87668000  1.0
  C  C214  1  0.49006000  0.37362000  0.74969000  1.0
  C  C215  1  0.49006000  0.87668000  0.37363000  1.0
  C  C216  1  0.25634000  0.81760000  0.97837000  1.0
  C  C217  1  0.25635000  0.20403000  0.81761000  1.0
  C  C218  1  0.25635000  0.97836000  0.20404000  1.0
  C  C219  1  0.16753000  0.71213000  0.07492000  1.0
  C  C220  1  0.16753000  0.21295000  0.71213000  1.0
  C  C221  1  0.16753000  0.07492000  0.21295000  1.0
  C  C222  1  0.14055000  0.77595000  0.08573000  1.0
  C  C223  1  0.14055000  0.13832000  0.77595000  1.0
  C  C224  1  0.14055000  0.08573000  0.13832000  1.0
  C  C225  1  0.19593000  0.92233000  0.01152000  1.0
  C  C226  1  0.19593000  0.06615000  0.92233000  1.0
  C  C227  1  0.19593000  0.01152000  0.06615000  1.0
  C  C228  1  0.19589000  0.98828000  0.93281000  1.0
  C  C229  1  0.19589000  0.07891000  0.98829000  1.0
  C  C230  1  0.19589000  0.93280000  0.07892000  1.0
  C  C231  1  0.48557000  0.61229000  0.10342000  1.0
  C  C232  1  0.48557000  0.28429000  0.61228000  1.0
  C  C233  1  0.48557000  0.10343000  0.28429000  1.0
  C  C234  1  0.51069000  0.55017000  0.17944000  1.0
  C  C235  1  0.51069000  0.27039000  0.55016000  1.0
  C  C236  1  0.51069000  0.17944000  0.27039000  1.0
  C  C237  1  0.37149000  0.51178000  0.12457000  1.0
  C  C238  1  0.37149000  0.36365000  0.51178000  1.0
  C  C239  1  0.37149000  0.12457000  0.36365000  1.0
  C  C240  1  0.43507000  0.40892000  0.26336000  1.0
  C  C241  1  0.43507000  0.32772000  0.40892000  1.0
  C  C242  1  0.43507000  0.26336000  0.32772000  1.0
  C  C243  1  0.43510000  0.33907000  0.25687000  1.0
  C  C244  1  0.43511000  0.40406000  0.33907000  1.0
  C  C245  1  0.43511000  0.25687000  0.40406000  1.0
  N  N246  1  0.24641000  0.65578000  0.41484000  1.0
  N  N247  1  0.24642000  0.92938000  0.65578000  1.0
  N  N248  1  0.24642000  0.41484000  0.92938000  1.0
  N  N249  1  0.27849000  0.63988000  0.53530000  1.0
  N  N250  1  0.27849000  0.82482000  0.63988000  1.0
  N  N251  1  0.27849000  0.53530000  0.82482000  1.0
  N  N252  1  0.11708000  0.61276000  0.28614000  1.0
  N  N253  1  0.11708000  0.10110000  0.61276000  1.0
  N  N254  1  0.11707000  0.28614000  0.10110000  1.0
  N  N255  1  0.08168000  0.49662000  0.29205000  1.0
  N  N256  1  0.08168000  0.21133000  0.49662000  1.0
  N  N257  1  0.08168000  0.29205000  0.21133000  1.0
  N  N258  1  0.23989000  0.73898000  0.00840000  1.0
  N  N259  1  0.23990000  0.25262000  0.73898000  1.0
  N  N260  1  0.23989000  0.00840000  0.25262000  1.0
  N  N261  1  0.19680000  0.84263000  0.02381000  1.0
  N  N262  1  0.19681000  0.13356000  0.84263000  1.0
  N  N263  1  0.19681000  0.02381000  0.13356000  1.0
  N  N264  1  0.39828000  0.58759000  0.07059000  1.0
  N  N265  1  0.39828000  0.34182000  0.58759000  1.0
  N  N266  1  0.39828000  0.07059000  0.34182000  1.0
  N  N267  1  0.43856000  0.48621000  0.19231000  1.0
  N  N268  1  0.43856000  0.32148000  0.48622000  1.0
  N  N269  1  0.43856000  0.19230000  0.32148000  1.0
  O  O270  1  0.32107000  0.75686000  0.22827000  1.0
  O  O271  1  0.32107000  0.01487000  0.75685000  1.0
  O  O272  1  0.32107000  0.22828000  0.01486000  1.0
  O  O273  1  0.40111000  0.63160000  0.28688000  1.0
  O  O274  1  0.40111000  0.08152000  0.63160000  1.0
  O  O275  1  0.40111000  0.28688000  0.08152000  1.0
  O  O276  1  0.05493000  0.97644000  0.77450000  1.0
  O  O277  1  0.05493000  0.24906000  0.97644000  1.0
  O  O278  1  0.05493000  0.77450000  0.24906000  1.0
  O  O279  1  0.10948000  0.84677000  0.82450000  1.0
  O  O280  1  0.10948000  0.32873000  0.84677000  1.0
  O  O281  1  0.10948000  0.82450000  0.32873000  1.0
  O  O282  1  0.49104000  0.76955000  0.93015000  1.0
  O  O283  1  0.49105000  0.30030000  0.76955000  1.0
  O  O284  1  0.49104000  0.93015000  0.30030000  1.0
  O  O285  1  0.41089000  0.70208000  0.87370000  1.0
  O  O286  1  0.41089000  0.42422000  0.70209000  1.0
  O  O287  1  0.41089000  0.87369000  0.42422000  1.0
  O  O288  1  0.17412000  0.93499000  0.43584000  1.0
  O  O289  1  0.17412000  0.62917000  0.93499000  1.0
  O  O290  1  0.17412000  0.43584000  0.62917000  1.0
  O  O291  1  0.12858000  0.06122000  0.41051000  1.0
  O  O292  1  0.12858000  0.52827000  0.06122000  1.0
  O  O293  1  0.12858000  0.41051000  0.52827000  1.0
