# generated using pymatgen
data_ZnH18C22N2O5
_symmetry_space_group_name_H-M   'P 1'
_cell_length_a   8.15052000
_cell_length_b   10.35260000
_cell_length_c   12.14090000
_cell_angle_alpha   78.04720000
_cell_angle_beta   71.42550000
_cell_angle_gamma   78.92990000
_symmetry_Int_Tables_number   1
_chemical_formula_structural   ZnH18C22N2O5
_chemical_formula_sum   'Zn2 H36 C44 N4 O10'
_cell_volume   941.20558296
_cell_formula_units_Z   2
loop_
 _symmetry_equiv_pos_site_id
 _symmetry_equiv_pos_as_xyz
  1  'x, y, z'
loop_
 _atom_site_type_symbol
 _atom_site_label
 _atom_site_symmetry_multiplicity
 _atom_site_fract_x
 _atom_site_fract_y
 _atom_site_fract_z
 _atom_site_occupancy
  Zn  Zn0  1  0.70583000  0.67117000  0.65517000  1.0
  Zn  Zn1  1  0.29417000  0.32883000  0.34483000  1.0
  H  H2  1  0.02567000  0.67859000  0.40928000  1.0
  H  H3  1  0.97433000  0.32141000  0.59072000  1.0
  H  H4  1  0.17345000  0.85840000  0.26013000  1.0
  H  H5  1  0.82655000  0.14160000  0.73987000  1.0
  H  H6  1  0.04031000  0.09949000  0.27294000  1.0
  H  H7  1  0.95969000  0.90052000  0.72705000  1.0
  H  H8  1  0.79202000  0.25998000  0.37369000  1.0
  H  H9  1  0.20798000  0.74002000  0.62631000  1.0
  H  H10  1  0.53495000  0.30384000  0.54307000  1.0
  H  H11  1  0.46505000  0.69616000  0.45693000  1.0
  H  H12  1  0.33150000  0.21436000  0.73971000  1.0
  H  H13  1  0.66850000  0.78564000  0.26029000  1.0
  H  H14  1  0.22896000  0.01645000  0.88396000  1.0
  H  H15  1  0.77104000  0.98355000  0.11604000  1.0
  H  H16  1  0.38104000  0.78569000  0.84485000  1.0
  H  H17  1  0.61896000  0.21431000  0.15514000  1.0
  H  H18  1  0.42084000  0.37231000  0.00661000  1.0
  H  H19  1  0.57916000  0.62769000  0.99339000  1.0
  H  H20  1  0.28982000  0.52178000  0.97481000  1.0
  H  H21  1  0.71018000  0.47822000  0.02519000  1.0
  H  H22  1  0.26076000  0.19831000  0.08031000  1.0
  H  H23  1  0.73924000  0.80169000  0.91969000  1.0
  H  H24  1  0.01993000  0.07602000  0.09083000  1.0
  H  H25  1  0.98007000  0.92398000  0.90917000  1.0
  H  H26  1  0.83378000  0.16365000  0.95542000  1.0
  H  H27  1  0.16622000  0.83635000  0.04458000  1.0
  H  H28  1  0.89271000  0.36735000  0.81134000  1.0
  H  H29  1  0.10729000  0.63265000  0.18867000  1.0
  H  H30  1  0.14503000  0.60601000  0.82194000  1.0
  H  H31  1  0.85496000  0.39399000  0.17806000  1.0
  H  H32  1  0.27950000  0.50754000  0.71408000  1.0
  H  H33  1  0.72049000  0.49246000  0.28593000  1.0
  H  H34  1  0.77470000  0.51562000  0.49567000  1.0
  H  H35  1  0.22530000  0.48438000  0.50433000  1.0
  H  H36  1  0.64162000  0.46305000  0.62590000  1.0
  H  H37  1  0.35838000  0.53695000  0.37409000  1.0
  C  C38  1  0.97442000  0.78350000  0.41284000  1.0
  C  C39  1  0.02558000  0.21650000  0.58716000  1.0
  C  C40  1  0.05430000  0.88570000  0.32829000  1.0
  C  C41  1  0.94570000  0.11430000  0.67171000  1.0
  C  C42  1  0.98163000  0.01698000  0.33545000  1.0
  C  C43  1  0.01837000  0.98303000  0.66454000  1.0
  C  C44  1  0.82880000  0.04617000  0.42748000  1.0
  C  C45  1  0.17120000  0.95383000  0.57252000  1.0
  C  C46  1  0.74223000  0.17837000  0.44094000  1.0
  C  C47  1  0.25776000  0.82163000  0.55906000  1.0
  C  C48  1  0.60039000  0.20263000  0.53479000  1.0
  C  C49  1  0.39961000  0.79737000  0.46521000  1.0
  C  C50  1  0.53437000  0.09524000  0.62328000  1.0
  C  C51  1  0.46563000  0.90476000  0.37671000  1.0
  C  C52  1  0.39322000  0.11389000  0.72492000  1.0
  C  C53  1  0.60679000  0.88611000  0.27508000  1.0
  C  C54  1  0.33707000  0.00382000  0.80514000  1.0
  C  C55  1  0.66293000  0.99618000  0.19486000  1.0
  C  C56  1  0.42106000  0.87565000  0.78477000  1.0
  C  C57  1  0.57894000  0.12435000  0.21522000  1.0
  C  C58  1  0.61306000  0.96227000  0.61037000  1.0
  C  C59  1  0.38695000  0.03773000  0.38963000  1.0
  C  C60  1  0.76156000  0.93719000  0.51074000  1.0
  C  C61  1  0.23844000  0.06281000  0.48926000  1.0
  C  C62  1  0.49181000  0.46190000  0.82495000  1.0
  C  C63  1  0.50819000  0.53809000  0.17505000  1.0
  C  C64  1  0.35315000  0.42751000  0.94228000  1.0
  C  C65  1  0.64685000  0.57249000  0.05772000  1.0
  C  C66  1  0.21482000  0.35116000  0.94021000  1.0
  C  C67  1  0.78518000  0.64884000  0.05979000  1.0
  C  C68  1  0.18069000  0.23426000  0.02049000  1.0
  C  C69  1  0.81931000  0.76574000  0.97951000  1.0
  C  C70  1  0.04462000  0.16646000  0.02708000  1.0
  C  C71  1  0.95539000  0.83354000  0.97292000  1.0
  C  C72  1  0.94093000  0.21500000  0.95163000  1.0
  C  C73  1  0.05906000  0.78500000  0.04837000  1.0
  C  C74  1  0.97465000  0.33041000  0.86992000  1.0
  C  C75  1  0.02534000  0.66959000  0.13009000  1.0
  C  C76  1  0.11029000  0.39950000  0.86322000  1.0
  C  C77  1  0.88970000  0.60049000  0.13678000  1.0
  C  C78  1  0.14755000  0.52502000  0.77501000  1.0
  C  C79  1  0.85244000  0.47497000  0.22499000  1.0
  C  C80  1  0.01918000  0.56820000  0.70296000  1.0
  C  C81  1  0.98082000  0.43180000  0.29704000  1.0
  N  N82  1  0.83312000  0.80880000  0.50196000  1.0
  N  N83  1  0.16689000  0.19120000  0.49804000  1.0
  N  N84  1  0.55575000  0.85580000  0.69009000  1.0
  N  N85  1  0.44426000  0.14420000  0.30991000  1.0
  O  O86  1  0.52876000  0.58108000  0.80364000  1.0
  O  O87  1  0.47123000  0.41892000  0.19636000  1.0
  O  O88  1  0.55986000  0.37489000  0.75775000  1.0
  O  O89  1  0.44014000  0.62511000  0.24225000  1.0
  O  O90  1  0.88316000  0.64943000  0.74400000  1.0
  O  O91  1  0.11684000  0.35057000  0.25600000  1.0
  O  O92  1  0.04672000  0.52270000  0.60888000  1.0
  O  O93  1  0.95328000  0.47729000  0.39112000  1.0
  O  O94  1  0.66942000  0.54203000  0.56143000  1.0
  O  O95  1  0.33058000  0.45798000  0.43857000  1.0
