# generated using pymatgen
data_ZnH6C9N7Cl
_symmetry_space_group_name_H-M   'P 1'
_cell_length_a   9.50585000
_cell_length_b   10.59170000
_cell_length_c   11.20350000
_cell_angle_alpha   89.99990000
_cell_angle_beta   94.84950000
_cell_angle_gamma   90.00000000
_symmetry_Int_Tables_number   1
_chemical_formula_structural   ZnH6C9N7Cl
_chemical_formula_sum   'Zn4 H24 C36 N28 Cl4'
_cell_volume   1123.96520733
_cell_formula_units_Z   4
loop_
 _symmetry_equiv_pos_site_id
 _symmetry_equiv_pos_as_xyz
  1  'x, y, z'
loop_
 _atom_site_type_symbol
 _atom_site_label
 _atom_site_symmetry_multiplicity
 _atom_site_fract_x
 _atom_site_fract_y
 _atom_site_fract_z
 _atom_site_occupancy
  Zn  Zn0  1  0.77626000  0.08601000  0.58077000  1.0
  Zn  Zn1  1  0.72374000  0.58601000  0.41923000  1.0
  Zn  Zn2  1  0.22374000  0.91399000  0.41923000  1.0
  Zn  Zn3  1  0.27626000  0.41399000  0.58077000  1.0
  H  H4  1  0.96041000  0.16141000  0.34635000  1.0
  H  H5  1  0.53959000  0.66140000  0.65365000  1.0
  H  H6  1  0.03959000  0.83859000  0.65365000  1.0
  H  H7  1  0.46041000  0.33860000  0.34635000  1.0
  H  H8  1  0.56420000  0.98766000  0.36741000  1.0
  H  H9  1  0.93580000  0.48767000  0.63259000  1.0
  H  H10  1  0.43580000  0.01234000  0.63259000  1.0
  H  H11  1  0.06420000  0.51234000  0.36741000  1.0
  H  H12  1  0.75511000  0.96008000  0.01504000  1.0
  H  H13  1  0.74489000  0.46008000  0.98496000  1.0
  H  H14  1  0.24489000  0.03992000  0.98496000  1.0
  H  H15  1  0.25511000  0.53992000  0.01504000  1.0
  H  H16  1  0.84055000  0.00878000  0.81863000  1.0
  H  H17  1  0.65945000  0.50878000  0.18137000  1.0
  H  H18  1  0.15945000  0.99122000  0.18137000  1.0
  H  H19  1  0.34055000  0.49122000  0.81863000  1.0
  H  H20  1  0.04190000  0.34672000  0.96644000  1.0
  H  H21  1  0.45810000  0.84672000  0.03356000  1.0
  H  H22  1  0.95810000  0.65328000  0.03356000  1.0
  H  H23  1  0.54190000  0.15328000  0.96644000  1.0
  H  H24  1  0.95390000  0.29852000  0.16343000  1.0
  H  H25  1  0.54610000  0.79851000  0.83657000  1.0
  H  H26  1  0.04610000  0.70149000  0.83657000  1.0
  H  H27  1  0.45390000  0.20149000  0.16343000  1.0
  C  C28  1  0.85782000  0.11848000  0.32387000  1.0
  C  C29  1  0.64218000  0.61847000  0.67613000  1.0
  C  C30  1  0.14218000  0.88152000  0.67613000  1.0
  C  C31  1  0.35782000  0.38153000  0.32387000  1.0
  C  C32  1  0.65680000  0.02784000  0.33172000  1.0
  C  C33  1  0.84321000  0.52784000  0.66828000  1.0
  C  C34  1  0.34321000  0.97216000  0.66828000  1.0
  C  C35  1  0.15680000  0.47216000  0.33172000  1.0
  C  C36  1  0.85092000  0.12523000  0.10011000  1.0
  C  C37  1  0.64909000  0.62523000  0.89989000  1.0
  C  C38  1  0.14908000  0.87477000  0.89989000  1.0
  C  C39  1  0.35091000  0.37477000  0.10011000  1.0
  C  C40  1  0.81761000  0.04462000  0.00326000  1.0
  C  C41  1  0.68239000  0.54462000  0.99674000  1.0
  C  C42  1  0.18239000  0.95538000  0.99674000  1.0
  C  C43  1  0.31760000  0.45538000  0.00326000  1.0
  C  C44  1  0.86630000  0.07312000  0.89310000  1.0
  C  C45  1  0.63370000  0.57312000  0.10690000  1.0
  C  C46  1  0.13370000  0.92688000  0.10690000  1.0
  C  C47  1  0.36630000  0.42688000  0.89309000  1.0
  C  C48  1  0.94781000  0.18161000  0.87885000  1.0
  C  C49  1  0.55219000  0.68161000  0.12115000  1.0
  C  C50  1  0.05219000  0.81839000  0.12115000  1.0
  C  C51  1  0.44781000  0.31839000  0.87885000  1.0
  C  C52  1  0.98036000  0.26150000  0.97759000  1.0
  C  C53  1  0.51964000  0.76150000  0.02241000  1.0
  C  C54  1  0.01964000  0.73850000  0.02241000  1.0
  C  C55  1  0.48036000  0.23850000  0.97759000  1.0
  C  C56  1  0.93198000  0.23395000  0.08845000  1.0
  C  C57  1  0.56801000  0.73395000  0.91155000  1.0
  C  C58  1  0.06802000  0.76605000  0.91155000  1.0
  C  C59  1  0.43199000  0.26605000  0.08845000  1.0
  C  C60  1  0.00049000  0.21422000  0.76394000  1.0
  C  C61  1  0.49951000  0.71422000  0.23606000  1.0
  C  C62  1  0.99951000  0.78578000  0.23606000  1.0
  C  C63  1  0.50049000  0.28578000  0.76394000  1.0
  N  N64  1  0.76928000  0.07634000  0.40161000  1.0
  N  N65  1  0.73072000  0.57634000  0.59839000  1.0
  N  N66  1  0.23072000  0.92366000  0.59839000  1.0
  N  N67  1  0.26928000  0.42366000  0.40161000  1.0
  N  N68  1  0.67071000  0.03745000  0.21584000  1.0
  N  N69  1  0.82929000  0.53745000  0.78416000  1.0
  N  N70  1  0.32929000  0.96255000  0.78416000  1.0
  N  N71  1  0.17071000  0.46255000  0.21584000  1.0
  N  N72  1  0.79924000  0.09551000  0.21217000  1.0
  N  N73  1  0.70076000  0.59551000  0.78783000  1.0
  N  N74  1  0.20076000  0.90449000  0.78783000  1.0
  N  N75  1  0.29924000  0.40449000  0.21217000  1.0
  N  N76  1  0.95162000  0.17279000  0.65268000  1.0
  N  N77  1  0.54838000  0.67278000  0.34732000  1.0
  N  N78  1  0.04838000  0.82721000  0.34732000  1.0
  N  N79  1  0.45162000  0.32721000  0.65268000  1.0
  N  N80  1  0.03024000  0.22785000  0.57351000  1.0
  N  N81  1  0.46976000  0.72785000  0.42649000  1.0
  N  N82  1  0.96976000  0.77215000  0.42649000  1.0
  N  N83  1  0.53024000  0.27215000  0.57351000  1.0
  N  N84  1  0.12270000  0.29958000  0.63588000  1.0
  N  N85  1  0.37730000  0.79958000  0.36412000  1.0
  N  N86  1  0.87730000  0.70042000  0.36413000  1.0
  N  N87  1  0.62270000  0.20042000  0.63588000  1.0
  N  N88  1  0.10806000  0.29406000  0.75372000  1.0
  N  N89  1  0.39194000  0.79406000  0.24628000  1.0
  N  N90  1  0.89194000  0.70594000  0.24628000  1.0
  N  N91  1  0.60806000  0.20594000  0.75372000  1.0
  Cl  Cl92  1  0.73656000  0.89125000  0.64483000  1.0
  Cl  Cl93  1  0.76344000  0.39125000  0.35517000  1.0
  Cl  Cl94  1  0.26344000  0.10875000  0.35517000  1.0
  Cl  Cl95  1  0.23656000  0.60875000  0.64483000  1.0
