# generated using pymatgen
data_CuH2C2SN3
_symmetry_space_group_name_H-M   'P 1'
_cell_length_a   6.15742000
_cell_length_b   6.96455000
_cell_length_c   9.50599000
_cell_angle_alpha   84.04550000
_cell_angle_beta   90.00210000
_cell_angle_gamma   90.00010000
_symmetry_Int_Tables_number   1
_chemical_formula_structural   CuH2C2SN3
_chemical_formula_sum   'Cu4 H8 C8 S4 N12'
_cell_volume   405.45219017
_cell_formula_units_Z   4
loop_
 _symmetry_equiv_pos_site_id
 _symmetry_equiv_pos_as_xyz
  1  'x, y, z'
loop_
 _atom_site_type_symbol
 _atom_site_label
 _atom_site_symmetry_multiplicity
 _atom_site_fract_x
 _atom_site_fract_y
 _atom_site_fract_z
 _atom_site_occupancy
  Cu  Cu0  1  0.80492000  0.42373000  0.47344000  1.0
  Cu  Cu1  1  0.30492000  0.07628000  0.52657000  1.0
  Cu  Cu2  1  0.19509000  0.57627000  0.52657000  1.0
  Cu  Cu3  1  0.69507000  0.92373000  0.47343000  1.0
  H  H4  1  0.80021000  0.23360000  0.91968000  1.0
  H  H5  1  0.30016000  0.26642000  0.08033000  1.0
  H  H6  1  0.19980000  0.76640000  0.08032000  1.0
  H  H7  1  0.69983000  0.73359000  0.91968000  1.0
  H  H8  1  0.15358000  0.14566000  0.84566000  1.0
  H  H9  1  0.65351000  0.35432000  0.15434000  1.0
  H  H10  1  0.84642000  0.85435000  0.15432000  1.0
  H  H11  1  0.34647000  0.64565000  0.84568000  1.0
  C  C12  1  0.64314000  0.14354000  0.73273000  1.0
  C  C13  1  0.14317000  0.35645000  0.26723000  1.0
  C  C14  1  0.35685000  0.85647000  0.26727000  1.0
  C  C15  1  0.85685000  0.64358000  0.73275000  1.0
  C  C16  1  0.32756000  0.15591000  0.83028000  1.0
  C  C17  1  0.82754000  0.34408000  0.16971000  1.0
  C  C18  1  0.67244000  0.84411000  0.16971000  1.0
  C  C19  1  0.17246000  0.65593000  0.83029000  1.0
  S  S20  1  0.84883000  0.12621000  0.61121000  1.0
  S  S21  1  0.34877000  0.37379000  0.38875000  1.0
  S  S22  1  0.15118000  0.87379000  0.38879000  1.0
  S  S23  1  0.65123000  0.62622000  0.61124000  1.0
  N  N24  1  0.66197000  0.20359000  0.86326000  1.0
  N  N25  1  0.16199000  0.29642000  0.13674000  1.0
  N  N26  1  0.33802000  0.79642000  0.13674000  1.0
  N  N27  1  0.83802000  0.70358000  0.86327000  1.0
  N  N28  1  0.42822000  0.11189000  0.71052000  1.0
  N  N29  1  0.92828000  0.38809000  0.28946000  1.0
  N  N30  1  0.57177000  0.88809000  0.28948000  1.0
  N  N31  1  0.07174000  0.61188000  0.71054000  1.0
  N  N32  1  0.46320000  0.21247000  0.92625000  1.0
  N  N33  1  0.96327000  0.28753000  0.07380000  1.0
  N  N34  1  0.53679000  0.78753000  0.07376000  1.0
  N  N35  1  0.03675000  0.71244000  0.92622000  1.0
