# generated using pymatgen
data_CuH28C40(NO2)4
_symmetry_space_group_name_H-M   'P 1'
_cell_length_a   8.00140000
_cell_length_b   8.99694000
_cell_length_c   12.27704926
_cell_angle_alpha   68.75370407
_cell_angle_beta   80.18291575
_cell_angle_gamma   83.65630000
_symmetry_Int_Tables_number   1
_chemical_formula_structural   CuH28C40(NO2)4
_chemical_formula_sum   'Cu1 H28 C40 N4 O8'
_cell_volume   810.52672118
_cell_formula_units_Z   1
loop_
 _symmetry_equiv_pos_site_id
 _symmetry_equiv_pos_as_xyz
  1  'x, y, z'
loop_
 _atom_site_type_symbol
 _atom_site_label
 _atom_site_symmetry_multiplicity
 _atom_site_fract_x
 _atom_site_fract_y
 _atom_site_fract_z
 _atom_site_occupancy
  Cu  Cu0  1  0.00000000  0.00000000  0.00000000  1.0
  H  H1  1  0.97939000  0.47600000  0.82267000  1.0
  H  H2  1  0.02062000  0.52400000  0.17733000  1.0
  H  H3  1  0.93188000  0.14444000  0.65651000  1.0
  H  H4  1  0.06812000  0.85555000  0.34349000  1.0
  H  H5  1  0.87991000  0.28150000  0.44803000  1.0
  H  H6  1  0.12009000  0.71850000  0.55197000  1.0
  H  H7  1  0.72407000  0.54764000  0.39070000  1.0
  H  H8  1  0.27593000  0.45236000  0.60930000  1.0
  H  H9  1  0.61873000  0.67174000  0.54242000  1.0
  H  H10  1  0.38127000  0.32825000  0.45759000  1.0
  H  H11  1  0.72250000  0.84092000  0.88462000  1.0
  H  H12  1  0.27751000  0.15907000  0.11539000  1.0
  H  H13  1  0.41842000  0.79463000  0.97297000  1.0
  H  H14  1  0.58158000  0.20537000  0.02703000  1.0
  H  H15  1  0.25928000  0.61351000  0.92058000  1.0
  H  H16  1  0.74072000  0.38649000  0.07942000  1.0
  H  H17  1  0.40413000  0.47529000  0.78588000  1.0
  H  H18  1  0.59587000  0.52471000  0.21412000  1.0
  H  H19  1  0.81352000  0.96695000  0.45147000  1.0
  H  H20  1  0.18648000  0.03306000  0.54853000  1.0
  H  H21  1  0.30811000  0.99405000  0.36264000  1.0
  H  H22  1  0.69189000  0.00595000  0.63736000  1.0
  H  H23  1  0.87098000  0.06940000  0.24088000  1.0
  H  H24  1  0.12902000  0.93060000  0.75912000  1.0
  H  H25  1  0.65334000  0.81983000  0.07059000  1.0
  H  H26  1  0.34666000  0.18017000  0.92941000  1.0
  H  H27  1  0.44051000  0.80983000  0.27651000  1.0
  H  H28  1  0.55949000  0.19018000  0.72349000  1.0
  C  C29  1  0.72573000  0.48565000  0.68279000  1.0
  C  C30  1  0.27427000  0.51435000  0.31721000  1.0
  C  C31  1  0.81556000  0.33543000  0.71419000  1.0
  C  C32  1  0.18444000  0.66457000  0.28581000  1.0
  C  C33  1  0.86829000  0.26294000  0.62921000  1.0
  C  C34  1  0.13171000  0.73705000  0.37079000  1.0
  C  C35  1  0.83776000  0.33883000  0.51300000  1.0
  C  C36  1  0.16224000  0.66118000  0.48699000  1.0
  C  C37  1  0.74960000  0.48742000  0.48131000  1.0
  C  C38  1  0.25040000  0.51257000  0.51869000  1.0
  C  C39  1  0.69222000  0.55808000  0.56596000  1.0
  C  C40  1  0.30778000  0.44192000  0.43404000  1.0
  C  C41  1  0.64931000  0.56605000  0.76839000  1.0
  C  C42  1  0.35069000  0.43395000  0.23161000  1.0
  C  C43  1  0.73756000  0.67066000  0.79724000  1.0
  C  C44  1  0.26245000  0.32934000  0.20276000  1.0
  C  C45  1  0.65289000  0.75485000  0.86860000  1.0
  C  C46  1  0.34711000  0.24514000  0.13141000  1.0
  C  C47  1  0.48275000  0.73136000  0.91559000  1.0
  C  C48  1  0.51725000  0.26864000  0.08441000  1.0
  C  C49  1  0.39332000  0.62992000  0.88617000  1.0
  C  C50  1  0.60668000  0.37008000  0.11383000  1.0
  C  C51  1  0.47562000  0.55059000  0.81166000  1.0
  C  C52  1  0.52438000  0.44940000  0.18834000  1.0
  C  C53  1  0.86048000  0.24684000  0.83533000  1.0
  C  C54  1  0.13952000  0.75316000  0.16467000  1.0
  C  C55  1  0.91943000  0.70582000  0.74899000  1.0
  C  C56  1  0.08057000  0.29418000  0.25101000  1.0
  C  C57  1  0.56852000  0.97528000  0.39587000  1.0
  C  C58  1  0.43148000  0.02473000  0.60413000  1.0
  C  C59  1  0.67640000  0.98262000  0.47191000  1.0
  C  C60  1  0.32360000  0.01739000  0.52809000  1.0
  C  C61  1  0.39247000  0.99299000  0.42364000  1.0
  C  C62  1  0.60753000  0.00702000  0.57636000  1.0
  C  C63  1  0.78606000  0.99926000  0.22080000  1.0
  C  C64  1  0.21395000  0.00074000  0.77920000  1.0
  C  C65  1  0.66666667  0.87081000  0.13583000  1.0
  C  C66  1  0.33333333  0.12921000  0.86416000  1.0
  C  C67  1  0.56017000  0.86507000  0.23708000  1.0
  C  C68  1  0.43983000  0.13495000  0.76291000  1.0
  N  N69  1  0.63718000  0.94638000  0.29018000  1.0
  N  N70  1  0.36282000  0.05363000  0.70982000  1.0
  N  N71  1  0.80628000  0.95456000  0.12691000  1.0
  N  N72  1  0.19372000  0.04545000  0.87309000  1.0
  O  O73  1  0.84649000  0.09485000  0.87517000  1.0
  O  O74  1  0.15351000  0.90515000  0.12483000  1.0
  O  O75  1  0.91779000  0.31842000  0.89227000  1.0
  O  O76  1  0.08221000  0.68157000  0.10773000  1.0
  O  O77  1  0.03444000  0.58513000  0.77085000  1.0
  O  O78  1  0.96556000  0.41487000  0.22915000  1.0
  O  O79  1  0.96092000  0.84450000  0.69242000  1.0
  O  O80  1  0.03907000  0.15549000  0.30759000  1.0
