# generated using pymatgen
data_CuH18C18N4O5
_symmetry_space_group_name_H-M   'P 1'
_cell_length_a   8.25631000
_cell_length_b   9.78767000
_cell_length_c   11.96930000
_cell_angle_alpha   104.58300000
_cell_angle_beta   97.18090000
_cell_angle_gamma   104.54400000
_symmetry_Int_Tables_number   1
_chemical_formula_structural   CuH18C18N4O5
_chemical_formula_sum   'Cu2 H36 C36 N8 O10'
_cell_volume   887.60225473
_cell_formula_units_Z   2
loop_
 _symmetry_equiv_pos_site_id
 _symmetry_equiv_pos_as_xyz
  1  'x, y, z'
loop_
 _atom_site_type_symbol
 _atom_site_label
 _atom_site_symmetry_multiplicity
 _atom_site_fract_x
 _atom_site_fract_y
 _atom_site_fract_z
 _atom_site_occupancy
  Cu  Cu0  1  0.00000000  0.00000000  0.00000000  1.0
  Cu  Cu1  1  0.50000000  0.50000000  0.50001000  1.0
  H  H2  1  0.54712000  0.57878000  0.82160000  1.0
  H  H3  1  0.45288000  0.42122000  0.17839000  1.0
  H  H4  1  0.34970000  0.33299000  0.80082000  1.0
  H  H5  1  0.65030000  0.66702000  0.19917000  1.0
  H  H6  1  0.00027000  0.89243000  0.22526000  1.0
  H  H7  1  0.99973000  0.10757000  0.77474000  1.0
  H  H8  1  0.36044000  0.92586000  0.00540000  1.0
  H  H9  1  0.63957000  0.07413000  0.99460000  1.0
  H  H10  1  0.48131000  0.82680000  0.18794000  1.0
  H  H11  1  0.51868000  0.17319000  0.81206000  1.0
  H  H12  1  0.16244000  0.83859000  0.39426000  1.0
  H  H13  1  0.83754000  0.16140000  0.60574000  1.0
  H  H14  1  0.37692000  0.83193000  0.39316000  1.0
  H  H15  1  0.62307000  0.16807000  0.60684000  1.0
  H  H16  1  0.26973000  0.58288000  0.24682000  1.0
  H  H17  1  0.73027000  0.41712000  0.75318000  1.0
  H  H18  1  0.19788000  0.58800000  0.38166000  1.0
  H  H19  1  0.80211000  0.41200000  0.61834000  1.0
  H  H20  1  0.06048000  0.41299000  0.10980000  1.0
  H  H21  1  0.93952000  0.58700000  0.89020000  1.0
  H  H22  1  0.84333000  0.41623000  0.10537000  1.0
  H  H23  1  0.15667000  0.58377000  0.89463000  1.0
  H  H24  1  0.92220000  0.20769000  0.17267000  1.0
  H  H25  1  0.07779000  0.79231000  0.82733000  1.0
  H  H26  1  0.05632000  0.34279000  0.30014000  1.0
  H  H27  1  0.94369000  0.65721000  0.69987000  1.0
  H  H28  1  0.85452000  0.53047000  0.40724000  1.0
  H  H29  1  0.14550000  0.46953000  0.59278000  1.0
  H  H30  1  0.64361000  0.08739000  0.19483000  1.0
  H  H31  1  0.35637000  0.91263000  0.80516000  1.0
  H  H32  1  0.40391000  0.17316000  0.32037000  1.0
  H  H33  1  0.59609000  0.82686000  0.67963000  1.0
  H  H34  1  0.00421000  0.84695000  0.63618000  1.0
  H  H35  1  0.99579000  0.15305000  0.36381000  1.0
  H  H36  1  0.74668000  0.93432000  0.33934000  1.0
  H  H37  1  0.25333000  0.06568000  0.66065000  1.0
  C  C38  1  0.52678000  0.54403000  0.89971000  1.0
  C  C39  1  0.47321000  0.45598000  0.10029000  1.0
  C  C40  1  0.61221000  0.63953000  0.01164000  1.0
  C  C41  1  0.38779000  0.36048000  0.98836000  1.0
  C  C42  1  0.41520000  0.40597000  0.88832000  1.0
  C  C43  1  0.58480000  0.59403000  0.11168000  1.0
  C  C44  1  0.73218000  0.78938000  0.02631000  1.0
  C  C45  1  0.26782000  0.21063000  0.97369000  1.0
  C  C46  1  0.11444000  0.89016000  0.19025000  1.0
  C  C47  1  0.88556000  0.10984000  0.80975000  1.0
  C  C48  1  0.30349000  0.90339000  0.07802000  1.0
  C  C49  1  0.69652000  0.09661000  0.92198000  1.0
  C  C50  1  0.36469000  0.85529000  0.16842000  1.0
  C  C51  1  0.63531000  0.14470000  0.83158000  1.0
  C  C52  1  0.24649000  0.79384000  0.34111000  1.0
  C  C53  1  0.75351000  0.20615000  0.65889000  1.0
  C  C54  1  0.18682000  0.62649000  0.30266000  1.0
  C  C55  1  0.81318000  0.37350000  0.69735000  1.0
  C  C56  1  0.96437000  0.43105000  0.16361000  1.0
  C  C57  1  0.03563000  0.56895000  0.83639000  1.0
  C  C58  1  0.94138000  0.31818000  0.23244000  1.0
  C  C59  1  0.05862000  0.68182000  0.76757000  1.0
  C  C60  1  0.76345000  0.42226000  0.36861000  1.0
  C  C61  1  0.23657000  0.57774000  0.63140000  1.0
  C  C62  1  0.64770000  0.19110000  0.25629000  1.0
  C  C63  1  0.35229000  0.80891000  0.74371000  1.0
  C  C64  1  0.53303000  0.23382000  0.32068000  1.0
  C  C65  1  0.46697000  0.76619000  0.67932000  1.0
  C  C66  1  0.70770000  0.74578000  0.47086000  1.0
  C  C67  1  0.29231000  0.25422000  0.52914000  1.0
  C  C68  1  0.85970000  0.87663000  0.48652000  1.0
  C  C69  1  0.14031000  0.12337000  0.51347000  1.0
  C  C70  1  0.00357000  0.91395000  0.57636000  1.0
  C  C71  1  0.99643000  0.08605000  0.42364000  1.0
  C  C72  1  0.85733000  0.96394000  0.41004000  1.0
  C  C73  1  0.14267000  0.03606000  0.58995000  1.0
  N  N74  1  0.14738000  0.92451000  0.09290000  1.0
  N  N75  1  0.85262000  0.07549000  0.90710000  1.0
  N  N76  1  0.24479000  0.84980000  0.23917000  1.0
  N  N77  1  0.75521000  0.15019000  0.76083000  1.0
  N  N78  1  0.60665000  0.37821000  0.39068000  1.0
  N  N79  1  0.39335000  0.62179000  0.60933000  1.0
  N  N80  1  0.79202000  0.31130000  0.28735000  1.0
  N  N81  1  0.20798000  0.68870000  0.71265000  1.0
  O  O82  1  0.82133000  0.79835000  0.94576000  1.0
  O  O83  1  0.17867000  0.20165000  0.05424000  1.0
  O  O84  1  0.74396000  0.89637000  0.11493000  1.0
  O  O85  1  0.25604000  0.10364000  0.88507000  1.0
  O  O86  1  0.01450000  0.57956000  0.23867000  1.0
  O  O87  1  0.98549000  0.42044000  0.76133000  1.0
  O  O88  1  0.58038000  0.71658000  0.39068000  1.0
  O  O89  1  0.41962000  0.28342000  0.60932000  1.0
  O  O90  1  0.71886000  0.66855000  0.54396000  1.0
  O  O91  1  0.28115000  0.33146000  0.45605000  1.0
