# generated using pymatgen
data_ZnH8C11N2Cl2O
_symmetry_space_group_name_H-M   'P 1'
_cell_length_a   7.96648000
_cell_length_b   9.09078000
_cell_length_c   9.09056000
_cell_angle_alpha   116.87200000
_cell_angle_beta   91.71550000
_cell_angle_gamma   91.71620000
_symmetry_Int_Tables_number   1
_chemical_formula_structural   ZnH8C11N2Cl2O
_chemical_formula_sum   'Zn2 H16 C22 N4 Cl4 O2'
_cell_volume   586.30071997
_cell_formula_units_Z   2
loop_
 _symmetry_equiv_pos_site_id
 _symmetry_equiv_pos_as_xyz
  1  'x, y, z'
loop_
 _atom_site_type_symbol
 _atom_site_label
 _atom_site_symmetry_multiplicity
 _atom_site_fract_x
 _atom_site_fract_y
 _atom_site_fract_z
 _atom_site_occupancy
  Zn  Zn0  1  0.25000000  0.20555000  0.79444000  1.0
  Zn  Zn1  1  0.75000000  0.79445000  0.20557000  1.0
  H  H2  1  0.37273000  0.03311000  0.18934000  1.0
  H  H3  1  0.12728000  0.81063000  0.96688000  1.0
  H  H4  1  0.62726000  0.96689000  0.81067000  1.0
  H  H5  1  0.87271000  0.18937000  0.03312000  1.0
  H  H6  1  0.22688000  0.02399000  0.42661000  1.0
  H  H7  1  0.27312000  0.57336000  0.97600000  1.0
  H  H8  1  0.77311000  0.97601000  0.57340000  1.0
  H  H9  1  0.72687000  0.42664000  0.02401000  1.0
  H  H10  1  0.62003000  0.23373000  0.25275000  1.0
  H  H11  1  0.87997000  0.74723000  0.76627000  1.0
  H  H12  1  0.37997000  0.76626000  0.74724000  1.0
  H  H13  1  0.12003000  0.25277000  0.23372000  1.0
  H  H14  1  0.57195000  0.36754000  0.76920000  1.0
  H  H15  1  0.92804000  0.23080000  0.63246000  1.0
  H  H16  1  0.42806000  0.63246000  0.23080000  1.0
  H  H17  1  0.07196000  0.76920000  0.36755000  1.0
  C  C18  1  0.42024000  0.10925000  0.31594000  1.0
  C  C19  1  0.07977000  0.68404000  0.89075000  1.0
  C  C20  1  0.57975000  0.89075000  0.68406000  1.0
  C  C21  1  0.92023000  0.31596000  0.10925000  1.0
  C  C22  1  0.34082000  0.10151000  0.44683000  1.0
  C  C23  1  0.15918000  0.55315000  0.89848000  1.0
  C  C24  1  0.65918000  0.89850000  0.55318000  1.0
  C  C25  1  0.84081000  0.44685000  0.10152000  1.0
  C  C26  1  0.55816000  0.21870000  0.35055000  1.0
  C  C27  1  0.94184000  0.64943000  0.78130000  1.0
  C  C28  1  0.44184000  0.78130000  0.64945000  1.0
  C  C29  1  0.05816000  0.35056000  0.21870000  1.0
  C  C30  1  0.61696000  0.31309000  0.51506000  1.0
  C  C31  1  0.88304000  0.48493000  0.68691000  1.0
  C  C32  1  0.38304000  0.68691000  0.48494000  1.0
  C  C33  1  0.11697000  0.51506000  0.31308000  1.0
  C  C34  1  0.53415000  0.29420000  0.63887000  1.0
  C  C35  1  0.96585000  0.36112000  0.70580000  1.0
  C  C36  1  0.46586000  0.70580000  0.36113000  1.0
  C  C37  1  0.03416000  0.63888000  0.29420000  1.0
  C  C38  1  0.75000000  0.44584000  0.55417000  1.0
  C  C39  1  0.25000000  0.55416000  0.44583000  1.0
  N  N40  1  0.39673000  0.19210000  0.60493000  1.0
  N  N41  1  0.10327000  0.39505000  0.80790000  1.0
  N  N42  1  0.60327000  0.80791000  0.39508000  1.0
  N  N43  1  0.89673000  0.60495000  0.19210000  1.0
  Cl  Cl44  1  0.42381000  0.28714000  0.01649000  1.0
  Cl  Cl45  1  0.07619000  0.98350000  0.71286000  1.0
  Cl  Cl46  1  0.57618000  0.71286000  0.98351000  1.0
  Cl  Cl47  1  0.92382000  0.01650000  0.28714000  1.0
  O  O48  1  0.75000000  0.52542000  0.47459000  1.0
  O  O49  1  0.25000000  0.47458000  0.52540000  1.0
