# generated using pymatgen
data_Al3H8C30NO14
_symmetry_space_group_name_H-M   'P 1'
_cell_length_a   12.27930431
_cell_length_b   12.32850000
_cell_length_c   27.06890000
_cell_angle_alpha   89.61010000
_cell_angle_beta   82.25624469
_cell_angle_gamma   119.27909174
_symmetry_Int_Tables_number   1
_chemical_formula_structural   Al3H8C30NO14
_chemical_formula_sum   'Al6 H16 C60 N2 O28'
_cell_volume   3529.18024455
_cell_formula_units_Z   2
loop_
 _symmetry_equiv_pos_site_id
 _symmetry_equiv_pos_as_xyz
  1  'x, y, z'
loop_
 _atom_site_type_symbol
 _atom_site_label
 _atom_site_symmetry_multiplicity
 _atom_site_fract_x
 _atom_site_fract_y
 _atom_site_fract_z
 _atom_site_occupancy
  Al  Al0  1  0.18507000  0.59805000  0.48747000  1.0
  Al  Al1  1  0.91755000  0.59028000  0.50223000  1.0
  Al  Al2  1  0.91787000  0.34615000  0.50360000  1.0
  Al  Al3  1  0.15432000  0.08077000  0.01977000  1.0
  Al  Al4  1  0.41992000  0.33664000  0.00474000  1.0
  Al  Al5  1  0.42519000  0.09521000  0.00284000  1.0
  H  H6  1  0.82544000  0.54140000  0.28278000  1.0
  H  H7  1  0.07997000  0.12070000  0.84903000  1.0
  H  H8  1  0.98925000  0.04481000  0.80482000  1.0
  H  H9  1  0.02988000  0.11335000  0.67688000  1.0
  H  H10  1  0.04756000  0.03836000  0.72518000  1.0
  H  H11  1  0.96363000  0.77280000  0.72658000  1.0
  H  H12  1  0.00183000  0.80647000  0.81484000  1.0
  H  H13  1  0.40376000  0.98601000  0.76454000  1.0
  H  H14  1  0.52959000  0.15813000  0.31789000  1.0
  H  H15  1  0.26962000  0.53759000  0.69866000  1.0
  H  H16  1  0.31034000  0.54136000  0.78717000  1.0
  H  H17  1  0.36594000  0.95273000  0.67635000  1.0
  H  H18  1  0.79788000  0.52416000  0.19330000  1.0
  H  H19  1  0.50202000  0.14096000  0.22842000  1.0
  H  H20  1  0.39017000  0.71038000  0.50625000  1.0
  H  H21  1  0.94694000  0.99590000  0.00344000  1.0
  C  C22  1  0.09911000  0.72105000  0.41851000  1.0
  C  C23  1  0.19933000  0.32850000  0.18295000  1.0
  C  C24  1  0.18075000  0.33657000  0.23238000  1.0
  C  C25  1  0.76572000  0.39675000  0.44634000  1.0
  C  C26  1  0.16391000  0.34168000  0.27808000  1.0
  C  C27  1  0.14394000  0.34846000  0.32754000  1.0
  C  C28  1  0.12413000  0.35536000  0.37273000  1.0
  C  C29  1  0.21901000  0.88841000  0.13133000  1.0
  C  C30  1  0.19933000  0.86109000  0.17655000  1.0
  C  C31  1  0.17810000  0.83477000  0.22615000  1.0
  C  C32  1  0.15856000  0.81461000  0.27209000  1.0
  C  C33  1  0.57273000  0.22821000  0.24054000  1.0
  C  C34  1  0.13826000  0.79114000  0.32185000  1.0
  C  C35  1  0.12003000  0.76799000  0.36733000  1.0
  C  C36  1  0.62405000  0.32030000  0.87415000  1.0
  C  C37  1  0.09629000  0.37989000  0.42325000  1.0
  C  C38  1  0.64609000  0.33148000  0.82823000  1.0
  C  C39  1  0.66763000  0.34253000  0.77803000  1.0
  C  C40  1  0.68463000  0.35129667  0.73182000  1.0
  C  C41  1  0.70615000  0.36210000  0.68162000  1.0
  C  C42  1  0.72808000  0.37299000  0.63570000  1.0
  C  C43  1  0.11710000  0.34718000  0.61046000  1.0
  C  C44  1  0.58790000  0.23777000  0.29047000  1.0
  C  C45  1  0.23115000  0.45190000  0.72278000  1.0
  C  C46  1  0.25340000  0.45395000  0.77132000  1.0
  C  C47  1  0.12482000  0.22484000  0.78309000  1.0
  C  C48  1  0.10571000  0.22249000  0.73246000  1.0
  C  C49  1  0.09437000  0.74087000  0.55873000  1.0
  C  C50  1  0.15700000  0.33656000  0.70289000  1.0
  C  C51  1  0.19940000  0.34100000  0.80216000  1.0
  C  C52  1  0.21612000  0.34031000  0.85251000  1.0
  C  C53  1  0.13464000  0.33804000  0.65329000  1.0
  C  C54  1  0.22480000  0.33045000  0.89657000  1.0
  C  C55  1  0.67926000  0.35088000  0.30628000  1.0
  C  C56  1  0.12065000  0.80163000  0.60424000  1.0
  C  C57  1  0.05966000  0.82059000  0.73517000  1.0
  C  C58  1  0.08079000  0.83873000  0.78424000  1.0
  C  C59  1  0.30778000  0.93976000  0.75594000  1.0
  C  C60  1  0.28683000  0.92170000  0.70682000  1.0
  C  C61  1  0.77668000  0.39572000  0.58300000  1.0
  C  C62  1  0.16244000  0.86059000  0.69569000  1.0
  C  C63  1  0.20514000  0.89763000  0.79546000  1.0
  C  C64  1  0.22489000  0.91442000  0.84574000  1.0
  C  C65  1  0.14018000  0.83266000  0.64623000  1.0
  C  C66  1  0.64839000  0.33135000  0.20490000  1.0
  C  C67  1  0.23817000  0.92860000  0.88948000  1.0
  C  C68  1  0.24047000  0.29255000  0.08725000  1.0
  C  C69  1  0.56620000  0.28498000  0.06408000  1.0
  C  C70  1  0.24259000  0.94448000  0.08155000  1.0
  C  C71  1  0.24212000  0.30175000  0.94513000  1.0
  C  C72  1  0.57268000  0.29497000  0.92654000  1.0
  C  C73  1  0.09673000  0.38247000  0.56357000  1.0
  C  C74  1  0.25422000  0.96637000  0.93934000  1.0
  C  C75  1  0.71665000  0.37144000  0.40020000  1.0
  C  C76  1  0.75471000  0.45414000  0.27066000  1.0
  C  C77  1  0.63092000  0.32074000  0.15414000  1.0
  C  C78  1  0.73954000  0.44454000  0.22072000  1.0
  C  C79  1  0.69748000  0.36109000  0.35695000  1.0
  C  C80  1  0.61265000  0.30952000  0.11079000  1.0
  C  C81  1  0.21653000  0.31922000  0.13784000  1.0
  N  N82  1  0.07419000  0.11329000  0.81192000  1.0
  N  N83  1  0.03255000  0.10849000  0.71421000  1.0
  O  O84  1  0.17894000  0.47722000  0.43919000  1.0
  O  O85  1  0.54051000  0.17949000  0.04730000  1.0
  O  O86  1  0.34599000  0.96637000  0.05349000  1.0
  O  O87  1  0.17873000  0.69329000  0.43053000  1.0
  O  O88  1  0.16857000  0.98228000  0.96355000  1.0
  O  O89  1  0.16105000  0.19579000  0.96696000  1.0
  O  O90  1  0.34145000  0.38353000  0.96217000  1.0
  O  O91  1  0.54225000  0.37220000  0.94611000  1.0
  O  O92  1  0.55547000  0.19437000  0.94833000  1.0
  O  O93  1  0.35739000  0.98578000  0.95431000  1.0
  O  O94  1  0.33549000  0.17196000  0.00859000  1.0
  O  O95  1  0.79645000  0.49693000  0.56104000  1.0
  O  O96  1  0.99927000  0.70745000  0.44674000  1.0
  O  O97  1  0.79228000  0.50293000  0.46285000  1.0
  O  O98  1  0.78609000  0.31574000  0.46673000  1.0
  O  O99  1  0.98568000  0.30166000  0.44718000  1.0
  O  O100  1  0.17168000  0.49384000  0.54568000  1.0
  O  O101  1  0.17503000  0.71502000  0.53671000  1.0
  O  O102  1  0.98684000  0.71281000  0.54548000  1.0
  O  O103  1  0.80167000  0.31474000  0.56345000  1.0
  O  O104  1  0.00198000  0.30067000  0.54400000  1.0
  O  O105  1  0.00430000  0.51074000  0.49786000  1.0
  O  O106  1  0.16217000  0.97212000  0.07050000  1.0
  O  O107  1  0.16136000  0.18861000  0.07427000  1.0
  O  O108  1  0.34388000  0.37602000  0.06027000  1.0
  O  O109  1  0.54744000  0.36704000  0.04347000  1.0
  O  O110  1  0.35008000  0.67889000  0.47719000  1.0
  O  O111  1  0.98938000  0.99546000  0.03094000  1.0
