# generated using pymatgen
data_CuH12C13S2(NO2)2
_symmetry_space_group_name_H-M   'P 1'
_cell_length_a   4.15844000
_cell_length_b   8.52468000
_cell_length_c   21.20820000
_cell_angle_alpha   93.51880000
_cell_angle_beta   90.08200000
_cell_angle_gamma   104.02500000
_symmetry_Int_Tables_number   1
_chemical_formula_structural   CuH12C13S2(NO2)2
_chemical_formula_sum   'Cu2 H24 C26 S4 N4 O8'
_cell_volume   727.92736480
_cell_formula_units_Z   2
loop_
 _symmetry_equiv_pos_site_id
 _symmetry_equiv_pos_as_xyz
  1  'x, y, z'
loop_
 _atom_site_type_symbol
 _atom_site_label
 _atom_site_symmetry_multiplicity
 _atom_site_fract_x
 _atom_site_fract_y
 _atom_site_fract_z
 _atom_site_occupancy
  Cu  Cu0  1  0.50000000  0.50000000  0.50000000  1.0
  Cu  Cu1  1  0.00000000  0.50000000  0.00000000  1.0
  H  H2  1  0.39889000  0.81553000  0.46714000  1.0
  H  H3  1  0.58941000  0.18402000  0.03258000  1.0
  H  H4  1  0.60111000  0.18448000  0.53286000  1.0
  H  H5  1  0.41060000  0.81598000  0.96742000  1.0
  H  H6  1  0.33815000  0.95074000  0.37051000  1.0
  H  H7  1  0.39011000  0.04955000  0.12906000  1.0
  H  H8  1  0.66185000  0.04927000  0.62949000  1.0
  H  H9  1  0.60989000  0.95045000  0.87094000  1.0
  H  H10  1  0.62592000  0.55190000  0.26574000  1.0
  H  H11  1  0.06950000  0.44948000  0.23453000  1.0
  H  H12  1  0.37409000  0.44811000  0.73426000  1.0
  H  H13  1  0.93050000  0.55051000  0.76547000  1.0
  H  H14  1  0.66444000  0.43229000  0.36917000  1.0
  H  H15  1  0.22710000  0.56956000  0.13126000  1.0
  H  H16  1  0.33556000  0.56772000  0.63084000  1.0
  H  H17  1  0.77290000  0.43044000  0.86875000  1.0
  H  H18  1  0.09903000  0.01118000  0.20838000  1.0
  H  H19  1  0.08726000  0.98916000  0.29094000  1.0
  H  H20  1  0.90097000  0.98882000  0.79162000  1.0
  H  H21  1  0.91273000  0.01084000  0.70906000  1.0
  H  H22  1  0.80953000  0.14956000  0.42224000  1.0
  H  H23  1  0.65993000  0.85156000  0.07719000  1.0
  H  H24  1  0.19050000  0.85044000  0.57775000  1.0
  H  H25  1  0.34006000  0.14844000  0.92281000  1.0
  C  C26  1  0.44605000  0.76133000  0.42132000  1.0
  C  C27  1  0.68767000  0.23880000  0.07854000  1.0
  C  C28  1  0.55394000  0.23868000  0.57868000  1.0
  C  C29  1  0.31233000  0.76120000  0.92146000  1.0
  C  C30  1  0.41035000  0.83566000  0.36608000  1.0
  C  C31  1  0.57631000  0.16470000  0.13368000  1.0
  C  C32  1  0.58964000  0.16434000  0.63392000  1.0
  C  C33  1  0.42369000  0.83530000  0.86632000  1.0
  C  C34  1  0.46222000  0.75791000  0.30804000  1.0
  C  C35  1  0.70355000  0.24262000  0.19186000  1.0
  C  C36  1  0.53778000  0.24210000  0.69196000  1.0
  C  C37  1  0.29645000  0.75738000  0.80814000  1.0
  C  C38  1  0.56998000  0.61366000  0.30933000  1.0
  C  C39  1  0.95355000  0.38733000  0.19081000  1.0
  C  C40  1  0.43002000  0.38635000  0.69067000  1.0
  C  C41  1  0.04645000  0.61267000  0.80919000  1.0
  C  C42  1  0.59670000  0.54738000  0.36651000  1.0
  C  C43  1  0.04681000  0.45380000  0.13372000  1.0
  C  C44  1  0.40329000  0.45263000  0.63349000  1.0
  C  C45  1  0.95320000  0.54620000  0.86629000  1.0
  C  C46  1  0.24833000  0.00017000  0.24976000  1.0
  C  C47  1  0.75166000  0.99983000  0.75024000  1.0
  C  C48  1  0.06539000  0.22341000  0.43186000  1.0
  C  C49  1  0.84222000  0.77754000  0.06780000  1.0
  C  C50  1  0.93463000  0.77658000  0.56813000  1.0
  C  C51  1  0.15776000  0.22246000  0.93220000  1.0
  S  S52  1  0.38459000  0.81657000  0.23321000  1.0
  S  S53  1  0.56706000  0.18357000  0.26654000  1.0
  S  S54  1  0.61541000  0.18343000  0.76679000  1.0
  S  S55  1  0.43294000  0.81643000  0.73346000  1.0
  N  N56  1  0.52848000  0.61817000  0.42182000  1.0
  N  N57  1  0.91095000  0.38239000  0.07822000  1.0
  N  N58  1  0.47151000  0.38183000  0.57818000  1.0
  N  N59  1  0.08906000  0.61761000  0.92178000  1.0
  O  O60  1  0.07363000  0.35025000  0.46892000  1.0
  O  O61  1  0.72424000  0.65054000  0.03082000  1.0
  O  O62  1  0.92639000  0.64974000  0.53108000  1.0
  O  O63  1  0.27574000  0.34946000  0.96918000  1.0
  O  O64  1  0.30651000  0.18110000  0.40722000  1.0
  O  O65  1  0.12542000  0.81989000  0.09261000  1.0
  O  O66  1  0.69352000  0.81888000  0.59277000  1.0
  O  O67  1  0.87457000  0.18011000  0.90739000  1.0
