# generated using pymatgen
data_SnH16(C5O2)2
_symmetry_space_group_name_H-M   'P 1'
_cell_length_a   5.09866000
_cell_length_b   6.15590348
_cell_length_c   20.41720760
_cell_angle_alpha   83.60543594
_cell_angle_beta   82.86564713
_cell_angle_gamma   65.64646075
_symmetry_Int_Tables_number   1
_chemical_formula_structural   SnH16(C5O2)2
_chemical_formula_sum   'Sn2 H32 C20 O8'
_cell_volume   578.00536807
_cell_formula_units_Z   2
loop_
 _symmetry_equiv_pos_site_id
 _symmetry_equiv_pos_as_xyz
  1  'x, y, z'
loop_
 _atom_site_type_symbol
 _atom_site_label
 _atom_site_symmetry_multiplicity
 _atom_site_fract_x
 _atom_site_fract_y
 _atom_site_fract_z
 _atom_site_occupancy
  Sn  Sn0  1  0.41698000  0.25001000  0.74996000  1.0
  Sn  Sn1  1  0.58302000  0.74998000  0.25004000  1.0
  H  H2  1  0.78401000  0.51489000  0.58924000  1.0
  H  H3  1  0.88823000  0.98567000  0.91078000  1.0
  H  H4  1  0.21598000  0.48518000  0.41078000  1.0
  H  H5  1  0.11180000  0.01428000  0.08922000  1.0
  H  H6  1  0.37262000  0.22084000  0.51930000  1.0
  H  H7  1  0.11267000  0.27956000  0.98133000  1.0
  H  H8  1  0.62732000  0.77918000  0.48072000  1.0
  H  H9  1  0.88739000  0.72037000  0.01867000  1.0
  H  H10  1  0.13209000  0.10732000  0.56484000  1.0
  H  H11  1  0.80525000  0.39346000  0.93560000  1.0
  H  H12  1  0.86783000  0.89278000  0.43516000  1.0
  H  H13  1  0.19478000  0.60647000  0.06440000  1.0
  H  H14  1  0.23868000  0.68090000  0.51520000  1.0
  H  H15  1  0.43372000  0.82137000  0.98513000  1.0
  H  H16  1  0.76125000  0.31919000  0.48481000  1.0
  H  H17  1  0.56632000  0.17857000  0.01486000  1.0
  H  H18  1  0.90983000  0.86617000  0.55689000  1.0
  H  H19  1  0.33387000  0.63523000  0.94293000  1.0
  H  H20  1  0.09014000  0.13390000  0.44311000  1.0
  H  H21  1  0.66617000  0.36471000  0.05707000  1.0
  H  H22  1  0.82048000  0.80092000  0.74540000  1.0
  H  H23  1  0.36631000  0.69975000  0.75458000  1.0
  H  H24  1  0.17940000  0.19904000  0.25464000  1.0
  H  H25  1  0.63359000  0.30026000  0.24536000  1.0
  H  H26  1  0.91346000  0.99460000  0.68296000  1.0
  H  H27  1  0.59080000  0.50609000  0.81693000  1.0
  H  H28  1  0.08665000  0.00523000  0.31706000  1.0
  H  H29  1  0.40921000  0.49405000  0.18301000  1.0
  H  H30  1  0.64385000  0.88839000  0.67005000  1.0
  H  H31  1  0.20275000  0.61134000  0.82993000  1.0
  H  H32  1  0.35617000  0.11153000  0.32997000  1.0
  H  H33  1  0.79726000  0.38874000  0.17005000  1.0
  C  C34  1  0.16896000  0.43722000  0.63349000  1.0
  C  C35  1  0.23927000  0.06433000  0.86656000  1.0
  C  C36  1  0.83104000  0.56284000  0.36652000  1.0
  C  C37  1  0.76070000  0.93565000  0.13345000  1.0
  C  C38  1  0.00829000  0.48747000  0.57257000  1.0
  C  C39  1  0.06836000  0.01352000  0.92745000  1.0
  C  C40  1  0.99172000  0.51257000  0.42743000  1.0
  C  C41  1  0.93169000  0.98643000  0.07254000  1.0
  C  C42  1  0.14213000  0.26080000  0.53321000  1.0
  C  C43  1  0.93648000  0.23948000  0.96708000  1.0
  C  C44  1  0.85782000  0.73926000  0.46680000  1.0
  C  C45  1  0.06360000  0.76044000  0.03291000  1.0
  C  C46  1  0.01316000  0.70479000  0.52896000  1.0
  C  C47  1  0.24696000  0.79628000  0.97102000  1.0
  C  C48  1  0.98680000  0.29527000  0.47105000  1.0
  C  C49  1  0.75309000  0.20364000  0.02898000  1.0
  C  C50  1  0.74074000  0.94327000  0.70658000  1.0
  C  C51  1  0.39047000  0.55715000  0.79334000  1.0
  C  C52  1  0.25927000  0.05666000  0.29344000  1.0
  C  C53  1  0.60950000  0.44291000  0.20662000  1.0
  O  O54  1  0.07699000  0.33541000  0.68549000  1.0
  O  O55  1  0.09825000  0.16396000  0.81436000  1.0
  O  O56  1  0.92303000  0.66463000  0.31451000  1.0
  O  O57  1  0.90182000  0.83601000  0.18565000  1.0
  O  O58  1  0.39166000  0.47635000  0.63503000  1.0
  O  O59  1  0.50179000  0.02723000  0.86516000  1.0
  O  O60  1  0.60838000  0.52360000  0.36496000  1.0
  O  O61  1  0.49820000  0.97280000  0.13485000  1.0
