# generated using pymatgen
data_ZnH5C9O4
_symmetry_space_group_name_H-M   'P 1'
_cell_length_a   18.56520000
_cell_length_b   18.61410000
_cell_length_c   18.67276165
_cell_angle_alpha   109.40049712
_cell_angle_beta   109.47062504
_cell_angle_gamma   109.19800000
_symmetry_Int_Tables_number   1
_chemical_formula_structural   ZnH5C9O4
_chemical_formula_sum   'Zn6 H30 C54 O24'
_cell_volume   4988.37800027
_cell_formula_units_Z   6
loop_
 _symmetry_equiv_pos_site_id
 _symmetry_equiv_pos_as_xyz
  1  'x, y, z'
loop_
 _atom_site_type_symbol
 _atom_site_label
 _atom_site_symmetry_multiplicity
 _atom_site_fract_x
 _atom_site_fract_y
 _atom_site_fract_z
 _atom_site_occupancy
  Zn  Zn0  1  0.43698000  0.43457000  0.49996000  1.0
  Zn  Zn1  1  0.55428000  0.56453000  0.49803000  1.0
  Zn  Zn2  1  0.44060000  0.00943000  0.94025000  1.0
  Zn  Zn3  1  0.56313000  0.99883000  0.05769000  1.0
  Zn  Zn4  1  0.00083000  0.55990000  0.06404000  1.0
  Zn  Zn5  1  0.00073000  0.43888000  0.93520000  1.0
  H  H6  1  0.39690000  0.29855000  0.23829000  1.0
  H  H7  1  0.19462000  0.45947000  0.37527000  1.0
  H  H8  1  0.79691000  0.11025000  0.01407000  1.0
  H  H9  1  0.89422000  0.20956000  0.98193000  1.0
  H  H10  1  0.75359000  0.35284000  0.98902000  1.0
  H  H11  1  0.64798000  0.24523000  0.00686000  1.0
  H  H12  1  0.39498000  0.85778000  0.14691000  1.0
  H  H13  1  0.27069000  0.73870000  0.13567000  1.0
  H  H14  1  0.13676000  0.62131000  0.85518000  1.0
  H  H15  1  0.25324000  0.74908000  0.86793000  1.0
  H  H16  1  0.82925000  0.42419000  0.46185000  1.0
  H  H17  1  0.58937000  0.38005000  0.68933000  1.0
  H  H18  1  0.81487000  0.32080000  0.32581000  1.0
  H  H19  1  0.66937000  0.22144000  0.19303000  1.0
  H  H20  1  0.38021000  0.18125000  0.10943000  1.0
  H  H21  1  0.76367000  0.62744000  0.73045000  1.0
  H  H22  1  0.71402000  0.39275000  0.80918000  1.0
  H  H23  1  0.77432000  0.47350000  0.54327000  1.0
  H  H24  1  0.71519000  0.51744000  0.49342000  1.0
  H  H25  1  0.66047000  0.42910000  0.50609000  1.0
  H  H26  1  0.96261000  0.64852000  0.86468000  1.0
  H  H27  1  0.91357000  0.71168000  0.84233000  1.0
  H  H28  1  0.49834000  0.78462000  0.60255000  1.0
  H  H29  1  0.93406000  0.70283000  0.93849000  1.0
  H  H30  1  0.47549000  0.88927000  0.70630000  1.0
  H  H31  1  0.47576000  0.74767000  0.84755000  1.0
  H  H32  1  0.48381000  0.63532000  0.73552000  1.0
  H  H33  1  0.34536000  0.46933000  0.24301000  1.0
  H  H34  1  0.23952000  0.48734000  0.13522000  1.0
  H  H35  1  0.09745000  0.49216000  0.27607000  1.0
  C  C36  1  0.59783000  0.49411000  0.62780000  1.0
  C  C37  1  0.72396000  0.44512000  0.79297000  1.0
  C  C38  1  0.65456000  0.43737000  0.72575000  1.0
  C  C39  1  0.53152000  0.41364000  0.38842000  1.0
  C  C40  1  0.66953000  0.50324000  0.70300000  1.0
  C  C41  1  0.49101000  0.77590000  0.65509000  1.0
  C  C42  1  0.47895000  0.83437000  0.71308000  1.0
  C  C43  1  0.47442000  0.82438000  0.78285000  1.0
  C  C44  1  0.47788000  0.75359000  0.79207000  1.0
  C  C45  1  0.48386000  0.69219000  0.73095000  1.0
  C  C46  1  0.49259000  0.70429000  0.66343000  1.0
  C  C47  1  0.61077000  0.34074000  0.32537000  1.0
  C  C48  1  0.28911000  0.47145000  0.24777000  1.0
  C  C49  1  0.23161000  0.48321000  0.18920000  1.0
  C  C50  1  0.16376000  0.49271000  0.20079000  1.0
  C  C51  1  0.34493000  0.45941000  0.38058000  1.0
  C  C52  1  0.15066000  0.48496000  0.26812000  1.0
  C  C53  1  0.20495000  0.46710000  0.32350000  1.0
  C  C54  1  0.27583000  0.46300000  0.31492000  1.0
  C  C55  1  0.64971000  0.10924000  0.01998000  1.0
  C  C56  1  0.49832000  0.13535000  0.09923000  1.0
  C  C57  1  0.40134000  0.88439000  0.01443000  1.0
  C  C58  1  0.53424000  0.34757000  0.31812000  1.0
  C  C59  1  0.47238000  0.89081000  0.85258000  1.0
  C  C60  1  0.88936000  0.35258000  0.97238000  1.0
  C  C61  1  0.88125000  0.52214000  0.90743000  1.0
  C  C62  1  0.12387000  0.60163000  0.98868000  1.0
  C  C63  1  0.50237000  0.63862000  0.60137000  1.0
  C  C64  1  0.10579000  0.50846000  0.13796000  1.0
  C  C65  1  0.78670000  0.16232000  0.00655000  1.0
  C  C66  1  0.84106000  0.21779000  0.98900000  1.0
  C  C67  1  0.82877000  0.28622000  0.98269000  1.0
  C  C68  1  0.76084000  0.29797000  0.99194000  1.0
  C  C69  1  0.45385000  0.29179000  0.24130000  1.0
  C  C70  1  0.70343000  0.23947000  0.00354000  1.0
  C  C71  1  0.71666000  0.17197000  0.01188000  1.0
  C  C72  1  0.33730000  0.80673000  0.08358000  1.0
  C  C73  1  0.26881000  0.73994000  0.07715000  1.0
  C  C74  1  0.19698000  0.67276000  0.99471000  1.0
  C  C75  1  0.69511000  0.39322000  0.40414000  1.0
  C  C76  1  0.19255000  0.67434000  0.91890000  1.0
  C  C77  1  0.25784000  0.74470000  0.92592000  1.0
  C  C78  1  0.33107000  0.81029000  0.00810000  1.0
  C  C79  1  0.76552000  0.38400000  0.40178000  1.0
  C  C80  1  0.44426000  0.22604000  0.16852000  1.0
  C  C81  1  0.75732000  0.32463000  0.32534000  1.0
  C  C82  1  0.67625000  0.26964000  0.25095000  1.0
  C  C83  1  0.60085000  0.27420000  0.24915000  1.0
  C  C84  1  0.71173000  0.45656000  0.49083000  1.0
  C  C85  1  0.91293000  0.66701000  0.86867000  1.0
  C  C86  1  0.51549000  0.21518000  0.17259000  1.0
  C  C87  1  0.75334000  0.57725000  0.74967000  1.0
  C  C88  1  0.82315000  0.58752000  0.81920000  1.0
  C  C89  1  0.80733000  0.51946000  0.83955000  1.0
  O  O90  1  0.51877000  0.43344000  0.59631000  1.0
  O  O91  1  0.92119000  0.32923000  0.92277000  1.0
  O  O92  1  0.91207000  0.57563000  0.98846000  1.0
  O  O93  1  0.61901000  0.54595000  0.59871000  1.0
  O  O94  1  0.90763000  0.47015000  0.87853000  1.0
  O  O95  1  0.09943000  0.62483000  0.04432000  1.0
  O  O96  1  0.09080000  0.52270000  0.92777000  1.0
  O  O97  1  0.07460000  0.55741000  0.16553000  1.0
  O  O98  1  0.09142000  0.47227000  0.06002000  1.0
  O  O99  1  0.48193000  0.38379000  0.41656000  1.0
  O  O100  1  0.57497000  0.49501000  0.41159000  1.0
  O  O101  1  0.67291000  0.07604000  0.06829000  1.0
  O  O102  1  0.32404000  0.41021000  0.41344000  1.0
  O  O103  1  0.42311000  0.50785000  0.40071000  1.0
  O  O104  1  0.46241000  0.55998000  0.58416000  1.0
  O  O105  1  0.55132000  0.66558000  0.57003000  1.0
  O  O106  1  0.57154000  0.09294000  0.97748000  1.0
  O  O107  1  0.44104000  0.10910000  0.02047000  1.0
  O  O108  1  0.53887000  0.09554000  0.11908000  1.0
  O  O109  1  0.37665000  0.91397000  0.96415000  1.0
  O  O110  1  0.48140000  0.91220000  0.06979000  1.0
  O  O111  1  0.42700000  0.92740000  0.83163000  1.0
  O  O112  1  0.51715000  0.90669000  0.92984000  1.0
  O  O113  1  0.90582000  0.43065000  0.01493000  1.0
