# generated using pymatgen
data_CoH20C19(NO)4
_symmetry_space_group_name_H-M   'P 1'
_cell_length_a   11.72640000
_cell_length_b   11.73860000
_cell_length_c   18.07280000
_cell_angle_alpha   106.38300000
_cell_angle_beta   98.55300000
_cell_angle_gamma   109.64200000
_symmetry_Int_Tables_number   1
_chemical_formula_structural   CoH20C19(NO)4
_chemical_formula_sum   'Co4 H80 C76 N16 O16'
_cell_volume   2164.67299248
_cell_formula_units_Z   4
loop_
 _symmetry_equiv_pos_site_id
 _symmetry_equiv_pos_as_xyz
  1  'x, y, z'
loop_
 _atom_site_type_symbol
 _atom_site_label
 _atom_site_symmetry_multiplicity
 _atom_site_fract_x
 _atom_site_fract_y
 _atom_site_fract_z
 _atom_site_occupancy
  Co  Co0  1  0.33707000  0.28362000  0.05701000  1.0
  Co  Co1  1  0.22687000  0.78026000  0.44299000  1.0
  Co  Co2  1  0.66293000  0.71638000  0.94299000  1.0
  Co  Co3  1  0.77313000  0.21973000  0.55701000  1.0
  H  H4  1  0.58905000  0.43938000  0.05793000  1.0
  H  H5  1  0.38153000  0.03125000  0.44207000  1.0
  H  H6  1  0.41095000  0.56062000  0.94207000  1.0
  H  H7  1  0.61847000  0.96875000  0.55793000  1.0
  H  H8  1  0.87620000  0.70024000  0.23616000  1.0
  H  H9  1  0.46377000  0.14022000  0.26379000  1.0
  H  H10  1  0.12381000  0.29977000  0.76384000  1.0
  H  H11  1  0.53623000  0.85978000  0.73621000  1.0
  H  H12  1  0.79680000  0.70180000  0.14460000  1.0
  H  H13  1  0.55711000  0.15255000  0.35531000  1.0
  H  H14  1  0.20321000  0.29821000  0.85540000  1.0
  H  H15  1  0.44289000  0.84745000  0.64469000  1.0
  H  H16  1  0.85540000  0.58064000  0.14330000  1.0
  H  H17  1  0.43694000  0.21217000  0.35666000  1.0
  H  H18  1  0.14461000  0.41937000  0.85670000  1.0
  H  H19  1  0.56306000  0.78783000  0.64334000  1.0
  H  H20  1  0.33421000  0.34319000  0.22341000  1.0
  H  H21  1  0.11995000  0.61129000  0.27654000  1.0
  H  H22  1  0.66580000  0.65681000  0.77659000  1.0
  H  H23  1  0.88005000  0.38871000  0.72346000  1.0
  H  H24  1  0.40225000  0.50238000  0.29637000  1.0
  H  H25  1  0.20635000  0.60646000  0.20360000  1.0
  H  H26  1  0.59775000  0.49762000  0.70363000  1.0
  H  H27  1  0.79365000  0.39355000  0.79640000  1.0
  H  H28  1  0.45515000  0.38397000  0.31030000  1.0
  H  H29  1  0.07382000  0.64527000  0.18966000  1.0
  H  H30  1  0.54486000  0.61603000  0.68970000  1.0
  H  H31  1  0.92618000  0.35473000  0.81034000  1.0
  H  H32  1  0.04447000  0.51244000  0.40996000  1.0
  H  H33  1  0.10215000  0.13419000  0.09018000  1.0
  H  H34  1  0.95554000  0.48756000  0.59004000  1.0
  H  H35  1  0.89785000  0.86582000  0.90982000  1.0
  H  H36  1  0.22783000  0.54931000  0.01595000  1.0
  H  H37  1  0.53390000  0.71151000  0.48369000  1.0
  H  H38  1  0.77218000  0.45069000  0.98405000  1.0
  H  H39  1  0.46609000  0.28848000  0.51631000  1.0
  H  H40  1  0.90269000  0.88446000  0.38204000  1.0
  H  H41  1  0.50311000  0.02160000  0.11836000  1.0
  H  H42  1  0.09731000  0.11554000  0.61796000  1.0
  H  H43  1  0.49688000  0.97840000  0.88164000  1.0
  H  H44  1  0.04876000  0.89355000  0.36170000  1.0
  H  H45  1  0.53215000  0.18774000  0.13867000  1.0
  H  H46  1  0.95125000  0.10645000  0.63830000  1.0
  H  H47  1  0.46785000  0.81226000  0.86133000  1.0
  H  H48  1  0.03816000  0.93242000  0.46167000  1.0
  H  H49  1  0.47150000  0.07729000  0.03869000  1.0
  H  H50  1  0.96184000  0.06758000  0.53833000  1.0
  H  H51  1  0.52850000  0.92271000  0.96131000  1.0
  H  H52  1  0.72063000  0.72891000  0.35180000  1.0
  H  H53  1  0.37780000  0.86958000  0.14835000  1.0
  H  H54  1  0.27937000  0.27109000  0.64820000  1.0
  H  H55  1  0.62219000  0.13042000  0.85165000  1.0
  H  H56  1  0.64756000  0.59139000  0.37429000  1.0
  H  H57  1  0.21770000  0.77372000  0.12564000  1.0
  H  H58  1  0.35244000  0.40861000  0.62571000  1.0
  H  H59  1  0.78230000  0.22628000  0.87436000  1.0
  H  H60  1  0.57781000  0.35606000  0.82528000  1.0
  H  H61  1  0.53098000  0.25278000  0.67483000  1.0
  H  H62  1  0.42218000  0.64394000  0.17472000  1.0
  H  H63  1  0.46902000  0.74722000  0.32517000  1.0
  H  H64  1  0.13253000  0.68949000  0.97114000  1.0
  H  H65  1  0.71872000  0.66071000  0.52871000  1.0
  H  H66  1  0.86748000  0.31052000  0.02886000  1.0
  H  H67  1  0.28127000  0.33928000  0.47129000  1.0
  H  H68  1  0.25815000  0.03994000  0.82432000  1.0
  H  H69  1  0.21599000  0.93370000  0.67565000  1.0
  H  H70  1  0.74185000  0.96006000  0.17568000  1.0
  H  H71  1  0.78401000  0.06629000  0.32435000  1.0
  H  H72  1  0.81952000  0.32260000  0.36641000  1.0
  H  H73  1  0.95580000  0.95244000  0.13350000  1.0
  H  H74  1  0.18048000  0.67740000  0.63359000  1.0
  H  H75  1  0.04419000  0.04756000  0.86650000  1.0
  H  H76  1  0.72176000  0.33656000  0.28661000  1.0
  H  H77  1  0.04974000  0.93469000  0.21330000  1.0
  H  H78  1  0.27824000  0.66344000  0.71339000  1.0
  H  H79  1  0.95025000  0.06532000  0.78670000  1.0
  H  H80  1  0.69913000  0.37815000  0.38376000  1.0
  H  H81  1  0.99450000  0.81512000  0.11612000  1.0
  H  H82  1  0.30087000  0.62185000  0.61624000  1.0
  H  H83  1  0.00549000  0.18488000  0.88388000  1.0
  C  C84  1  0.51834000  0.45846000  0.22092000  1.0
  C  C85  1  0.23768000  0.79780000  0.27905000  1.0
  C  C86  1  0.48167000  0.54155000  0.77908000  1.0
  C  C87  1  0.76232000  0.20220000  0.72095000  1.0
  C  C88  1  0.64374000  0.55035000  0.25171000  1.0
  C  C89  1  0.29876000  0.89239000  0.24827000  1.0
  C  C90  1  0.35626000  0.44965000  0.74829000  1.0
  C  C91  1  0.70124000  0.10761000  0.75173000  1.0
  C  C92  1  0.83524000  0.62503000  0.36637000  1.0
  C  C93  1  0.25888000  0.96911000  0.13368000  1.0
  C  C94  1  0.16476000  0.37497000  0.63364000  1.0
  C  C95  1  0.74111000  0.03089000  0.86632000  1.0
  C  C96  1  0.81118000  0.63912000  0.17699000  1.0
  C  C97  1  0.46190000  0.13443000  0.32298000  1.0
  C  C98  1  0.18882000  0.36088000  0.82301000  1.0
  C  C99  1  0.53810000  0.86558000  0.67702000  1.0
  C  C100  1  0.42255000  0.41961000  0.26475000  1.0
  C  C101  1  0.15507000  0.65828000  0.23521000  1.0
  C  C102  1  0.57745000  0.58039000  0.73525000  1.0
  C  C103  1  0.84493000  0.34172000  0.76479000  1.0
  C  C104  1  0.12788000  0.52778000  0.00807000  1.0
  C  C105  1  0.52004000  0.61960000  0.49172000  1.0
  C  C106  1  0.87212000  0.47223000  0.99194000  1.0
  C  C107  1  0.47996000  0.38039000  0.50827000  1.0
  C  C108  1  0.05251000  0.42100000  0.02430000  1.0
  C  C109  1  0.39681000  0.52840000  0.47558000  1.0
  C  C110  1  0.94749000  0.57901000  0.97571000  1.0
  C  C111  1  0.60319000  0.47160000  0.52441000  1.0
  C  C112  1  0.68926000  0.55601000  0.18472000  1.0
  C  C113  1  0.37118000  0.00483000  0.31526000  1.0
  C  C114  1  0.31075000  0.44399000  0.81528000  1.0
  C  C115  1  0.62882000  0.99517000  0.68474000  1.0
  C  C116  1  0.95352000  0.72904000  0.39241000  1.0
  C  C117  1  0.33689000  0.06151000  0.10778000  1.0
  C  C118  1  0.04648000  0.27096000  0.60759000  1.0
  C  C119  1  0.66310000  0.93849000  0.89222000  1.0
  C  C120  1  0.85970000  0.51756000  0.37086000  1.0
  C  C121  1  0.14666000  0.98874000  0.12916000  1.0
  C  C122  1  0.14030000  0.48244000  0.62914000  1.0
  C  C123  1  0.85334000  0.01126000  0.87084000  1.0
  C  C124  1  0.44779000  0.26776000  0.92174000  1.0
  C  C125  1  0.34666000  0.02595000  0.57835000  1.0
  C  C126  1  0.55221000  0.73225000  0.07827000  1.0
  C  C127  1  0.65334000  0.97405000  0.42165000  1.0
  C  C128  1  0.42098000  0.20380000  0.83303000  1.0
  C  C129  1  0.37112000  0.08796000  0.66700000  1.0
  C  C130  1  0.57901000  0.79620000  0.16697000  1.0
  C  C131  1  0.62888000  0.91204000  0.33300000  1.0
  C  C132  1  0.98703000  0.86687000  0.39975000  1.0
  C  C133  1  0.46764000  0.08801000  0.10057000  1.0
  C  C134  1  0.01297000  0.13313000  0.60025000  1.0
  C  C135  1  0.53236000  0.91199000  0.89943000  1.0
  C  C136  1  0.70953000  0.62772000  0.33866000  1.0
  C  C137  1  0.28949000  0.87131000  0.16137000  1.0
  C  C138  1  0.29048000  0.37228000  0.66134000  1.0
  C  C139  1  0.71051000  0.12870000  0.83864000  1.0
  C  C140  1  0.49849000  0.26402000  0.79134000  1.0
  C  C141  1  0.47280000  0.20721000  0.70869000  1.0
  C  C142  1  0.50151000  0.73598000  0.20866000  1.0
  C  C143  1  0.52720000  0.79278000  0.29131000  1.0
  C  C144  1  0.07546000  0.60597000  0.98371000  1.0
  C  C145  1  0.62248000  0.59137000  0.51622000  1.0
  C  C146  1  0.92454000  0.39404000  0.01629000  1.0
  C  C147  1  0.37752000  0.40862000  0.48378000  1.0
  C  C148  1  0.10860000  0.33473000  0.04823000  1.0
  C  C149  1  0.28666000  0.56067000  0.45159000  1.0
  C  C150  1  0.89140000  0.66527000  0.95177000  1.0
  C  C151  1  0.71333000  0.43932000  0.54841000  1.0
  C  C152  1  0.31804000  0.08515000  0.79115000  1.0
  C  C153  1  0.29430000  0.02676000  0.70882000  1.0
  C  C154  1  0.68196000  0.91485000  0.20885000  1.0
  C  C155  1  0.70570000  0.97324000  0.29118000  1.0
  C  C156  1  0.77110000  0.38140000  0.35089000  1.0
  C  C157  1  0.03037000  0.91982000  0.14904000  1.0
  C  C158  1  0.22890000  0.61861000  0.64911000  1.0
  C  C159  1  0.96963000  0.08018000  0.85096000  1.0
  N  N160  1  0.59455000  0.47029000  0.11953000  1.0
  N  N161  1  0.35064000  0.97529000  0.38044000  1.0
  N  N162  1  0.40546000  0.52971000  0.88047000  1.0
  N  N163  1  0.64936000  0.02471000  0.61956000  1.0
  N  N164  1  0.49042000  0.40998000  0.14017000  1.0
  N  N165  1  0.26984000  0.85057000  0.35980000  1.0
  N  N166  1  0.50958000  0.59002000  0.85983000  1.0
  N  N167  1  0.73016000  0.14943000  0.64020000  1.0
  N  N168  1  0.04410000  0.68729000  0.41159000  1.0
  N  N169  1  0.27570000  0.13267000  0.08862000  1.0
  N  N170  1  0.95590000  0.31272000  0.58841000  1.0
  N  N171  1  0.72430000  0.86734000  0.91138000  1.0
  N  N172  1  0.98564000  0.55933000  0.39825000  1.0
  N  N173  1  0.16092000  0.08726000  0.10185000  1.0
  N  N174  1  0.01436000  0.44067000  0.60176000  1.0
  N  N175  1  0.83908000  0.91274000  0.89815000  1.0
  O  O176  1  0.55167000  0.36032000  0.96033000  1.0
  O  O177  1  0.40058000  0.09112000  0.53969000  1.0
  O  O178  1  0.44833000  0.63968000  0.03967000  1.0
  O  O179  1  0.59942000  0.90887000  0.46031000  1.0
  O  O180  1  0.35724000  0.21972000  0.95176000  1.0
  O  O181  1  0.26880000  0.90539000  0.54838000  1.0
  O  O182  1  0.64276000  0.78029000  0.04824000  1.0
  O  O183  1  0.73120000  0.09460000  0.45162000  1.0
  O  O184  1  0.04406000  0.24106000  0.06532000  1.0
  O  O185  1  0.17580000  0.47928000  0.43480000  1.0
  O  O186  1  0.95594000  0.75894000  0.93467000  1.0
  O  O187  1  0.82420000  0.52072000  0.56520000  1.0
  O  O188  1  0.22568000  0.36723000  0.04795000  1.0
  O  O189  1  0.31952000  0.67771000  0.45153000  1.0
  O  O190  1  0.77432000  0.63278000  0.95206000  1.0
  O  O191  1  0.68048000  0.32228000  0.54846000  1.0
