# generated using pymatgen
data_Cd3H2(C4O5)2
_symmetry_space_group_name_H-M   'P 1'
_cell_length_a   7.25815000
_cell_length_b   7.63342000
_cell_length_c   12.03531763
_cell_angle_alpha   84.94461133
_cell_angle_beta   72.46573577
_cell_angle_gamma   61.63490000
_symmetry_Int_Tables_number   1
_chemical_formula_structural   Cd3H2(C4O5)2
_chemical_formula_sum   'Cd6 H4 C16 O20'
_cell_volume   558.28606345
_cell_formula_units_Z   2
loop_
 _symmetry_equiv_pos_site_id
 _symmetry_equiv_pos_as_xyz
  1  'x, y, z'
loop_
 _atom_site_type_symbol
 _atom_site_label
 _atom_site_symmetry_multiplicity
 _atom_site_fract_x
 _atom_site_fract_y
 _atom_site_fract_z
 _atom_site_occupancy
  Cd  Cd0  1  0.50000000  0.00000000  0.50000000  1.0
  Cd  Cd1  1  0.00000000  0.00000000  0.50000000  1.0
  Cd  Cd2  1  0.99376000  0.29678000  0.71540000  1.0
  Cd  Cd3  1  0.00624000  0.70322000  0.28460000  1.0
  Cd  Cd4  1  1.00000000  0.50000000  0.00000000  1.0
  Cd  Cd5  1  0.50000000  0.50000000  0.00000000  1.0
  H  H6  1  0.88512000  0.69697000  0.53278000  1.0
  H  H7  1  0.11488000  0.30303000  0.46722000  1.0
  H  H8  1  0.91922000  0.21681000  0.94438000  1.0
  H  H9  1  0.08079000  0.78320000  0.05561000  1.0
  C  C10  1  0.36067000  0.66401000  0.61440000  1.0
  C  C11  1  0.63933000  0.33599000  0.38560000  1.0
  C  C12  1  0.22816000  0.57349000  0.68309000  1.0
  C  C13  1  0.48507000  0.42656000  0.31689000  1.0
  C  C14  1  0.77184000  0.42651000  0.31691000  1.0
  C  C15  1  0.51494000  0.57343000  0.68311000  1.0
  C  C16  1  0.36613000  0.50470000  0.76262000  1.0
  C  C17  1  0.63387000  0.49530000  0.23738000  1.0
  C  C18  1  0.48996000  0.98836000  0.23429000  1.0
  C  C19  1  0.71228000  0.01177000  0.76564000  1.0
  C  C20  1  0.51004000  0.01164000  0.76571000  1.0
  C  C21  1  0.28772000  0.98823000  0.23436000  1.0
  C  C22  1  0.47542000  0.11873000  0.13597000  1.0
  C  C23  1  0.73024000  0.88127000  0.86391000  1.0
  C  C24  1  0.52458000  0.88128000  0.86403000  1.0
  C  C25  1  0.26976000  0.11873000  0.13609000  1.0
  O  O26  1  0.34516000  0.77892000  0.53066000  1.0
  O  O27  1  0.65484000  0.22108000  0.46934000  1.0
  O  O28  1  0.06694000  0.56211000  0.67302000  1.0
  O  O29  1  0.30244000  0.43800000  0.32685000  1.0
  O  O30  1  0.93306000  0.43789000  0.32698000  1.0
  O  O31  1  0.69755000  0.56200000  0.67316000  1.0
  O  O32  1  0.35493000  0.42857000  0.86109000  1.0
  O  O33  1  0.64507000  0.57143000  0.13891000  1.0
  O  O34  1  0.61896000  0.91756000  0.29756000  1.0
  O  O35  1  0.83339000  0.08288000  0.70226000  1.0
  O  O36  1  0.38105000  0.08244000  0.70244000  1.0
  O  O37  1  0.16662000  0.91712000  0.29774000  1.0
  O  O38  1  0.58907000  0.19918000  0.08135000  1.0
  O  O39  1  0.87008000  0.80079000  0.91828000  1.0
  O  O40  1  0.41093000  0.80082000  0.91865000  1.0
  O  O41  1  0.12993000  0.19920000  0.08171000  1.0
  O  O42  1  0.85867000  0.80402000  0.47851000  1.0
  O  O43  1  0.14133000  0.19598000  0.52149000  1.0
  O  O44  1  0.87312000  0.34502000  0.90858000  1.0
  O  O45  1  0.12688000  0.65498000  0.09142000  1.0
