# generated using pymatgen
data_CuH12C18(N3O2)2
_symmetry_space_group_name_H-M   'P 1'
_cell_length_a   10.03640000
_cell_length_b   12.57930000
_cell_length_c   17.81100000
_cell_angle_alpha   90.00000000
_cell_angle_beta   90.00010000
_cell_angle_gamma   90.00000000
_symmetry_Int_Tables_number   1
_chemical_formula_structural   CuH12C18(N3O2)2
_chemical_formula_sum   'Cu4 H48 C72 N24 O16'
_cell_volume   2248.65453980
_cell_formula_units_Z   4
loop_
 _symmetry_equiv_pos_site_id
 _symmetry_equiv_pos_as_xyz
  1  'x, y, z'
loop_
 _atom_site_type_symbol
 _atom_site_label
 _atom_site_symmetry_multiplicity
 _atom_site_fract_x
 _atom_site_fract_y
 _atom_site_fract_z
 _atom_site_occupancy
  Cu  Cu0  1  0.00000000  0.25000000  0.83411000  1.0
  Cu  Cu1  1  0.50000000  0.25000000  0.66589000  1.0
  Cu  Cu2  1  0.00000000  0.75000000  0.16589000  1.0
  Cu  Cu3  1  0.50000000  0.75000000  0.33411000  1.0
  H  H4  1  0.90053000  0.51307000  0.00405000  1.0
  H  H5  1  0.09947000  0.98693000  0.00405000  1.0
  H  H6  1  0.40053000  0.98693000  0.49595000  1.0
  H  H7  1  0.59947000  0.51307000  0.49595000  1.0
  H  H8  1  0.09947000  0.48693000  0.99595000  1.0
  H  H9  1  0.90053000  0.01307000  0.99595000  1.0
  H  H10  1  0.59947000  0.01307000  0.50405000  1.0
  H  H11  1  0.40053000  0.48693000  0.50405000  1.0
  H  H12  1  0.78213000  0.59397000  0.10972000  1.0
  H  H13  1  0.21787000  0.90603000  0.10972000  1.0
  H  H14  1  0.28213000  0.90603000  0.39028000  1.0
  H  H15  1  0.71787000  0.59397000  0.39028000  1.0
  H  H16  1  0.21787000  0.40603000  0.89028000  1.0
  H  H17  1  0.78213000  0.09397000  0.89028000  1.0
  H  H18  1  0.71787000  0.09397000  0.60972000  1.0
  H  H19  1  0.28213000  0.40603000  0.60972000  1.0
  H  H20  1  0.46150000  0.36725000  0.08406000  1.0
  H  H21  1  0.53850000  0.13276000  0.08406000  1.0
  H  H22  1  0.96150000  0.13276000  0.41594000  1.0
  H  H23  1  0.03850000  0.36725000  0.41594000  1.0
  H  H24  1  0.53850000  0.63276000  0.91594000  1.0
  H  H25  1  0.46150000  0.86724000  0.91594000  1.0
  H  H26  1  0.03850000  0.86724000  0.58406000  1.0
  H  H27  1  0.96150000  0.63276000  0.58406000  1.0
  H  H28  1  0.58510000  0.28629000  0.97501000  1.0
  H  H29  1  0.41490000  0.21371000  0.97501000  1.0
  H  H30  1  0.08510000  0.21371000  0.52499000  1.0
  H  H31  1  0.91490000  0.28629000  0.52499000  1.0
  H  H32  1  0.41490000  0.71371000  0.02499000  1.0
  H  H33  1  0.58510000  0.78629000  0.02499000  1.0
  H  H34  1  0.91490000  0.78629000  0.47501000  1.0
  H  H35  1  0.08510000  0.71371000  0.47500000  1.0
  H  H36  1  0.35024000  0.52094000  0.30362000  1.0
  H  H37  1  0.64976000  0.97906000  0.30362000  1.0
  H  H38  1  0.85024000  0.97906000  0.19638000  1.0
  H  H39  1  0.14976000  0.52093000  0.19638000  1.0
  H  H40  1  0.64976000  0.47906000  0.69638000  1.0
  H  H41  1  0.35024000  0.02093000  0.69638000  1.0
  H  H42  1  0.14976000  0.02094000  0.80362000  1.0
  H  H43  1  0.85024000  0.47907000  0.80362000  1.0
  H  H44  1  0.63877000  0.68558000  0.17644000  1.0
  H  H45  1  0.36123000  0.81442000  0.17644000  1.0
  H  H46  1  0.13877000  0.81442000  0.32356000  1.0
  H  H47  1  0.86124000  0.68558000  0.32356000  1.0
  H  H48  1  0.36123000  0.31442000  0.82356000  1.0
  H  H49  1  0.63877000  0.18558000  0.82356000  1.0
  H  H50  1  0.86123000  0.18558000  0.67644000  1.0
  H  H51  1  0.13877000  0.31442000  0.67644000  1.0
  C  C52  1  0.82256000  0.33793000  0.92098000  1.0
  C  C53  1  0.17744000  0.16206000  0.92098000  1.0
  C  C54  1  0.32256000  0.16207000  0.57902000  1.0
  C  C55  1  0.67744000  0.33793000  0.57902000  1.0
  C  C56  1  0.17744000  0.66207000  0.07902000  1.0
  C  C57  1  0.82256000  0.83793000  0.07902000  1.0
  C  C58  1  0.67744000  0.83793000  0.42098000  1.0
  C  C59  1  0.32256000  0.66207000  0.42098000  1.0
  C  C60  1  0.75029000  0.39293000  0.98323000  1.0
  C  C61  1  0.24971000  0.10707000  0.98323000  1.0
  C  C62  1  0.25029000  0.10707000  0.51677000  1.0
  C  C63  1  0.74971000  0.39293000  0.51677000  1.0
  C  C64  1  0.24971000  0.60707000  0.01677000  1.0
  C  C65  1  0.75029000  0.89293000  0.01678000  1.0
  C  C66  1  0.74971000  0.89293000  0.48323000  1.0
  C  C67  1  0.25029000  0.60707000  0.48323000  1.0
  C  C68  1  0.80482000  0.48038000  0.02088000  1.0
  C  C69  1  0.19518000  0.01962000  0.02088000  1.0
  C  C70  1  0.30482000  0.01962000  0.47912000  1.0
  C  C71  1  0.69518000  0.48038000  0.47912000  1.0
  C  C72  1  0.19519000  0.51963000  0.97912000  1.0
  C  C73  1  0.80482000  0.98037000  0.97912000  1.0
  C  C74  1  0.69518000  0.98037000  0.52088000  1.0
  C  C75  1  0.30482000  0.51963000  0.52088000  1.0
  C  C76  1  0.73773000  0.52634000  0.08093000  1.0
  C  C77  1  0.26227000  0.97366000  0.08093000  1.0
  C  C78  1  0.23773000  0.97366000  0.41907000  1.0
  C  C79  1  0.76227000  0.52634000  0.41907000  1.0
  C  C80  1  0.26227000  0.47366000  0.91907000  1.0
  C  C81  1  0.73774000  0.02634000  0.91907000  1.0
  C  C82  1  0.76227000  0.02634000  0.58093000  1.0
  C  C83  1  0.23773000  0.47366000  0.58093000  1.0
  C  C84  1  0.61489000  0.48437000  0.10327000  1.0
  C  C85  1  0.38511000  0.01563000  0.10327000  1.0
  C  C86  1  0.11489000  0.01563000  0.39672000  1.0
  C  C87  1  0.88511000  0.48437000  0.39673000  1.0
  C  C88  1  0.38511000  0.51563000  0.89673000  1.0
  C  C89  1  0.61489000  0.98437000  0.89673000  1.0
  C  C90  1  0.88511000  0.98437000  0.60328000  1.0
  C  C91  1  0.11489000  0.51563000  0.60327000  1.0
  C  C92  1  0.55747000  0.39816000  0.06574000  1.0
  C  C93  1  0.44253000  0.10183000  0.06574000  1.0
  C  C94  1  0.05747000  0.10183000  0.43426000  1.0
  C  C95  1  0.94253000  0.39817000  0.43426000  1.0
  C  C96  1  0.44253000  0.60183000  0.93426000  1.0
  C  C97  1  0.55747000  0.89816000  0.93426000  1.0
  C  C98  1  0.94253000  0.89817000  0.56574000  1.0
  C  C99  1  0.05747000  0.60183000  0.56574000  1.0
  C  C100  1  0.62598000  0.35358000  0.00567000  1.0
  C  C101  1  0.37402000  0.14642000  0.00567000  1.0
  C  C102  1  0.12598000  0.14642000  0.49433000  1.0
  C  C103  1  0.87402000  0.35358000  0.49433000  1.0
  C  C104  1  0.37402000  0.64642000  0.99433000  1.0
  C  C105  1  0.62598000  0.85358000  0.99433000  1.0
  C  C106  1  0.87402000  0.85358000  0.50567000  1.0
  C  C107  1  0.12598000  0.64642000  0.50567000  1.0
  C  C108  1  0.42287000  0.54010000  0.26072000  1.0
  C  C109  1  0.57713000  0.95990000  0.26072000  1.0
  C  C110  1  0.92287000  0.95990000  0.23928000  1.0
  C  C111  1  0.07713000  0.54010000  0.23928000  1.0
  C  C112  1  0.57713000  0.45990000  0.73928000  1.0
  C  C113  1  0.42287000  0.04010000  0.73928000  1.0
  C  C114  1  0.07713000  0.04010000  0.76072000  1.0
  C  C115  1  0.92287000  0.45990000  0.76072000  1.0
  C  C116  1  0.57072000  0.62546000  0.19817000  1.0
  C  C117  1  0.42928000  0.87454000  0.19817000  1.0
  C  C118  1  0.07072000  0.87454000  0.30183000  1.0
  C  C119  1  0.92928000  0.62546000  0.30183000  1.0
  C  C120  1  0.42928000  0.37454000  0.80183000  1.0
  C  C121  1  0.57072000  0.12546000  0.80183000  1.0
  C  C122  1  0.92928000  0.12546000  0.69817000  1.0
  C  C123  1  0.07072000  0.37454000  0.69817000  1.0
  N  N124  1  0.54833000  0.52992000  0.16594000  1.0
  N  N125  1  0.45166000  0.97008000  0.16594000  1.0
  N  N126  1  0.04833000  0.97008000  0.33406000  1.0
  N  N127  1  0.95167000  0.52992000  0.33406000  1.0
  N  N128  1  0.45167000  0.47008000  0.83406000  1.0
  N  N129  1  0.54834000  0.02992000  0.83406000  1.0
  N  N130  1  0.95166000  0.02992000  0.66594000  1.0
  N  N131  1  0.04833000  0.47008000  0.66594000  1.0
  N  N132  1  0.45320000  0.47497000  0.20501000  1.0
  N  N133  1  0.54680000  0.02503000  0.20501000  1.0
  N  N134  1  0.95320000  0.02503000  0.29499000  1.0
  N  N135  1  0.04680000  0.47497000  0.29499000  1.0
  N  N136  1  0.54680000  0.52503000  0.79499000  1.0
  N  N137  1  0.45320000  0.97497000  0.79499000  1.0
  N  N138  1  0.04680000  0.97497000  0.70501000  1.0
  N  N139  1  0.95320000  0.52503000  0.70501000  1.0
  N  N140  1  0.49263000  0.63366000  0.25869000  1.0
  N  N141  1  0.50737000  0.86634000  0.25869000  1.0
  N  N142  1  0.99264000  0.86634000  0.24131000  1.0
  N  N143  1  0.00736000  0.63366000  0.24131000  1.0
  N  N144  1  0.50737000  0.36634000  0.74131000  1.0
  N  N145  1  0.49264000  0.13366000  0.74131000  1.0
  N  N146  1  0.00736000  0.13366000  0.75869000  1.0
  N  N147  1  0.99264000  0.36634000  0.75869000  1.0
  O  O148  1  0.94940000  0.35387000  0.91549000  1.0
  O  O149  1  0.05060000  0.14613000  0.91549000  1.0
  O  O150  1  0.44939000  0.14613000  0.58451000  1.0
  O  O151  1  0.55061000  0.35386000  0.58451000  1.0
  O  O152  1  0.05060000  0.64614000  0.08451000  1.0
  O  O153  1  0.94940000  0.85387000  0.08451000  1.0
  O  O154  1  0.55060000  0.85387000  0.41549000  1.0
  O  O155  1  0.44939000  0.64614000  0.41549000  1.0
  O  O156  1  0.75988000  0.27758000  0.87667000  1.0
  O  O157  1  0.24012000  0.22242000  0.87667000  1.0
  O  O158  1  0.25988000  0.22242000  0.62333000  1.0
  O  O159  1  0.74012000  0.27758000  0.62333000  1.0
  O  O160  1  0.24012000  0.72242000  0.12333000  1.0
  O  O161  1  0.75988000  0.77758000  0.12333000  1.0
  O  O162  1  0.74012000  0.77758000  0.37667000  1.0
  O  O163  1  0.25988000  0.72242000  0.37667000  1.0
