# generated using pymatgen
data_CuH8C12BrN2
_symmetry_space_group_name_H-M   'P 1'
_cell_length_a   3.95880000
_cell_length_b   9.89779000
_cell_length_c   12.82810000
_cell_angle_alpha   89.97030000
_cell_angle_beta   89.81390000
_cell_angle_gamma   78.46800000
_symmetry_Int_Tables_number   1
_chemical_formula_structural   CuH8C12BrN2
_chemical_formula_sum   'Cu2 H16 C24 Br2 N4'
_cell_volume   492.49874303
_cell_formula_units_Z   2
loop_
 _symmetry_equiv_pos_site_id
 _symmetry_equiv_pos_as_xyz
  1  'x, y, z'
loop_
 _atom_site_type_symbol
 _atom_site_label
 _atom_site_symmetry_multiplicity
 _atom_site_fract_x
 _atom_site_fract_y
 _atom_site_fract_z
 _atom_site_occupancy
  Cu  Cu0  1  0.53755000  0.34373000  0.18327000  1.0
  Cu  Cu1  1  0.88414000  0.65660000  0.68351000  1.0
  H  H2  1  0.88534000  0.00298000  0.56088000  1.0
  H  H3  1  0.89061000  0.99674000  0.06159000  1.0
  H  H4  1  0.14916000  0.93071000  0.39159000  1.0
  H  H5  1  0.08210000  0.06933000  0.89245000  1.0
  H  H6  1  0.00316000  0.08692000  0.23560000  1.0
  H  H7  1  0.09246000  0.91345000  0.73622000  1.0
  H  H8  1  0.11583000  0.43162000  0.33172000  1.0
  H  H9  1  0.54889000  0.56871000  0.83186000  1.0
  H  H10  1  0.87661000  0.53937000  0.50105000  1.0
  H  H11  1  0.41556000  0.46111000  0.00101000  1.0
  H  H12  1  0.07400000  0.44457000  0.84758000  1.0
  H  H13  1  0.51689000  0.55536000  0.34769000  1.0
  H  H14  1  0.45459000  0.21601000  0.86188000  1.0
  H  H15  1  0.67139000  0.78347000  0.36233000  1.0
  H  H16  1  0.69074000  0.09130000  0.69891000  1.0
  H  H17  1  0.78456000  0.90814000  0.19955000  1.0
  C  C18  1  0.80896000  0.06792000  0.49302000  1.0
  C  C19  1  0.87903000  0.93193000  0.99362000  1.0
  C  C20  1  0.95796000  0.02619000  0.39759000  1.0
  C  C21  1  0.98624000  0.97386000  0.89826000  1.0
  C  C22  1  0.87008000  0.11009000  0.31015000  1.0
  C  C23  1  0.98241000  0.89012000  0.81070000  1.0
  C  C24  1  0.20616000  0.38728000  0.40702000  1.0
  C  C25  1  0.59513000  0.61287000  0.90721000  1.0
  C  C26  1  0.07426000  0.44510000  0.49878000  1.0
  C  C27  1  0.52013000  0.55512000  0.99888000  1.0
  C  C28  1  0.17263000  0.38924000  0.77691000  1.0
  C  C29  1  0.56135000  0.61062000  0.27712000  1.0
  C  C30  1  0.38822000  0.25920000  0.78465000  1.0
  C  C31  1  0.64835000  0.74040000  0.28504000  1.0
  C  C32  1  0.51746000  0.19130000  0.69445000  1.0
  C  C33  1  0.71050000  0.80830000  0.19493000  1.0
  C  C34  1  0.42534000  0.25330000  0.59708000  1.0
  C  C35  1  0.68030000  0.74651000  0.09747000  1.0
  C  C36  1  0.56844000  0.19333000  0.49959000  1.0
  C  C37  1  0.76387000  0.80656000  0.00004000  1.0
  C  C38  1  0.47123000  0.26646000  0.40528000  1.0
  C  C39  1  0.73989000  0.73358000  0.90561000  1.0
  C  C40  1  0.19294000  0.38344000  0.59590000  1.0
  C  C41  1  0.57707000  0.61657000  0.09612000  1.0
  Br  Br42  1  0.10394000  0.25783000  0.07714000  1.0
  Br  Br43  1  0.36464000  0.74251000  0.57732000  1.0
  N  N44  1  0.62835000  0.22604000  0.31189000  1.0
  N  N45  1  0.85677000  0.77412000  0.81227000  1.0
  N  N46  1  0.07704000  0.45244000  0.68618000  1.0
  N  N47  1  0.52869000  0.54764000  0.18629000  1.0
