# generated using pymatgen
data_CuH16C14(O4F3)2
_symmetry_space_group_name_H-M   'P 1'
_cell_length_a   5.26902000
_cell_length_b   12.52540000
_cell_length_c   13.90984528
_cell_angle_alpha   90.00001308
_cell_angle_beta   100.05875602
_cell_angle_gamma   89.99970000
_symmetry_Int_Tables_number   1
_chemical_formula_structural   CuH16C14(O4F3)2
_chemical_formula_sum   'Cu2 H32 C28 O16 F12'
_cell_volume   903.89179571
_cell_formula_units_Z   2
loop_
 _symmetry_equiv_pos_site_id
 _symmetry_equiv_pos_as_xyz
  1  'x, y, z'
loop_
 _atom_site_type_symbol
 _atom_site_label
 _atom_site_symmetry_multiplicity
 _atom_site_fract_x
 _atom_site_fract_y
 _atom_site_fract_z
 _atom_site_occupancy
  Cu  Cu0  1  1.00000000  0.50000000  1.00000000  1.0
  Cu  Cu1  1  0.00001000  0.99999000  0.50000000  1.0
  H  H2  1  0.66847000  0.24730000  0.15226000  1.0
  H  H3  1  0.33152000  0.74730000  0.34773000  1.0
  H  H4  1  0.33155000  0.75269000  0.84775000  1.0
  H  H5  1  0.66847000  0.25270000  0.65226000  1.0
  H  H6  1  0.62524000  0.47360000  0.26696000  1.0
  H  H7  1  0.37476000  0.97359000  0.23303000  1.0
  H  H8  1  0.37473000  0.52640000  0.73303000  1.0
  H  H9  1  0.62526000  0.02641000  0.76698000  1.0
  H  H10  1  0.21117000  0.67352000  0.18159000  1.0
  H  H11  1  0.78883000  0.17351000  0.31842000  1.0
  H  H12  1  0.78882000  0.32649000  0.81841000  1.0
  H  H13  1  0.21115000  0.82650000  0.68159000  1.0
  H  H14  1  0.50136000  0.65480000  0.13241000  1.0
  H  H15  1  0.49863000  0.15479000  0.36759000  1.0
  H  H16  1  0.49862000  0.34520000  0.86758000  1.0
  H  H17  1  0.50136000  0.84520000  0.63242000  1.0
  H  H18  1  0.50323000  0.63277000  0.25982000  1.0
  H  H19  1  0.49676000  0.13277000  0.24018000  1.0
  H  H20  1  0.49677000  0.36723000  0.74017000  1.0
  H  H21  1  0.50322000  0.86723000  0.75983000  1.0
  H  H22  1  0.09676000  0.41858000  0.29296000  1.0
  H  H23  1  0.90324000  0.91858000  0.20704000  1.0
  H  H24  1  0.90322000  0.58141000  0.70703000  1.0
  H  H25  1  0.09677000  0.08142000  0.79296000  1.0
  H  H26  1  0.39101000  0.38384000  0.37244000  1.0
  H  H27  1  0.60900000  0.88383000  0.12756000  1.0
  H  H28  1  0.60899000  0.61617000  0.62756000  1.0
  H  H29  1  0.39100000  0.11617000  0.87244000  1.0
  H  H30  1  0.17127000  0.28125000  0.32088000  1.0
  H  H31  1  0.82875000  0.78124000  0.17912000  1.0
  H  H32  1  0.82872000  0.71875000  0.67911000  1.0
  H  H33  1  0.17126000  0.21876000  0.82088000  1.0
  C  C34  1  0.92866000  0.28324000  0.05438000  1.0
  C  C35  1  0.07136000  0.78323000  0.44561000  1.0
  C  C36  1  0.07134000  0.71676000  0.94563000  1.0
  C  C37  1  0.92867000  0.21677000  0.55438000  1.0
  C  C38  1  0.75016000  0.30966000  0.11327000  1.0
  C  C39  1  0.24983000  0.80965000  0.38672000  1.0
  C  C40  1  0.24984000  0.69035000  0.88674000  1.0
  C  C41  1  0.75016000  0.19035000  0.61327000  1.0
  C  C42  1  0.67236000  0.41522000  0.12596000  1.0
  C  C43  1  0.32763000  0.91522000  0.37403000  1.0
  C  C44  1  0.32763000  0.58477000  0.87404000  1.0
  C  C45  1  0.67239000  0.08478000  0.62597000  1.0
  C  C46  1  0.99523000  0.16396000  0.04605000  1.0
  C  C47  1  0.00476000  0.66395000  0.45395000  1.0
  C  C48  1  0.00476000  0.83605000  0.95396000  1.0
  C  C49  1  0.99523000  0.33605000  0.54604000  1.0
  C  C50  1  0.49859000  0.43990000  0.20145000  1.0
  C  C51  1  0.50140000  0.93990000  0.29854000  1.0
  C  C52  1  0.50139000  0.56010000  0.79855000  1.0
  C  C53  1  0.49862000  0.06010000  0.70146000  1.0
  C  C54  1  0.38747000  0.62614000  0.18613000  1.0
  C  C55  1  0.61252000  0.12614000  0.31388000  1.0
  C  C56  1  0.61252000  0.37386000  0.81387000  1.0
  C  C57  1  0.38747000  0.87387000  0.68613000  1.0
  C  C58  1  0.25204000  0.35928000  0.30766000  1.0
  C  C59  1  0.74798000  0.85928000  0.19234000  1.0
  C  C60  1  0.74796000  0.64071000  0.69233000  1.0
  C  C61  1  0.25203000  0.14072000  0.80766000  1.0
  O  O62  1  0.04423000  0.34370000  0.00221000  1.0
  O  O63  1  0.95580000  0.84369000  0.49779000  1.0
  O  O64  1  0.95578000  0.65630000  0.99779000  1.0
  O  O65  1  0.04424000  0.15630000  0.50221000  1.0
  O  O66  1  0.74372000  0.49784000  0.08483000  1.0
  O  O67  1  0.25628000  0.99784000  0.41517000  1.0
  O  O68  1  0.25625000  0.50215000  0.91516000  1.0
  O  O69  1  0.74376000  0.00215000  0.58484000  1.0
  O  O70  1  0.30823000  0.51757000  0.16625000  1.0
  O  O71  1  0.69175000  0.01756000  0.33374000  1.0
  O  O72  1  0.69176000  0.48243000  0.83375000  1.0
  O  O73  1  0.30825000  0.98244000  0.66626000  1.0
  O  O74  1  0.37873000  0.34669000  0.22487000  1.0
  O  O75  1  0.62128000  0.84669000  0.27513000  1.0
  O  O76  1  0.62127000  0.65331000  0.77513000  1.0
  O  O77  1  0.37875000  0.15331000  0.72488000  1.0
  F  F78  1  0.25081000  0.14830000  0.04686000  1.0
  F  F79  1  0.74918000  0.64830000  0.45312000  1.0
  F  F80  1  0.74917000  0.85171000  0.95313000  1.0
  F  F81  1  0.25082000  0.35171000  0.54686000  1.0
  F  F82  1  0.86608000  0.12322000  0.95952000  1.0
  F  F83  1  0.13390000  0.62321000  0.54047000  1.0
  F  F84  1  0.13390000  0.87679000  0.04049000  1.0
  F  F85  1  0.86608000  0.37678000  0.45951000  1.0
  F  F86  1  0.92864000  0.10310000  0.11901000  1.0
  F  F87  1  0.07136000  0.60309000  0.38098000  1.0
  F  F88  1  0.07139000  0.89690000  0.88100000  1.0
  F  F89  1  0.92863000  0.39691000  0.61901000  1.0
