# generated using pymatgen
data_ZnH17C28(NO2)3
_symmetry_space_group_name_H-M   'P 1'
_cell_length_a   16.25500000
_cell_length_b   17.19710000
_cell_length_c   23.75400000
_cell_angle_alpha   88.99550000
_cell_angle_beta   85.63550000
_cell_angle_gamma   87.05980000
_symmetry_Int_Tables_number   1
_chemical_formula_structural   ZnH17C28(NO2)3
_chemical_formula_sum   'Zn2 H34 C56 N6 O12'
_cell_volume   6611.57537282
_cell_formula_units_Z   2
loop_
 _symmetry_equiv_pos_site_id
 _symmetry_equiv_pos_as_xyz
  1  'x, y, z'
loop_
 _atom_site_type_symbol
 _atom_site_label
 _atom_site_symmetry_multiplicity
 _atom_site_fract_x
 _atom_site_fract_y
 _atom_site_fract_z
 _atom_site_occupancy
  Zn  Zn0  1  0.58572000  0.50017000  0.49776000  1.0
  Zn  Zn1  1  0.41457000  0.49754000  0.50732000  1.0
  H  H2  1  0.65471000  0.11485000  0.43846000  1.0
  H  H3  1  0.33893000  0.88751000  0.45963000  1.0
  H  H4  1  0.60036000  0.87582000  0.41053000  1.0
  H  H5  1  0.38834000  0.12519000  0.44313000  1.0
  H  H6  1  0.27950000  0.57618000  0.44865000  1.0
  H  H7  1  0.72077000  0.42200000  0.55739000  1.0
  H  H8  1  0.71166000  0.59329000  0.43359000  1.0
  H  H9  1  0.28869000  0.40446000  0.57215000  1.0
  H  H10  1  0.99666000  0.56392000  0.45763000  1.0
  H  H11  1  0.00370000  0.43374000  0.54816000  1.0
  H  H12  1  0.13488000  0.39386000  0.57803000  1.0
  H  H13  1  0.86560000  0.60376000  0.42773000  1.0
  H  H14  1  0.87387000  0.42435000  0.55763000  1.0
  H  H15  1  0.12628000  0.57333000  0.44816000  1.0
  H  H16  1  0.57565000  0.31628000  0.94343000  1.0
  H  H17  1  0.42657000  0.68320000  0.06148000  1.0
  H  H18  1  0.63136000  0.51834000  0.78016000  1.0
  H  H19  1  0.37005000  0.48568000  0.22442000  1.0
  H  H20  1  0.62974000  0.51837000  0.67441000  1.0
  H  H21  1  0.37197000  0.48439000  0.33029000  1.0
  H  H22  1  0.36809000  0.49245000  0.68982000  1.0
  H  H23  1  0.63494000  0.49998000  0.31493000  1.0
  H  H24  1  0.36922000  0.49174000  0.79563000  1.0
  H  H25  1  0.63374000  0.50217000  0.20899000  1.0
  H  H26  1  0.38567000  0.26184000  0.47475000  1.0
  H  H27  1  0.60715000  0.73579000  0.43743000  1.0
  H  H28  1  0.34730000  0.74590000  0.48491000  1.0
  H  H29  1  0.65001000  0.25310000  0.46960000  1.0
  H  H30  1  0.40061000  0.00351000  0.43725000  1.0
  H  H31  1  0.59053000  0.99939000  0.42536000  1.0
  H  H32  1  0.60030000  0.24764000  0.03055000  1.0
  H  H33  1  0.58066000  0.29408000  0.09708000  1.0
  H  H34  1  0.40090000  0.75154000  0.97471000  1.0
  H  H35  1  0.42006000  0.70547000  0.90803000  1.0
  C  C36  1  0.51343000  0.34717000  0.49592000  1.0
  C  C37  1  0.48456000  0.64972000  0.48412000  1.0
  C  C38  1  0.57399000  0.51265000  0.75996000  1.0
  C  C39  1  0.42776000  0.48889000  0.24462000  1.0
  C  C40  1  0.57309000  0.51252000  0.70139000  1.0
  C  C41  1  0.42875000  0.48828000  0.30315000  1.0
  C  C42  1  0.49887000  0.50501000  0.67603000  1.0
  C  C43  1  0.50345000  0.49260000  0.32839000  1.0
  C  C44  1  0.42537000  0.49781000  0.71012000  1.0
  C  C45  1  0.57742000  0.49722000  0.29448000  1.0
  C  C46  1  0.42602000  0.49747000  0.76870000  1.0
  C  C47  1  0.57671000  0.49838000  0.23593000  1.0
  C  C48  1  0.50037000  0.50490000  0.79326000  1.0
  C  C49  1  0.50180000  0.49424000  0.21144000  1.0
  C  C50  1  0.51743000  0.26503000  0.47574000  1.0
  C  C51  1  0.47816000  0.73286000  0.46450000  1.0
  C  C52  1  0.44417000  0.22860000  0.46689000  1.0
  C  C53  1  0.54874000  0.76991000  0.44214000  1.0
  C  C54  1  0.44630000  0.15218000  0.44903000  1.0
  C  C55  1  0.54451000  0.84832000  0.42738000  1.0
  C  C56  1  0.52206000  0.10870000  0.43996000  1.0
  C  C57  1  0.46944000  0.89314000  0.43556000  1.0
  C  C58  1  0.49802000  0.50398000  0.61284000  1.0
  C  C59  1  0.50420000  0.49303000  0.39146000  1.0
  C  C60  1  0.59539000  0.14708000  0.44644000  1.0
  C  C61  1  0.39794000  0.85413000  0.45435000  1.0
  C  C62  1  0.59328000  0.22394000  0.46404000  1.0
  C  C63  1  0.40215000  0.77539000  0.46876000  1.0
  C  C64  1  0.52756000  0.02537000  0.42964000  1.0
  C  C65  1  0.46355000  0.97773000  0.43171000  1.0
  C  C66  1  0.24411000  0.53689000  0.47643000  1.0
  C  C67  1  0.75610000  0.46112000  0.52943000  1.0
  C  C68  1  0.15898000  0.53472000  0.47671000  1.0
  C  C69  1  0.84126000  0.46304000  0.52911000  1.0
  C  C70  1  0.11650000  0.48309000  0.51378000  1.0
  C  C71  1  0.88386000  0.51458000  0.49202000  1.0
  C  C72  1  0.16435000  0.43516000  0.54864000  1.0
  C  C73  1  0.83605000  0.56251000  0.45712000  1.0
  C  C74  1  0.24953000  0.44063000  0.54584000  1.0
  C  C75  1  0.75086000  0.55718000  0.45991000  1.0
  C  C76  1  0.02714000  0.47728000  0.51778000  1.0
  C  C77  1  0.97323000  0.52034000  0.48799000  1.0
  C  C78  1  0.47302000  0.56603000  0.12542000  1.0
  C  C79  1  0.52981000  0.43372000  0.87940000  1.0
  C  C80  1  0.52808000  0.42718000  0.12187000  1.0
  C  C81  1  0.47345000  0.57221000  0.88290000  1.0
  C  C82  1  0.52837000  0.42897000  0.06048000  1.0
  C  C83  1  0.47334000  0.57048000  0.94432000  1.0
  C  C84  1  0.50130000  0.49790000  0.03228000  1.0
  C  C85  1  0.50075000  0.50165000  0.97252000  1.0
  C  C86  1  0.47368000  0.56574000  0.06306000  1.0
  C  C87  1  0.52869000  0.43387000  0.94178000  1.0
  C  C88  1  0.55565000  0.36181000  0.02878000  1.0
  C  C89  1  0.44604000  0.63757000  0.97609000  1.0
  C  C90  1  0.55503000  0.36665000  0.96907000  1.0
  C  C91  1  0.44712000  0.63285000  0.03578000  1.0
  N  N92  1  0.50090000  0.49593000  0.15071000  1.0
  N  N93  1  0.50125000  0.50359000  0.85405000  1.0
  N  N94  1  0.28863000  0.49087000  0.51054000  1.0
  N  N95  1  0.71161000  0.50719000  0.49533000  1.0
  N  N96  1  0.58174000  0.29471000  0.05396000  1.0
  N  N97  1  0.41945000  0.70465000  0.95111000  1.0
  O  O98  1  0.58136000  0.37978000  0.50027000  1.0
  O  O99  1  0.41729000  0.61677000  0.49813000  1.0
  O  O100  1  0.44147000  0.37925000  0.50653000  1.0
  O  O101  1  0.55701000  0.61790000  0.48560000  1.0
  O  O102  1  0.56752000  0.50632000  0.58427000  1.0
  O  O103  1  0.43438000  0.49476000  0.41978000  1.0
  O  O104  1  0.42799000  0.50066000  0.59253000  1.0
  O  O105  1  0.57456000  0.49201000  0.41177000  1.0
  O  O106  1  0.45017000  0.62312000  0.15414000  1.0
  O  O107  1  0.55353000  0.37689000  0.85066000  1.0
  O  O108  1  0.55023000  0.36888000  0.14978000  1.0
  O  O109  1  0.45072000  0.63033000  0.85502000  1.0
