# generated using pymatgen
data_CdH12C6SO6
_symmetry_space_group_name_H-M   'P 1'
_cell_length_a   7.63559000
_cell_length_b   10.04800000
_cell_length_c   13.14440000
_cell_angle_alpha   89.99880000
_cell_angle_beta   89.99890000
_cell_angle_gamma   94.31670000
_symmetry_Int_Tables_number   1
_chemical_formula_structural   CdH12C6SO6
_chemical_formula_sum   'Cd4 H48 C24 S4 O24'
_cell_volume   1005.60923315
_cell_formula_units_Z   4
loop_
 _symmetry_equiv_pos_site_id
 _symmetry_equiv_pos_as_xyz
  1  'x, y, z'
loop_
 _atom_site_type_symbol
 _atom_site_label
 _atom_site_symmetry_multiplicity
 _atom_site_fract_x
 _atom_site_fract_y
 _atom_site_fract_z
 _atom_site_occupancy
  Cd  Cd0  1  0.34783000  0.67115000  0.39677000  1.0
  Cd  Cd1  1  0.15215000  0.82885000  0.89675000  1.0
  Cd  Cd2  1  0.65215000  0.32885000  0.60324000  1.0
  Cd  Cd3  1  0.84785000  0.17114000  0.10324000  1.0
  H  H4  1  0.39577000  0.32445000  0.96245000  1.0
  H  H5  1  0.10424000  0.17552000  0.46245000  1.0
  H  H6  1  0.60424000  0.67553000  0.03755000  1.0
  H  H7  1  0.89572000  0.82448000  0.53754000  1.0
  H  H8  1  0.45656000  0.18874000  0.03584000  1.0
  H  H9  1  0.04346000  0.31125000  0.53584000  1.0
  H  H10  1  0.54343000  0.81125000  0.96415000  1.0
  H  H11  1  0.95653000  0.68876000  0.46415000  1.0
  H  H12  1  0.49300000  0.33646000  0.19127000  1.0
  H  H13  1  0.00701000  0.16356000  0.69129000  1.0
  H  H14  1  0.50701000  0.66351000  0.80872000  1.0
  H  H15  1  0.99299000  0.83649000  0.30871000  1.0
  H  H16  1  0.43617000  0.47436000  0.11799000  1.0
  H  H17  1  0.06384000  0.02565000  0.61801000  1.0
  H  H18  1  0.56382000  0.52561000  0.88202000  1.0
  H  H19  1  0.93616000  0.97439000  0.38200000  1.0
  H  H20  1  0.72592000  0.57608000  0.20126000  1.0
  H  H21  1  0.77411000  0.92392000  0.70126000  1.0
  H  H22  1  0.27406000  0.42391000  0.79875000  1.0
  H  H23  1  0.22592000  0.07609000  0.29873000  1.0
  H  H24  1  0.81862000  0.42742000  0.24197000  1.0
  H  H25  1  0.68138000  0.07258000  0.74197000  1.0
  H  H26  1  0.18137000  0.57257000  0.75802000  1.0
  H  H27  1  0.31864000  0.92742000  0.25803000  1.0
  H  H28  1  0.07069000  0.48517000  0.11274000  1.0
  H  H29  1  0.42934000  0.01482000  0.61273000  1.0
  H  H30  1  0.92931000  0.51483000  0.88727000  1.0
  H  H31  1  0.57068000  0.98518000  0.38726000  1.0
  H  H32  1  0.98765000  0.64366000  0.10024000  1.0
  H  H33  1  0.51239000  0.85633000  0.60025000  1.0
  H  H34  1  0.01234000  0.35635000  0.89977000  1.0
  H  H35  1  0.48764000  0.14365000  0.39976000  1.0
  H  H36  1  0.10952000  0.55860000  0.60411000  1.0
  H  H37  1  0.39049000  0.94141000  0.10412000  1.0
  H  H38  1  0.89047000  0.44140000  0.39588000  1.0
  H  H39  1  0.60952000  0.05859000  0.89589000  1.0
  H  H40  1  0.22584000  0.69316000  0.62465000  1.0
  H  H41  1  0.27418000  0.80685000  0.12465000  1.0
  H  H42  1  0.77416000  0.30685000  0.37535000  1.0
  H  H43  1  0.72584000  0.19315000  0.87534000  1.0
  H  H44  1  0.40113000  0.39782000  0.40306000  1.0
  H  H45  1  0.09887000  0.10218000  0.90307000  1.0
  H  H46  1  0.59886000  0.60218000  0.59693000  1.0
  H  H47  1  0.90114000  0.89780000  0.09693000  1.0
  H  H48  1  0.58209000  0.46482000  0.37550000  1.0
  H  H49  1  0.91790000  0.03520000  0.87550000  1.0
  H  H50  1  0.41789000  0.53520000  0.62451000  1.0
  H  H51  1  0.08210000  0.96479000  0.12450000  1.0
  C  C52  1  0.39430000  0.28383000  0.04006000  1.0
  C  C53  1  0.10573000  0.21618000  0.54006000  1.0
  C  C54  1  0.60571000  0.71616000  0.95995000  1.0
  C  C55  1  0.89425000  0.78384000  0.45993000  1.0
  C  C56  1  0.49387000  0.37753000  0.11412000  1.0
  C  C57  1  0.00615000  0.12247000  0.61413000  1.0
  C  C58  1  0.50613000  0.62245000  0.88587000  1.0
  C  C59  1  0.99384000  0.87755000  0.38587000  1.0
  C  C60  1  0.81367000  0.49886000  0.17971000  1.0
  C  C61  1  0.68635000  0.00112000  0.67972000  1.0
  C  C62  1  0.18634000  0.50113000  0.82029000  1.0
  C  C63  1  0.31367000  0.99888000  0.32028000  1.0
  C  C64  1  0.99576000  0.55906000  0.15223000  1.0
  C  C65  1  0.50423000  0.94093000  0.65222000  1.0
  C  C66  1  0.00422000  0.44094000  0.84779000  1.0
  C  C67  1  0.49578000  0.05907000  0.34777000  1.0
  C  C68  1  0.10904000  0.60307000  0.24205000  1.0
  C  C69  1  0.39096000  0.89695000  0.74204000  1.0
  C  C70  1  0.89096000  0.39691000  0.75797000  1.0
  C  C71  1  0.60907000  0.10307000  0.25796000  1.0
  C  C72  1  0.20537000  0.25132000  0.07207000  1.0
  C  C73  1  0.29466000  0.24870000  0.57207000  1.0
  C  C74  1  0.79463000  0.74865000  0.92794000  1.0
  C  C75  1  0.70533000  0.75135000  0.42794000  1.0
  S  S76  1  0.71869000  0.40857000  0.07079000  1.0
  S  S77  1  0.78131000  0.09145000  0.57078000  1.0
  S  S78  1  0.28130000  0.59144000  0.92923000  1.0
  S  S79  1  0.21868000  0.90856000  0.42924000  1.0
  O  O80  1  0.24285000  0.68475000  0.22394000  1.0
  O  O81  1  0.25716000  0.81526000  0.72393000  1.0
  O  O82  1  0.75714000  0.31525000  0.77608000  1.0
  O  O83  1  0.74285000  0.18475000  0.27607000  1.0
  O  O84  1  0.07587000  0.55783000  0.33127000  1.0
  O  O85  1  0.42413000  0.94218000  0.83126000  1.0
  O  O86  1  0.92412000  0.44218000  0.66875000  1.0
  O  O87  1  0.57588000  0.05783000  0.16874000  1.0
  O  O88  1  0.21492000  0.61269000  0.57979000  1.0
  O  O89  1  0.28510000  0.88732000  0.07979000  1.0
  O  O90  1  0.78508000  0.38732000  0.42022000  1.0
  O  O91  1  0.71491000  0.11268000  0.92021000  1.0
  O  O92  1  0.45650000  0.46898000  0.35796000  1.0
  O  O93  1  0.04346000  0.03102000  0.85796000  1.0
  O  O94  1  0.54348000  0.53103000  0.64203000  1.0
  O  O95  1  0.95653000  0.96897000  0.14203000  1.0
  O  O96  1  0.15641000  0.26513000  0.16253000  1.0
  O  O97  1  0.34361000  0.23484000  0.66252000  1.0
  O  O98  1  0.84360000  0.73484000  0.83744000  1.0
  O  O99  1  0.65638000  0.76517000  0.33744000  1.0
  O  O100  1  0.09759000  0.20821000  0.00134000  1.0
  O  O101  1  0.40242000  0.29177000  0.50133000  1.0
  O  O102  1  0.90240000  0.79178000  0.99865000  1.0
  O  O103  1  0.59757000  0.70822000  0.49864000  1.0
