# generated using pymatgen
data_Zn2H20C19(NO5)2
_symmetry_space_group_name_H-M   'P 1'
_cell_length_a   9.64925000
_cell_length_b   10.90770000
_cell_length_c   11.16480000
_cell_angle_alpha   91.96260000
_cell_angle_beta   100.09640000
_cell_angle_gamma   91.87670000
_symmetry_Int_Tables_number   1
_chemical_formula_structural   Zn2H20C19(NO5)2
_chemical_formula_sum   'Zn2 H20 C19 N2 O10'
_cell_volume   1155.33450225
_cell_formula_units_Z   1
loop_
 _symmetry_equiv_pos_site_id
 _symmetry_equiv_pos_as_xyz
  1  'x, y, z'
loop_
 _atom_site_type_symbol
 _atom_site_label
 _atom_site_symmetry_multiplicity
 _atom_site_fract_x
 _atom_site_fract_y
 _atom_site_fract_z
 _atom_site_occupancy
  Zn  Zn0  1  0.64499000  0.48504000  0.53077000  1.0
  Zn  Zn1  1  0.35304000  0.47244000  0.48169000  1.0
  H  H2  1  0.73473000  0.10717000  0.56033000  1.0
  H  H3  1  0.32006000  0.85136000  0.37279000  1.0
  H  H4  1  0.36734000  0.09892000  0.63424000  1.0
  H  H5  1  0.33219000  0.88712000  0.59900000  1.0
  H  H6  1  0.59319000  0.43172000  0.92805000  1.0
  H  H7  1  0.27889000  0.45273000  0.08062000  1.0
  H  H8  1  0.59634000  0.52397000  0.11703000  1.0
  H  H9  1  0.88686000  0.66995000  0.52314000  1.0
  H  H10  1  0.91201000  0.40728000  0.56406000  1.0
  H  H11  1  0.16072000  0.64923000  0.56558000  1.0
  H  H12  1  0.68050000  0.07011000  0.40427000  1.0
  H  H13  1  0.06494000  0.41944000  0.42930000  1.0
  H  H14  1  0.71751000  0.86605000  0.45710000  1.0
  H  H15  1  0.72042000  0.90052000  0.61304000  1.0
  H  H16  1  0.54749000  0.08720000  0.69768000  1.0
  H  H17  1  0.49357000  0.87620000  0.70192000  1.0
  H  H18  1  0.42985000  0.07689000  0.30764000  1.0
  H  H19  1  0.47772000  0.87119000  0.31314000  1.0
  H  H20  1  0.25188000  0.60367000  0.79630000  1.0
  H  H21  1  0.26057000  0.14766000  0.42245000  1.0
  C  C22  1  0.49189000  0.48839000  0.27176000  1.0
  C  C23  1  0.51152000  0.85946000  0.50990000  1.0
  C  C24  1  0.44480000  0.91432000  0.61528000  1.0
  C  C25  1  0.42434000  0.89831000  0.38880000  1.0
  C  C26  1  0.38119000  0.48239000  0.92326000  1.0
  C  C27  1  0.49585000  0.46008000  0.87254000  1.0
  C  C28  1  0.37995000  0.47436000  0.05314000  1.0
  C  C29  1  0.49464000  0.49683000  0.14000000  1.0
  C  C30  1  0.93650000  0.58079000  0.53246000  1.0
  C  C31  1  0.08761000  0.57392000  0.52475000  1.0
  C  C32  1  0.50382000  0.23798000  0.49746000  1.0
  C  C33  1  0.49672000  0.46842000  0.74086000  1.0
  C  C34  1  0.51011000  0.71996000  0.51630000  1.0
  C  C35  1  0.65614000  0.05291000  0.49506000  1.0
  C  C36  1  0.66210000  0.91498000  0.52114000  1.0
  C  C37  1  0.46480000  0.05573000  0.62094000  1.0
  C  C38  1  0.40443000  0.03801000  0.39187000  1.0
  C  C39  1  0.50862000  0.09864000  0.50173000  1.0
  C  C40  1  0.24532000  0.51767000  0.84623000  1.0
  N  N41  1  0.85997000  0.48774000  0.55038000  1.0
  N  N42  1  0.13827000  0.48521000  0.47046000  1.0
  O  O43  1  0.61051000  0.50534000  0.34263000  1.0
  O  O44  1  0.37355000  0.46558000  0.30437000  1.0
  O  O45  1  0.61865000  0.29928000  0.50162000  1.0
  O  O46  1  0.38232000  0.28470000  0.49045000  1.0
  O  O47  1  0.61579000  0.46298000  0.70735000  1.0
  O  O48  1  0.37786000  0.47971000  0.67094000  1.0
  O  O49  1  0.62808000  0.67007000  0.54679000  1.0
  O  O50  1  0.39092000  0.66215000  0.49180000  1.0
  O  O51  1  0.13296000  0.46186000  0.84493000  1.0
  O  O52  1  0.26076000  0.05978000  0.39943000  1.0
