# generated using pymatgen
data_AgH6C10NO2
_symmetry_space_group_name_H-M   'P 1'
_cell_length_a   9.22222000
_cell_length_b   9.66402000
_cell_length_c   9.66397000
_cell_angle_alpha   95.68070000
_cell_angle_beta   99.84210000
_cell_angle_gamma   99.84100000
_symmetry_Int_Tables_number   1
_chemical_formula_structural   AgH6C10NO2
_chemical_formula_sum   'Ag4 H24 C40 N4 O8'
_cell_volume   828.80359235
_cell_formula_units_Z   4
loop_
 _symmetry_equiv_pos_site_id
 _symmetry_equiv_pos_as_xyz
  1  'x, y, z'
loop_
 _atom_site_type_symbol
 _atom_site_label
 _atom_site_symmetry_multiplicity
 _atom_site_fract_x
 _atom_site_fract_y
 _atom_site_fract_z
 _atom_site_occupancy
  Ag  Ag0  1  0.94449000  0.11032000  0.93437000  1.0
  Ag  Ag1  1  0.55552000  0.06563000  0.88969000  1.0
  Ag  Ag2  1  0.05552000  0.88968000  0.06563000  1.0
  Ag  Ag3  1  0.44448000  0.93437000  0.11031000  1.0
  H  H4  1  0.41026000  0.28639000  0.76060000  1.0
  H  H5  1  0.08974000  0.23940000  0.71361000  1.0
  H  H6  1  0.58974000  0.71361000  0.23940000  1.0
  H  H7  1  0.91026000  0.76060000  0.28639000  1.0
  H  H8  1  0.34802000  0.40621000  0.54486000  1.0
  H  H9  1  0.15198000  0.45514000  0.59379000  1.0
  H  H10  1  0.65198000  0.59378000  0.45514000  1.0
  H  H11  1  0.84802000  0.54486000  0.40621000  1.0
  H  H12  1  0.47171000  0.35920000  0.33903000  1.0
  H  H13  1  0.02829000  0.66097000  0.64081000  1.0
  H  H14  1  0.52828000  0.64080000  0.66097000  1.0
  H  H15  1  0.97171000  0.33903000  0.35919000  1.0
  H  H16  1  0.74221000  0.99974000  0.67005000  1.0
  H  H17  1  0.75780000  0.32995000  0.00026000  1.0
  H  H18  1  0.25780000  0.00026000  0.32995000  1.0
  H  H19  1  0.24220000  0.67005000  0.99974000  1.0
  H  H20  1  0.87319000  0.95137000  0.47091000  1.0
  H  H21  1  0.62681000  0.52910000  0.04863000  1.0
  H  H22  1  0.12681000  0.04864000  0.52910000  1.0
  H  H23  1  0.37319000  0.47091000  0.95137000  1.0
  H  H24  1  0.65372000  0.23587000  0.23431000  1.0
  H  H25  1  0.84628000  0.76569000  0.76413000  1.0
  H  H26  1  0.34628000  0.76413000  0.76569000  1.0
  H  H27  1  0.15372000  0.23431000  0.23587000  1.0
  C  C28  1  0.46092000  0.26679000  0.66812000  1.0
  C  C29  1  0.03909000  0.33188000  0.73322000  1.0
  C  C30  1  0.53908000  0.73321000  0.33188000  1.0
  C  C31  1  0.96091000  0.66812000  0.26678000  1.0
  C  C32  1  0.42692000  0.33429000  0.54726000  1.0
  C  C33  1  0.07309000  0.45274000  0.66571000  1.0
  C  C34  1  0.57308000  0.66571000  0.45274000  1.0
  C  C35  1  0.92692000  0.54726000  0.33429000  1.0
  C  C36  1  0.49560000  0.30895000  0.43423000  1.0
  C  C37  1  0.00441000  0.56577000  0.69105000  1.0
  C  C38  1  0.50440000  0.69104000  0.56577000  1.0
  C  C39  1  0.99559000  0.43423000  0.30895000  1.0
  C  C40  1  0.59777000  0.21514000  0.44180000  1.0
  C  C41  1  0.90223000  0.55820000  0.78487000  1.0
  C  C42  1  0.40222000  0.78486000  0.55819000  1.0
  C  C43  1  0.09777000  0.44180000  0.21513000  1.0
  C  C44  1  0.62429000  0.14860000  0.56768000  1.0
  C  C45  1  0.87571000  0.43232000  0.85140000  1.0
  C  C46  1  0.37571000  0.85140000  0.43232000  1.0
  C  C47  1  0.12429000  0.56768000  0.14860000  1.0
  C  C48  1  0.72413000  0.05198000  0.57532000  1.0
  C  C49  1  0.77588000  0.42469000  0.94803000  1.0
  C  C50  1  0.27587000  0.94802000  0.42468000  1.0
  C  C51  1  0.22412000  0.57531000  0.05197000  1.0
  C  C52  1  0.79575000  0.02487000  0.46445000  1.0
  C  C53  1  0.70425000  0.53555000  0.97513000  1.0
  C  C54  1  0.20425000  0.97513000  0.53555000  1.0
  C  C55  1  0.29575000  0.46445000  0.02487000  1.0
  C  C56  1  0.77171000  0.09190000  0.34029000  1.0
  C  C57  1  0.72830000  0.65971000  0.90810000  1.0
  C  C58  1  0.22829000  0.90810000  0.65971000  1.0
  C  C59  1  0.27170000  0.34029000  0.09190000  1.0
  C  C60  1  0.67282000  0.18489000  0.32972000  1.0
  C  C61  1  0.82719000  0.67028000  0.81512000  1.0
  C  C62  1  0.32718000  0.81511000  0.67028000  1.0
  C  C63  1  0.17281000  0.32972000  0.18488000  1.0
  C  C64  1  0.85224000  0.06394000  0.22060000  1.0
  C  C65  1  0.64776000  0.77940000  0.93606000  1.0
  C  C66  1  0.14776000  0.93606000  0.77940000  1.0
  C  C67  1  0.35224000  0.22060000  0.06394000  1.0
  N  N68  1  0.55534000  0.17704000  0.67918000  1.0
  N  N69  1  0.94466000  0.32082000  0.82296000  1.0
  N  N70  1  0.44466000  0.82296000  0.32082000  1.0
  N  N71  1  0.05534000  0.67918000  0.17704000  1.0
  O  O72  1  0.82698000  0.13226000  0.11560000  1.0
  O  O73  1  0.67302000  0.88440000  0.86774000  1.0
  O  O74  1  0.17302000  0.86774000  0.88440000  1.0
  O  O75  1  0.32698000  0.11560000  0.13226000  1.0
  O  O76  1  0.94101000  0.97678000  0.23495000  1.0
  O  O77  1  0.55900000  0.76505000  0.02322000  1.0
  O  O78  1  0.05900000  0.02322000  0.76505000  1.0
  O  O79  1  0.44100000  0.23495000  0.97678000  1.0
