# generated using pymatgen
data_SnH6C4S3N2
_symmetry_space_group_name_H-M   'P 1'
_cell_length_a   9.10725000
_cell_length_b   9.10925477
_cell_length_c   14.35304749
_cell_angle_alpha   100.81788106
_cell_angle_beta   100.74659532
_cell_angle_gamma   114.14012857
_symmetry_Int_Tables_number   1
_chemical_formula_structural   SnH6C4S3N2
_chemical_formula_sum   'Sn4 H24 C16 S12 N8'
_cell_volume   1020.23055054
_cell_formula_units_Z   4
loop_
 _symmetry_equiv_pos_site_id
 _symmetry_equiv_pos_as_xyz
  1  'x, y, z'
loop_
 _atom_site_type_symbol
 _atom_site_label
 _atom_site_symmetry_multiplicity
 _atom_site_fract_x
 _atom_site_fract_y
 _atom_site_fract_z
 _atom_site_occupancy
  Sn  Sn0  1  0.93792000  0.97047000  0.42521000  1.0
  Sn  Sn1  1  0.54633000  0.51313000  0.57521000  1.0
  Sn  Sn2  1  0.76317000  0.29634000  0.07491000  1.0
  Sn  Sn3  1  0.22080000  0.68825000  0.92517000  1.0
  H  H4  1  0.03939000  0.74000000  0.36699000  1.0
  H  H5  1  0.37406000  0.67305000  0.63340000  1.0
  H  H6  1  0.92212000  0.12316000  0.13247000  1.0
  H  H7  1  0.98995000  0.78926000  0.86742000  1.0
  H  H8  1  0.20996000  0.94773000  0.39358000  1.0
  H  H9  1  0.55502000  0.81690000  0.60659000  1.0
  H  H10  1  0.06610000  0.30383000  0.10541000  1.0
  H  H11  1  0.19740000  0.96048000  0.89432000  1.0
  H  H12  1  0.04367000  0.85398000  0.27712000  1.0
  H  H13  1  0.57774000  0.76700000  0.72298000  1.0
  H  H14  1  0.01690000  0.32694000  0.22215000  1.0
  H  H15  1  0.10436000  0.79463000  0.77770000  1.0
  H  H16  1  0.81913000  0.17278000  0.49820000  1.0
  H  H17  1  0.67537000  0.32158000  0.50154000  1.0
  H  H18  1  0.57186000  0.42529000  0.00095000  1.0
  H  H19  1  0.42362000  0.56995000  0.99827000  1.0
  H  H20  1  0.84067000  0.19693000  0.37883000  1.0
  H  H21  1  0.81862000  0.46155000  0.62106000  1.0
  H  H22  1  0.71040000  0.56788000  0.12094000  1.0
  H  H23  1  0.44717000  0.59065000  0.87864000  1.0
  H  H24  1  0.02163000  0.30013000  0.48766000  1.0
  H  H25  1  0.81355000  0.53454000  0.51242000  1.0
  H  H26  1  0.78518000  0.56415000  0.01294000  1.0
  H  H27  1  0.55060000  0.77209000  0.98730000  1.0
  C  C28  1  0.60374000  0.73501000  0.28326000  1.0
  C  C29  1  0.45165000  0.32029000  0.71667000  1.0
  C  C30  1  0.57072000  0.20217000  0.21684000  1.0
  C  C31  1  0.98549000  0.35429000  0.78318000  1.0
  C  C32  1  0.44820000  0.53646000  0.36665000  1.0
  C  C33  1  0.17004000  0.08137000  0.63356000  1.0
  C  C34  1  0.33180000  0.92062000  0.13375000  1.0
  C  C35  1  0.78669000  0.19833000  0.86639000  1.0
  C  C36  1  0.07599000  0.86470000  0.35627000  1.0
  C  C37  1  0.50937000  0.72013000  0.64386000  1.0
  C  C38  1  0.96972000  0.25854000  0.14302000  1.0
  C  C39  1  0.11484000  0.82651000  0.85683000  1.0
  C  C40  1  0.90071000  0.18885000  0.44983000  1.0
  C  C41  1  0.73984000  0.45123000  0.55015000  1.0
  C  C42  1  0.70113000  0.48972000  0.05005000  1.0
  C  C43  1  0.43928000  0.65108000  0.94967000  1.0
  S  S44  1  0.40673000  0.55715000  0.24709000  1.0
  S  S45  1  0.31024000  0.15954000  0.75312000  1.0
  S  S46  1  0.41008000  0.06077000  0.25337000  1.0
  S  S47  1  0.80785000  0.15705000  0.74691000  1.0
  S  S48  1  0.69654000  0.85685000  0.21613000  1.0
  S  S49  1  0.64076000  0.48027000  0.78345000  1.0
  S  S50  1  0.73087000  0.39093000  0.28378000  1.0
  S  S51  1  0.10729000  0.44709000  0.71603000  1.0
  S  S52  1  0.31777000  0.37941000  0.40704000  1.0
  S  S53  1  0.97282000  0.91033000  0.59337000  1.0
  S  S54  1  0.16098000  0.72324000  0.09359000  1.0
  S  S55  1  0.62968000  0.06772000  0.90680000  1.0
  N  N56  1  0.68023000  0.76438000  0.37947000  1.0
  N  N57  1  0.38482000  0.30058000  0.62047000  1.0
  N  N58  1  0.55085000  0.13545000  0.12057000  1.0
  N  N59  1  0.01446000  0.43072000  0.87937000  1.0
  N  N60  1  0.59483000  0.65614000  0.42633000  1.0
  N  N61  1  0.22989000  0.16825000  0.57375000  1.0
  N  N62  1  0.41845000  0.98052000  0.07383000  1.0
  N  N63  1  0.90625000  0.34495000  0.92615000  1.0
