# generated using pymatgen
data_ZnH18C26(NO4)2
_symmetry_space_group_name_H-M   'P 1'
_cell_length_a   9.60546000
_cell_length_b   11.53480000
_cell_length_c   13.03608634
_cell_angle_alpha   73.82761499
_cell_angle_beta   68.39290585
_cell_angle_gamma   65.39610000
_symmetry_Int_Tables_number   1
_chemical_formula_structural   ZnH18C26(NO4)2
_chemical_formula_sum   'Zn2 H36 C52 N4 O16'
_cell_volume   1207.47534766
_cell_formula_units_Z   2
loop_
 _symmetry_equiv_pos_site_id
 _symmetry_equiv_pos_as_xyz
  1  'x, y, z'
loop_
 _atom_site_type_symbol
 _atom_site_label
 _atom_site_symmetry_multiplicity
 _atom_site_fract_x
 _atom_site_fract_y
 _atom_site_fract_z
 _atom_site_occupancy
  Zn  Zn0  1  0.37832000  0.75000000  0.25002000  1.0
  Zn  Zn1  1  0.62167000  0.25000000  0.74999000  1.0
  H  H2  1  0.56610000  0.07613000  0.30488000  1.0
  H  H3  1  0.94710000  0.42385000  0.19514000  1.0
  H  H4  1  0.43390000  0.92387000  0.69512000  1.0
  H  H5  1  0.05290000  0.57615000  0.80486000  1.0
  H  H6  1  0.34241000  0.73194000  0.48915000  1.0
  H  H7  1  0.56351000  0.76802000  0.01085000  1.0
  H  H8  1  0.65759000  0.26806000  0.51085000  1.0
  H  H9  1  0.43649000  0.23198000  0.98915000  1.0
  H  H10  1  0.47036000  0.46447000  0.13113000  1.0
  H  H11  1  0.06596000  0.03546000  0.36886000  1.0
  H  H12  1  0.52964000  0.53553000  0.86887000  1.0
  H  H13  1  0.93404000  0.96454000  0.63114000  1.0
  H  H14  1  0.81367000  0.32847000  0.91955000  1.0
  H  H15  1  0.06166000  0.17148000  0.58047000  1.0
  H  H16  1  0.18633000  0.67153000  0.08045000  1.0
  H  H17  1  0.93835000  0.82852000  0.41953000  1.0
  H  H18  1  0.25041000  0.01543000  0.95316000  1.0
  H  H19  1  0.21899000  0.48453000  0.54683000  1.0
  H  H20  1  0.74959000  0.98457000  0.04684000  1.0
  H  H21  1  0.78101000  0.51547000  0.45317000  1.0
  H  H22  1  0.85948000  0.12598000  0.24457000  1.0
  H  H23  1  0.23001000  0.37400000  0.25544000  1.0
  H  H24  1  0.14052000  0.87402000  0.75543000  1.0
  H  H25  1  0.76999000  0.62600000  0.74456000  1.0
  H  H26  1  0.09113000  0.18822000  0.83328000  1.0
  H  H27  1  0.11264333  0.31177000  0.66666667  1.0
  H  H28  1  0.90887000  0.81178000  0.16672000  1.0
  H  H29  1  0.88742000  0.68823000  0.33327000  1.0
  H  H30  1  0.39461000  0.83419000  0.60671000  1.0
  H  H31  1  0.83554000  0.66580000  0.89332000  1.0
  H  H32  1  0.60539000  0.16581000  0.39329000  1.0
  H  H33  1  0.16446000  0.33420000  0.10668000  1.0
  H  H34  1  0.51014000  0.95856000  0.20067000  1.0
  H  H35  1  0.66936000  0.54145000  0.29933000  1.0
  H  H36  1  0.48986000  0.04144000  0.79933000  1.0
  H  H37  1  0.33064000  0.45855000  0.70067000  1.0
  C  C38  1  0.51824000  0.99966000  0.35008000  1.0
  C  C39  1  0.86795000  0.50032000  0.14992000  1.0
  C  C40  1  0.48176000  0.00034000  0.64992000  1.0
  C  C41  1  0.13205000  0.49968000  0.85008000  1.0
  C  C42  1  0.39295000  0.80820000  0.45243000  1.0
  C  C43  1  0.65356000  0.69173000  0.04757000  1.0
  C  C44  1  0.60705000  0.19180000  0.54757000  1.0
  C  C45  1  0.34645000  0.30827000  0.95242000  1.0
  C  C46  1  0.48471000  0.96671000  0.46666000  1.0
  C  C47  1  0.91808000  0.53327000  0.03335000  1.0
  C  C48  1  0.51529000  0.03329000  0.53334000  1.0
  C  C49  1  0.08192000  0.46673000  0.96665000  1.0
  C  C50  1  0.88447000  0.25468000  0.97188000  1.0
  C  C51  1  0.11097000  0.24528000  0.52813000  1.0
  C  C52  1  0.11552000  0.74532000  0.02812000  1.0
  C  C53  1  0.88903000  0.75472000  0.47187000  1.0
  C  C54  1  0.65590000  0.31739000  0.14788000  1.0
  C  C55  1  0.12107000  0.18257000  0.35215000  1.0
  C  C56  1  0.34410000  0.68261000  0.85212000  1.0
  C  C57  1  0.87893000  0.81743000  0.64785000  1.0
  C  C58  1  0.15461000  0.95521000  0.17941000  1.0
  C  C59  1  0.28930000  0.54472000  0.32061000  1.0
  C  C60  1  0.84539000  0.04479000  0.82059000  1.0
  C  C61  1  0.71069000  0.45528000  0.67939000  1.0
  C  C62  1  0.13000000  0.07905000  0.99001000  1.0
  C  C63  1  0.19908000  0.42088000  0.50999000  1.0
  C  C64  1  0.87000000  0.92095000  0.00999000  1.0
  C  C65  1  0.80091000  0.57912000  0.49001000  1.0
  C  C66  1  0.06452000  0.06038000  0.10615000  1.0
  C  C67  1  0.23119000  0.43950000  0.39385000  1.0
  C  C68  1  0.93547000  0.93962000  0.89386000  1.0
  C  C69  1  0.76881000  0.56050000  0.60615000  1.0
  C  C70  1  0.90989000  0.13980000  0.15438000  1.0
  C  C71  1  0.20408000  0.36012000  0.34563000  1.0
  C  C72  1  0.09011000  0.86020000  0.84562000  1.0
  C  C73  1  0.79592000  0.63988000  0.65437000  1.0
  C  C74  1  0.81924000  0.23664000  0.08837000  1.0
  C  C75  1  0.14417000  0.26334000  0.41164000  1.0
  C  C76  1  0.18076000  0.76336000  0.91163000  1.0
  C  C77  1  0.85583000  0.73666000  0.58836000  1.0
  C  C78  1  0.04010000  0.17566000  0.92373000  1.0
  C  C79  1  0.13946000  0.32432000  0.57627000  1.0
  C  C80  1  0.95988000  0.82435000  0.07628000  1.0
  C  C81  1  0.86054000  0.67568000  0.42373000  1.0
  C  C82  1  0.42100000  0.86822000  0.51744000  1.0
  C  C83  1  0.80667000  0.63177000  0.98258000  1.0
  C  C84  1  0.57900000  0.13178000  0.48256000  1.0
  C  C85  1  0.19333000  0.36823000  0.01742000  1.0
  C  C86  1  0.48729000  0.93470000  0.29099000  1.0
  C  C87  1  0.71295000  0.56528000  0.20901000  1.0
  C  C88  1  0.51270000  0.06530000  0.70901000  1.0
  C  C89  1  0.28705000  0.43472000  0.79099000  1.0
  N  N90  1  0.42557000  0.84054000  0.34100000  1.0
  N  N91  1  0.60705000  0.65943000  0.15899000  1.0
  N  N92  1  0.57443000  0.15947000  0.65900000  1.0
  N  N93  1  0.39295000  0.34057000  0.84101000  1.0
  O  O94  1  0.09316000  0.93888000  0.28415000  1.0
  O  O95  1  0.31625000  0.56109000  0.21587000  1.0
  O  O96  1  0.90684000  0.06112000  0.71585000  1.0
  O  O97  1  0.68375000  0.43891000  0.78413000  1.0
  O  O98  1  0.29511000  0.88051000  0.13091000  1.0
  O  O99  1  0.30645000  0.61950000  0.36913000  1.0
  O  O100  1  0.70489000  0.11949000  0.86909000  1.0
  O  O101  1  0.69355000  0.38050000  0.63087000  1.0
  O  O102  1  0.57492000  0.41095000  0.08213000  1.0
  O  O103  1  0.06799000  0.08899000  0.41787000  1.0
  O  O104  1  0.42508000  0.58906000  0.91787000  1.0
  O  O105  1  0.93200000  0.91101000  0.58213000  1.0
  O  O106  1  0.60076000  0.29949000  0.25053000  1.0
  O  O107  1  0.15068000  0.20049000  0.24948000  1.0
  O  O108  1  0.39924000  0.70051000  0.74947000  1.0
  O  O109  1  0.84933000  0.79951000  0.75052000  1.0
