# generated using pymatgen
data_NaH2C2N5O2
_symmetry_space_group_name_H-M   'P 1'
_cell_length_a   3.60564000
_cell_length_b   9.98201000
_cell_length_c   15.94380000
_cell_angle_alpha   89.99990000
_cell_angle_beta   89.99990000
_cell_angle_gamma   82.16990000
_symmetry_Int_Tables_number   1
_chemical_formula_structural   NaH2C2N5O2
_chemical_formula_sum   'Na4 H8 C8 N20 O8'
_cell_volume   568.49156033
_cell_formula_units_Z   4
loop_
 _symmetry_equiv_pos_site_id
 _symmetry_equiv_pos_as_xyz
  1  'x, y, z'
loop_
 _atom_site_type_symbol
 _atom_site_label
 _atom_site_symmetry_multiplicity
 _atom_site_fract_x
 _atom_site_fract_y
 _atom_site_fract_z
 _atom_site_occupancy
  Na  Na0  1  0.29816000  0.90282000  0.91757000  1.0
  Na  Na1  1  0.70183000  0.59719000  0.41757000  1.0
  Na  Na2  1  0.70183000  0.09718000  0.08243000  1.0
  Na  Na3  1  0.29816000  0.40281000  0.58243000  1.0
  H  H4  1  0.81967000  0.93030000  0.77626000  1.0
  H  H5  1  0.18034000  0.56970000  0.27626000  1.0
  H  H6  1  0.18033000  0.06970000  0.22374000  1.0
  H  H7  1  0.81967000  0.43030000  0.72374000  1.0
  H  H8  1  0.79879000  0.06935000  0.82542000  1.0
  H  H9  1  0.20121000  0.43065000  0.32542000  1.0
  H  H10  1  0.20122000  0.93065000  0.17458000  1.0
  H  H11  1  0.79878000  0.56935000  0.67458000  1.0
  C  C12  1  0.85364000  0.57086000  0.11739000  1.0
  C  C13  1  0.14636000  0.92914000  0.61739000  1.0
  C  C14  1  0.14636000  0.42914000  0.88261000  1.0
  C  C15  1  0.85364000  0.07086000  0.38261000  1.0
  C  C16  1  0.78928000  0.43535000  0.12776000  1.0
  C  C17  1  0.21072000  0.06465000  0.62776000  1.0
  C  C18  1  0.21072000  0.56465000  0.87225000  1.0
  C  C19  1  0.78929000  0.93535000  0.37224000  1.0
  N  N20  1  0.74736000  0.64521000  0.04847000  1.0
  N  N21  1  0.25264000  0.85479000  0.54847000  1.0
  N  N22  1  0.25263000  0.35478000  0.95153000  1.0
  N  N23  1  0.74736000  0.14521000  0.45153000  1.0
  N  N24  1  0.85586000  0.76366000  0.06833000  1.0
  N  N25  1  0.14414000  0.73634000  0.56833000  1.0
  N  N26  1  0.14415000  0.23634000  0.93167000  1.0
  N  N27  1  0.85585000  0.26366000  0.43167000  1.0
  N  N28  1  0.02035000  0.76384000  0.14490000  1.0
  N  N29  1  0.97965000  0.73616000  0.64490000  1.0
  N  N30  1  0.97965000  0.23617000  0.85510000  1.0
  N  N31  1  0.02034000  0.26384000  0.35510000  1.0
  N  N32  1  0.01790000  0.64087000  0.17596000  1.0
  N  N33  1  0.98211000  0.85914000  0.67596000  1.0
  N  N34  1  0.98211000  0.35913000  0.82404000  1.0
  N  N35  1  0.01789000  0.14086000  0.32404000  1.0
  N  N36  1  0.72980000  0.32442000  0.13656000  1.0
  N  N37  1  0.27023000  0.17558000  0.63656000  1.0
  N  N38  1  0.27020000  0.67558000  0.86344000  1.0
  N  N39  1  0.72979000  0.82442000  0.36344000  1.0
  O  O40  1  0.80945000  0.86798000  0.02057000  1.0
  O  O41  1  0.19053000  0.63202000  0.52057000  1.0
  O  O42  1  0.19054000  0.13202000  0.97943000  1.0
  O  O43  1  0.80945000  0.36799000  0.47943000  1.0
  O  O44  1  0.75468000  0.97456000  0.83110000  1.0
  O  O45  1  0.24532000  0.52545000  0.33110000  1.0
  O  O46  1  0.24532000  0.02544000  0.16890000  1.0
  O  O47  1  0.75469000  0.47455000  0.66890000  1.0
