# generated using pymatgen
data_CaH12C12(SO5)2
_symmetry_space_group_name_H-M   'P 1'
_cell_length_a   7.29023000
_cell_length_b   10.54410000
_cell_length_c   10.54564003
_cell_angle_alpha   66.45477399
_cell_angle_beta   82.23612235
_cell_angle_gamma   82.20080000
_symmetry_Int_Tables_number   1
_chemical_formula_structural   CaH12C12(SO5)2
_chemical_formula_sum   'Ca2 H24 C24 S4 O20'
_cell_volume   733.34336810
_cell_formula_units_Z   2
loop_
 _symmetry_equiv_pos_site_id
 _symmetry_equiv_pos_as_xyz
  1  'x, y, z'
loop_
 _atom_site_type_symbol
 _atom_site_label
 _atom_site_symmetry_multiplicity
 _atom_site_fract_x
 _atom_site_fract_y
 _atom_site_fract_z
 _atom_site_occupancy
  Ca  Ca0  1  0.24991000  0.04210000  0.95804000  1.0
  Ca  Ca1  1  0.75008000  0.95791000  0.04195000  1.0
  H  H2  1  0.22286000  0.30767000  0.98628000  1.0
  H  H3  1  0.27681000  0.01348000  0.69271000  1.0
  H  H4  1  0.77713000  0.69233000  0.01372000  1.0
  H  H5  1  0.72319000  0.98653000  0.30729000  1.0
  H  H6  1  0.43935000  0.26825000  0.96298000  1.0
  H  H7  1  0.06031000  0.03678000  0.73207000  1.0
  H  H8  1  0.56064000  0.73176000  0.03702000  1.0
  H  H9  1  0.93968000  0.96323000  0.26792000  1.0
  H  H10  1  0.45340000  0.36858000  0.11367000  1.0
  H  H11  1  0.04700000  0.88694000  0.63085000  1.0
  H  H12  1  0.54660000  0.63143000  0.88632000  1.0
  H  H13  1  0.95301000  0.11304000  0.36916000  1.0
  H  H14  1  0.32895000  0.24624000  0.34546000  1.0
  H  H15  1  0.17149000  0.65512000  0.75334000  1.0
  H  H16  1  0.67106000  0.75378000  0.65454000  1.0
  H  H17  1  0.82852000  0.34487000  0.24666000  1.0
  H  H18  1  0.15469000  0.27518000  0.54797000  1.0
  H  H19  1  0.34521000  0.45223000  0.72473000  1.0
  H  H20  1  0.84532000  0.72482000  0.45204000  1.0
  H  H21  1  0.65481000  0.54777000  0.27526000  1.0
  H  H22  1  0.98417000  0.70101000  0.29384000  1.0
  H  H23  1  0.51587000  0.70605000  0.29892000  1.0
  H  H24  1  0.01580000  0.29899000  0.70615000  1.0
  H  H25  1  0.48415000  0.29395000  0.70108000  1.0
  C  C26  1  0.15838000  0.58362000  0.19280000  1.0
  C  C27  1  0.34211000  0.80744000  0.41618000  1.0
  C  C28  1  0.84160000  0.41637000  0.80720000  1.0
  C  C29  1  0.65790000  0.19255000  0.58383000  1.0
  C  C30  1  0.25707000  0.45538000  0.20472000  1.0
  C  C31  1  0.24361000  0.79566000  0.54439000  1.0
  C  C32  1  0.74292000  0.54463000  0.79527000  1.0
  C  C33  1  0.75640000  0.20432000  0.45562000  1.0
  C  C34  1  0.25208000  0.34570000  0.33480000  1.0
  C  C35  1  0.24840000  0.66564000  0.65403000  1.0
  C  C36  1  0.74793000  0.65432000  0.66520000  1.0
  C  C37  1  0.75162000  0.33434000  0.34598000  1.0
  C  C38  1  0.15260000  0.36376000  0.44899000  1.0
  C  C39  1  0.34746000  0.55121000  0.63609000  1.0
  C  C40  1  0.84741000  0.63625000  0.55101000  1.0
  C  C41  1  0.65255000  0.44878000  0.36391000  1.0
  C  C42  1  0.05300000  0.49085000  0.43907000  1.0
  C  C43  1  0.44698000  0.56097000  0.50907000  1.0
  C  C44  1  0.94700000  0.50916000  0.56093000  1.0
  C  C45  1  0.55303000  0.43903000  0.49092000  1.0
  C  C46  1  0.05794000  0.60021000  0.30821000  1.0
  C  C47  1  0.44206000  0.69182000  0.39963000  1.0
  C  C48  1  0.94205000  0.39979000  0.69179000  1.0
  C  C49  1  0.55796000  0.30818000  0.60037000  1.0
  S  S50  1  0.15323000  0.72244000  0.02825000  1.0
  S  S51  1  0.34713000  0.97189000  0.27724000  1.0
  S  S52  1  0.84676000  0.27755000  0.97175000  1.0
  S  S53  1  0.65287000  0.02811000  0.72276000  1.0
  O  O54  1  0.31588000  0.26105000  0.93868000  1.0
  O  O55  1  0.18373000  0.06111000  0.73927000  1.0
  O  O56  1  0.68411000  0.73895000  0.06132000  1.0
  O  O57  1  0.81626000  0.93889000  0.26073000  1.0
  O  O58  1  0.05973000  0.84738000  0.05532000  1.0
  O  O59  1  0.44042000  0.94455000  0.15244000  1.0
  O  O60  1  0.94027000  0.15262000  0.94468000  1.0
  O  O61  1  0.55957000  0.05545000  0.84756000  1.0
  O  O62  1  0.34556000  0.75306000  0.96870000  1.0
  O  O63  1  0.15473000  0.03147000  0.24666000  1.0
  O  O64  1  0.65443000  0.24695000  0.03129000  1.0
  O  O65  1  0.84527000  0.96852000  0.75335000  1.0
  O  O66  1  0.04620000  0.68446000  0.94391000  1.0
  O  O67  1  0.45425000  0.05625000  0.31510000  1.0
  O  O68  1  0.95379000  0.31555000  0.05608000  1.0
  O  O69  1  0.54573000  0.94375000  0.68490000  1.0
  O  O70  1  0.35215000  0.44335000  0.08946000  1.0
  O  O71  1  0.14851000  0.91099000  0.55635000  1.0
  O  O72  1  0.64785000  0.55665000  0.91054000  1.0
  O  O73  1  0.85150000  0.08901000  0.44365000  1.0
