# generated using pymatgen
data_HgH12C6(BrN2)2
_symmetry_space_group_name_H-M   'P 1'
_cell_length_a   6.62933000
_cell_length_b   6.77711000
_cell_length_c   12.21410000
_cell_angle_alpha   85.96370000
_cell_angle_beta   89.99860000
_cell_angle_gamma   89.99870000
_symmetry_Int_Tables_number   1
_chemical_formula_structural   HgH12C6(BrN2)2
_chemical_formula_sum   'Hg2 H24 C12 Br4 N8'
_cell_volume   547.39031112
_cell_formula_units_Z   2
loop_
 _symmetry_equiv_pos_site_id
 _symmetry_equiv_pos_as_xyz
  1  'x, y, z'
loop_
 _atom_site_type_symbol
 _atom_site_label
 _atom_site_symmetry_multiplicity
 _atom_site_fract_x
 _atom_site_fract_y
 _atom_site_fract_z
 _atom_site_occupancy
  Hg  Hg0  1  0.25000000  0.10605000  0.80259000  1.0
  Hg  Hg1  1  0.75001000  0.89398000  0.19742000  1.0
  H  H2  1  0.93068000  0.47073000  0.87795000  1.0
  H  H3  1  0.43072000  0.52927000  0.12206000  1.0
  H  H4  1  0.06933000  0.52927000  0.12204000  1.0
  H  H5  1  0.56932000  0.47073000  0.87795000  1.0
  H  H6  1  0.06460000  0.58015000  0.76138000  1.0
  H  H7  1  0.56462000  0.41988000  0.23862000  1.0
  H  H8  1  0.93541000  0.41987000  0.23860000  1.0
  H  H9  1  0.43538000  0.58014000  0.76139000  1.0
  H  H10  1  0.75000000  0.16566000  0.86470000  1.0
  H  H11  1  0.25001000  0.83435000  0.13530000  1.0
  H  H12  1  0.75001000  0.04524000  0.73956000  1.0
  H  H13  1  0.24999000  0.95479000  0.26044000  1.0
  H  H14  1  0.06546000  0.41755000  0.59071000  1.0
  H  H15  1  0.56545000  0.58249000  0.40928000  1.0
  H  H16  1  0.93455000  0.58245000  0.40927000  1.0
  H  H17  1  0.43454000  0.41754000  0.59071000  1.0
  H  H18  1  0.93096000  0.19000000  0.58226000  1.0
  H  H19  1  0.43092000  0.81002000  0.41774000  1.0
  H  H20  1  0.06902000  0.80999000  0.41773000  1.0
  H  H21  1  0.56906000  0.19000000  0.58226000  1.0
  H  H22  1  0.61481000  0.72092000  0.60572000  1.0
  H  H23  1  0.11480000  0.27909000  0.39428000  1.0
  H  H24  1  0.38520000  0.27908000  0.39428000  1.0
  H  H25  1  0.88518000  0.72092000  0.60571000  1.0
  C  C26  1  0.92946000  0.49628000  0.78813000  1.0
  C  C27  1  0.42948000  0.50374000  0.21187000  1.0
  C  C28  1  0.07055000  0.50374000  0.21186000  1.0
  C  C29  1  0.57053000  0.49628000  0.78814000  1.0
  C  C30  1  0.75000000  0.19007000  0.77486000  1.0
  C  C31  1  0.25001000  0.80995000  0.22513000  1.0
  C  C32  1  0.92968000  0.33460000  0.61773000  1.0
  C  C33  1  0.42966000  0.66542000  0.38226000  1.0
  C  C34  1  0.07032000  0.66541000  0.38225000  1.0
  C  C35  1  0.57032000  0.33460000  0.61774000  1.0
  C  C36  1  0.75000000  0.63689000  0.63207000  1.0
  C  C37  1  0.25000000  0.36311000  0.36793000  1.0
  Br  Br38  1  0.24999000  0.89759000  0.63664000  1.0
  Br  Br39  1  0.74994000  0.10238000  0.36338000  1.0
  Br  Br40  1  0.25000000  0.19490000  0.99871000  1.0
  Br  Br41  1  0.75003000  0.80485000  0.00134000  1.0
  N  N42  1  0.74999000  0.60963000  0.75294000  1.0
  N  N43  1  0.25002000  0.39037000  0.24706000  1.0
  N  N44  1  0.93409000  0.30074000  0.73935000  1.0
  N  N45  1  0.43408000  0.69928000  0.26065000  1.0
  N  N46  1  0.06592000  0.69927000  0.26064000  1.0
  N  N47  1  0.56591000  0.30074000  0.73935000  1.0
  N  N48  1  0.75001000  0.44605000  0.58052000  1.0
  N  N49  1  0.25000000  0.55396000  0.41947000  1.0
