# generated using pymatgen
data_NdH13C9N4O9
_symmetry_space_group_name_H-M   'P 1'
_cell_length_a   7.90984000
_cell_length_b   9.77294000
_cell_length_c   10.40810000
_cell_angle_alpha   117.08600000
_cell_angle_beta   107.20900000
_cell_angle_gamma   95.47610000
_symmetry_Int_Tables_number   1
_chemical_formula_structural   NdH13C9N4O9
_chemical_formula_sum   'Nd2 H26 C18 N8 O18'
_cell_volume   658.73028446
_cell_formula_units_Z   2
loop_
 _symmetry_equiv_pos_site_id
 _symmetry_equiv_pos_as_xyz
  1  'x, y, z'
loop_
 _atom_site_type_symbol
 _atom_site_label
 _atom_site_symmetry_multiplicity
 _atom_site_fract_x
 _atom_site_fract_y
 _atom_site_fract_z
 _atom_site_occupancy
  Nd  Nd0  1  0.21461000  0.20645000  0.81112000  1.0
  Nd  Nd1  1  0.78539000  0.79355000  0.18888000  1.0
  H  H2  1  0.96343000  0.15751000  0.96748000  1.0
  H  H3  1  0.03657000  0.84249000  0.03252000  1.0
  H  H4  1  0.14926000  0.12482000  0.05326000  1.0
  H  H5  1  0.85073000  0.87518000  0.94674000  1.0
  H  H6  1  0.57795000  0.14137000  0.93991000  1.0
  H  H7  1  0.42205000  0.85863000  0.06009000  1.0
  H  H8  1  0.61529000  0.27494000  0.82704000  1.0
  H  H9  1  0.38471000  0.72506000  0.17296000  1.0
  H  H10  1  0.84563000  0.09042000  0.56343000  1.0
  H  H11  1  0.15437000  0.90958000  0.43657000  1.0
  H  H12  1  0.43763000  0.97092000  0.84422000  1.0
  H  H13  1  0.56237000  0.02908000  0.15577000  1.0
  H  H14  1  0.79252000  0.03729000  0.67385000  1.0
  H  H15  1  0.20748000  0.96271000  0.32615000  1.0
  H  H16  1  0.46333000  0.34904000  0.16007000  1.0
  H  H17  1  0.53667000  0.65096000  0.83993000  1.0
  H  H18  1  0.45114000  0.50098000  0.13677000  1.0
  H  H19  1  0.54886000  0.49902000  0.86323000  1.0
  H  H20  1  0.49579000  0.24831000  0.65525000  1.0
  H  H21  1  0.50421000  0.75169000  0.34475000  1.0
  H  H22  1  0.17355000  0.63417000  0.29626000  1.0
  H  H23  1  0.82645000  0.36583000  0.70374000  1.0
  H  H24  1  0.82336000  0.19951000  0.18771000  1.0
  H  H25  1  0.17664000  0.80049000  0.81229000  1.0
  H  H26  1  0.30499000  0.45114000  0.61058000  1.0
  H  H27  1  0.69501000  0.54886000  0.38942000  1.0
  C  C28  1  0.42976000  0.68734000  0.56850000  1.0
  C  C29  1  0.57024000  0.31266000  0.43150000  1.0
  C  C30  1  0.26316000  0.55584000  0.46362000  1.0
  C  C31  1  0.73684000  0.44416000  0.53638000  1.0
  C  C32  1  0.14552000  0.54357000  0.32635000  1.0
  C  C33  1  0.85448000  0.45643000  0.67365000  1.0
  C  C34  1  0.98728000  0.41589000  0.22817000  1.0
  C  C35  1  0.01272000  0.58411000  0.77183000  1.0
  C  C36  1  0.94535000  0.29993000  0.26560000  1.0
  C  C37  1  0.05465000  0.70007000  0.73439000  1.0
  C  C38  1  0.05892000  0.31470000  0.40517000  1.0
  C  C39  1  0.94108000  0.68530000  0.59483000  1.0
  C  C40  1  0.21719000  0.44216000  0.50307000  1.0
  C  C41  1  0.78281000  0.55784000  0.49693000  1.0
  C  C42  1  0.01626000  0.19732000  0.45360000  1.0
  C  C43  1  0.98374000  0.80268000  0.54641000  1.0
  C  C44  1  0.86005000  0.40557000  0.08383000  1.0
  C  C45  1  0.13995000  0.59444000  0.91617000  1.0
  N  N46  1  0.52697000  0.72592000  0.71670000  1.0
  N  N47  1  0.47303000  0.27408000  0.28330000  1.0
  N  N48  1  0.66967000  0.85081000  0.77275000  1.0
  N  N49  1  0.33033000  0.14918000  0.22725000  1.0
  N  N50  1  0.65825000  0.88715000  0.66334000  1.0
  N  N51  1  0.34175000  0.11285000  0.33666000  1.0
  N  N52  1  0.51011000  0.78711000  0.53367000  1.0
  N  N53  1  0.48989000  0.21289000  0.46633000  1.0
  O  O54  1  0.13415000  0.21708000  0.57800000  1.0
  O  O55  1  0.86585000  0.78292000  0.42200000  1.0
  O  O56  1  0.86593000  0.08534000  0.37082000  1.0
  O  O57  1  0.13407000  0.91466000  0.62918000  1.0
  O  O58  1  0.84058000  0.53310000  0.08497000  1.0
  O  O59  1  0.15942000  0.46690000  0.91503000  1.0
  O  O60  1  0.44471000  0.38585000  0.08211000  1.0
  O  O61  1  0.55529000  0.61415000  0.91788000  1.0
  O  O62  1  0.49739000  0.28320000  0.76266000  1.0
  O  O63  1  0.50261000  0.71680000  0.23734000  1.0
  O  O64  1  0.44878000  0.08411000  0.90730000  1.0
  O  O65  1  0.55122000  0.91590000  0.09270000  1.0
  O  O66  1  0.87384000  0.12400000  0.67373000  1.0
  O  O67  1  0.12616000  0.87600000  0.32627000  1.0
  O  O68  1  0.07617000  0.12594000  0.95751000  1.0
  O  O69  1  0.92383000  0.87406000  0.04248000  1.0
  O  O70  1  0.77751000  0.26501000  0.96473000  1.0
  O  O71  1  0.22249000  0.73499000  0.03527000  1.0
