# generated using pymatgen
data_NaH13C6SO9
_symmetry_space_group_name_H-M   'P 1'
_cell_length_a   4.83236000
_cell_length_b   4.94500000
_cell_length_c   21.30080000
_cell_angle_alpha   89.99930000
_cell_angle_beta   95.19770000
_cell_angle_gamma   89.99850000
_symmetry_Int_Tables_number   1
_chemical_formula_structural   NaH13C6SO9
_chemical_formula_sum   'Na2 H26 C12 S2 O18'
_cell_volume   506.91133932
_cell_formula_units_Z   2
loop_
 _symmetry_equiv_pos_site_id
 _symmetry_equiv_pos_as_xyz
  1  'x, y, z'
loop_
 _atom_site_type_symbol
 _atom_site_label
 _atom_site_symmetry_multiplicity
 _atom_site_fract_x
 _atom_site_fract_y
 _atom_site_fract_z
 _atom_site_occupancy
  Na  Na0  1  0.73374000  0.04562000  0.05113000  1.0
  Na  Na1  1  0.26624000  0.54561000  0.94887000  1.0
  H  H2  1  0.59698000  0.62053000  0.17475000  1.0
  H  H3  1  0.40301000  0.12053000  0.82525000  1.0
  H  H4  1  0.13721000  0.58612000  0.22234000  1.0
  H  H5  1  0.86278000  0.08611000  0.77766000  1.0
  H  H6  1  0.59268000  0.19544000  0.27481000  1.0
  H  H7  1  0.40733000  0.69544000  0.72519000  1.0
  H  H8  1  0.13450000  0.16244000  0.32245000  1.0
  H  H9  1  0.86550000  0.66244000  0.67755000  1.0
  H  H10  1  0.61353000  0.40533000  0.40845000  1.0
  H  H11  1  0.38647000  0.90534000  0.59156000  1.0
  H  H12  1  0.17012000  0.35914000  0.46113000  1.0
  H  H13  1  0.82989000  0.85915000  0.53887000  1.0
  H  H14  1  0.44372000  0.14521000  0.49277000  1.0
  H  H15  1  0.55629000  0.64523000  0.50723000  1.0
  H  H16  1  0.77830000  0.21246000  0.17162000  1.0
  H  H17  1  0.22171000  0.71246000  0.82838000  1.0
  H  H18  1  0.17004000  0.05104000  0.17677000  1.0
  H  H19  1  0.82998000  0.55103000  0.82324000  1.0
  H  H20  1  0.55143000  0.73782000  0.31744000  1.0
  H  H21  1  0.44856000  0.23783000  0.68256000  1.0
  H  H22  1  0.95500000  0.57330000  0.32575000  1.0
  H  H23  1  0.04499000  0.07330000  0.67426000  1.0
  H  H24  1  0.80023000  0.99633000  0.40503000  1.0
  H  H25  1  0.19979000  0.49635000  0.59497000  1.0
  H  H26  1  0.19361000  0.82347000  0.41203000  1.0
  H  H27  1  0.80640000  0.32348000  0.58797000  1.0
  C  C28  1  0.45053000  0.45350000  0.16309000  1.0
  C  C29  1  0.54947000  0.95351000  0.83691000  1.0
  C  C30  1  0.27145000  0.40907000  0.21781000  1.0
  C  C31  1  0.72854000  0.90906000  0.78219000  1.0
  C  C32  1  0.45762000  0.37164000  0.27979000  1.0
  C  C33  1  0.54239000  0.87165000  0.72021000  1.0
  C  C34  1  0.28478000  0.32491000  0.33560000  1.0
  C  C35  1  0.71523000  0.82491000  0.66440000  1.0
  C  C36  1  0.46621000  0.23959000  0.39508000  1.0
  C  C37  1  0.53379000  0.73960000  0.60492000  1.0
  C  C38  1  0.29806000  0.18403000  0.45089000  1.0
  C  C39  1  0.70195000  0.68404000  0.54911000  1.0
  S  S40  1  0.24313000  0.57505000  0.09262000  1.0
  S  S41  1  0.75687000  0.07506000  0.90737000  1.0
  O  O42  1  0.58763000  0.21268000  0.14832000  1.0
  O  O43  1  0.41237000  0.71269000  0.85168000  1.0
  O  O44  1  0.09394000  0.17734000  0.20710000  1.0
  O  O45  1  0.90606000  0.67733000  0.79290000  1.0
  O  O46  1  0.63654000  0.60292000  0.29056000  1.0
  O  O47  1  0.36345000  0.10293000  0.70944000  1.0
  O  O48  1  0.14321000  0.56850000  0.34983000  1.0
  O  O49  1  0.85678000  0.06849000  0.65017000  1.0
  O  O50  1  0.61359000  0.00070000  0.38003000  1.0
  O  O51  1  0.38643000  0.50072000  0.61997000  1.0
  O  O52  1  0.11384000  0.95743000  0.44005000  1.0
  O  O53  1  0.88618000  0.45744000  0.55995000  1.0
  O  O54  1  0.44217000  0.68627000  0.05115000  1.0
  O  O55  1  0.55782000  0.18627000  0.94885000  1.0
  O  O56  1  0.09311000  0.34625000  0.06216000  1.0
  O  O57  1  0.90689000  0.84625000  0.93784000  1.0
  O  O58  1  0.06134000  0.78043000  0.11778000  1.0
  O  O59  1  0.93865000  0.28043000  0.88222000  1.0
