# generated using pymatgen
data_ZnH6C9NO4
_symmetry_space_group_name_H-M   'P 1'
_cell_length_a   9.59417000
_cell_length_b   11.06060000
_cell_length_c   11.21030000
_cell_angle_alpha   88.27470000
_cell_angle_beta   89.71270000
_cell_angle_gamma   89.85330000
_symmetry_Int_Tables_number   1
_chemical_formula_structural   ZnH6C9NO4
_chemical_formula_sum   'Zn2 H12 C18 N2 O8'
_cell_volume   1189.04881109
_cell_formula_units_Z   2
loop_
 _symmetry_equiv_pos_site_id
 _symmetry_equiv_pos_as_xyz
  1  'x, y, z'
loop_
 _atom_site_type_symbol
 _atom_site_label
 _atom_site_symmetry_multiplicity
 _atom_site_fract_x
 _atom_site_fract_y
 _atom_site_fract_z
 _atom_site_occupancy
  Zn  Zn0  1  0.36042000  0.50034000  0.50131000  1.0
  Zn  Zn1  1  0.64274000  0.49961000  0.49931000  1.0
  H  H2  1  0.70595000  0.52054000  0.88965000  1.0
  H  H3  1  0.86917000  0.36334000  0.37755000  1.0
  H  H4  1  0.13387000  0.63683000  0.62311000  1.0
  H  H5  1  0.13736000  0.36307000  0.37870000  1.0
  H  H6  1  0.70607000  0.48025000  0.10916000  1.0
  H  H7  1  0.39523000  0.45316000  0.90462000  1.0
  H  H8  1  0.39469000  0.54655000  0.09717000  1.0
  H  H9  1  0.72293000  0.11267000  0.46469000  1.0
  H  H10  1  0.72155000  0.88546000  0.46804000  1.0
  H  H11  1  0.28123000  0.88730000  0.53653000  1.0
  H  H12  1  0.28142000  0.11451000  0.52788000  1.0
  H  H13  1  0.86572000  0.63697000  0.62204000  1.0
  C  C14  1  0.50233000  0.26242000  0.49340000  1.0
  C  C15  1  0.62601000  0.93661000  0.48231000  1.0
  C  C16  1  0.50146000  0.87313000  0.50329000  1.0
  C  C17  1  0.50211000  0.12685000  0.49562000  1.0
  C  C18  1  0.37724000  0.93759000  0.52010000  1.0
  C  C19  1  0.37737000  0.06343000  0.51537000  1.0
  C  C20  1  0.92797000  0.57642000  0.56826000  1.0
  C  C21  1  0.92996000  0.42380000  0.43178000  1.0
  C  C22  1  0.07308000  0.57630000  0.56893000  1.0
  C  C23  1  0.07506000  0.42373000  0.43231000  1.0
  C  C24  1  0.50118000  0.73748000  0.50638000  1.0
  C  C25  1  0.50163000  0.51351000  0.26676000  1.0
  C  C26  1  0.50098000  0.48625000  0.73386000  1.0
  C  C27  1  0.60696000  0.50137000  0.93508000  1.0
  C  C28  1  0.60692000  0.49906000  0.06453000  1.0
  C  C29  1  0.49587000  0.47885000  0.86599000  1.0
  C  C30  1  0.49566000  0.52112000  0.13470000  1.0
  C  C31  1  0.62654000  0.06244000  0.47959000  1.0
  N  N32  1  0.14484000  0.50002000  0.50091000  1.0
  N  N33  1  0.85819000  0.50013000  0.49973000  1.0
  O  O34  1  0.38537000  0.31597000  0.47943000  1.0
  O  O35  1  0.38472000  0.68446000  0.52454000  1.0
  O  O36  1  0.61967000  0.31425000  0.50654000  1.0
  O  O37  1  0.61783000  0.68471000  0.48988000  1.0
  O  O38  1  0.38520000  0.52783000  0.32089000  1.0
  O  O39  1  0.38410000  0.47232000  0.68152000  1.0
  O  O40  1  0.61883000  0.49334000  0.31694000  1.0
  O  O41  1  0.61773000  0.50592000  0.68185000  1.0
