# generated using pymatgen
data_Al6H40C95Cl8O33
_symmetry_space_group_name_H-M   'P 1'
_cell_length_a   12.05228217
_cell_length_b   12.22570000
_cell_length_c   27.89730000
_cell_angle_alpha   85.68030000
_cell_angle_beta   85.35535575
_cell_angle_gamma   61.26582370
_symmetry_Int_Tables_number   1
_chemical_formula_structural   Al6H40C95Cl8O33
_chemical_formula_sum   'Al6 H40 C95 Cl8 O33'
_cell_volume   3589.46616360
_cell_formula_units_Z   1
loop_
 _symmetry_equiv_pos_site_id
 _symmetry_equiv_pos_as_xyz
  1  'x, y, z'
loop_
 _atom_site_type_symbol
 _atom_site_label
 _atom_site_symmetry_multiplicity
 _atom_site_fract_x
 _atom_site_fract_y
 _atom_site_fract_z
 _atom_site_occupancy
  Al  Al0  1  0.58910000  0.59852000  0.49504000  1.0
  Al  Al1  1  0.33714000  0.57444000  0.50268000  1.0
  Al  Al2  1  0.58570000  0.33656000  0.50525000  1.0
  Al  Al3  1  0.09419000  0.06921000  0.01021000  1.0
  Al  Al4  1  0.09135000  0.33232000  0.00555000  1.0
  Al  Al5  1  0.34451000  0.09798000  0.00603000  1.0
  H  H6  1  0.12540000  0.40177000  0.32035000  1.0
  H  H7  1  0.01752000  0.50839000  0.70986000  1.0
  H  H8  1  0.50948000  0.19394000  0.87949000  1.0
  H  H9  1  0.64359000  0.14774000  0.80285000  1.0
  H  H10  1  0.65981000  0.16622000  0.71394000  1.0
  H  H11  1  0.55736000  0.25456000  0.63647000  1.0
  H  H12  1  0.72656000  0.53412000  0.70744000  1.0
  H  H13  1  0.28359000  0.68337000  0.73303000  1.0
  H  H14  1  0.30252000  0.71936000  0.81788000  1.0
  H  H15  1  0.41140000  0.99937000  0.76888000  1.0
  H  H16  1  0.39353000  0.96261000  0.68399000  1.0
  H  H17  1  0.74820000  0.20306000  0.37958000  1.0
  H  H18  1  0.53336000  0.20133000  0.29741000  1.0
  H  H19  1  0.91771000  0.47204000  0.12969000  1.0
  H  H20  1  0.85868000  0.60047000  0.20184000  1.0
  H  H21  1  0.90886000  0.12450000  0.14042000  1.0
  H  H22  1  0.25432000  0.63727000  0.07727000  1.0
  H  H23  1  0.34945000  0.71384000  0.06472000  1.0
  H  H24  1  0.18513000  0.79270000  0.04957000  1.0
  H  H25  1  0.27720000  0.55927000  0.37492000  1.0
  H  H26  1  0.13943000  0.61179000  0.34109000  1.0
  H  H27  1  0.12584000  0.61157000  0.40569000  1.0
  H  H28  1  0.09706000  0.75216000  0.29335000  1.0
  H  H29  1  0.95716000  0.76921000  0.24750000  1.0
  H  H30  1  0.08618000  0.61305000  0.24721000  1.0
  H  H31  1  0.98517000  0.67512000  0.19714000  1.0
  H  H32  1  0.59839000  0.68218000  0.76150000  1.0
  H  H33  1  0.74594000  0.68371000  0.74712000  1.0
  H  H34  1  0.65792000  0.74462000  0.80273000  1.0
  H  H35  1  0.07546000  0.12315000  0.83808000  1.0
  H  H36  1  0.10928000  0.02495000  0.78794000  1.0
  H  H37  1  0.07168000  0.97867000  0.84720000  1.0
  H  H38  1  0.46870000  0.95259000  0.13305000  1.0
  H  H39  1  0.55491000  0.95206000  0.21055000  1.0
  H  H40  1  0.55189000  0.92464000  0.29888000  1.0
  H  H41  1  0.10335000  0.40493000  0.23231000  1.0
  H  H42  1  0.10526000  0.42617000  0.87684000  1.0
  H  H43  1  0.00142000  0.49630000  0.79868000  1.0
  H  H44  1  0.67157000  0.72456000  0.51758000  1.0
  H  H45  1  0.97621000  0.97740000  0.98659000  1.0
  C  C46  1  0.36795000  0.72211000  0.42853000  1.0
  C  C47  1  0.83853000  0.43443000  0.30428000  1.0
  C  C48  1  0.87634000  0.41552000  0.20156000  1.0
  C  C49  1  0.39502000  0.35935000  0.44723000  1.0
  C  C50  1  0.86085000  0.52277000  0.22431000  1.0
  C  C51  1  0.84274000  0.53270000  0.27317000  1.0
  C  C52  1  0.90312000  0.40223000  0.15181000  1.0
  C  C53  1  0.91479000  0.29719000  0.13057000  1.0
  C  C54  1  0.77976000  0.26213000  0.35822000  1.0
  C  C55  1  0.81266000  0.24380000  0.30908000  1.0
  C  C56  1  0.83649000  0.33406000  0.28108000  1.0
  C  C57  1  0.42586000  0.25142000  0.23400000  1.0
  C  C58  1  0.81953000  0.13958000  0.28562000  1.0
  C  C59  1  0.84911000  0.12535000  0.23704000  1.0
  C  C60  1  0.86858000  0.21731000  0.20778000  1.0
  C  C61  1  0.73059000  0.38236000  0.43157000  1.0
  C  C62  1  0.85992000  0.32238000  0.23042000  1.0
  C  C63  1  0.89743000  0.20582000  0.15817000  1.0
  C  C64  1  0.78710000  0.35537000  0.38136000  1.0
  C  C65  1  0.24893000  0.77522000  0.35189000  1.0
  C  C66  1  0.24903000  0.79385000  0.30120000  1.0
  C  C67  1  0.26240000  0.81186000  0.19804000  1.0
  C  C68  1  0.43926000  0.24654000  0.28322000  1.0
  C  C69  1  0.17832000  0.77267000  0.22458000  1.0
  C  C70  1  0.16743000  0.77199000  0.27403000  1.0
  C  C71  1  0.27236000  0.82180000  0.14658000  1.0
  C  C72  1  0.34087000  0.88114000  0.12389000  1.0
  C  C73  1  0.36725000  0.72391000  0.56530000  1.0
  C  C74  1  0.41567000  0.83225000  0.35441000  1.0
  C  C75  1  0.41475000  0.85613000  0.30398000  1.0
  C  C76  1  0.33488000  0.83022000  0.27685000  1.0
  C  C77  1  0.49263000  0.90271000  0.27839000  1.0
  C  C78  1  0.49430000  0.91755000  0.22944000  1.0
  C  C79  1  0.33082000  0.30223000  0.31462000  1.0
  C  C80  1  0.41828000  0.88858000  0.20134000  1.0
  C  C81  1  0.33720000  0.84413000  0.22541000  1.0
  C  C82  1  0.41605000  0.90856000  0.15141000  1.0
  C  C83  1  0.33985000  0.78263000  0.37889000  1.0
  C  C84  1  0.23602000  0.41538000  0.65318000  1.0
  C  C85  1  0.38123000  0.38804000  0.57701000  1.0
  C  C86  1  0.22316000  0.40503000  0.70400000  1.0
  C  C87  1  0.20458000  0.38859000  0.80683000  1.0
  C  C88  1  0.09387000  0.45303000  0.77934000  1.0
  C  C89  1  0.10267000  0.45987000  0.73020000  1.0
  C  C90  1  0.30441000  0.30928000  0.21468000  1.0
  C  C91  1  0.19713000  0.38115000  0.85727000  1.0
  C  C92  1  0.30673000  0.31148000  0.88300000  1.0
  C  C93  1  0.46497000  0.29462000  0.65581000  1.0
  C  C94  1  0.45713000  0.28013000  0.70602000  1.0
  C  C95  1  0.33528000  0.33822000  0.73060000  1.0
  C  C96  1  0.56765000  0.21075000  0.73337000  1.0
  C  C97  1  0.72233000  0.37817000  0.56848000  1.0
  C  C98  1  0.55863000  0.20048000  0.78246000  1.0
  C  C99  1  0.43784000  0.25954000  0.80840000  1.0
  C  C100  1  0.32588000  0.32897000  0.78183000  1.0
  C  C101  1  0.29259000  0.31281000  0.16459000  1.0
  C  C102  1  0.42583000  0.25001000  0.85882000  1.0
  C  C103  1  0.35695000  0.36361000  0.62912000  1.0
  C  C104  1  0.77005000  0.35005000  0.61591000  1.0
  C  C105  1  0.76888000  0.44887000  0.72990000  1.0
  C  C106  1  0.78359000  0.45106000  0.77870000  1.0
  C  C107  1  0.87587000  0.22305000  0.78511000  1.0
  C  C108  1  0.86422000  0.22128000  0.73568000  1.0
  C  C109  1  0.36387000  0.32178000  0.40504000  1.0
  C  C110  1  0.80959000  0.33450000  0.70795000  1.0
  C  C111  1  0.83827000  0.33751000  0.80689000  1.0
  C  C112  1  0.34693000  0.30841000  0.36385000  1.0
  C  C113  1  0.86086000  0.33524000  0.85571000  1.0
  C  C114  1  0.79161000  0.33769000  0.65844000  1.0
  C  C115  1  0.88936000  0.32438000  0.89741000  1.0
  C  C116  1  0.33467000  0.77484000  0.61243000  1.0
  C  C117  1  0.31189000  0.75205000  0.74106000  1.0
  C  C118  1  0.32292000  0.77171000  0.78836000  1.0
  C  C119  1  0.38418000  0.92989000  0.76082000  1.0
  C  C120  1  0.37366000  0.90988000  0.71349000  1.0
  C  C121  1  0.20908000  0.35877000  0.29598000  1.0
  C  C122  1  0.33713000  0.82088000  0.70286000  1.0
  C  C123  1  0.28740000  0.31142000  0.12117000  1.0
  C  C124  1  0.35854000  0.86135000  0.79901000  1.0
  C  C125  1  0.36101000  0.88632000  0.84749000  1.0
  C  C126  1  0.33147000  0.79780000  0.65445000  1.0
  C  C127  1  0.35331000  0.91113000  0.88956000  1.0
  C  C128  1  0.95723000  0.27518000  0.07896000  1.0
  C  C129  1  0.27375000  0.29141000  0.07251000  1.0
  C  C130  1  0.31500000  0.93945000  0.07483000  1.0
  C  C131  1  0.94940000  0.29281000  0.94244000  1.0
  C  C132  1  0.29050000  0.29321000  0.93586000  1.0
  C  C133  1  0.19694000  0.36126000  0.24687000  1.0
  C  C134  1  0.83119000  0.43182000  0.35526000  1.0
  C  C135  1  0.31760000  0.95975000  0.93714000  1.0
  C  C136  1  0.25379000  0.72761000  0.07520000  1.0
  C  C137  1  0.17620000  0.62631000  0.37355000  1.0
  C  C138  1  0.03023000  0.69715000  0.22467000  1.0
  C  C139  1  0.68426000  0.67319000  0.77637000  1.0
  C  C140  1  0.05278000  0.05759000  0.82180000  1.0
  Cl  Cl141  1  0.86414000  0.99811000  0.20953000  1.0
  Cl  Cl142  1  0.79225000  0.03084000  0.31993000  1.0
  Cl  Cl143  1  0.50947000  0.87028000  0.38572000  1.0
  Cl  Cl144  1  0.10033000  0.48827000  0.62130000  1.0
  Cl  Cl145  1  0.55864000  0.18780000  0.19592000  1.0
  Cl  Cl146  1  0.91711000  0.08085000  0.70925000  1.0
  Cl  Cl147  1  0.88778000  0.50930000  0.38609000  1.0
  Cl  Cl148  1  0.80502000  0.67557000  0.29510000  1.0
  O  O149  1  0.69685000  0.48951000  0.44592000  1.0
  O  O150  1  0.36157000  0.19253000  0.05357000  1.0
  O  O151  1  0.39527000  0.97145000  0.05326000  1.0
  O  O152  1  0.47117000  0.69933000  0.44554000  1.0
  O  O153  1  0.20917000  0.97995000  0.95386000  1.0
  O  O154  1  0.97841000  0.18564000  0.96130000  1.0
  O  O155  1  0.97403000  0.37458000  0.95867000  1.0
  O  O156  1  0.18580000  0.37065000  0.95661000  1.0
  O  O157  1  0.37743000  0.19703000  0.95710000  1.0
  O  O158  1  0.39617000  0.98231000  0.95753000  1.0
  O  O159  1  0.17772000  0.16818000  0.00618000  1.0
  O  O160  1  0.30181000  0.49042000  0.55682000  1.0
  O  O161  1  0.29080000  0.68661000  0.45058000  1.0
  O  O162  1  0.31441000  0.46466000  0.46395000  1.0
  O  O163  1  0.50504000  0.28763000  0.46310000  1.0
  O  O164  1  0.71017000  0.29836000  0.45512000  1.0
  O  O165  1  0.69677000  0.48348000  0.54918000  1.0
  O  O166  1  0.47648000  0.69968000  0.54795000  1.0
  O  O167  1  0.28692000  0.70236000  0.54588000  1.0
  O  O168  1  0.21447000  0.77380000  0.12292000  1.0
  O  O169  1  0.15656000  0.75186000  0.37422000  1.0
  O  O170  1  0.10928000  0.73989000  0.19853000  1.0
  O  O171  1  0.48601000  0.30899000  0.55699000  1.0
  O  O172  1  0.74954000  0.55604000  0.80254000  1.0
  O  O173  1  0.91944000  0.11550000  0.81295000  1.0
  O  O174  1  0.70442000  0.29305000  0.55087000  1.0
  O  O175  1  0.50364000  0.50094000  0.50196000  1.0
  O  O176  1  0.21075000  0.96464000  0.05787000  1.0
  O  O177  1  0.98704000  0.16979000  0.06343000  1.0
  O  O178  1  0.96625000  0.36422000  0.05396000  1.0
  O  O179  1  0.17170000  0.37032000  0.05260000  1.0
  O  O180  1  0.67420000  0.68188000  0.48938000  1.0
  O  O181  1  0.02476000  0.97082000  0.01362000  1.0
