# generated using pymatgen
data_CuH9C8INO2
_symmetry_space_group_name_H-M   'P 1'
_cell_length_a   4.03838000
_cell_length_b   9.03001000
_cell_length_c   27.23290000
_cell_angle_alpha   90.00050000
_cell_angle_beta   90.00060000
_cell_angle_gamma   78.62700000
_symmetry_Int_Tables_number   1
_chemical_formula_structural   CuH9C8INO2
_chemical_formula_sum   'Cu4 H36 C32 I4 N4 O8'
_cell_volume   973.59145362
_cell_formula_units_Z   4
loop_
 _symmetry_equiv_pos_site_id
 _symmetry_equiv_pos_as_xyz
  1  'x, y, z'
loop_
 _atom_site_type_symbol
 _atom_site_label
 _atom_site_symmetry_multiplicity
 _atom_site_fract_x
 _atom_site_fract_y
 _atom_site_fract_z
 _atom_site_occupancy
  Cu  Cu0  1  0.28998000  0.40794000  0.99093000  1.0
  Cu  Cu1  1  0.21002000  0.09206000  0.49093000  1.0
  Cu  Cu2  1  0.71002000  0.59206000  0.00907000  1.0
  Cu  Cu3  1  0.78997000  0.90794000  0.50907000  1.0
  H  H4  1  0.49083000  0.90172000  0.90188000  1.0
  H  H5  1  0.00914000  0.59828000  0.40189000  1.0
  H  H6  1  0.50918000  0.09828000  0.09812000  1.0
  H  H7  1  0.99086000  0.40172000  0.59811000  1.0
  H  H8  1  0.25956000  0.08880000  0.96701000  1.0
  H  H9  1  0.24044000  0.41120000  0.46701000  1.0
  H  H10  1  0.74044000  0.91120000  0.03299000  1.0
  H  H11  1  0.75956000  0.58881000  0.53298000  1.0
  H  H12  1  0.58735000  0.43539000  0.89395000  1.0
  H  H13  1  0.91264000  0.06461000  0.39395000  1.0
  H  H14  1  0.41264000  0.56462000  0.10604000  1.0
  H  H15  1  0.08736000  0.93539000  0.60605000  1.0
  H  H16  1  0.82691000  0.26251000  0.82467000  1.0
  H  H17  1  0.67306000  0.23750000  0.32467000  1.0
  H  H18  1  0.17309000  0.73749000  0.17533000  1.0
  H  H19  1  0.32693000  0.76250000  0.67533000  1.0
  H  H20  1  0.20445000  0.72533000  0.78432000  1.0
  H  H21  1  0.29555000  0.77468000  0.28432000  1.0
  H  H22  1  0.79555000  0.27467000  0.21568000  1.0
  H  H23  1  0.70444000  0.22532000  0.71568000  1.0
  H  H24  1  0.81311000  0.72932000  0.75388000  1.0
  H  H25  1  0.68689000  0.77067000  0.25388000  1.0
  H  H26  1  0.18689000  0.27068000  0.24612000  1.0
  H  H27  1  0.31309000  0.22933000  0.74612000  1.0
  H  H28  1  0.04014000  0.54491000  0.84737000  1.0
  H  H29  1  0.45986000  0.95510000  0.34737000  1.0
  H  H30  1  0.95985000  0.45509000  0.15263000  1.0
  H  H31  1  0.54013000  0.04490000  0.65263000  1.0
  H  H32  1  0.05896000  0.46961000  0.78644000  1.0
  H  H33  1  0.44104000  0.03039000  0.28644000  1.0
  H  H34  1  0.94103000  0.53039000  0.21356000  1.0
  H  H35  1  0.55895000  0.96961000  0.71356000  1.0
  H  H36  1  0.66136000  0.54413000  0.81349000  1.0
  H  H37  1  0.83864000  0.95587000  0.31349000  1.0
  H  H38  1  0.33863000  0.45588000  0.18651000  1.0
  H  H39  1  0.16136000  0.04413000  0.68651000  1.0
  C  C40  1  0.83216000  0.96527000  0.81785000  1.0
  C  C41  1  0.66783000  0.53473000  0.31785000  1.0
  C  C42  1  0.16786000  0.03473000  0.18215000  1.0
  C  C43  1  0.33217000  0.46526000  0.68215000  1.0
  C  C44  1  0.67664000  0.06873000  0.85783000  1.0
  C  C45  1  0.82333000  0.43128000  0.35784000  1.0
  C  C46  1  0.32337000  0.93127000  0.14217000  1.0
  C  C47  1  0.17667000  0.56872000  0.64216000  1.0
  C  C48  1  0.51580000  0.01907000  0.89842000  1.0
  C  C49  1  0.98418000  0.48094000  0.39843000  1.0
  C  C50  1  0.48422000  0.98093000  0.10158000  1.0
  C  C51  1  0.01583000  0.51906000  0.60157000  1.0
  C  C52  1  0.38849000  0.12241000  0.93487000  1.0
  C  C53  1  0.11149000  0.37759000  0.43487000  1.0
  C  C54  1  0.61151000  0.87758000  0.06513000  1.0
  C  C55  1  0.88851000  0.62242000  0.56513000  1.0
  C  C56  1  0.56961000  0.31642000  0.89373000  1.0
  C  C57  1  0.93037000  0.18358000  0.39373000  1.0
  C  C58  1  0.43038000  0.68358000  0.10627000  1.0
  C  C59  1  0.06963000  0.81642000  0.60627000  1.0
  C  C60  1  0.70160000  0.22082000  0.85562000  1.0
  C  C61  1  0.79838000  0.27918000  0.35562000  1.0
  C  C62  1  0.29841000  0.77917000  0.14438000  1.0
  C  C63  1  0.20162000  0.72082000  0.64438000  1.0
  C  C64  1  0.94391000  0.71029000  0.78938000  1.0
  C  C65  1  0.55610000  0.78971000  0.28938000  1.0
  C  C66  1  0.05611000  0.28971000  0.21062000  1.0
  C  C67  1  0.44389000  0.21029000  0.71061000  1.0
  C  C68  1  0.92424000  0.55818000  0.81075000  1.0
  C  C69  1  0.57577000  0.94182000  0.31075000  1.0
  C  C70  1  0.07576000  0.44182000  0.18925000  1.0
  C  C71  1  0.42422000  0.05817000  0.68925000  1.0
  I  I72  1  0.84013000  0.31795000  0.04692000  1.0
  I  I73  1  0.65987000  0.18205000  0.54692000  1.0
  I  I74  1  0.15987000  0.68205000  0.95308000  1.0
  I  I75  1  0.34013000  0.81795000  0.45308000  1.0
  N  N76  1  0.41491000  0.26889000  0.93298000  1.0
  N  N77  1  0.08508000  0.23112000  0.43298000  1.0
  N  N78  1  0.58509000  0.73112000  0.06702000  1.0
  N  N79  1  0.91492000  0.76889000  0.56702000  1.0
  O  O80  1  0.77742000  0.82438000  0.82403000  1.0
  O  O81  1  0.72256000  0.67563000  0.32403000  1.0
  O  O82  1  0.22259000  0.17563000  0.17597000  1.0
  O  O83  1  0.27741000  0.32437000  0.67596000  1.0
  O  O84  1  0.99630000  0.00436000  0.78396000  1.0
  O  O85  1  0.50374000  0.49564000  0.28397000  1.0
  O  O86  1  0.00373000  0.99563000  0.21604000  1.0
  O  O87  1  0.49628000  0.50435000  0.71603000  1.0
