# generated using pymatgen
data_NiH8(C5N4)2
_symmetry_space_group_name_H-M   'P 1'
_cell_length_a   6.91557000
_cell_length_b   9.39734000
_cell_length_c   10.32300000
_cell_angle_alpha   111.26200000
_cell_angle_beta   99.92390000
_cell_angle_gamma   105.53500000
_symmetry_Int_Tables_number   1
_chemical_formula_structural   NiH8(C5N4)2
_chemical_formula_sum   'Ni2 H16 C20 N16'
_cell_volume   574.59929111
_cell_formula_units_Z   2
loop_
 _symmetry_equiv_pos_site_id
 _symmetry_equiv_pos_as_xyz
  1  'x, y, z'
loop_
 _atom_site_type_symbol
 _atom_site_label
 _atom_site_symmetry_multiplicity
 _atom_site_fract_x
 _atom_site_fract_y
 _atom_site_fract_z
 _atom_site_occupancy
  Ni  Ni0  1  0.19747000  0.49106000  0.10674000  1.0
  Ni  Ni1  1  0.80253000  0.50895000  0.89327000  1.0
  H  H2  1  0.82836000  0.16294000  0.93635000  1.0
  H  H3  1  0.17164000  0.83706000  0.06365000  1.0
  H  H4  1  0.66666667  0.92606000  0.99172000  1.0
  H  H5  1  0.33333333  0.07393000  0.00827000  1.0
  H  H6  1  0.77933000  0.96033000  0.25022000  1.0
  H  H7  1  0.22068000  0.03966000  0.74977000  1.0
  H  H8  1  0.03837000  0.22690000  0.44071000  1.0
  H  H9  1  0.96163000  0.77309000  0.55928000  1.0
  H  H10  1  0.22887000  0.47180000  0.59098000  1.0
  H  H11  1  0.77112000  0.52820000  0.40902000  1.0
  H  H12  1  0.49977000  0.74690000  0.74539000  1.0
  H  H13  1  0.50023000  0.25309000  0.25461000  1.0
  H  H14  1  0.64837000  0.92585000  0.62504000  1.0
  H  H15  1  0.35164000  0.07414000  0.37497000  1.0
  H  H16  1  0.51931000  0.81041000  0.35194000  1.0
  H  H17  1  0.48070000  0.18960000  0.64807000  1.0
  C  C18  1  0.86931000  0.17046000  0.04596000  1.0
  C  C19  1  0.13069000  0.82954000  0.95403000  1.0
  C  C20  1  0.77938000  0.04104000  0.07829000  1.0
  C  C21  1  0.22062000  0.95896000  0.92171000  1.0
  C  C22  1  0.84207000  0.06030000  0.22139000  1.0
  C  C23  1  0.15793000  0.93970000  0.77860000  1.0
  C  C24  1  0.98872000  0.20944000  0.32814000  1.0
  C  C25  1  0.01128000  0.79055000  0.67185000  1.0
  C  C26  1  0.07117000  0.33465000  0.28796000  1.0
  C  C27  1  0.92883000  0.66535000  0.71204000  1.0
  C  C28  1  0.22897000  0.49668000  0.39047000  1.0
  C  C29  1  0.77103000  0.50332000  0.60953000  1.0
  C  C30  1  0.29354000  0.55087000  0.54156000  1.0
  C  C31  1  0.70645000  0.44913000  0.45844000  1.0
  C  C32  1  0.44511000  0.70626000  0.62795000  1.0
  C  C33  1  0.55489000  0.29373000  0.37205000  1.0
  C  C34  1  0.52788000  0.80422000  0.56197000  1.0
  C  C35  1  0.47213000  0.19577000  0.43803000  1.0
  C  C36  1  0.45740000  0.74206000  0.41070000  1.0
  C  C37  1  0.54260000  0.25793000  0.58931000  1.0
  N  N38  1  0.01252000  0.31307000  0.14798000  1.0
  N  N39  1  0.98747000  0.68693000  0.85202000  1.0
  N  N40  1  0.31227000  0.59235000  0.32738000  1.0
  N  N41  1  0.68773000  0.40765000  0.67262000  1.0
  N  N42  1  0.02577000  0.38613000  0.88731000  1.0
  N  N43  1  0.97423000  0.61388000  0.11269000  1.0
  N  N44  1  0.05948000  0.31089000  0.77685000  1.0
  N  N45  1  0.94052000  0.68912000  0.22316000  1.0
  N  N46  1  0.08569000  0.23543000  0.66729000  1.0
  N  N47  1  0.91430000  0.76457000  0.33270000  1.0
  N  N48  1  0.41063000  0.67880000  0.09230000  1.0
  N  N49  1  0.58937000  0.32122000  0.90771000  1.0
  N  N50  1  0.50618000  0.65607000  0.00637000  1.0
  N  N51  1  0.49383000  0.34394000  0.99363000  1.0
  N  N52  1  0.39748000  0.35793000  0.07945000  1.0
  N  N53  1  0.60251000  0.64207000  0.92055000  1.0
