# generated using pymatgen
data_Cd2H17C29N2O9
_symmetry_space_group_name_H-M   'P 1'
_cell_length_a   8.34559000
_cell_length_b   11.04630000
_cell_length_c   14.17050000
_cell_angle_alpha   70.47770000
_cell_angle_beta   87.29240000
_cell_angle_gamma   84.71010000
_symmetry_Int_Tables_number   1
_chemical_formula_structural   Cd2H17C29N2O9
_chemical_formula_sum   'Cd4 H34 C58 N4 O18'
_cell_volume   1225.81667476
_cell_formula_units_Z   2
loop_
 _symmetry_equiv_pos_site_id
 _symmetry_equiv_pos_as_xyz
  1  'x, y, z'
loop_
 _atom_site_type_symbol
 _atom_site_label
 _atom_site_symmetry_multiplicity
 _atom_site_fract_x
 _atom_site_fract_y
 _atom_site_fract_z
 _atom_site_occupancy
  Cd  Cd0  1  0.45490000  0.18048000  0.51047000  1.0
  Cd  Cd1  1  0.54510000  0.81953000  0.48953000  1.0
  Cd  Cd2  1  0.94759000  0.33765000  0.49329000  1.0
  Cd  Cd3  1  0.05241000  0.66235000  0.50671000  1.0
  H  H4  1  0.87823000  0.75554000  0.20730000  1.0
  H  H5  1  0.12177000  0.24446000  0.79270000  1.0
  H  H6  1  0.87713000  0.71415000  0.04508000  1.0
  H  H7  1  0.12287000  0.28584000  0.95492000  1.0
  H  H8  1  0.62991000  0.37285000  0.18856000  1.0
  H  H9  1  0.37009000  0.62715000  0.81144000  1.0
  H  H10  1  0.88488000  0.56620000  0.82287000  1.0
  H  H11  1  0.11512000  0.43380000  0.17713000  1.0
  H  H12  1  0.44803000  0.89530000  0.83569000  1.0
  H  H13  1  0.55197000  0.10471000  0.16431000  1.0
  H  H14  1  0.52910000  0.72082000  0.99147000  1.0
  H  H15  1  0.47090000  0.27918000  0.00853000  1.0
  H  H16  1  0.73490000  0.44141000  0.61973000  1.0
  H  H17  1  0.26510000  0.55859000  0.38027000  1.0
  H  H18  1  0.75564000  0.43537000  0.74482000  1.0
  H  H19  1  0.24436000  0.56463000  0.25518000  1.0
  H  H20  1  0.59103000  0.36743000  0.71205000  1.0
  H  H21  1  0.40897000  0.63257000  0.28795000  1.0
  H  H22  1  0.11681000  0.03683000  0.58856000  1.0
  H  H23  1  0.88319000  0.96317000  0.41144000  1.0
  H  H24  1  0.19892000  0.82139000  0.71021000  1.0
  H  H25  1  0.80108000  0.17861000  0.28979000  1.0
  H  H26  1  0.10066000  0.75593000  0.88604000  1.0
  H  H27  1  0.89934000  0.24407000  0.11396000  1.0
  H  H28  1  0.91069000  0.90600000  0.94608000  1.0
  H  H29  1  0.08931000  0.09400000  0.05392000  1.0
  H  H30  1  0.70646000  0.27093000  0.89118000  1.0
  H  H31  1  0.29354000  0.72907000  0.10882000  1.0
  H  H32  1  0.85161000  0.15057000  0.95672000  1.0
  H  H33  1  0.14839000  0.84943000  0.04328000  1.0
  H  H34  1  0.45558000  0.16217000  0.83065000  1.0
  H  H35  1  0.54442000  0.83783000  0.16935000  1.0
  H  H36  1  0.75871000  0.97902000  0.08537000  1.0
  H  H37  1  0.24129000  0.02098000  0.91463000  1.0
  C  C38  1  0.61130000  0.38359000  0.37318000  1.0
  C  C39  1  0.38870000  0.61641000  0.62682000  1.0
  C  C40  1  0.69149000  0.47624000  0.28482000  1.0
  C  C41  1  0.30851000  0.52376000  0.71518000  1.0
  C  C42  1  0.76145000  0.58482000  0.29006000  1.0
  C  C43  1  0.23854000  0.41518000  0.70994000  1.0
  C  C44  1  0.75566000  0.62288000  0.38315000  1.0
  C  C45  1  0.24434000  0.37712000  0.61684000  1.0
  C  C46  1  0.82822000  0.66973000  0.20320000  1.0
  C  C47  1  0.17178000  0.33027000  0.79680000  1.0
  C  C48  1  0.82532000  0.64786000  0.11235000  1.0
  C  C49  1  0.17468000  0.35214000  0.88765000  1.0
  C  C50  1  0.75508000  0.54001000  0.10635000  1.0
  C  C51  1  0.24492000  0.45999000  0.89365000  1.0
  C  C52  1  0.68851000  0.45502000  0.19285000  1.0
  C  C53  1  0.31149000  0.54498000  0.80715000  1.0
  C  C54  1  0.75241000  0.51756000  0.00825000  1.0
  C  C55  1  0.24759000  0.48244000  0.99175000  1.0
  C  C56  1  0.71322000  0.63093000  0.91789000  1.0
  C  C57  1  0.28678000  0.36907000  0.08211000  1.0
  C  C58  1  0.78993000  0.63910000  0.82650000  1.0
  C  C59  1  0.21007000  0.36090000  0.17350000  1.0
  C  C60  1  0.74977000  0.74082000  0.73882000  1.0
  C  C61  1  0.25023000  0.25918000  0.26118000  1.0
  C  C62  1  0.62555000  0.83469000  0.74233000  1.0
  C  C63  1  0.37445000  0.16531000  0.25767000  1.0
  C  C64  1  0.54653000  0.82453000  0.83380000  1.0
  C  C65  1  0.45347000  0.17547000  0.16620000  1.0
  C  C66  1  0.59168000  0.72608000  0.92125000  1.0
  C  C67  1  0.40832000  0.27392000  0.07875000  1.0
  C  C68  1  0.83768000  0.74056000  0.64443000  1.0
  C  C69  1  0.16232000  0.25944000  0.35557000  1.0
  C  C70  1  0.56374000  0.94770000  0.65484000  1.0
  C  C71  1  0.43626000  0.05230000  0.34516000  1.0
  C  C72  1  0.71971000  0.38120000  0.69797000  1.0
  C  C73  1  0.28029000  0.61880000  0.30203000  1.0
  C  C74  1  0.81431000  0.25562000  0.71829000  1.0
  C  C75  1  0.18569000  0.74438000  0.28171000  1.0
  C  C76  1  0.97078000  0.09304000  0.70034000  1.0
  C  C77  1  0.02922000  0.90696000  0.29966000  1.0
  C  C78  1  0.07344000  0.00896000  0.66595000  1.0
  C  C79  1  0.92656000  0.99103000  0.33405000  1.0
  C  C80  1  0.11822000  0.88845000  0.73493000  1.0
  C  C81  1  0.88178000  0.11155000  0.26507000  1.0
  C  C82  1  0.06195000  0.85132000  0.83493000  1.0
  C  C83  1  0.93805000  0.14868000  0.16507000  1.0
  C  C84  1  0.95837000  0.93440000  0.86962000  1.0
  C  C85  1  0.04163000  0.06560000  0.13038000  1.0
  C  C86  1  0.91469000  0.05540000  0.80080000  1.0
  C  C87  1  0.08531000  0.94460000  0.19920000  1.0
  C  C88  1  0.75153000  0.17020000  0.90464000  1.0
  C  C89  1  0.24847000  0.82980000  0.09535000  1.0
  C  C90  1  0.62227000  0.08034000  0.95238000  1.0
  C  C91  1  0.37773000  0.91965000  0.04762000  1.0
  C  C92  1  0.47542000  0.09198000  0.90527000  1.0
  C  C93  1  0.52458000  0.90802000  0.09473000  1.0
  C  C94  1  0.64543000  0.98746000  0.04723000  1.0
  C  C95  1  0.35457000  0.01254000  0.95277000  1.0
  N  N96  1  0.90648000  0.21833000  0.65161000  1.0
  N  N97  1  0.09352000  0.78167000  0.34839000  1.0
  N  N98  1  0.81703000  0.16002000  0.80982000  1.0
  N  N99  1  0.18297000  0.83998000  0.19019000  1.0
  O  O100  1  0.68651000  0.32678000  0.45527000  1.0
  O  O101  1  0.31349000  0.67322000  0.54473000  1.0
  O  O102  1  0.46919000  0.36067000  0.36274000  1.0
  O  O103  1  0.53081000  0.63933000  0.63727000  1.0
  O  O104  1  0.84731000  0.55836000  0.45652000  1.0
  O  O105  1  0.15268000  0.44164000  0.54348000  1.0
  O  O106  1  0.66316000  0.72117000  0.37890000  1.0
  O  O107  1  0.33684000  0.27883000  0.62110000  1.0
  O  O108  1  0.78044000  0.40848000  0.00172000  1.0
  O  O109  1  0.21956000  0.59152000  0.99828000  1.0
  O  O110  1  0.95628000  0.65508000  0.65465000  1.0
  O  O111  1  0.04372000  0.34492000  0.34535000  1.0
  O  O112  1  0.79520000  0.82001000  0.55951000  1.0
  O  O113  1  0.20480000  0.17999000  0.44049000  1.0
  O  O114  1  0.45290000  0.93185000  0.60172000  1.0
  O  O115  1  0.54710000  0.06815000  0.39828000  1.0
  O  O116  1  0.61246000  0.05707000  0.64354000  1.0
  O  O117  1  0.38754000  0.94293000  0.35646000  1.0
