# generated using pymatgen
data_RbH4C12N7O12
_symmetry_space_group_name_H-M   'P 1'
_cell_length_a   11.03340000
_cell_length_b   12.31100000
_cell_length_c   13.27830000
_cell_angle_alpha   90.00000000
_cell_angle_beta   90.00000000
_cell_angle_gamma   94.04570000
_symmetry_Int_Tables_number   1
_chemical_formula_structural   RbH4C12N7O12
_chemical_formula_sum   'Rb4 H16 C48 N28 O48'
_cell_volume   1799.12608131
_cell_formula_units_Z   4
loop_
 _symmetry_equiv_pos_site_id
 _symmetry_equiv_pos_as_xyz
  1  'x, y, z'
loop_
 _atom_site_type_symbol
 _atom_site_label
 _atom_site_symmetry_multiplicity
 _atom_site_fract_x
 _atom_site_fract_y
 _atom_site_fract_z
 _atom_site_occupancy
  Rb  Rb0  1  0.15205000  0.89688000  0.98620000  1.0
  Rb  Rb1  1  0.34794000  0.60312000  0.48620000  1.0
  Rb  Rb2  1  0.84795000  0.10312000  0.01380000  1.0
  Rb  Rb3  1  0.65205000  0.39688000  0.51380000  1.0
  H  H4  1  0.36379000  0.58089000  0.77894000  1.0
  H  H5  1  0.13621000  0.91911000  0.27894000  1.0
  H  H6  1  0.63621000  0.41911000  0.22106000  1.0
  H  H7  1  0.86378000  0.08089000  0.72106000  1.0
  H  H8  1  0.52345000  0.88130000  0.79773000  1.0
  H  H9  1  0.97655000  0.61870000  0.29773000  1.0
  H  H10  1  0.47655000  0.11870000  0.20226000  1.0
  H  H11  1  0.02345000  0.38130000  0.70227000  1.0
  H  H12  1  0.10821000  0.41913000  0.98558000  1.0
  H  H13  1  0.39179000  0.08087000  0.48558000  1.0
  H  H14  1  0.89179000  0.58087000  0.01442000  1.0
  H  H15  1  0.60821000  0.91913000  0.51442000  1.0
  H  H16  1  0.19886000  0.94501000  0.63350000  1.0
  H  H17  1  0.30114000  0.55499000  0.13350000  1.0
  H  H18  1  0.80114000  0.05499000  0.36650000  1.0
  H  H19  1  0.69886000  0.44501000  0.86650000  1.0
  C  C20  1  0.37198000  0.12033000  0.78949000  1.0
  C  C21  1  0.12802000  0.37967000  0.28949000  1.0
  C  C22  1  0.62802000  0.87967000  0.21051000  1.0
  C  C23  1  0.87198000  0.62033000  0.71051000  1.0
  C  C24  1  0.18437000  0.41659000  0.93372000  1.0
  C  C25  1  0.31563000  0.08341000  0.43372000  1.0
  C  C26  1  0.81563000  0.58341000  0.06628000  1.0
  C  C27  1  0.68437000  0.91659000  0.56628000  1.0
  C  C28  1  0.45568000  0.93683000  0.77518000  1.0
  C  C29  1  0.04432000  0.56317000  0.27518000  1.0
  C  C30  1  0.54431000  0.06317000  0.22482000  1.0
  C  C31  1  0.95569000  0.43683000  0.72483000  1.0
  C  C32  1  0.23071000  0.31766000  0.91187000  1.0
  C  C33  1  0.26929000  0.18234000  0.41187000  1.0
  C  C34  1  0.76929000  0.68234000  0.08813000  1.0
  C  C35  1  0.73071000  0.81765000  0.58813000  1.0
  C  C36  1  0.45868000  0.04047000  0.81490000  1.0
  C  C37  1  0.04133000  0.45953000  0.31490000  1.0
  C  C38  1  0.54133000  0.95953000  0.18510000  1.0
  C  C39  1  0.95868000  0.54047000  0.68510000  1.0
  C  C40  1  0.27260000  0.97316000  0.68338000  1.0
  C  C41  1  0.22740000  0.52684000  0.18338000  1.0
  C  C42  1  0.72740000  0.02684000  0.31662000  1.0
  C  C43  1  0.77260000  0.47316000  0.81662000  1.0
  C  C44  1  0.27824000  0.07886000  0.71875000  1.0
  C  C45  1  0.22176000  0.42114000  0.21875000  1.0
  C  C46  1  0.72176000  0.92114000  0.28125000  1.0
  C  C47  1  0.77824000  0.57886000  0.78125000  1.0
  C  C48  1  0.33095000  0.30693000  0.84261000  1.0
  C  C49  1  0.16905000  0.19307000  0.34261000  1.0
  C  C50  1  0.66905000  0.69307000  0.15739000  1.0
  C  C51  1  0.83095000  0.80693000  0.65739000  1.0
  C  C52  1  0.36085000  0.90301000  0.71024000  1.0
  C  C53  1  0.13915000  0.59699000  0.21024000  1.0
  C  C54  1  0.63915000  0.09699000  0.28976000  1.0
  C  C55  1  0.86085000  0.40301000  0.78976000  1.0
  C  C56  1  0.23348000  0.51110000  0.88713000  1.0
  C  C57  1  0.26652000  0.98890000  0.38713000  1.0
  C  C58  1  0.76652000  0.48890000  0.11287000  1.0
  C  C59  1  0.73348000  0.01110000  0.61287000  1.0
  C  C60  1  0.32731000  0.50753000  0.81711000  1.0
  C  C61  1  0.17269000  0.99247000  0.31711000  1.0
  C  C62  1  0.67269000  0.49247000  0.18289000  1.0
  C  C63  1  0.82731000  0.00753000  0.68289000  1.0
  C  C64  1  0.37436000  0.40920000  0.79684000  1.0
  C  C65  1  0.12563000  0.09080000  0.29684000  1.0
  C  C66  1  0.62563000  0.59080000  0.20316000  1.0
  C  C67  1  0.87437000  0.90920000  0.70316000  1.0
  N  N68  1  0.46850000  0.41116000  0.72085000  1.0
  N  N69  1  0.03150000  0.08884000  0.22085000  1.0
  N  N70  1  0.53150000  0.58884000  0.27915000  1.0
  N  N71  1  0.96850000  0.91116000  0.77915000  1.0
  N  N72  1  0.38501000  0.21779000  0.82608000  1.0
  N  N73  1  0.11499000  0.28221000  0.32608000  1.0
  N  N74  1  0.61499000  0.78221000  0.17392000  1.0
  N  N75  1  0.88501000  0.71779000  0.67392000  1.0
  N  N76  1  0.55251000  0.06570000  0.88999000  1.0
  N  N77  1  0.94749000  0.43430000  0.38998000  1.0
  N  N78  1  0.44749000  0.93430000  0.11001000  1.0
  N  N79  1  0.05251000  0.56570000  0.61002000  1.0
  N  N80  1  0.18630000  0.61441000  0.91073000  1.0
  N  N81  1  0.31370000  0.88559000  0.41073000  1.0
  N  N82  1  0.81370000  0.38559000  0.08927000  1.0
  N  N83  1  0.68630000  0.11441000  0.58927000  1.0
  N  N84  1  0.18388000  0.14516000  0.68072000  1.0
  N  N85  1  0.31612000  0.35484000  0.18072000  1.0
  N  N86  1  0.81612000  0.85484000  0.31928000  1.0
  N  N87  1  0.68388000  0.64516000  0.81928000  1.0
  N  N88  1  0.17094000  0.22307000  0.96048000  1.0
  N  N89  1  0.32906000  0.27693000  0.46048000  1.0
  N  N90  1  0.82905000  0.77693000  0.03952000  1.0
  N  N91  1  0.67094000  0.72307000  0.53952000  1.0
  N  N92  1  0.35223000  0.79444000  0.67071000  1.0
  N  N93  1  0.14777000  0.70556000  0.17071000  1.0
  N  N94  1  0.64777000  0.20556000  0.32929000  1.0
  N  N95  1  0.85223000  0.29444000  0.82929000  1.0
  O  O96  1  0.25684000  0.76207000  0.62605000  1.0
  O  O97  1  0.24316000  0.73793000  0.12605000  1.0
  O  O98  1  0.74316000  0.23793000  0.37395000  1.0
  O  O99  1  0.75684000  0.26207000  0.87395000  1.0
  O  O100  1  0.10623000  0.23775000  0.03532000  1.0
  O  O101  1  0.39377000  0.26225000  0.53532000  1.0
  O  O102  1  0.89377000  0.76225000  0.96468000  1.0
  O  O103  1  0.60623000  0.73775000  0.46468000  1.0
  O  O104  1  0.19754000  0.24594000  0.68935000  1.0
  O  O105  1  0.30246000  0.25406000  0.18935000  1.0
  O  O106  1  0.80246000  0.75406000  0.31065000  1.0
  O  O107  1  0.69754000  0.74594000  0.81065000  1.0
  O  O108  1  0.09447000  0.09759000  0.63825000  1.0
  O  O109  1  0.40553000  0.40241000  0.13825000  1.0
  O  O110  1  0.90553000  0.90241000  0.36175000  1.0
  O  O111  1  0.59447000  0.59759000  0.86175000  1.0
  O  O112  1  0.46852000  0.48385000  0.65518000  1.0
  O  O113  1  0.03148000  0.01615000  0.15518000  1.0
  O  O114  1  0.53148000  0.51615000  0.34482000  1.0
  O  O115  1  0.96852000  0.98385000  0.84482000  1.0
  O  O116  1  0.44081000  0.73739000  0.68143000  1.0
  O  O117  1  0.05919000  0.76261000  0.18143000  1.0
  O  O118  1  0.55919000  0.26261000  0.31857000  1.0
  O  O119  1  0.94081000  0.23739000  0.81857000  1.0
  O  O120  1  0.09571000  0.61473000  0.96708000  1.0
  O  O121  1  0.40429000  0.88527000  0.46708000  1.0
  O  O122  1  0.90429000  0.38527000  0.03292000  1.0
  O  O123  1  0.59571000  0.11473000  0.53292000  1.0
  O  O124  1  0.54569000  0.34257000  0.72429000  1.0
  O  O125  1  0.95431000  0.15743000  0.22429000  1.0
  O  O126  1  0.45431000  0.65743000  0.27571000  1.0
  O  O127  1  0.04569000  0.84257000  0.77571000  1.0
  O  O128  1  0.53205000  0.12961000  0.95918000  1.0
  O  O129  1  0.96795000  0.37039000  0.45918000  1.0
  O  O130  1  0.46795000  0.87039000  0.04082000  1.0
  O  O131  1  0.03205000  0.62961000  0.54083000  1.0
  O  O132  1  0.23897000  0.69863000  0.87481000  1.0
  O  O133  1  0.26103000  0.80137000  0.37481000  1.0
  O  O134  1  0.76103000  0.30137000  0.12519000  1.0
  O  O135  1  0.73897000  0.19863000  0.62519000  1.0
  O  O136  1  0.64844000  0.01809000  0.88195000  1.0
  O  O137  1  0.85156000  0.48191000  0.38195000  1.0
  O  O138  1  0.35156000  0.98190000  0.11805000  1.0
  O  O139  1  0.14844000  0.51809000  0.61805000  1.0
  O  O140  1  0.18476000  0.13139000  0.92415000  1.0
  O  O141  1  0.31524000  0.36861000  0.42415000  1.0
  O  O142  1  0.81524000  0.86861000  0.07585000  1.0
  O  O143  1  0.68476000  0.63139000  0.57585000  1.0
