# generated using pymatgen
data_ZnH22C39NO4
_symmetry_space_group_name_H-M   'P 1'
_cell_length_a   15.32340000
_cell_length_b   15.37200000
_cell_length_c   23.60521255
_cell_angle_alpha   71.02525072
_cell_angle_beta   86.58160458
_cell_angle_gamma   89.99650000
_symmetry_Int_Tables_number   1
_chemical_formula_structural   ZnH22C39NO4
_chemical_formula_sum   'Zn4 H88 C156 N4 O16'
_cell_volume   5247.65043861
_cell_formula_units_Z   4
loop_
 _symmetry_equiv_pos_site_id
 _symmetry_equiv_pos_as_xyz
  1  'x, y, z'
loop_
 _atom_site_type_symbol
 _atom_site_label
 _atom_site_symmetry_multiplicity
 _atom_site_fract_x
 _atom_site_fract_y
 _atom_site_fract_z
 _atom_site_occupancy
  Zn  Zn0  1  0.00415000  0.03244000  0.43621000  1.0
  Zn  Zn1  1  0.49580000  0.46862000  0.56386000  1.0
  Zn  Zn2  1  0.99585000  0.96756000  0.56378000  1.0
  Zn  Zn3  1  0.50419000  0.53138000  0.43613000  1.0
  H  H4  1  0.54780000  0.32505000  0.41040000  1.0
  H  H5  1  0.00161000  0.38209000  0.50706000  1.0
  H  H6  1  0.72989000  0.45191000  0.51476000  1.0
  H  H7  1  0.53562000  0.21202000  0.60655000  1.0
  H  H8  1  0.88611000  0.49400000  0.51353000  1.0
  H  H9  1  0.76309000  0.98768000  0.59297000  1.0
  H  H10  1  0.64260000  0.94085000  0.67249000  1.0
  H  H11  1  0.52880000  0.05363000  0.67952000  1.0
  H  H12  1  0.78126000  0.10683000  0.39684000  1.0
  H  H13  1  0.14550000  0.15548000  0.36595000  1.0
  H  H14  1  0.95935000  0.22943000  0.50197000  1.0
  H  H15  1  0.67195000  0.15186000  0.31958000  1.0
  H  H16  1  0.21379000  0.20407000  0.26082000  1.0
  H  H17  1  0.55449000  0.26123000  0.32678000  1.0
  H  H18  1  0.99677000  0.06741000  0.21302000  1.0
  H  H19  1  0.93941000  0.02220000  0.32075000  1.0
  H  H20  1  0.18937000  0.02433000  0.10636000  1.0
  H  H21  1  0.32516000  0.26349000  0.13826000  1.0
  H  H22  1  0.46775000  0.35067000  0.11086000  1.0
  H  H23  1  0.52764000  0.40525000  0.00471000  1.0
  H  H24  1  0.21970000  0.91043000  0.05279000  1.0
  H  H25  1  0.05405000  0.29679000  0.07498000  1.0
  H  H26  1  0.95215000  0.73527000  0.58972000  1.0
  H  H27  1  0.49844000  0.88938000  0.49294000  1.0
  H  H28  1  0.77026000  0.96652000  0.48535000  1.0
  H  H29  1  0.96444000  0.81807000  0.39346000  1.0
  H  H30  1  0.61407000  0.00760000  0.48659000  1.0
  H  H31  1  0.73661000  0.58039000  0.40715000  1.0
  H  H32  1  0.85708000  0.61279000  0.32763000  1.0
  H  H33  1  0.97105000  0.73241000  0.32053000  1.0
  H  H34  1  0.71860000  0.50370000  0.60312000  1.0
  H  H35  1  0.35461000  0.52108000  0.63431000  1.0
  H  H36  1  0.54060000  0.73166000  0.49791000  1.0
  H  H37  1  0.82803000  0.47134000  0.68031000  1.0
  H  H38  1  0.28628000  0.46441000  0.73938000  1.0
  H  H39  1  0.94541000  0.58788000  0.67324000  1.0
  H  H40  1  0.50320000  0.27985000  0.78704000  1.0
  H  H41  1  0.56056000  0.34239000  0.67932000  1.0
  H  H42  1  0.31038000  0.13096000  0.89347000  1.0
  H  H43  1  0.17466000  0.40142000  0.86200000  1.0
  H  H44  1  0.03196000  0.46108000  0.88943000  1.0
  H  H45  1  0.97221000  0.40957000  0.99561000  1.0
  H  H46  1  0.27994000  0.96351000  0.94676000  1.0
  H  H47  1  0.44595000  0.37167000  0.92529000  1.0
  H  H48  1  0.45222000  0.67494000  0.58960000  1.0
  H  H49  1  0.99838000  0.61791000  0.49294000  1.0
  H  H50  1  0.27011000  0.54810000  0.48523000  1.0
  H  H51  1  0.46436000  0.78799000  0.39345000  1.0
  H  H52  1  0.11388000  0.50600000  0.48646000  1.0
  H  H53  1  0.23689000  0.01232000  0.40703000  1.0
  H  H54  1  0.35737000  0.05915000  0.32751000  1.0
  H  H55  1  0.47118000  0.94637000  0.32048000  1.0
  H  H56  1  0.21875000  0.89316000  0.60317000  1.0
  H  H57  1  0.85449000  0.84451000  0.63406000  1.0
  H  H58  1  0.04066000  0.77057000  0.49804000  1.0
  H  H59  1  0.32807000  0.84813000  0.68042000  1.0
  H  H60  1  0.78620000  0.79594000  0.73920000  1.0
  H  H61  1  0.44552000  0.73875000  0.67322000  1.0
  H  H62  1  0.00322000  0.93261000  0.78699000  1.0
  H  H63  1  0.06059000  0.97780000  0.67925000  1.0
  H  H64  1  0.81063000  0.97568000  0.89363000  1.0
  H  H65  1  0.67484000  0.73652000  0.86173000  1.0
  H  H66  1  0.53225000  0.64933000  0.88914000  1.0
  H  H67  1  0.47236000  0.59474000  0.99529000  1.0
  H  H68  1  0.78028000  0.08958000  0.94720000  1.0
  H  H69  1  0.94595000  0.70322000  0.92502000  1.0
  H  H70  1  0.04785000  0.26470000  0.41029000  1.0
  H  H71  1  0.50156000  0.11062000  0.50705000  1.0
  H  H72  1  0.22974000  0.03347000  0.51466000  1.0
  H  H73  1  0.03557000  0.18195000  0.60655000  1.0
  H  H74  1  0.38593000  0.99241000  0.51340000  1.0
  H  H75  1  0.26340000  0.41962000  0.59285000  1.0
  H  H76  1  0.14294000  0.38723000  0.67236000  1.0
  H  H77  1  0.02895000  0.26762000  0.67947000  1.0
  H  H78  1  0.28140000  0.49627000  0.39689000  1.0
  H  H79  1  0.64539000  0.47892000  0.36569000  1.0
  H  H80  1  0.45941000  0.26835000  0.50208000  1.0
  H  H81  1  0.17196000  0.52863000  0.31969000  1.0
  H  H82  1  0.71372000  0.53559000  0.26062000  1.0
  H  H83  1  0.05459000  0.41208000  0.32677000  1.0
  H  H84  1  0.49680000  0.72015000  0.21295000  1.0
  H  H85  1  0.43944000  0.65761000  0.32067000  1.0
  H  H86  1  0.68961000  0.86905000  0.10652000  1.0
  H  H87  1  0.82535000  0.59858000  0.13800000  1.0
  H  H88  1  0.96804000  0.53892000  0.11057000  1.0
  H  H89  1  0.02779000  0.59043000  0.00439000  1.0
  H  H90  1  0.72005000  0.03650000  0.05323000  1.0
  H  H91  1  0.55405000  0.62834000  0.07470000  1.0
  C  C92  1  0.65371000  0.18965000  0.55930000  1.0
  C  C93  1  0.75666000  0.31771000  0.50806000  1.0
  C  C94  1  0.66304000  0.28193000  0.50773000  1.0
  C  C95  1  0.78492000  0.16382000  0.50108000  1.0
  C  C96  1  0.82119000  0.25501000  0.50466000  1.0
  C  C97  1  0.72694000  0.19066000  0.44706000  1.0
  C  C98  1  0.66127000  0.25336000  0.45075000  1.0
  C  C99  1  0.59960000  0.27825000  0.40735000  1.0
  C  C100  1  0.71842000  0.12626000  0.55554000  1.0
  C  C101  1  0.93268000  0.36447000  0.50731000  1.0
  C  C102  1  0.78000000  0.40336000  0.51141000  1.0
  C  C103  1  0.58601000  0.16341000  0.60405000  1.0
  C  C104  1  0.86832000  0.42685000  0.51090000  1.0
  C  C105  1  0.71401000  0.03704000  0.59630000  1.0
  C  C106  1  0.64605000  0.01106000  0.64111000  1.0
  C  C107  1  0.86321000  0.10258000  0.49896000  1.0
  C  C108  1  0.60101000  0.35805000  0.51147000  1.0
  C  C109  1  0.58249000  0.07403000  0.64508000  1.0
  C  C110  1  0.73063000  0.15494000  0.39968000  1.0
  C  C111  1  0.11562000  0.13749000  0.33035000  1.0
  C  C112  1  0.90903000  0.27821000  0.50440000  1.0
  C  C113  1  0.66900000  0.18090000  0.35611000  1.0
  C  C114  1  0.15267000  0.16441000  0.27211000  1.0
  C  C115  1  0.60364000  0.24198000  0.36004000  1.0
  C  C116  1  0.03172000  0.08806000  0.24556000  1.0
  C  C117  1  0.99937000  0.06343000  0.30495000  1.0
  C  C118  1  0.14773000  0.16477000  0.16839000  1.0
  C  C119  1  0.18099000  0.18840000  0.11751000  1.0
  C  C120  1  0.21777000  0.21869000  0.05620000  1.0
  C  C121  1  0.30697000  0.26940000  0.04738000  1.0
  C  C122  1  0.15891000  0.28713000  0.01262000  1.0
  C  C123  1  0.11079000  0.13915000  0.22816000  1.0
  C  C124  1  0.21573000  0.04696000  0.05984000  1.0
  C  C125  1  0.35215000  0.28730000  0.09187000  1.0
  C  C126  1  0.43199000  0.33627000  0.07623000  1.0
  C  C127  1  0.46575000  0.36671000  0.01669000  1.0
  C  C128  1  0.23290000  0.98347000  0.02958000  1.0
  C  C129  1  0.07976000  0.32006000  0.02829000  1.0
  C  C130  1  0.23282000  0.13996000  0.02985000  1.0
  C  C131  1  0.84629000  0.74867000  0.44073000  1.0
  C  C132  1  0.74337000  0.82572000  0.49195000  1.0
  C  C133  1  0.83697000  0.78950000  0.49228000  1.0
  C  C134  1  0.71497000  0.66489000  0.49896000  1.0
  C  C135  1  0.67876000  0.75971000  0.49532000  1.0
  C  C136  1  0.77295000  0.63771000  0.55299000  1.0
  C  C137  1  0.83869000  0.70401000  0.54928000  1.0
  C  C138  1  0.90033000  0.68549000  0.59271000  1.0
  C  C139  1  0.78150000  0.68159000  0.44454000  1.0
  C  C140  1  0.56737000  0.87194000  0.49270000  1.0
  C  C141  1  0.72009000  0.91471000  0.48868000  1.0
  C  C142  1  0.91397000  0.76703000  0.39596000  1.0
  C  C143  1  0.63181000  0.93780000  0.48919000  1.0
  C  C144  1  0.78578000  0.63301000  0.40382000  1.0
  C  C145  1  0.85369000  0.65172000  0.35898000  1.0
  C  C146  1  0.63665000  0.60161000  0.50107000  1.0
  C  C147  1  0.89908000  0.86932000  0.48853000  1.0
  C  C148  1  0.91736000  0.71855000  0.35496000  1.0
  C  C149  1  0.76923000  0.55461000  0.60032000  1.0
  C  C150  1  0.38446000  0.46738000  0.66985000  1.0
  C  C151  1  0.59094000  0.78278000  0.49556000  1.0
  C  C152  1  0.83090000  0.53694000  0.64385000  1.0
  C  C153  1  0.34735000  0.43598000  0.72806000  1.0
  C  C154  1  0.89626000  0.60193000  0.63998000  1.0
  C  C155  1  0.46824000  0.33305000  0.75454000  1.0
  C  C156  1  0.50059000  0.36781000  0.69515000  1.0
  C  C157  1  0.35222000  0.33287000  0.83175000  1.0
  C  C158  1  0.31897000  0.30584000  0.88263000  1.0
  C  C159  1  0.28224000  0.27488000  0.94396000  1.0
  C  C160  1  0.19304000  0.31671000  0.95287000  1.0
  C  C161  1  0.34115000  0.29954000  0.98764000  1.0
  C  C162  1  0.38920000  0.36678000  0.77198000  1.0
  C  C163  1  0.28399000  0.10699000  0.93999000  1.0
  C  C164  1  0.14772000  0.37893000  0.90840000  1.0
  C  C165  1  0.06781000  0.41214000  0.92404000  1.0
  C  C166  1  0.03414000  0.38311000  0.98360000  1.0
  C  C167  1  0.26671000  0.01325000  0.97007000  1.0
  C  C168  1  0.42026000  0.34820000  0.97199000  1.0
  C  C169  1  0.26709000  0.16985000  0.97015000  1.0
  C  C170  1  0.34628000  0.81035000  0.44070000  1.0
  C  C171  1  0.24334000  0.68229000  0.49194000  1.0
  C  C172  1  0.33696000  0.71807000  0.49227000  1.0
  C  C173  1  0.21508000  0.83617000  0.49893000  1.0
  C  C174  1  0.17881000  0.74499000  0.49535000  1.0
  C  C175  1  0.27308000  0.80932000  0.55295000  1.0
  C  C176  1  0.33874000  0.74663000  0.54925000  1.0
  C  C177  1  0.40041000  0.72173000  0.59265000  1.0
  C  C178  1  0.28158000  0.87374000  0.44447000  1.0
  C  C179  1  0.06732000  0.63553000  0.49269000  1.0
  C  C180  1  0.21999000  0.59664000  0.48859000  1.0
  C  C181  1  0.41398000  0.83660000  0.39595000  1.0
  C  C182  1  0.13168000  0.57315000  0.48910000  1.0
  C  C183  1  0.28598000  0.96296000  0.40371000  1.0
  C  C184  1  0.35393000  0.98894000  0.35889000  1.0
  C  C185  1  0.13679000  0.89739000  0.50108000  1.0
  C  C186  1  0.39899000  0.64196000  0.48852000  1.0
  C  C187  1  0.41749000  0.92598000  0.35492000  1.0
  C  C188  1  0.26938000  0.84504000  0.60033000  1.0
  C  C189  1  0.88438000  0.86251000  0.66966000  1.0
  C  C190  1  0.09097000  0.72179000  0.49560000  1.0
  C  C191  1  0.33101000  0.81909000  0.64389000  1.0
  C  C192  1  0.84732000  0.83561000  0.72790000  1.0
  C  C193  1  0.39638000  0.75800000  0.63996000  1.0
  C  C194  1  0.96828000  0.91195000  0.75445000  1.0
  C  C195  1  0.00062000  0.93657000  0.69506000  1.0
  C  C196  1  0.85227000  0.83525000  0.83161000  1.0
  C  C197  1  0.81900000  0.81160000  0.88249000  1.0
  C  C198  1  0.78222000  0.78131000  0.94380000  1.0
  C  C199  1  0.69303000  0.73060000  0.95262000  1.0
  C  C200  1  0.84109000  0.71287000  0.98738000  1.0
  C  C201  1  0.88921000  0.86088000  0.77184000  1.0
  C  C202  1  0.78426000  0.95304000  0.94016000  1.0
  C  C203  1  0.64785000  0.71271000  0.90812000  1.0
  C  C204  1  0.56802000  0.66374000  0.92376000  1.0
  C  C205  1  0.53425000  0.63329000  0.98331000  1.0
  C  C206  1  0.76709000  0.01654000  0.97041000  1.0
  C  C207  1  0.92024000  0.67994000  0.97171000  1.0
  C  C208  1  0.76718000  0.86005000  0.97015000  1.0
  C  C209  1  0.15372000  0.25133000  0.55928000  1.0
  C  C210  1  0.25663000  0.17427000  0.50806000  1.0
  C  C211  1  0.16302000  0.21050000  0.50773000  1.0
  C  C212  1  0.28503000  0.33510000  0.50104000  1.0
  C  C213  1  0.32124000  0.24027000  0.50469000  1.0
  C  C214  1  0.22705000  0.36226000  0.44702000  1.0
  C  C215  1  0.16130000  0.29597000  0.45073000  1.0
  C  C216  1  0.09966000  0.31449000  0.40730000  1.0
  C  C217  1  0.21851000  0.31842000  0.55546000  1.0
  C  C218  1  0.43264000  0.12806000  0.50730000  1.0
  C  C219  1  0.27991000  0.08528000  0.51133000  1.0
  C  C220  1  0.08604000  0.23298000  0.60405000  1.0
  C  C221  1  0.36820000  0.06220000  0.51081000  1.0
  C  C222  1  0.21422000  0.36701000  0.59617000  1.0
  C  C223  1  0.14633000  0.34829000  0.64102000  1.0
  C  C224  1  0.36335000  0.39839000  0.49891000  1.0
  C  C225  1  0.10092000  0.13067000  0.51149000  1.0
  C  C226  1  0.08264000  0.28147000  0.64504000  1.0
  C  C227  1  0.23077000  0.44537000  0.39968000  1.0
  C  C228  1  0.61554000  0.53262000  0.33015000  1.0
  C  C229  1  0.40906000  0.21721000  0.50444000  1.0
  C  C230  1  0.16909000  0.46304000  0.35615000  1.0
  C  C231  1  0.65265000  0.56402000  0.27194000  1.0
  C  C232  1  0.10374000  0.39804000  0.36003000  1.0
  C  C233  1  0.53176000  0.66696000  0.24544000  1.0
  C  C234  1  0.49941000  0.63219000  0.30485000  1.0
  C  C235  1  0.64779000  0.66712000  0.16825000  1.0
  C  C236  1  0.68103000  0.69416000  0.11736000  1.0
  C  C237  1  0.71776000  0.72512000  0.05604000  1.0
  C  C238  1  0.80697000  0.68329000  0.04713000  1.0
  C  C239  1  0.65885000  0.70046000  0.01236000  1.0
  C  C240  1  0.61080000  0.63323000  0.22801000  1.0
  C  C241  1  0.71600000  0.89301000  0.06001000  1.0
  C  C242  1  0.85228000  0.62108000  0.09160000  1.0
  C  C243  1  0.93219000  0.58785000  0.07596000  1.0
  C  C244  1  0.96586000  0.61690000  0.01639000  1.0
  C  C245  1  0.73328000  0.98675000  0.02992000  1.0
  C  C246  1  0.57975000  0.65180000  0.02801000  1.0
  C  C247  1  0.73291000  0.83015000  0.02985000  1.0
  N  N248  1  0.04059000  0.08744000  0.34661000  1.0
  N  N249  1  0.45947000  0.43362000  0.65354000  1.0
  N  N250  1  0.95941000  0.91255000  0.65340000  1.0
  N  N251  1  0.54053000  0.56638000  0.34646000  1.0
  O  O252  1  0.89703000  0.10578000  0.44773000  1.0
  O  O253  1  0.58317000  0.41720000  0.46198000  1.0
  O  O254  1  0.89270000  0.05771000  0.54894000  1.0
  O  O255  1  0.57659000  0.36164000  0.56302000  1.0
  O  O256  1  0.60281000  0.55364000  0.55227000  1.0
  O  O257  1  0.91699000  0.87900000  0.53801000  1.0
  O  O258  1  0.60717000  0.60679000  0.45106000  1.0
  O  O259  1  0.92348000  0.92445000  0.43698000  1.0
  O  O260  1  0.10296000  0.89418000  0.55230000  1.0
  O  O261  1  0.41683000  0.58281000  0.53801000  1.0
  O  O262  1  0.10732000  0.94230000  0.45108000  1.0
  O  O263  1  0.42342000  0.63837000  0.43696000  1.0
  O  O264  1  0.39720000  0.44636000  0.44771000  1.0
  O  O265  1  0.08299000  0.12101000  0.46200000  1.0
  O  O266  1  0.39282000  0.39323000  0.54891000  1.0
  O  O267  1  0.07654000  0.07552000  0.56304000  1.0
