# generated using pymatgen
data_Zn4H26C48Cl4O13
_symmetry_space_group_name_H-M   'P 1'
_cell_length_a   19.53200000
_cell_length_b   19.54720000
_cell_length_c   19.60660000
_cell_angle_alpha   89.93000000
_cell_angle_beta   84.72860000
_cell_angle_gamma   83.93180000
_symmetry_Int_Tables_number   1
_chemical_formula_structural   Zn4H26C48Cl4O13
_chemical_formula_sum   'Zn4 H26 C48 Cl4 O13'
_cell_volume   7412.02089860
_cell_formula_units_Z   1
loop_
 _symmetry_equiv_pos_site_id
 _symmetry_equiv_pos_as_xyz
  1  'x, y, z'
loop_
 _atom_site_type_symbol
 _atom_site_label
 _atom_site_symmetry_multiplicity
 _atom_site_fract_x
 _atom_site_fract_y
 _atom_site_fract_z
 _atom_site_occupancy
  Zn  Zn0  1  0.44016000  0.55657000  0.43967000  1.0
  Zn  Zn1  1  0.44297000  0.44870000  0.56363000  1.0
  Zn  Zn2  1  0.55044000  0.55720000  0.55127000  1.0
  Zn  Zn3  1  0.56335000  0.43493000  0.43772000  1.0
  H  H4  1  0.43166000  0.57152000  0.23195000  1.0
  H  H5  1  0.52362000  0.11198000  0.63675000  1.0
  H  H6  1  0.75723000  0.51167000  0.59206000  1.0
  H  H7  1  0.22905000  0.55092000  0.41626000  1.0
  H  H8  1  0.22961000  0.48353000  0.62485000  1.0
  H  H9  1  0.99353000  0.50783000  0.58575000  1.0
  H  H10  1  0.90756000  0.48471000  0.37440000  1.0
  H  H11  1  0.10174000  0.55065000  0.42292000  1.0
  H  H12  1  0.00524000  0.50555000  0.42808000  1.0
  H  H13  1  0.88266000  0.51750000  0.59369000  1.0
  H  H14  1  0.53030000  0.61167000  0.76112000  1.0
  H  H15  1  0.52514000  0.61769000  0.88874000  1.0
  H  H16  1  0.10140000  0.48536000  0.63338000  1.0
  H  H17  1  0.48393000  0.57333000  0.00039000  1.0
  H  H18  1  0.57085000  0.37986000  0.09977000  1.0
  H  H19  1  0.44677000  0.41955000  0.90133000  1.0
  H  H20  1  0.57606000  0.38951000  0.22618000  1.0
  H  H21  1  0.51056000  0.41547000  0.99667000  1.0
  H  H22  1  0.42677000  0.56320000  0.10581000  1.0
  H  H23  1  0.49404000  0.76251000  0.59316000  1.0
  H  H24  1  0.52710000  0.22115000  0.40842000  1.0
  H  H25  1  0.48599000  0.90171000  0.38232000  1.0
  H  H26  1  0.53472000  0.09393000  0.41655000  1.0
  H  H27  1  0.47429000  0.00690000  0.45071000  1.0
  H  H28  1  0.49575000  0.88822000  0.60128000  1.0
  H  H29  1  0.44955000  0.41555000  0.77400000  1.0
  C  C30  1  0.50962000  0.31511000  0.50822000  1.0
  C  C31  1  0.49886000  0.46693000  0.01951000  1.0
  C  C32  1  0.48856000  0.52159000  0.97798000  1.0
  C  C33  1  0.48845000  0.68393000  0.48621000  1.0
  C  C34  1  0.49097000  0.51286000  0.76002000  1.0
  C  C35  1  0.48724000  0.76053000  0.48472000  1.0
  C  C36  1  0.49185000  0.79390000  0.54726000  1.0
  C  C37  1  0.49395000  0.86434000  0.55158000  1.0
  C  C38  1  0.49366000  0.90470000  0.49197000  1.0
  C  C39  1  0.48699000  0.87193000  0.42936000  1.0
  C  C40  1  0.48370000  0.80107000  0.42560000  1.0
  C  C41  1  0.49971000  0.47174000  0.09363000  1.0
  C  C42  1  0.52856000  0.12528000  0.46307000  1.0
  C  C43  1  0.52443000  0.19648000  0.45835000  1.0
  C  C44  1  0.51674000  0.20676000  0.58132000  1.0
  C  C45  1  0.31403000  0.51245000  0.51363000  1.0
  C  C46  1  0.52289000  0.13532000  0.58639000  1.0
  C  C47  1  0.52721000  0.09366000  0.52761000  1.0
  C  C48  1  0.49861000  0.97864000  0.49186000  1.0
  C  C49  1  0.52918000  0.01832000  0.53412000  1.0
  C  C50  1  0.51695000  0.23862000  0.51701000  1.0
  C  C51  1  0.76094000  0.49235000  0.48414000  1.0
  C  C52  1  0.54046000  0.42207000  0.12876000  1.0
  C  C53  1  0.79132000  0.50450000  0.54485000  1.0
  C  C54  1  0.86164000  0.50794000  0.54543000  1.0
  C  C55  1  0.90540000  0.50101000  0.48390000  1.0
  C  C56  1  0.87534000  0.48952000  0.42300000  1.0
  C  C57  1  0.68434000  0.49098000  0.48914000  1.0
  C  C58  1  0.80460000  0.48449000  0.42282000  1.0
  C  C59  1  0.12933000  0.53499000  0.46721000  1.0
  C  C60  1  0.20051000  0.53561000  0.46317000  1.0
  C  C61  1  0.20090000  0.49808000  0.58103000  1.0
  C  C62  1  0.12940000  0.49901000  0.58537000  1.0
  C  C63  1  0.54362000  0.42719000  0.19911000  1.0
  C  C64  1  0.09226000  0.51542000  0.52808000  1.0
  C  C65  1  0.97942000  0.50639000  0.48004000  1.0
  C  C66  1  0.01805000  0.51063000  0.53348000  1.0
  C  C67  1  0.23722000  0.51581000  0.51960000  1.0
  C  C68  1  0.49346000  0.50941000  0.68403000  1.0
  C  C69  1  0.50572000  0.48660000  0.31212000  1.0
  C  C70  1  0.50453000  0.48135000  0.23646000  1.0
  C  C71  1  0.46270000  0.53041000  0.20218000  1.0
  C  C72  1  0.46052000  0.52576000  0.13184000  1.0
  C  C73  1  0.46611000  0.46124000  0.87066000  1.0
  C  C74  1  0.46720000  0.45888000  0.79981000  1.0
  C  C75  1  0.51201000  0.57003000  0.79246000  1.0
  C  C76  1  0.50916000  0.57304000  0.86346000  1.0
  C  C77  1  0.48765000  0.51814000  0.90384000  1.0
  Cl  Cl78  1  0.51247000  0.25414000  0.65639000  1.0
  Cl  Cl79  1  0.57433000  0.98407000  0.60103000  1.0
  Cl  Cl80  1  0.47958000  0.76511000  0.34566000  1.0
  Cl  Cl81  1  0.77375000  0.47262000  0.34422000  1.0
  O  O82  1  0.49989000  0.49877000  0.49705000  1.0
  O  O83  1  0.46539000  0.46049000  0.65824000  1.0
  O  O84  1  0.54691000  0.44250000  0.34065000  1.0
  O  O85  1  0.52376000  0.55545000  0.65022000  1.0
  O  O86  1  0.46513000  0.53493000  0.34250000  1.0
  O  O87  1  0.34304000  0.53969000  0.46073000  1.0
  O  O88  1  0.65955000  0.45074000  0.44915000  1.0
  O  O89  1  0.46079000  0.34920000  0.54518000  1.0
  O  O90  1  0.53067000  0.65392000  0.52543000  1.0
  O  O91  1  0.55213000  0.33850000  0.46312000  1.0
  O  O92  1  0.44763000  0.65564000  0.45079000  1.0
  O  O93  1  0.34492000  0.48176000  0.56168000  1.0
  O  O94  1  0.65027000  0.53060000  0.53506000  1.0
