# generated using pymatgen
data_NaH9C11O3
_symmetry_space_group_name_H-M   'P 1'
_cell_length_a   3.82072000
_cell_length_b   7.38992000
_cell_length_c   32.99310000
_cell_angle_alpha   89.99870000
_cell_angle_beta   90.89510000
_cell_angle_gamma   89.99910000
_symmetry_Int_Tables_number   1
_chemical_formula_structural   NaH9C11O3
_chemical_formula_sum   'Na4 H36 C44 O12'
_cell_volume   931.44040356
_cell_formula_units_Z   4
loop_
 _symmetry_equiv_pos_site_id
 _symmetry_equiv_pos_as_xyz
  1  'x, y, z'
loop_
 _atom_site_type_symbol
 _atom_site_label
 _atom_site_symmetry_multiplicity
 _atom_site_fract_x
 _atom_site_fract_y
 _atom_site_fract_z
 _atom_site_occupancy
  Na  Na0  1  0.22698000  0.31756000  0.02195000  1.0
  Na  Na1  1  0.27302000  0.81755000  0.47805000  1.0
  Na  Na2  1  0.77301000  0.68244000  0.97804000  1.0
  Na  Na3  1  0.72697000  0.18244000  0.52196000  1.0
  H  H4  1  0.94369000  0.96088000  0.04984000  1.0
  H  H5  1  0.55630000  0.46087000  0.45015000  1.0
  H  H6  1  0.05632000  0.03911000  0.95015000  1.0
  H  H7  1  0.44370000  0.53912000  0.54985000  1.0
  H  H8  1  0.34412000  0.95044000  0.04980000  1.0
  H  H9  1  0.15588000  0.45043000  0.45020000  1.0
  H  H10  1  0.65590000  0.04956000  0.95019000  1.0
  H  H11  1  0.84413000  0.54957000  0.54981000  1.0
  H  H12  1  0.64754000  0.10953000  0.88683000  1.0
  H  H13  1  0.85241000  0.60955000  0.61316000  1.0
  H  H14  1  0.35247000  0.89046000  0.11316000  1.0
  H  H15  1  0.14751000  0.39045000  0.38684000  1.0
  H  H16  1  0.74643000  0.20278000  0.80951000  1.0
  H  H17  1  0.75345000  0.70278000  0.69049000  1.0
  H  H18  1  0.25353000  0.79723000  0.19048000  1.0
  H  H19  1  0.24646000  0.29723000  0.30952000  1.0
  H  H20  1  0.62950000  0.48412000  0.76505000  1.0
  H  H21  1  0.87041000  0.98412000  0.73495000  1.0
  H  H22  1  0.37048000  0.51590000  0.23495000  1.0
  H  H23  1  0.12954000  0.01592000  0.26505000  1.0
  H  H24  1  0.42262000  0.77695000  0.74974000  1.0
  H  H25  1  0.07730000  0.27695000  0.75026000  1.0
  H  H26  1  0.57730000  0.22307000  0.25025000  1.0
  H  H27  1  0.92269000  0.72307000  0.24974000  1.0
  H  H28  1  0.18654000  0.99084000  0.79397000  1.0
  H  H29  1  0.31346000  0.49083000  0.70603000  1.0
  H  H30  1  0.81345000  0.00919000  0.20603000  1.0
  H  H31  1  0.68656000  0.50918000  0.29396000  1.0
  H  H32  1  0.06332000  0.96377000  0.86254000  1.0
  H  H33  1  0.43668000  0.46379000  0.63746000  1.0
  H  H34  1  0.93669000  0.03622000  0.13746000  1.0
  H  H35  1  0.56331000  0.53620000  0.36253000  1.0
  H  H36  1  0.15269000  0.72019000  0.90598000  1.0
  H  H37  1  0.34726000  0.22021000  0.59402000  1.0
  H  H38  1  0.84729000  0.27980000  0.09401000  1.0
  H  H39  1  0.65275000  0.77977000  0.40598000  1.0
  C  C40  1  0.43194000  0.38515000  0.89468000  1.0
  C  C41  1  0.06814000  0.88515000  0.60532000  1.0
  C  C42  1  0.56811000  0.61485000  0.10532000  1.0
  C  C43  1  0.93185000  0.11484000  0.39468000  1.0
  C  C44  1  0.58263000  0.23918000  0.87318000  1.0
  C  C45  1  0.91742000  0.73918000  0.62682000  1.0
  C  C46  1  0.41744000  0.76083000  0.12682000  1.0
  C  C47  1  0.08256000  0.26081000  0.37318000  1.0
  C  C48  1  0.63301000  0.28743000  0.83282000  1.0
  C  C49  1  0.86700000  0.78742000  0.66718000  1.0
  C  C50  1  0.36704000  0.71259000  0.16718000  1.0
  C  C51  1  0.13296000  0.21258000  0.33282000  1.0
  C  C52  1  0.51610000  0.55926000  0.79021000  1.0
  C  C53  1  0.98392000  0.05925000  0.70979000  1.0
  C  C54  1  0.48394000  0.44075000  0.20979000  1.0
  C  C55  1  0.01608000  0.94077000  0.29021000  1.0
  C  C56  1  0.39704000  0.73325000  0.78121000  1.0
  C  C57  1  0.10296000  0.23323000  0.71879000  1.0
  C  C58  1  0.60296000  0.26677000  0.21878000  1.0
  C  C59  1  0.89705000  0.76677000  0.28121000  1.0
  C  C60  1  0.25185000  0.86002000  0.80751000  1.0
  C  C61  1  0.24816000  0.36001000  0.69249000  1.0
  C  C62  1  0.74819000  0.13999000  0.19249000  1.0
  C  C63  1  0.75184000  0.64000000  0.30751000  1.0
  C  C64  1  0.17893000  0.84468000  0.84861000  1.0
  C  C65  1  0.32110000  0.34468000  0.65139000  1.0
  C  C66  1  0.82109000  0.15534000  0.15139000  1.0
  C  C67  1  0.67893000  0.65531000  0.34861000  1.0
  C  C68  1  0.23371000  0.69859000  0.87485000  1.0
  C  C69  1  0.26634000  0.19859000  0.62515000  1.0
  C  C70  1  0.76633000  0.30141000  0.12514000  1.0
  C  C71  1  0.73368000  0.80139000  0.37485000  1.0
  C  C72  1  0.38201000  0.53065000  0.86681000  1.0
  C  C73  1  0.11804000  0.03065000  0.63319000  1.0
  C  C74  1  0.61804000  0.46935000  0.13319000  1.0
  C  C75  1  0.88196000  0.96934000  0.36682000  1.0
  C  C76  1  0.51195000  0.46629000  0.82698000  1.0
  C  C77  1  0.98808000  0.96629000  0.67302000  1.0
  C  C78  1  0.48810000  0.53372000  0.17302000  1.0
  C  C79  1  0.01188000  0.03371000  0.32698000  1.0
  C  C80  1  0.34445000  0.37685000  0.93795000  1.0
  C  C81  1  0.15559000  0.87686000  0.56206000  1.0
  C  C82  1  0.65555000  0.62314000  0.06205000  1.0
  C  C83  1  0.84441000  0.12312000  0.43795000  1.0
  O  O84  1  0.25887000  0.52071000  0.95726000  1.0
  O  O85  1  0.24116000  0.02073000  0.54274000  1.0
  O  O86  1  0.74111000  0.47927000  0.04274000  1.0
  O  O87  1  0.75887000  0.97924000  0.45726000  1.0
  O  O88  1  0.36148000  0.22265000  0.95621000  1.0
  O  O89  1  0.13848000  0.72268000  0.54378000  1.0
  O  O90  1  0.63848000  0.77733000  0.04378000  1.0
  O  O91  1  0.86148000  0.27730000  0.45622000  1.0
  O  O92  1  0.15116000  0.04026000  0.05197000  1.0
  O  O93  1  0.34883000  0.54026000  0.44803000  1.0
  O  O94  1  0.84886000  0.95973000  0.94802000  1.0
  O  O95  1  0.65118000  0.45974000  0.55198000  1.0
