# generated using pymatgen
data_Zn3H22(C15O8)2
_symmetry_space_group_name_H-M   'P 1'
_cell_length_a   7.76602000
_cell_length_b   10.26270000
_cell_length_c   10.79140000
_cell_angle_alpha   65.37840000
_cell_angle_beta   74.82800000
_cell_angle_gamma   70.27350000
_symmetry_Int_Tables_number   1
_chemical_formula_structural   Zn3H22(C15O8)2
_chemical_formula_sum   'Zn3 H22 C30 O16'
_cell_volume   728.58771958
_cell_formula_units_Z   1
loop_
 _symmetry_equiv_pos_site_id
 _symmetry_equiv_pos_as_xyz
  1  'x, y, z'
loop_
 _atom_site_type_symbol
 _atom_site_label
 _atom_site_symmetry_multiplicity
 _atom_site_fract_x
 _atom_site_fract_y
 _atom_site_fract_z
 _atom_site_occupancy
  Zn  Zn0  1  0.50000000  0.00000000  0.00000000  1.0
  Zn  Zn1  1  0.67589000  0.62849000  0.99196000  1.0
  Zn  Zn2  1  0.32412000  0.37150000  0.00804000  1.0
  H  H3  1  0.75417000  0.40292000  0.93161000  1.0
  H  H4  1  0.24583000  0.59707000  0.06839000  1.0
  H  H5  1  0.95480000  0.42888000  0.91282000  1.0
  H  H6  1  0.04520000  0.57112000  0.08718000  1.0
  H  H7  1  0.59809000  0.12697000  0.15546000  1.0
  H  H8  1  0.40191000  0.87302000  0.84454000  1.0
  H  H9  1  0.73072000  0.96684000  0.18403000  1.0
  H  H10  1  0.26929000  0.03315000  0.81596000  1.0
  H  H11  1  0.16209000  0.70619000  0.73776000  1.0
  H  H12  1  0.83792000  0.29381000  0.26225000  1.0
  H  H13  1  0.41990000  0.86243000  0.31960000  1.0
  H  H14  1  0.58009000  0.13758000  0.68040000  1.0
  H  H15  1  0.77446000  0.43030000  0.66676000  1.0
  H  H16  1  0.22555000  0.56970000  0.33324000  1.0
  H  H17  1  0.38369000  0.05717000  0.41480000  1.0
  H  H18  1  0.61631000  0.94283000  0.58520000  1.0
  H  H19  1  0.85941000  0.46228000  0.41757000  1.0
  H  H20  1  0.14057000  0.53772000  0.58242000  1.0
  H  H21  1  0.88386000  0.16072000  0.68532000  1.0
  H  H22  1  0.11613000  0.83929000  0.31467000  1.0
  H  H23  1  0.12767000  0.24335000  0.48744000  1.0
  H  H24  1  0.87232000  0.75666000  0.51255000  1.0
  C  C25  1  0.52779000  0.60354000  0.78373000  1.0
  C  C26  1  0.47222000  0.39645000  0.21628000  1.0
  C  C27  1  0.68571000  0.67122000  0.20937000  1.0
  C  C28  1  0.31428000  0.32879000  0.79063000  1.0
  C  C29  1  0.55555000  0.63238000  0.63242000  1.0
  C  C30  1  0.44446000  0.36762000  0.36758000  1.0
  C  C31  1  0.00966000  0.92896000  0.72107000  1.0
  C  C32  1  0.99034000  0.07104000  0.27893000  1.0
  C  C33  1  0.85242000  0.88094000  0.82634000  1.0
  C  C34  1  0.14758000  0.11906000  0.17366000  1.0
  C  C35  1  0.15897000  0.82336000  0.68382000  1.0
  C  C36  1  0.84103000  0.17665000  0.31618000  1.0
  C  C37  1  0.50213000  0.77132000  0.39578000  1.0
  C  C38  1  0.49787000  0.22868000  0.60423000  1.0
  C  C39  1  0.45506000  0.75715000  0.53470000  1.0
  C  C40  1  0.54494000  0.24285000  0.46531000  1.0
  C  C41  1  0.70023000  0.52679000  0.58942000  1.0
  C  C42  1  0.29977000  0.47321000  0.41058000  1.0
  C  C43  1  0.29737000  0.86831000  0.57552000  1.0
  C  C44  1  0.70263000  0.13169000  0.42449000  1.0
  C  C45  1  0.28094000  0.02066000  0.50274000  1.0
  C  C46  1  0.71905000  0.97934000  0.49726000  1.0
  C  C47  1  0.74858000  0.54438000  0.45140000  1.0
  C  C48  1  0.25142000  0.45562000  0.54860000  1.0
  C  C49  1  0.00075000  0.08057000  0.65339000  1.0
  C  C50  1  0.99924000  0.91943000  0.34661000  1.0
  C  C51  1  0.13573000  0.12579000  0.54342000  1.0
  C  C52  1  0.86427000  0.87421000  0.45657000  1.0
  C  C53  1  0.64749000  0.66653000  0.35360000  1.0
  C  C54  1  0.35250000  0.33348000  0.64639000  1.0
  O  O55  1  0.81790000  0.57117000  0.17745000  1.0
  O  O56  1  0.18208000  0.42884000  0.82255000  1.0
  O  O57  1  0.53162000  0.46998000  0.86398000  1.0
  O  O58  1  0.46839000  0.53001000  0.13602000  1.0
  O  O59  1  0.57656000  0.76639000  0.12167000  1.0
  O  O60  1  0.42343000  0.23362000  0.87833000  1.0
  O  O61  1  0.84903000  0.74739000  0.86023000  1.0
  O  O62  1  0.15097000  0.25261000  0.13978000  1.0
  O  O63  1  0.52412000  0.70544000  0.82380000  1.0
  O  O64  1  0.47588000  0.29455000  0.17621000  1.0
  O  O65  1  0.83270000  0.42893000  0.97135000  1.0
  O  O66  1  0.16731000  0.57106000  0.02865000  1.0
  O  O67  1  0.73351000  0.98012000  0.86827000  1.0
  O  O68  1  0.26649000  0.01988000  0.13173000  1.0
  O  O69  1  0.65348000  0.04662000  0.11778000  1.0
  O  O70  1  0.34653000  0.95337000  0.88222000  1.0
