# generated using pymatgen
data_CuH6C13N3O4F
_symmetry_space_group_name_H-M   'P 1'
_cell_length_a   10.34030000
_cell_length_b   10.52460000
_cell_length_c   15.11810000
_cell_angle_alpha   106.99500000
_cell_angle_beta   89.98920000
_cell_angle_gamma   89.88980000
_symmetry_Int_Tables_number   1
_chemical_formula_structural   CuH6C13N3O4F
_chemical_formula_sum   'Cu4 H24 C52 N12 O16 F4'
_cell_volume   1573.41365669
_cell_formula_units_Z   4
loop_
 _symmetry_equiv_pos_site_id
 _symmetry_equiv_pos_as_xyz
  1  'x, y, z'
loop_
 _atom_site_type_symbol
 _atom_site_label
 _atom_site_symmetry_multiplicity
 _atom_site_fract_x
 _atom_site_fract_y
 _atom_site_fract_z
 _atom_site_occupancy
  Cu  Cu0  1  0.40937000  0.58737000  0.00908000  1.0
  Cu  Cu1  1  0.90846000  0.41190000  0.49095000  1.0
  Cu  Cu2  1  0.59063000  0.41265000  0.99093000  1.0
  Cu  Cu3  1  0.09150000  0.58805000  0.50905000  1.0
  H  H4  1  0.44144000  0.05721000  0.38373000  1.0
  H  H5  1  0.94138000  0.94329000  0.11645000  1.0
  H  H6  1  0.55856000  0.94277000  0.61626000  1.0
  H  H7  1  0.05862000  0.05671000  0.88354000  1.0
  H  H8  1  0.80937000  0.90974000  0.47713000  1.0
  H  H9  1  0.30928000  0.08993000  0.02297000  1.0
  H  H10  1  0.19058000  0.09027000  0.52289000  1.0
  H  H11  1  0.69075000  0.91008000  0.97704000  1.0
  H  H12  1  0.54607000  0.89526000  0.25202000  1.0
  H  H13  1  0.04566000  0.10533000  0.24824000  1.0
  H  H14  1  0.45397000  0.10475000  0.74797000  1.0
  H  H15  1  0.95429000  0.89470000  0.75174000  1.0
  H  H16  1  0.85158000  0.11481000  0.44026000  1.0
  H  H17  1  0.35173000  0.88470000  0.05973000  1.0
  H  H18  1  0.14842000  0.88520000  0.55974000  1.0
  H  H19  1  0.64828000  0.11531000  0.94027000  1.0
  H  H20  1  0.61191000  0.44499000  0.49860000  1.0
  H  H21  1  0.11264000  0.55518000  0.00139000  1.0
  H  H22  1  0.38807000  0.55500000  0.50139000  1.0
  H  H23  1  0.88737000  0.44482000  0.99861000  1.0
  H  H24  1  0.73617000  0.53979000  0.26843000  1.0
  H  H25  1  0.23573000  0.45998000  0.23201000  1.0
  H  H26  1  0.26386000  0.46024000  0.73156000  1.0
  H  H27  1  0.76429000  0.54005000  0.76799000  1.0
  C  C28  1  0.58038000  0.63503000  0.15986000  1.0
  C  C29  1  0.08016000  0.36480000  0.34066000  1.0
  C  C30  1  0.41958000  0.36499000  0.84016000  1.0
  C  C31  1  0.91986000  0.63519000  0.65935000  1.0
  C  C32  1  0.63702000  0.71111000  0.25083000  1.0
  C  C33  1  0.13681000  0.28898000  0.24942000  1.0
  C  C34  1  0.36301000  0.28890000  0.74916000  1.0
  C  C35  1  0.86319000  0.71103000  0.75057000  1.0
  C  C36  1  0.52614000  0.11905000  0.40807000  1.0
  C  C37  1  0.02622000  0.88132000  0.09205000  1.0
  C  C38  1  0.47387000  0.88095000  0.59193000  1.0
  C  C39  1  0.97378000  0.11868000  0.90795000  1.0
  C  C40  1  0.67322000  0.91987000  0.37014000  1.0
  C  C41  1  0.17310000  0.08015000  0.12998000  1.0
  C  C42  1  0.32679000  0.08013000  0.62987000  1.0
  C  C43  1  0.82689000  0.91985000  0.87001000  1.0
  C  C44  1  0.76021000  0.85487000  0.41369000  1.0
  C  C45  1  0.26003000  0.14492000  0.08639000  1.0
  C  C46  1  0.23979000  0.14513000  0.58632000  1.0
  C  C47  1  0.73999000  0.85508000  0.91361000  1.0
  C  C48  1  0.61139000  0.84671000  0.28861000  1.0
  C  C49  1  0.11123000  0.15351000  0.21160000  1.0
  C  C50  1  0.38864000  0.15331000  0.71139000  1.0
  C  C51  1  0.88875000  0.84650000  0.78838000  1.0
  C  C52  1  0.64987000  0.06406000  0.40781000  1.0
  C  C53  1  0.14986000  0.93606000  0.09229000  1.0
  C  C54  1  0.35013000  0.93593000  0.59219000  1.0
  C  C55  1  0.85015000  0.06394000  0.90771000  1.0
  C  C56  1  0.78030000  0.71812000  0.37809000  1.0
  C  C57  1  0.28007000  0.28161000  0.12203000  1.0
  C  C58  1  0.21969000  0.28188000  0.62193000  1.0
  C  C59  1  0.71995000  0.71839000  0.87798000  1.0
  C  C60  1  0.75277000  0.15168000  0.44121000  1.0
  C  C61  1  0.25292000  0.84818000  0.05882000  1.0
  C  C62  1  0.24722000  0.84832000  0.55880000  1.0
  C  C63  1  0.74708000  0.15182000  0.94118000  1.0
  C  C64  1  0.62010000  0.33708000  0.47356000  1.0
  C  C65  1  0.12056000  0.66307000  0.02648000  1.0
  C  C66  1  0.37989000  0.66292000  0.52644000  1.0
  C  C67  1  0.87945000  0.33694000  0.97352000  1.0
  C  C68  1  0.51393000  0.25594000  0.44110000  1.0
  C  C69  1  0.01421000  0.74444000  0.05899000  1.0
  C  C70  1  0.48606000  0.74405000  0.55890000  1.0
  C  C71  1  0.98580000  0.25556000  0.94100000  1.0
  C  C72  1  0.86619000  0.64500000  0.42607000  1.0
  C  C73  1  0.36542000  0.35481000  0.07400000  1.0
  C  C74  1  0.13380000  0.35497000  0.57393000  1.0
  C  C75  1  0.63456000  0.64521000  0.92599000  1.0
  C  C76  1  0.71922000  0.64608000  0.29668000  1.0
  C  C77  1  0.21895000  0.35377000  0.20357000  1.0
  C  C78  1  0.28079000  0.35394000  0.70332000  1.0
  C  C79  1  0.78108000  0.64625000  0.79644000  1.0
  N  N80  1  0.73816000  0.28370000  0.47279000  1.0
  N  N81  1  0.23850000  0.71626000  0.02727000  1.0
  N  N82  1  0.26183000  0.71631000  0.52721000  1.0
  N  N83  1  0.76151000  0.28375000  0.97273000  1.0
  N  N84  1  0.22827000  0.89112000  0.33602000  1.0
  N  N85  1  0.72827000  0.10886000  0.16394000  1.0
  N  N86  1  0.77172000  0.10889000  0.66397000  1.0
  N  N87  1  0.27174000  0.89114000  0.83606000  1.0
  N  N88  1  0.17675000  0.80695000  0.28677000  1.0
  N  N89  1  0.67668000  0.19314000  0.21329000  1.0
  N  N90  1  0.82325000  0.19306000  0.71323000  1.0
  N  N91  1  0.32333000  0.80686000  0.78671000  1.0
  O  O92  1  0.82164000  0.53487000  0.43150000  1.0
  O  O93  1  0.32056000  0.46488000  0.06830000  1.0
  O  O94  1  0.17835000  0.46512000  0.56850000  1.0
  O  O95  1  0.67941000  0.53510000  0.93167000  1.0
  O  O96  1  0.63683000  0.52651000  0.11745000  1.0
  O  O97  1  0.13641000  0.47323000  0.38275000  1.0
  O  O98  1  0.36317000  0.47353000  0.88254000  1.0
  O  O99  1  0.86356000  0.52679000  0.61723000  1.0
  O  O100  1  0.48187000  0.68562000  0.13211000  1.0
  O  O101  1  0.98239000  0.31341000  0.36827000  1.0
  O  O102  1  0.51803000  0.31433000  0.86795000  1.0
  O  O103  1  0.01771000  0.68651000  0.63176000  1.0
  O  O104  1  0.97471000  0.69761000  0.45525000  1.0
  O  O105  1  0.47443000  0.30276000  0.04462000  1.0
  O  O106  1  0.02531000  0.30234000  0.54474000  1.0
  O  O107  1  0.52556000  0.69725000  0.95539000  1.0
  F  F108  1  0.39568000  0.31272000  0.44121000  1.0
  F  F109  1  0.89599000  0.68800000  0.05885000  1.0
  F  F110  1  0.60430000  0.68726000  0.55878000  1.0
  F  F111  1  0.10401000  0.31199000  0.94114000  1.0
