# generated using pymatgen
data_AlC24(N2O5)6
_symmetry_space_group_name_H-M   'P 1'
_cell_length_a   4.33196000
_cell_length_b   29.28950000
_cell_length_c   29.28999271
_cell_angle_alpha   59.99966941
_cell_angle_beta   90.00010000
_cell_angle_gamma   89.99980000
_symmetry_Int_Tables_number   1
_chemical_formula_structural   AlC24(N2O5)6
_chemical_formula_sum   'Al2 C48 N24 O60'
_cell_volume   3218.43575437
_cell_formula_units_Z   2
loop_
 _symmetry_equiv_pos_site_id
 _symmetry_equiv_pos_as_xyz
  1  'x, y, z'
loop_
 _atom_site_type_symbol
 _atom_site_label
 _atom_site_symmetry_multiplicity
 _atom_site_fract_x
 _atom_site_fract_y
 _atom_site_fract_z
 _atom_site_occupancy
  Al  Al0  1  0.00002000  0.00000000  0.50000000  1.0
  Al  Al1  1  0.99946000  0.66668000  0.16666000  1.0
  C  C2  1  0.50001000  0.95970000  0.58058000  1.0
  C  C3  1  0.50001000  0.08059000  0.45971000  1.0
  C  C4  1  0.50001000  0.95971000  0.45971000  1.0
  C  C5  1  0.49946000  0.58609000  0.20694000  1.0
  C  C6  1  0.49945000  0.70695000  0.20697000  1.0
  C  C7  1  0.49947000  0.70698000  0.08607000  1.0
  C  C8  1  0.49957000  0.52592000  0.23703000  1.0
  C  C9  1  0.49457000  0.49678000  0.29253000  1.0
  C  C10  1  0.50364000  0.44190000  0.31999000  1.0
  C  C11  1  0.49986000  0.41273000  0.29363000  1.0
  C  C12  1  0.49595000  0.44189000  0.23810000  1.0
  C  C13  1  0.50476000  0.49677000  0.21068000  1.0
  C  C14  1  0.49996000  0.35728000  0.32136000  1.0
  C  C15  1  0.50001000  0.30938000  0.34531000  1.0
  C  C16  1  0.50000000  0.25395000  0.37303000  1.0
  C  C17  1  0.49604000  0.22477000  0.42856000  1.0
  C  C18  1  0.50512000  0.16990000  0.45596000  1.0
  C  C19  1  0.50001000  0.14075000  0.42963000  1.0
  C  C20  1  0.49488000  0.16990000  0.37415000  1.0
  C  C21  1  0.50396000  0.22477000  0.34668000  1.0
  C  C22  1  0.49956000  0.73704000  0.23706000  1.0
  C  C23  1  0.49457000  0.79253000  0.21070000  1.0
  C  C24  1  0.50363000  0.82000000  0.23811000  1.0
  C  C25  1  0.49982000  0.79363000  0.29365000  1.0
  C  C26  1  0.49590000  0.73811000  0.32001000  1.0
  C  C27  1  0.50473000  0.71069000  0.29255000  1.0
  C  C28  1  0.49993000  0.82136000  0.32136000  1.0
  C  C29  1  0.49999000  0.84531000  0.34531000  1.0
  C  C30  1  0.50000000  0.87302000  0.37303000  1.0
  C  C31  1  0.49605000  0.92856000  0.34667000  1.0
  C  C32  1  0.50513000  0.95596000  0.37415000  1.0
  C  C33  1  0.50001000  0.92962000  0.42963000  1.0
  C  C34  1  0.49488000  0.87415000  0.45596000  1.0
  C  C35  1  0.50395000  0.84668000  0.42855000  1.0
  C  C36  1  0.49962000  0.73706000  0.02590000  1.0
  C  C37  1  0.49463000  0.71069000  0.99677000  1.0
  C  C38  1  0.50368000  0.73810000  0.94189000  1.0
  C  C39  1  0.49987000  0.79364000  0.91271000  1.0
  C  C40  1  0.49596000  0.82000000  0.94188000  1.0
  C  C41  1  0.50478000  0.79255000  0.99676000  1.0
  C  C42  1  0.49996000  0.82135000  0.85728000  1.0
  C  C43  1  0.50000000  0.84531000  0.80937000  1.0
  C  C44  1  0.50000000  0.87301000  0.75395000  1.0
  C  C45  1  0.49603000  0.84666000  0.72477000  1.0
  C  C46  1  0.50512000  0.87414000  0.66989000  1.0
  C  C47  1  0.50000000  0.92962000  0.64074000  1.0
  C  C48  1  0.49488000  0.95595000  0.66989000  1.0
  C  C49  1  0.50394000  0.92855000  0.72477000  1.0
  N  N50  1  0.49305000  0.52315000  0.32487000  1.0
  N  N51  1  0.50637000  0.52314000  0.15197000  1.0
  N  N52  1  0.48945000  0.41220000  0.20922000  1.0
  N  N53  1  0.51022000  0.41221000  0.37857000  1.0
  N  N54  1  0.48936000  0.25447000  0.45745000  1.0
  N  N55  1  0.51061000  0.25447000  0.28809000  1.0
  N  N56  1  0.49351000  0.14353000  0.34179000  1.0
  N  N57  1  0.50654000  0.14353000  0.51469000  1.0
  N  N58  1  0.49307000  0.82488000  0.15199000  1.0
  N  N59  1  0.50638000  0.65197000  0.32490000  1.0
  N  N60  1  0.48943000  0.70922000  0.37859000  1.0
  N  N61  1  0.51021000  0.87858000  0.20923000  1.0
  N  N62  1  0.48936000  0.95745000  0.28809000  1.0
  N  N63  1  0.51061000  0.78809000  0.45745000  1.0
  N  N64  1  0.49351000  0.84178000  0.51469000  1.0
  N  N65  1  0.50654000  0.01469000  0.34179000  1.0
  N  N66  1  0.49307000  0.65198000  0.02314000  1.0
  N  N67  1  0.50635000  0.82490000  0.02312000  1.0
  N  N68  1  0.48943000  0.87859000  0.91218000  1.0
  N  N69  1  0.51023000  0.70922000  0.91220000  1.0
  N  N70  1  0.48934000  0.78808000  0.75446000  1.0
  N  N71  1  0.51061000  0.95744000  0.75446000  1.0
  N  N72  1  0.49350000  0.01469000  0.64352000  1.0
  N  N73  1  0.50654000  0.84177000  0.64353000  1.0
  O  O74  1  0.73964000  0.98613000  0.45541000  1.0
  O  O75  1  0.73965000  0.95541000  0.55846000  1.0
  O  O76  1  0.73964000  0.05846000  0.48613000  1.0
  O  O77  1  0.26039000  0.95542000  0.48612000  1.0
  O  O78  1  0.26038000  0.05847000  0.45541000  1.0
  O  O79  1  0.26040000  0.98613000  0.55846000  1.0
  O  O80  1  0.73900000  0.71128000  0.10821000  1.0
  O  O81  1  0.73901000  0.60823000  0.18051000  1.0
  O  O82  1  0.73900000  0.68052000  0.21126000  1.0
  O  O83  1  0.25983000  0.68056000  0.10819000  1.0
  O  O84  1  0.25983000  0.71126000  0.18055000  1.0
  O  O85  1  0.25983000  0.60821000  0.21124000  1.0
  O  O86  1  0.27768000  0.55344000  0.31750000  1.0
  O  O87  1  0.70652000  0.51108000  0.35655000  1.0
  O  O88  1  0.72181000  0.55341000  0.12906000  1.0
  O  O89  1  0.29296000  0.51107000  0.13234000  1.0
  O  O90  1  0.27953000  0.37978000  0.22148000  1.0
  O  O91  1  0.69707000  0.42209000  0.17693000  1.0
  O  O92  1  0.72017000  0.37979000  0.39873000  1.0
  O  O93  1  0.30257000  0.42210000  0.40097000  1.0
  O  O94  1  0.27938000  0.28689000  0.44518000  1.0
  O  O95  1  0.69689000  0.24459000  0.48975000  1.0
  O  O96  1  0.72057000  0.28689000  0.26794000  1.0
  O  O97  1  0.30308000  0.24459000  0.26567000  1.0
  O  O98  1  0.27812000  0.11325000  0.34914000  1.0
  O  O99  1  0.70698000  0.15561000  0.31010000  1.0
  O  O100  1  0.72196000  0.11326000  0.53761000  1.0
  O  O101  1  0.29311000  0.15560000  0.53431000  1.0
  O  O102  1  0.27773000  0.81752000  0.12906000  1.0
  O  O103  1  0.70657000  0.85656000  0.13238000  1.0
  O  O104  1  0.72182000  0.62907000  0.31753000  1.0
  O  O105  1  0.29299000  0.63234000  0.35660000  1.0
  O  O106  1  0.27953000  0.72147000  0.39876000  1.0
  O  O107  1  0.69708000  0.67692000  0.40099000  1.0
  O  O108  1  0.72015000  0.89874000  0.22149000  1.0
  O  O109  1  0.30258000  0.90098000  0.17694000  1.0
  O  O110  1  0.27937000  0.94519000  0.26794000  1.0
  O  O111  1  0.69690000  0.98975000  0.26567000  1.0
  O  O112  1  0.72058000  0.76794000  0.44518000  1.0
  O  O113  1  0.30306000  0.76567000  0.48975000  1.0
  O  O114  1  0.27812000  0.84914000  0.53761000  1.0
  O  O115  1  0.70697000  0.81010000  0.53430000  1.0
  O  O116  1  0.72196000  0.03761000  0.34914000  1.0
  O  O117  1  0.29309000  0.03431000  0.31010000  1.0
  O  O118  1  0.27770000  0.62906000  0.05343000  1.0
  O  O119  1  0.70652000  0.63236000  0.01107000  1.0
  O  O120  1  0.72177000  0.81755000  0.05339000  1.0
  O  O121  1  0.29289000  0.85659000  0.01104000  1.0
  O  O122  1  0.27952000  0.89875000  0.87975000  1.0
  O  O123  1  0.69705000  0.90099000  0.92208000  1.0
  O  O124  1  0.72018000  0.72147000  0.87978000  1.0
  O  O125  1  0.30258000  0.67692000  0.92209000  1.0
  O  O126  1  0.27935000  0.76794000  0.78687000  1.0
  O  O127  1  0.69689000  0.76566000  0.74458000  1.0
  O  O128  1  0.72057000  0.94517000  0.78688000  1.0
  O  O129  1  0.30307000  0.98975000  0.74457000  1.0
  O  O130  1  0.27811000  0.03761000  0.61325000  1.0
  O  O131  1  0.70698000  0.03429000  0.65560000  1.0
  O  O132  1  0.72197000  0.84913000  0.61325000  1.0
  O  O133  1  0.29311000  0.81008000  0.65560000  1.0
