# generated using pymatgen
data_AlH13C12NO5
_symmetry_space_group_name_H-M   'P 1'
_cell_length_a   6.62596000
_cell_length_b   15.08050000
_cell_length_c   17.72800000
_cell_angle_alpha   79.00940000
_cell_angle_beta   87.33290000
_cell_angle_gamma   89.06240000
_symmetry_Int_Tables_number   1
_chemical_formula_structural   AlH13C12NO5
_chemical_formula_sum   'Al4 H52 C48 N4 O20'
_cell_volume   1737.00607467
_cell_formula_units_Z   4
loop_
 _symmetry_equiv_pos_site_id
 _symmetry_equiv_pos_as_xyz
  1  'x, y, z'
loop_
 _atom_site_type_symbol
 _atom_site_label
 _atom_site_symmetry_multiplicity
 _atom_site_fract_x
 _atom_site_fract_y
 _atom_site_fract_z
 _atom_site_occupancy
  Al  Al0  1  0.11735000  0.50195000  0.49960000  1.0
  Al  Al1  1  0.61702000  0.50118000  0.50181000  1.0
  Al  Al2  1  0.64643000  0.99859000  0.99830000  1.0
  Al  Al3  1  0.14702000  0.99211000  0.00279000  1.0
  H  H4  1  0.09692000  0.10685000  0.20224000  1.0
  H  H5  1  0.13702000  0.86605000  0.82182000  1.0
  H  H6  1  0.20331000  0.14963000  0.32398000  1.0
  H  H7  1  0.99618000  0.82039000  0.70527000  1.0
  H  H8  1  0.60376000  0.36309000  0.16743000  1.0
  H  H9  1  0.74109000  0.67074000  0.79671000  1.0
  H  H10  1  0.16197000  0.24980000  0.42076000  1.0
  H  H11  1  0.02883000  0.72800000  0.60223000  1.0
  H  H12  1  0.66666667  0.38858000  0.29912000  1.0
  H  H13  1  0.61765000  0.63604000  0.67615000  1.0
  H  H14  1  0.54576000  0.82410000  0.19928000  1.0
  H  H15  1  0.13747000  0.12575000  0.76452000  1.0
  H  H16  1  0.62416000  0.72528000  0.16694000  1.0
  H  H17  1  0.06091000  0.19931000  0.82717000  1.0
  H  H18  1  0.55454000  0.65426000  0.29619000  1.0
  H  H19  1  0.06296000  0.32506000  0.72780000  1.0
  H  H20  1  0.57253000  0.75536000  0.33081000  1.0
  H  H21  1  0.07665000  0.24795000  0.66418000  1.0
  H  H22  1  0.81924000  0.90029000  0.26729000  1.0
  H  H23  1  0.51348000  0.08930000  0.74436000  1.0
  H  H24  1  0.90563000  0.79902000  0.37915000  1.0
  H  H25  1  0.42758000  0.18730000  0.63130000  1.0
  H  H26  1  0.17807000  0.75728000  0.19138000  1.0
  H  H27  1  0.60455000  0.27180000  0.84528000  1.0
  H  H28  1  0.87981000  0.60341000  0.23204000  1.0
  H  H29  1  0.36369000  0.40752000  0.75299000  1.0
  H  H30  1  0.11444000  0.61733000  0.27305000  1.0
  H  H31  1  0.60833000  0.36889000  0.73017000  1.0
  H  H32  1  0.07658000  0.88970000  0.23768000  1.0
  H  H33  1  0.69040000  0.16565000  0.76682000  1.0
  H  H34  1  0.12951000  0.76251000  0.33552000  1.0
  H  H35  1  0.64520000  0.24886000  0.64245000  1.0
  H  H36  1  0.07427000  0.75309000  0.06749000  1.0
  H  H37  1  0.16312000  0.61200000  0.04490000  1.0
  H  H38  1  0.08952000  0.56097000  0.14065000  1.0
  H  H39  1  0.31095000  0.62885000  0.12260000  1.0
  H  H40  1  0.31106000  0.26000000  0.93216000  1.0
  H  H41  1  0.25649000  0.40178000  0.95422000  1.0
  H  H42  1  0.29458000  0.45072000  0.85582000  1.0
  H  H43  1  0.50580000  0.40957000  0.91029000  1.0
  H  H44  1  0.58911000  0.34545000  0.03946000  1.0
  H  H45  1  0.77746000  0.34178000  0.93123000  1.0
  H  H46  1  0.75437000  0.22213000  0.95000000  1.0
  H  H47  1  0.95675000  0.27432000  0.98741000  1.0
  H  H48  1  0.83275000  0.69564000  0.91367000  1.0
  H  H49  1  0.75506000  0.69042000  0.04289000  1.0
  H  H50  1  0.52231000  0.65588000  0.00866000  1.0
  H  H51  1  0.55698000  0.76858000  0.02329000  1.0
  H  H52  1  0.38267000  0.45920000  0.41631000  1.0
  H  H53  1  0.86307000  0.45379000  0.59773000  1.0
  H  H54  1  0.38751000  0.03729000  0.08499000  1.0
  H  H55  1  0.91652000  0.03018000  0.90096000  1.0
  C  C56  1  0.36671000  0.37732000  0.61132000  1.0
  C  C57  1  0.86239000  0.62095000  0.39093000  1.0
  C  C58  1  0.34077000  0.61572000  0.57741000  1.0
  C  C59  1  0.89183000  0.38625000  0.42117000  1.0
  C  C60  1  0.88147000  0.18210000  0.12901000  1.0
  C  C61  1  0.41555000  0.81516000  0.86961000  1.0
  C  C62  1  0.90863000  0.32382000  0.36534000  1.0
  C  C63  1  0.32654000  0.67694000  0.63419000  1.0
  C  C64  1  0.08711000  0.20240000  0.31841000  1.0
  C  C65  1  0.13157000  0.77967000  0.69910000  1.0
  C  C66  1  0.06373000  0.25684000  0.37234000  1.0
  C  C67  1  0.14915000  0.72939000  0.64180000  1.0
  C  C68  1  0.78361000  0.33625000  0.30376000  1.0
  C  C69  1  0.48298000  0.67672000  0.68333000  1.0
  C  C70  1  0.81299000  0.28531000  0.24456000  1.0
  C  C71  1  0.46547000  0.72468000  0.74467000  1.0
  C  C72  1  0.96555000  0.21554000  0.25324000  1.0
  C  C73  1  0.28546000  0.77727000  0.75278000  1.0
  C  C74  1  0.99106000  0.16382000  0.19482000  1.0
  C  C75  1  0.26819000  0.82274000  0.81566000  1.0
  C  C76  1  0.74851000  0.25913000  0.11576000  1.0
  C  C77  1  0.58651000  0.75586000  0.86544000  1.0
  C  C78  1  0.70852000  0.30564000  0.17558000  1.0
  C  C79  1  0.61147000  0.71551000  0.80132000  1.0
  C  C80  1  0.65743000  0.76891000  0.20780000  1.0
  C  C81  1  0.17055000  0.19066000  0.78085000  1.0
  C  C82  1  0.64577000  0.71548000  0.29119000  1.0
  C  C83  1  0.15333000  0.26939000  0.71135000  1.0
  C  C84  1  0.93649000  0.85183000  0.25516000  1.0
  C  C85  1  0.53537000  0.16027000  0.74865000  1.0
  C  C86  1  0.02715000  0.73043000  0.18337000  1.0
  C  C87  1  0.44862000  0.27932000  0.82509000  1.0
  C  C88  1  0.87066000  0.80776000  0.18798000  1.0
  C  C89  1  0.38590000  0.18524000  0.81103000  1.0
  C  C90  1  0.86158000  0.69009000  0.31644000  1.0
  C  C91  1  0.36545000  0.30399000  0.68334000  1.0
  C  C92  1  0.96823000  0.77729000  0.32700000  1.0
  C  C93  1  0.50120000  0.22349000  0.67076000  1.0
  C  C94  1  0.97679000  0.65270000  0.25131000  1.0
  C  C95  1  0.45291000  0.34689000  0.74738000  1.0
  C  C96  1  0.40196000  0.87797000  0.92536000  1.0
  C  C97  1  0.89147000  0.11516000  0.07680000  1.0
  C  C98  1  0.40134000  0.11478000  0.88477000  1.0
  C  C99  1  0.87936000  0.87727000  0.11370000  1.0
  C  C100  1  0.15458000  0.62220000  0.10472000  1.0
  C  C101  1  0.34531000  0.39608000  0.90141000  1.0
  C  C102  1  0.79554000  0.28035000  0.97482000  1.0
  C  C103  1  0.63212000  0.71124000  0.00372000  1.0
  N  N104  1  0.02564000  0.70052000  0.10949000  1.0
  N  N105  1  0.30870000  0.30774000  0.88282000  1.0
  N  N106  1  0.67161000  0.28761000  0.04389000  1.0
  N  N107  1  0.71759000  0.73705000  0.92516000  1.0
  O  O108  1  0.51014000  0.57704000  0.56852000  1.0
  O  O109  1  0.05479000  0.39993000  0.45287000  1.0
  O  O110  1  0.20072000  0.41671000  0.59150000  1.0
  O  O111  1  0.69543000  0.60510000  0.42900000  1.0
  O  O112  1  0.18058000  0.60294000  0.54394000  1.0
  O  O113  1  0.72100000  0.42348000  0.43134000  1.0
  O  O114  1  0.02995000  0.58271000  0.41024000  1.0
  O  O115  1  0.53947000  0.39671000  0.57792000  1.0
  O  O116  1  0.37390000  0.49894000  0.45342000  1.0
  O  O117  1  0.86286000  0.49622000  0.54916000  1.0
  O  O118  1  0.23783000  0.07565000  0.91200000  1.0
  O  O119  1  0.71671000  0.90162000  0.08036000  1.0
  O  O120  1  0.56470000  0.91644000  0.93637000  1.0
  O  O121  1  0.06605000  0.08918000  0.05632000  1.0
  O  O122  1  0.57408000  0.09860000  0.91387000  1.0
  O  O123  1  0.05439000  0.90763000  0.08993000  1.0
  O  O124  1  0.72289000  0.08644000  0.05952000  1.0
  O  O125  1  0.22853000  0.89272000  0.95498000  1.0
  O  O126  1  0.39374000  0.99933000  0.04648000  1.0
  O  O127  1  0.90292000  0.99897000  0.95403000  1.0
