# generated using pymatgen
data_Al4H41C66Br11(N4O15)2
_symmetry_space_group_name_H-M   'P 1'
_cell_length_a   6.59452000
_cell_length_b   22.53120000
_cell_length_c   23.23760000
_cell_angle_alpha   68.10400000
_cell_angle_beta   89.26310000
_cell_angle_gamma   89.00480000
_symmetry_Int_Tables_number   1
_chemical_formula_structural   Al4H41C66Br11(N4O15)2
_chemical_formula_sum   'Al4 H41 C66 Br11 N8 O30'
_cell_volume   3203.07059309
_cell_formula_units_Z   1
loop_
 _symmetry_equiv_pos_site_id
 _symmetry_equiv_pos_as_xyz
  1  'x, y, z'
loop_
 _atom_site_type_symbol
 _atom_site_label
 _atom_site_symmetry_multiplicity
 _atom_site_fract_x
 _atom_site_fract_y
 _atom_site_fract_z
 _atom_site_occupancy
  Al  Al0  1  0.16749000  0.50264000  0.49558000  1.0
  Al  Al1  1  0.66596000  0.50152000  0.49634000  1.0
  Al  Al2  1  0.58990000  0.00247000  0.99597000  1.0
  Al  Al3  1  0.09092000  0.00582000  0.99737000  1.0
  H  H4  1  0.11228000  0.68795000  0.18725000  1.0
  H  H5  1  0.14914000  0.77714000  0.87690000  1.0
  H  H6  1  0.64458000  0.36579000  0.27862000  1.0
  H  H7  1  0.68585000  0.12272000  0.20215000  1.0
  H  H8  1  0.64475000  0.07045000  0.12539000  1.0
  H  H9  1  0.68285000  0.40270000  0.68860000  1.0
  H  H10  1  0.19667000  0.30858000  0.63680000  1.0
  H  H11  1  0.41817000  0.81424000  0.91114000  1.0
  H  H12  1  0.27923000  0.75428000  0.97203000  1.0
  H  H13  1  0.43283000  0.81049000  0.98936000  1.0
  H  H14  1  0.79674000  0.81122000  0.57969000  1.0
  H  H15  1  0.52498000  0.81820000  0.58105000  1.0
  H  H16  1  0.64310000  0.77740000  0.53585000  1.0
  H  H17  1  0.43132000  0.59502000  0.57752000  1.0
  H  H18  1  0.35401000  0.66964000  0.51995000  1.0
  H  H19  1  0.37245000  0.66266000  0.59939000  1.0
  H  H20  1  0.23314000  0.20295000  0.49646000  1.0
  H  H21  1  0.31996000  0.16472000  0.44422000  1.0
  H  H22  1  0.05852000  0.16049000  0.46737000  1.0
  H  H23  1  0.92994000  0.38901000  0.44083000  1.0
  H  H24  1  0.88330000  0.31865000  0.50807000  1.0
  H  H25  1  0.89324000  0.31297000  0.43305000  1.0
  H  H26  1  0.96053000  0.02494000  0.79818000  1.0
  H  H27  1  0.02106000  0.08003000  0.72159000  1.0
  H  H28  1  0.88052000  0.10712000  0.77417000  1.0
  H  H29  1  0.13138000  0.18838000  0.59950000  1.0
  H  H30  1  0.30186000  0.13522000  0.65608000  1.0
  H  H31  1  0.35858000  0.21881000  0.61917000  1.0
  H  H32  1  0.29653000  0.81895000  0.26454000  1.0
  H  H33  1  0.28958000  0.80145000  0.34651000  1.0
  H  H34  1  0.37377000  0.74092000  0.31837000  1.0
  H  H35  1  0.84650000  0.78365000  0.38269000  1.0
  H  H36  1  0.98486000  0.71022000  0.42358000  1.0
  H  H37  1  0.75002000  0.72669000  0.45468000  1.0
  H  H38  1  0.48062000  0.92020000  0.68043000  1.0
  H  H39  1  0.75321000  0.91501000  0.68401000  1.0
  H  H40  1  0.61649000  0.97047000  0.71050000  1.0
  H  H41  1  0.41660000  0.58277000  0.44860000  1.0
  H  H42  1  0.92366000  0.42182000  0.54211000  1.0
  H  H43  1  0.33392000  0.93213000  0.98553000  1.0
  H  H44  1  0.83165000  0.08845000  0.96273000  1.0
  C  C45  1  0.41339000  0.43258000  0.43742000  1.0
  C  C46  1  0.42149000  0.41616000  0.59668000  1.0
  C  C47  1  0.91305000  0.56350000  0.56262000  1.0
  C  C48  1  0.91105000  0.58776000  0.39550000  1.0
  C  C49  1  0.83103000  0.86023000  0.15687000  1.0
  C  C50  1  0.91238000  0.64188000  0.33343000  1.0
  C  C51  1  0.02645000  0.69083000  0.22640000  1.0
  C  C52  1  0.02217000  0.63920000  0.28169000  1.0
  C  C53  1  0.80984000  0.69815000  0.32824000  1.0
  C  C54  1  0.80614000  0.75259000  0.27114000  1.0
  C  C55  1  0.92106000  0.74828000  0.21969000  1.0
  C  C56  1  0.92596000  0.80276000  0.16308000  1.0
  C  C57  1  0.71642000  0.86304000  0.20804000  1.0
  C  C58  1  0.69624000  0.81036000  0.26300000  1.0
  C  C59  1  0.72718000  0.90702000  0.84659000  1.0
  C  C60  1  0.73843000  0.86977000  0.80962000  1.0
  C  C61  1  0.89164000  0.82281000  0.82208000  1.0
  C  C62  1  0.03379000  0.81440000  0.86855000  1.0
  C  C63  1  0.02918000  0.85390000  0.90275000  1.0
  C  C64  1  0.87054000  0.90014000  0.89312000  1.0
  C  C65  1  0.91598000  0.70606000  0.72534000  1.0
  C  C66  1  0.90284000  0.78045000  0.78645000  1.0
  C  C67  1  0.77498000  0.68214000  0.63894000  1.0
  C  C68  1  0.77184000  0.64767000  0.59941000  1.0
  C  C69  1  0.90477000  0.59499000  0.60967000  1.0
  C  C70  1  0.03124000  0.57515000  0.66223000  1.0
  C  C71  1  0.03914000  0.61089000  0.70037000  1.0
  C  C72  1  0.91197000  0.66487000  0.68852000  1.0
  C  C73  1  0.54395000  0.39904000  0.34995000  1.0
  C  C74  1  0.54430000  0.35774000  0.31825000  1.0
  C  C75  1  0.41683000  0.30433000  0.33697000  1.0
  C  C76  1  0.28333000  0.29429000  0.38759000  1.0
  C  C77  1  0.28630000  0.33627000  0.42003000  1.0
  C  C78  1  0.41696000  0.38901000  0.40167000  1.0
  C  C79  1  0.41766000  0.19803000  0.23047000  1.0
  C  C80  1  0.43199000  0.26133000  0.30252000  1.0
  C  C81  1  0.54638000  0.12915000  0.17579000  1.0
  C  C82  1  0.52386000  0.10010000  0.13313000  1.0
  C  C83  1  0.34590000  0.10824000  0.09853000  1.0
  C  C84  1  0.19186000  0.14960000  0.10484000  1.0
  C  C85  1  0.21301000  0.17794000  0.14905000  1.0
  C  C86  1  0.38936000  0.16724000  0.18489000  1.0
  C  C87  1  0.35283000  0.15090000  0.83802000  1.0
  C  C88  1  0.42719000  0.36301000  0.65834000  1.0
  C  C89  1  0.59127000  0.31364000  0.75799000  1.0
  C  C90  1  0.57638000  0.36342000  0.70127000  1.0
  C  C91  1  0.30581000  0.31033000  0.67084000  1.0
  C  C92  1  0.32878000  0.25665000  0.72673000  1.0
  C  C93  1  0.46064000  0.25959000  0.77492000  1.0
  C  C94  1  0.44993000  0.20659000  0.83275000  1.0
  C  C95  1  0.25064000  0.14495000  0.78686000  1.0
  C  C96  1  0.22942000  0.19874000  0.73292000  1.0
  C  C97  1  0.34906000  0.09423000  0.89850000  1.0
  C  C98  1  0.33283000  0.06954000  0.05844000  1.0
  C  C99  1  0.83376000  0.91655000  0.09588000  1.0
  C  C100  1  0.85900000  0.93923000  0.93322000  1.0
  C  C101  1  0.33365000  0.80383000  0.95487000  1.0
  C  C102  1  0.65310000  0.78776000  0.57828000  1.0
  C  C103  1  0.43708000  0.64709000  0.56341000  1.0
  C  C104  1  0.19384000  0.19033000  0.45662000  1.0
  C  C105  1  0.95496000  0.33717000  0.46205000  1.0
  C  C106  1  0.00046000  0.07442000  0.77030000  1.0
  C  C107  1  0.23605000  0.18397000  0.63719000  1.0
  C  C108  1  0.37128000  0.79253000  0.30912000  1.0
  C  C109  1  0.83322000  0.73267000  0.41192000  1.0
  C  C110  1  0.61413000  0.92326000  0.70672000  1.0
  Br  Br111  1  0.05532000  0.79452000  0.09251000  1.0
  Br  Br112  1  0.17851000  0.49659000  0.68574000  1.0
  Br  Br113  1  0.23354000  0.59038000  0.76450000  1.0
  Br  Br114  1  0.71801000  0.47079000  0.31904000  1.0
  Br  Br115  1  0.58589000  0.94012000  0.20417000  1.0
  Br  Br116  1  0.96663000  0.17269000  0.05082000  1.0
  Br  Br117  1  0.00648000  0.23141000  0.16212000  1.0
  Br  Br118  1  0.53361000  0.21250000  0.90891000  1.0
  Br  Br119  1  0.82095000  0.31802000  0.80539000  1.0
  Br  Br120  1  0.17070000  0.56420000  0.28722000  1.0
  Br  Br121  1  0.51029000  0.96792000  0.82990000  1.0
  N  N122  1  0.93744000  0.80748000  0.72474000  1.0
  N  N123  1  0.94696000  0.76906000  0.69344000  1.0
  N  N124  1  0.88943000  0.67878000  0.78729000  1.0
  N  N125  1  0.88603000  0.71700000  0.81894000  1.0
  N  N126  1  0.35376000  0.20176000  0.32606000  1.0
  N  N127  1  0.34142000  0.17029000  0.28824000  1.0
  N  N128  1  0.54867000  0.24715000  0.21495000  1.0
  N  N129  1  0.55165000  0.28019000  0.25120000  1.0
  O  O130  1  0.59071000  0.44230000  0.57619000  1.0
  O  O131  1  0.24249000  0.45654000  0.44300000  1.0
  O  O132  1  0.08021000  0.57286000  0.42308000  1.0
  O  O133  1  0.25376000  0.43116000  0.56790000  1.0
  O  O134  1  0.08838000  0.54976000  0.54740000  1.0
  O  O135  1  0.58067000  0.44113000  0.45964000  1.0
  O  O136  1  0.41611000  0.54230000  0.48375000  1.0
  O  O137  1  0.74646000  0.55532000  0.54028000  1.0
  O  O138  1  0.74255000  0.56184000  0.41619000  1.0
  O  O139  1  0.91894000  0.46274000  0.50768000  1.0
  O  O140  1  0.16136000  0.04925000  0.05068000  1.0
  O  O141  1  0.51839000  0.06605000  0.91607000  1.0
  O  O142  1  0.68712000  0.94493000  0.95623000  1.0
  O  O143  1  0.50009000  0.05774000  0.03683000  1.0
  O  O144  1  0.66129000  0.93814000  0.07377000  1.0
  O  O145  1  0.17935000  0.08002000  0.92609000  1.0
  O  O146  1  0.33938000  0.96497000  0.00318000  1.0
  O  O147  1  0.00436000  0.93637000  0.07145000  1.0
  O  O148  1  0.02370000  0.96291000  0.94170000  1.0
  O  O149  1  0.83699000  0.04276000  0.98641000  1.0
  O  O150  1  0.16878000  0.84856000  0.94715000  1.0
  O  O151  1  0.63611000  0.72997000  0.63299000  1.0
  O  O152  1  0.64443000  0.66854000  0.54955000  1.0
  O  O153  1  0.14151000  0.24696000  0.40402000  1.0
  O  O154  1  0.17004000  0.32292000  0.47265000  1.0
  O  O155  1  0.18736000  0.08476000  0.79648000  1.0
  O  O156  1  0.11738000  0.19712000  0.68365000  1.0
  O  O157  1  0.57393000  0.81571000  0.30901000  1.0
  O  O158  1  0.71744000  0.69954000  0.38109000  1.0
  O  O159  1  0.59151000  0.87299000  0.76705000  1.0
