# generated using pymatgen
data_CuH14C7N2O5
_symmetry_space_group_name_H-M   'P 1'
_cell_length_a   7.94097000
_cell_length_b   9.08505000
_cell_length_c   14.90080000
_cell_angle_alpha   90.00000000
_cell_angle_beta   89.99990000
_cell_angle_gamma   89.98840000
_symmetry_Int_Tables_number   1
_chemical_formula_structural   CuH14C7N2O5
_chemical_formula_sum   'Cu4 H56 C28 N8 O20'
_cell_volume   1075.00492478
_cell_formula_units_Z   4
loop_
 _symmetry_equiv_pos_site_id
 _symmetry_equiv_pos_as_xyz
  1  'x, y, z'
loop_
 _atom_site_type_symbol
 _atom_site_label
 _atom_site_symmetry_multiplicity
 _atom_site_fract_x
 _atom_site_fract_y
 _atom_site_fract_z
 _atom_site_occupancy
  Cu  Cu0  1  0.46010000  0.73662000  0.50000000  1.0
  Cu  Cu1  1  0.53994000  0.23658000  0.50000000  1.0
  Cu  Cu2  1  0.01783000  0.46355000  1.00000000  1.0
  Cu  Cu3  1  0.98213000  0.96359000  0.00000000  1.0
  H  H4  1  0.31279000  0.46613000  0.44556000  1.0
  H  H5  1  0.68722000  0.96612000  0.55443000  1.0
  H  H6  1  0.31279000  0.46613000  0.55444000  1.0
  H  H7  1  0.68722000  0.96612000  0.44557000  1.0
  H  H8  1  0.19000000  0.73703000  0.05441000  1.0
  H  H9  1  0.81003000  0.23705000  0.94559000  1.0
  H  H10  1  0.19001000  0.73703000  0.94559000  1.0
  H  H11  1  0.81003000  0.23705000  0.05441000  1.0
  H  H12  1  0.36185000  0.94269000  0.60134000  1.0
  H  H13  1  0.63810000  0.44265000  0.39866000  1.0
  H  H14  1  0.36185000  0.94269000  0.39866000  1.0
  H  H15  1  0.63810000  0.44265000  0.60134000  1.0
  H  H16  1  0.35399000  0.78380000  0.65626000  1.0
  H  H17  1  0.64599000  0.28373000  0.34376000  1.0
  H  H18  1  0.35399000  0.78380000  0.34374000  1.0
  H  H19  1  0.64598000  0.28373000  0.65624000  1.0
  H  H20  1  0.12436000  0.41558000  0.84406000  1.0
  H  H21  1  0.87559000  0.91562000  0.15595000  1.0
  H  H22  1  0.12436000  0.41558000  0.15594000  1.0
  H  H23  1  0.87559000  0.91562000  0.84405000  1.0
  H  H24  1  0.13513000  0.25994000  0.90225000  1.0
  H  H25  1  0.86490000  0.76000000  0.09775000  1.0
  H  H26  1  0.13513000  0.25994000  0.09775000  1.0
  H  H27  1  0.86490000  0.76000000  0.90225000  1.0
  H  H28  1  0.07639000  0.88444000  0.64363000  1.0
  H  H29  1  0.92354000  0.38436000  0.35637000  1.0
  H  H30  1  0.07639000  0.88445000  0.35637000  1.0
  H  H31  1  0.92354000  0.38436000  0.64363000  1.0
  H  H32  1  0.09736000  0.71584000  0.58360000  1.0
  H  H33  1  0.90264000  0.21578000  0.41639000  1.0
  H  H34  1  0.09736000  0.71584000  0.41640000  1.0
  H  H35  1  0.90264000  0.21578000  0.58362000  1.0
  H  H36  1  0.37243000  0.50972000  0.91409000  1.0
  H  H37  1  0.62748000  0.00976000  0.08592000  1.0
  H  H38  1  0.37244000  0.50972000  0.08591000  1.0
  H  H39  1  0.62748000  0.00976000  0.91409000  1.0
  H  H40  1  0.41175000  0.34146000  0.85630000  1.0
  H  H41  1  0.58826000  0.84148000  0.14370000  1.0
  H  H42  1  0.41175000  0.34146000  0.14370000  1.0
  H  H43  1  0.58826000  0.84149000  0.85631000  1.0
  H  H44  1  0.13791000  0.02269000  0.50000000  1.0
  H  H45  1  0.86201000  0.52259000  0.50000000  1.0
  H  H46  1  0.94789000  0.92353000  0.50000000  1.0
  H  H47  1  0.05204000  0.42344000  0.50000000  1.0
  H  H48  1  0.54853000  0.32654000  0.00000000  1.0
  H  H49  1  0.45150000  0.82659000  1.00000000  1.0
  H  H50  1  0.37850000  0.20213000  0.00000000  1.0
  H  H51  1  0.62157000  0.70218000  1.00000000  1.0
  H  H52  1  0.89764000  0.69384000  0.75152000  1.0
  H  H53  1  0.10237000  0.19390000  0.24853000  1.0
  H  H54  1  0.89764000  0.69384000  0.24848000  1.0
  H  H55  1  0.10238000  0.19390000  0.75146000  1.0
  H  H56  1  0.57268000  0.50631000  0.75068000  1.0
  H  H57  1  0.42734000  0.00624000  0.24930000  1.0
  H  H58  1  0.57268000  0.50631000  0.24932000  1.0
  H  H59  1  0.42735000  0.00624000  0.75069000  1.0
  C  C60  1  0.13755000  0.83158000  0.58555000  1.0
  C  C61  1  0.86244000  0.33152000  0.41446000  1.0
  C  C62  1  0.13755000  0.83158000  0.41445000  1.0
  C  C63  1  0.86243000  0.33152000  0.58554000  1.0
  C  C64  1  0.34627000  0.39095000  0.91405000  1.0
  C  C65  1  0.65371000  0.89099000  0.08596000  1.0
  C  C66  1  0.34627000  0.39095000  0.08595000  1.0
  C  C67  1  0.65371000  0.89100000  0.91405000  1.0
  C  C68  1  0.08517000  0.91048000  0.50000000  1.0
  C  C69  1  0.91479000  0.41041000  0.50000000  1.0
  C  C70  1  0.41061000  0.32011000  0.00000000  1.0
  C  C71  1  0.58942000  0.82017000  0.00000000  1.0
  C  C72  1  0.69644000  0.73548000  0.65283000  1.0
  C  C73  1  0.30359000  0.23548000  0.34717000  1.0
  C  C74  1  0.69644000  0.73547000  0.34717000  1.0
  C  C75  1  0.30359000  0.23548000  0.65283000  1.0
  C  C76  1  0.77557000  0.46474000  0.84877000  1.0
  C  C77  1  0.22441000  0.96474000  0.15121000  1.0
  C  C78  1  0.77557000  0.46474000  0.15122000  1.0
  C  C79  1  0.22441000  0.96474000  0.84878000  1.0
  C  C80  1  0.77459000  0.65464000  0.72908000  1.0
  C  C81  1  0.22542000  0.15464000  0.27093000  1.0
  C  C82  1  0.77460000  0.65464000  0.27092000  1.0
  C  C83  1  0.22542000  0.15465000  0.72907000  1.0
  C  C84  1  0.69573000  0.54578000  0.77303000  1.0
  C  C85  1  0.30427000  0.04577000  0.22697000  1.0
  C  C86  1  0.69573000  0.54577000  0.22698000  1.0
  C  C87  1  0.30427000  0.04578000  0.77303000  1.0
  N  N88  1  0.32234000  0.83437000  0.59729000  1.0
  N  N89  1  0.67769000  0.33433000  0.40269000  1.0
  N  N90  1  0.32234000  0.83437000  0.40271000  1.0
  N  N91  1  0.67769000  0.33433000  0.59731000  1.0
  N  N92  1  0.16248000  0.37123000  0.90376000  1.0
  N  N93  1  0.83751000  0.87129000  0.09625000  1.0
  N  N94  1  0.16248000  0.37123000  0.09624000  1.0
  N  N95  1  0.83751000  0.87129000  0.90375000  1.0
  O  O96  1  0.61427000  0.65675000  0.59554000  1.0
  O  O97  1  0.38589000  0.15680000  0.40445000  1.0
  O  O98  1  0.61426000  0.65675000  0.40446000  1.0
  O  O99  1  0.38588000  0.15680000  0.59555000  1.0
  O  O100  1  0.86314000  0.54240000  0.90432000  1.0
  O  O101  1  0.13683000  0.04240000  0.09568000  1.0
  O  O102  1  0.86314000  0.54240000  0.09568000  1.0
  O  O103  1  0.13683000  0.04240000  0.90432000  1.0
  O  O104  1  0.71378000  0.87332000  0.65145000  1.0
  O  O105  1  0.28618000  0.37331000  0.34854000  1.0
  O  O106  1  0.71379000  0.87332000  0.34855000  1.0
  O  O107  1  0.28618000  0.37331000  0.65146000  1.0
  O  O108  1  0.75447000  0.32720000  0.85110000  1.0
  O  O109  1  0.24556000  0.82719000  0.14894000  1.0
  O  O110  1  0.75447000  0.32719000  0.14890000  1.0
  O  O111  1  0.24556000  0.82719000  0.85106000  1.0
  O  O112  1  0.31341000  0.52999000  0.50000000  1.0
  O  O113  1  0.68672000  0.02998000  0.50000000  1.0
  O  O114  1  0.15421000  0.68125000  0.00000000  1.0
  O  O115  1  0.84580000  0.18125000  0.00000000  1.0
