# generated using pymatgen
data_Ag2HC2S2N2Cl
_symmetry_space_group_name_H-M   'P 1'
_cell_length_a   3.88779000
_cell_length_b   11.13330000
_cell_length_c   15.32560000
_cell_angle_alpha   90.00000000
_cell_angle_beta   92.44640000
_cell_angle_gamma   90.00000000
_symmetry_Int_Tables_number   1
_chemical_formula_structural   Ag2HC2S2N2Cl
_chemical_formula_sum   'Ag8 H4 C8 S8 N8 Cl4'
_cell_volume   662.74764877
_cell_formula_units_Z   4
loop_
 _symmetry_equiv_pos_site_id
 _symmetry_equiv_pos_as_xyz
  1  'x, y, z'
loop_
 _atom_site_type_symbol
 _atom_site_label
 _atom_site_symmetry_multiplicity
 _atom_site_fract_x
 _atom_site_fract_y
 _atom_site_fract_z
 _atom_site_occupancy
  Ag  Ag0  1  0.38617000  0.20655000  0.22410000  1.0
  Ag  Ag1  1  0.61383000  0.70655000  0.27590000  1.0
  Ag  Ag2  1  0.61383000  0.79345000  0.77590000  1.0
  Ag  Ag3  1  0.38617000  0.29345000  0.72410000  1.0
  Ag  Ag4  1  0.07563000  0.00889000  0.40331000  1.0
  Ag  Ag5  1  0.92437000  0.50889000  0.09669000  1.0
  Ag  Ag6  1  0.92437000  0.99111000  0.59669000  1.0
  Ag  Ag7  1  0.07563000  0.49111000  0.90331000  1.0
  H  H8  1  0.70002000  0.07813000  0.85682000  1.0
  H  H9  1  0.29998000  0.57813000  0.64318000  1.0
  H  H10  1  0.29997000  0.92187000  0.14318000  1.0
  H  H11  1  0.70003000  0.42187000  0.35682000  1.0
  C  C12  1  0.44215000  0.28199000  0.01376000  1.0
  C  C13  1  0.55785000  0.78199000  0.48624000  1.0
  C  C14  1  0.55785000  0.71801000  0.98624000  1.0
  C  C15  1  0.44215000  0.21801000  0.51376000  1.0
  C  C16  1  0.60352000  0.14815000  0.89924000  1.0
  C  C17  1  0.39648000  0.64815000  0.60077000  1.0
  C  C18  1  0.39647000  0.85186000  0.10076000  1.0
  C  C19  1  0.60353000  0.35186000  0.39924000  1.0
  S  S20  1  0.38437000  0.35871000  0.10910000  1.0
  S  S21  1  0.61563000  0.85871000  0.39090000  1.0
  S  S22  1  0.61563000  0.64129000  0.89090000  1.0
  S  S23  1  0.38437000  0.14129000  0.60910000  1.0
  S  S24  1  0.65956000  0.14594000  0.01104000  1.0
  S  S25  1  0.34044000  0.64594000  0.48896000  1.0
  S  S26  1  0.34044000  0.85406000  0.98896000  1.0
  S  S27  1  0.65956000  0.35406000  0.51104000  1.0
  N  N28  1  0.34093000  0.31873000  0.93411000  1.0
  N  N29  1  0.65907000  0.81873000  0.56589000  1.0
  N  N30  1  0.65906000  0.68127000  0.06589000  1.0
  N  N31  1  0.34093000  0.18127000  0.43411000  1.0
  N  N32  1  0.43600000  0.24256000  0.86954000  1.0
  N  N33  1  0.56400000  0.74256000  0.63046000  1.0
  N  N34  1  0.56399000  0.75744000  0.13046000  1.0
  N  N35  1  0.43601000  0.25744000  0.36954000  1.0
  Cl  Cl36  1  0.89832000  0.04792000  0.22734000  1.0
  Cl  Cl37  1  0.10168000  0.54792000  0.27266000  1.0
  Cl  Cl38  1  0.10168000  0.95208000  0.77266000  1.0
  Cl  Cl39  1  0.89832000  0.45208000  0.72734000  1.0
