# generated using pymatgen
data_HoH14C14N3O9F4
_symmetry_space_group_name_H-M   'P 1'
_cell_length_a   11.31010000
_cell_length_b   12.33152666
_cell_length_c   20.10770000
_cell_angle_alpha   91.26799986
_cell_angle_beta   106.33550000
_cell_angle_gamma   117.30224387
_symmetry_Int_Tables_number   1
_chemical_formula_structural   HoH14C14N3O9F4
_chemical_formula_sum   'Ho4 H56 C56 N12 O36 F16'
_cell_volume   2353.55815799
_cell_formula_units_Z   4
loop_
 _symmetry_equiv_pos_site_id
 _symmetry_equiv_pos_as_xyz
  1  'x, y, z'
loop_
 _atom_site_type_symbol
 _atom_site_label
 _atom_site_symmetry_multiplicity
 _atom_site_fract_x
 _atom_site_fract_y
 _atom_site_fract_z
 _atom_site_occupancy
  Ho  Ho0  1  0.75477000  0.89100000  0.69582000  1.0
  Ho  Ho1  1  0.66783000  0.60895000  0.80414000  1.0
  Ho  Ho2  1  0.24523000  0.10901000  0.30418000  1.0
  Ho  Ho3  1  0.33217000  0.39105000  0.19586000  1.0
  H  H4  1  0.01568000  0.97372000  0.61382000  1.0
  H  H5  1  0.92772000  0.52621000  0.88613000  1.0
  H  H6  1  0.98432000  0.02628000  0.38618000  1.0
  H  H7  1  0.07229000  0.47379000  0.11387000  1.0
  H  H8  1  0.01307000  0.25720000  0.65723000  1.0
  H  H9  1  0.59829000  0.24256000  0.84274000  1.0
  H  H10  1  0.98693000  0.74280000  0.34278000  1.0
  H  H11  1  0.40172000  0.75745000  0.15726000  1.0
  H  H12  1  0.05635000  0.31104000  0.58073000  1.0
  H  H13  1  0.66436000  0.18884000  0.91924000  1.0
  H  H14  1  0.94365000  0.68896000  0.41927000  1.0
  H  H15  1  0.33565000  0.81117000  0.08076000  1.0
  H  H16  1  0.19361000  0.34214000  0.66062000  1.0
  H  H17  1  0.69061000  0.15774000  0.83936000  1.0
  H  H18  1  0.80640000  0.65786000  0.33938000  1.0
  H  H19  1  0.30939000  0.84226000  0.16065000  1.0
  H  H20  1  0.14457000  0.06549000  0.54795000  1.0
  H  H21  1  0.03079000  0.43474000  0.95207000  1.0
  H  H22  1  0.85543000  0.93451000  0.45205000  1.0
  H  H23  1  0.96922000  0.56526000  0.04793000  1.0
  H  H24  1  0.26236000  0.22754000  0.57696000  1.0
  H  H25  1  0.95781000  0.27273000  0.92311000  1.0
  H  H26  1  0.73763000  0.77245000  0.42304000  1.0
  H  H27  1  0.04220000  0.72727000  0.07689000  1.0
  H  H28  1  0.10204000  0.17600000  0.50694000  1.0
  H  H29  1  0.91882000  0.32412000  0.99308000  1.0
  H  H30  1  0.89796000  0.82400000  0.49306000  1.0
  H  H31  1  0.08119000  0.67588000  0.00692000  1.0
  H  H32  1  0.51258000  0.99022000  0.68312000  1.0
  H  H33  1  0.33948000  0.50984000  0.81702000  1.0
  H  H34  1  0.48743000  0.00979000  0.31688000  1.0
  H  H35  1  0.66052000  0.49016000  0.18298000  1.0
  H  H36  1  0.39948000  0.09040000  0.68559000  1.0
  H  H37  1  0.12379000  0.40973000  0.81446000  1.0
  H  H38  1  0.60053000  0.90961000  0.31440000  1.0
  H  H39  1  0.87620000  0.59026000  0.18554000  1.0
  H  H40  1  0.43529000  0.20421000  0.62940000  1.0
  H  H41  1  0.10184000  0.29593000  0.87065000  1.0
  H  H42  1  0.56471000  0.79579000  0.37060000  1.0
  H  H43  1  0.89816000  0.70407000  0.12935000  1.0
  H  H44  1  0.50170000  0.25312000  0.72237000  1.0
  H  H45  1  0.02635000  0.24704000  0.77769000  1.0
  H  H46  1  0.49830000  0.74688000  0.27762000  1.0
  H  H47  1  0.97364000  0.75295000  0.22231000  1.0
  H  H48  1  0.82122000  0.28599000  0.70111000  1.0
  H  H49  1  0.33416000  0.21402000  0.79889000  1.0
  H  H50  1  0.17878000  0.71401000  0.29889000  1.0
  H  H51  1  0.66584000  0.78598000  0.20111000  1.0
  H  H52  1  0.73020000  0.36950000  0.71081000  1.0
  H  H53  1  0.14982000  0.13051000  0.78910000  1.0
  H  H54  1  0.26980000  0.63050000  0.28919000  1.0
  H  H55  1  0.85018000  0.86949000  0.21090000  1.0
  H  H56  1  0.71178000  0.30786000  0.62508000  1.0
  H  H57  1  0.27870000  0.19197000  0.87484000  1.0
  H  H58  1  0.28822000  0.69214000  0.37492000  1.0
  H  H59  1  0.72130000  0.80802000  0.12516000  1.0
  C  C60  1  0.47393000  0.75014000  0.75010000  1.0
  C  C61  1  0.52606000  0.24985000  0.24990000  1.0
  C  C62  1  0.34033000  0.75011000  0.75013000  1.0
  C  C63  1  0.65967000  0.24989000  0.24987000  1.0
  C  C64  1  0.34226000  0.85499000  0.77932000  1.0
  C  C65  1  0.20829000  0.64509000  0.72097000  1.0
  C  C66  1  0.65774000  0.14501000  0.22068000  1.0
  C  C67  1  0.79170000  0.35490000  0.27903000  1.0
  C  C68  1  0.21893000  0.85523000  0.77870000  1.0
  C  C69  1  0.08518000  0.64462000  0.72152000  1.0
  C  C70  1  0.78107000  0.14477000  0.22130000  1.0
  C  C71  1  0.91482000  0.35538000  0.27848000  1.0
  C  C72  1  0.08717000  0.74987000  0.75009000  1.0
  C  C73  1  0.91283000  0.25013000  0.24991000  1.0
  C  C74  1  0.95306000  0.74981000  0.75003000  1.0
  C  C75  1  0.04694000  0.25019000  0.24997000  1.0
  C  C76  1  0.58062000  0.56257000  0.65260000  1.0
  C  C77  1  0.86584000  0.93740000  0.84736000  1.0
  C  C78  1  0.41937000  0.43743000  0.34740000  1.0
  C  C79  1  0.13414000  0.06259000  0.15264000  1.0
  C  C80  1  0.53907000  0.53039000  0.57392000  1.0
  C  C81  1  0.93495000  0.96955000  0.92605000  1.0
  C  C82  1  0.46094000  0.46961000  0.42608000  1.0
  C  C83  1  0.06501000  0.03044000  0.07395000  1.0
  C  C84  1  0.63864000  0.54538000  0.54181000  1.0
  C  C85  1  0.05164000  0.95465000  0.95830000  1.0
  C  C86  1  0.36137000  0.45463000  0.45819000  1.0
  C  C87  1  0.94834000  0.04536000  0.04171000  1.0
  C  C88  1  0.40008000  0.48491000  0.53092000  1.0
  C  C89  1  0.88429000  0.01503000  0.96896000  1.0
  C  C90  1  0.59993000  0.51509000  0.46908000  1.0
  C  C91  1  0.11568000  0.98497000  0.03105000  1.0
  C  C92  1  0.01318000  0.05679000  0.63331000  1.0
  C  C93  1  0.82268000  0.44308000  0.86657000  1.0
  C  C94  1  0.98683000  0.94322000  0.36669000  1.0
  C  C95  1  0.17733000  0.55692000  0.13344000  1.0
  C  C96  1  0.08616000  0.27399000  0.62794000  1.0
  C  C97  1  0.68393000  0.22586000  0.87202000  1.0
  C  C98  1  0.91386000  0.72602000  0.37206000  1.0
  C  C99  1  0.31607000  0.77414000  0.12798000  1.0
  C  C100  1  0.15106000  0.15626000  0.55719000  1.0
  C  C101  1  0.93736000  0.34389000  0.94283000  1.0
  C  C102  1  0.84894000  0.84374000  0.44282000  1.0
  C  C103  1  0.06265000  0.65611000  0.05717000  1.0
  C  C104  1  0.60962000  0.07142000  0.68231000  1.0
  C  C105  1  0.35612000  0.42863000  0.81779000  1.0
  C  C106  1  0.39038000  0.92858000  0.31769000  1.0
  C  C107  1  0.64388000  0.57137000  0.18221000  1.0
  C  C108  1  0.47752000  0.18124000  0.67983000  1.0
  C  C109  1  0.11668000  0.31889000  0.82023000  1.0
  C  C110  1  0.52249000  0.81877000  0.32017000  1.0
  C  C111  1  0.88332000  0.68111000  0.17977000  1.0
  C  C112  1  0.72476000  0.29237000  0.67969000  1.0
  C  C113  1  0.25264000  0.20760000  0.82026000  1.0
  C  C114  1  0.27525000  0.70764000  0.32031000  1.0
  C  C115  1  0.74736000  0.79240000  0.17974000  1.0
  N  N116  1  0.08090000  0.15749000  0.60741000  1.0
  N  N117  1  0.81565000  0.34246000  0.89254000  1.0
  N  N118  1  0.91910000  0.84251000  0.39259000  1.0
  N  N119  1  0.18435000  0.65754000  0.10746000  1.0
  N  N120  1  0.60523000  0.17736000  0.68209000  1.0
  N  N121  1  0.24593000  0.32269000  0.81796000  1.0
  N  N122  1  0.39478000  0.82265000  0.31791000  1.0
  N  N123  1  0.75407000  0.67731000  0.18204000  1.0
  N  N124  1  0.60757000  0.81166000  0.54658000  1.0
  N  N125  1  0.74922000  0.68824000  0.95338000  1.0
  N  N126  1  0.39245000  0.18834000  0.45342000  1.0
  N  N127  1  0.25077000  0.31176000  0.04662000  1.0
  O  O128  1  0.55938000  0.84197000  0.73072000  1.0
  O  O129  1  0.48694000  0.65831000  0.76943000  1.0
  O  O130  1  0.44061000  0.15802000  0.26928000  1.0
  O  O131  1  0.51305000  0.34168000  0.23056000  1.0
  O  O132  1  0.93283000  0.83356000  0.72229000  1.0
  O  O133  1  0.87677000  0.66599000  0.77773000  1.0
  O  O134  1  0.06718000  0.16645000  0.27771000  1.0
  O  O135  1  0.12323000  0.33401000  0.22227000  1.0
  O  O136  1  0.64556000  0.67655000  0.68088000  1.0
  O  O137  1  0.78831000  0.82342000  0.81910000  1.0
  O  O138  1  0.35444000  0.32345000  0.31912000  1.0
  O  O139  1  0.21168000  0.17658000  0.18090000  1.0
  O  O140  1  0.55173000  0.47700000  0.68835000  1.0
  O  O141  1  0.88705000  0.02294000  0.81159000  1.0
  O  O142  1  0.44828000  0.52301000  0.31165000  1.0
  O  O143  1  0.11293000  0.97705000  0.18841000  1.0
  O  O144  1  0.95107000  0.05467000  0.67643000  1.0
  O  O145  1  0.71961000  0.44504000  0.82333000  1.0
  O  O146  1  0.04893000  0.94533000  0.32357000  1.0
  O  O147  1  0.28040000  0.55497000  0.17668000  1.0
  O  O148  1  0.71613000  0.06191000  0.68295000  1.0
  O  O149  1  0.47148000  0.43812000  0.81715000  1.0
  O  O150  1  0.28387000  0.93809000  0.31704000  1.0
  O  O151  1  0.52852000  0.56188000  0.18286000  1.0
  O  O152  1  0.54656000  0.82083000  0.58948000  1.0
  O  O153  1  0.63621000  0.67921000  0.91050000  1.0
  O  O154  1  0.45345000  0.17917000  0.41051000  1.0
  O  O155  1  0.36379000  0.32079000  0.08950000  1.0
  O  O156  1  0.54610000  0.77615000  0.48253000  1.0
  O  O157  1  0.78731000  0.72364000  0.01744000  1.0
  O  O158  1  0.45392000  0.22383000  0.51746000  1.0
  O  O159  1  0.21268000  0.27636000  0.98256000  1.0
  O  O160  1  0.73892000  0.84131000  0.57463000  1.0
  O  O161  1  0.82283000  0.65858000  0.92529000  1.0
  O  O162  1  0.26109000  0.15869000  0.42538000  1.0
  O  O163  1  0.17718000  0.34143000  0.07471000  1.0
  F  F164  1  0.46622000  0.95974000  0.81070000  1.0
  F  F165  1  0.19629000  0.54041000  0.68959000  1.0
  F  F166  1  0.53377000  0.04025000  0.18930000  1.0
  F  F167  1  0.80370000  0.45958000  0.31041000  1.0
  F  F168  1  0.23039000  0.96070000  0.80829000  1.0
  F  F169  1  0.96172000  0.53903000  0.69193000  1.0
  F  F170  1  0.76961000  0.03931000  0.19170000  1.0
  F  F171  1  0.03827000  0.46097000  0.30807000  1.0
  F  F172  1  0.77488000  0.58844000  0.58158000  1.0
  F  F173  1  0.10515000  0.91148000  0.91866000  1.0
  F  F174  1  0.22513000  0.41157000  0.41842000  1.0
  F  F175  1  0.89483000  0.08852000  0.08134000  1.0
  F  F176  1  0.30047000  0.47101000  0.56003000  1.0
  F  F177  1  0.76944000  0.02885000  0.93973000  1.0
  F  F178  1  0.69953000  0.52898000  0.43996000  1.0
  F  F179  1  0.23053000  0.97115000  0.06027000  1.0
