# generated using pymatgen
data_CoH22C14N2Cl2O
_symmetry_space_group_name_H-M   'P 1'
_cell_length_a   7.34051000
_cell_length_b   9.33601000
_cell_length_c   13.01620000
_cell_angle_alpha   69.98200000
_cell_angle_beta   90.00030000
_cell_angle_gamma   90.00010000
_symmetry_Int_Tables_number   1
_chemical_formula_structural   CoH22C14N2Cl2O
_chemical_formula_sum   'Co2 H44 C28 N4 Cl4 O2'
_cell_volume   838.12325100
_cell_formula_units_Z   2
loop_
 _symmetry_equiv_pos_site_id
 _symmetry_equiv_pos_as_xyz
  1  'x, y, z'
loop_
 _atom_site_type_symbol
 _atom_site_label
 _atom_site_symmetry_multiplicity
 _atom_site_fract_x
 _atom_site_fract_y
 _atom_site_fract_z
 _atom_site_occupancy
  Co  Co0  1  0.36036000  0.46226000  0.25231000  1.0
  Co  Co1  1  0.86036000  0.53774000  0.74769000  1.0
  H  H2  1  0.82340000  0.65365000  0.40459000  1.0
  H  H3  1  0.32340000  0.34635000  0.59541000  1.0
  H  H4  1  0.11652000  0.52024000  0.41166000  1.0
  H  H5  1  0.61653000  0.47975000  0.58834000  1.0
  H  H6  1  0.05193000  0.51725000  0.09510000  1.0
  H  H7  1  0.55193000  0.48275000  0.90490000  1.0
  H  H8  1  0.74872000  0.64124000  0.07671000  1.0
  H  H9  1  0.24872000  0.35877000  0.92328000  1.0
  H  H10  1  0.86252000  0.90755000  0.25068000  1.0
  H  H11  1  0.36252000  0.09245000  0.74932000  1.0
  H  H12  1  0.72559000  0.03932000  0.28626000  1.0
  H  H13  1  0.22559000  0.96068000  0.71374000  1.0
  H  H14  1  0.63111000  0.15603000  0.08903000  1.0
  H  H15  1  0.13111000  0.84397000  0.91097000  1.0
  H  H16  1  0.69350000  0.93364000  0.02613000  1.0
  H  H17  1  0.19350000  0.06636000  0.97387000  1.0
  H  H18  1  0.92978000  0.95025000  0.04817000  1.0
  H  H19  1  0.42978000  0.04975000  0.95183000  1.0
  H  H20  1  0.81299000  0.09889000  0.94630000  1.0
  H  H21  1  0.31299000  0.90111000  0.05370000  1.0
  H  H22  1  0.91944000  0.29715000  0.02994000  1.0
  H  H23  1  0.41943000  0.70285000  0.97007000  1.0
  H  H24  1  0.04242000  0.15346000  0.13238000  1.0
  H  H25  1  0.54242000  0.84653000  0.86763000  1.0
  H  H26  1  0.87629000  0.26508000  0.17001000  1.0
  H  H27  1  0.37629000  0.73491000  0.82999000  1.0
  H  H28  1  0.29577000  0.87766000  0.23884000  1.0
  H  H29  1  0.79577000  0.12234000  0.76116000  1.0
  H  H30  1  0.39534000  0.06315000  0.19576000  1.0
  H  H31  1  0.89535000  0.93685000  0.80424000  1.0
  H  H32  1  0.48183000  0.03478000  0.38268000  1.0
  H  H33  1  0.98183000  0.96522000  0.61732000  1.0
  H  H34  1  0.17666000  0.02655000  0.46182000  1.0
  H  H35  1  0.67666000  0.97345000  0.53818000  1.0
  H  H36  1  0.08687000  0.93423000  0.37458000  1.0
  H  H37  1  0.58687000  0.06577000  0.62542000  1.0
  H  H38  1  0.17015000  0.12547000  0.31879000  1.0
  H  H39  1  0.67015000  0.87453000  0.68121000  1.0
  H  H40  1  0.39326000  0.80207000  0.54151000  1.0
  H  H41  1  0.89326000  0.19793000  0.45849000  1.0
  H  H42  1  0.55657000  0.75712000  0.45735000  1.0
  H  H43  1  0.05657000  0.24288000  0.54265000  1.0
  H  H44  1  0.32271000  0.71018000  0.44993000  1.0
  H  H45  1  0.82271000  0.28982000  0.55006000  1.0
  C  C46  1  0.76201000  0.66171000  0.23841000  1.0
  C  C47  1  0.26201000  0.33830000  0.76158000  1.0
  C  C48  1  0.86636000  0.62445000  0.33403000  1.0
  C  C49  1  0.36636000  0.37555000  0.66596000  1.0
  C  C50  1  0.03159000  0.55057000  0.33865000  1.0
  C  C51  1  0.53159000  0.44943000  0.66135000  1.0
  C  C52  1  0.99445000  0.54739000  0.16216000  1.0
  C  C53  1  0.49444000  0.45261000  0.83783000  1.0
  C  C54  1  0.82530000  0.61782000  0.15233000  1.0
  C  C55  1  0.32530000  0.38218000  0.84766000  1.0
  C  C56  1  0.58381000  0.74172000  0.23137000  1.0
  C  C57  1  0.08381000  0.25828000  0.76863000  1.0
  C  C58  1  0.73992000  0.97843000  0.22791000  1.0
  C  C59  1  0.23992000  0.02157000  0.77209000  1.0
  C  C60  1  0.76034000  0.09300000  0.11127000  1.0
  C  C61  1  0.26034000  0.90700000  0.88873000  1.0
  C  C62  1  0.80102000  0.01402000  0.02874000  1.0
  C  C63  1  0.30102000  0.98598000  0.97126000  1.0
  C  C64  1  0.90830000  0.20828000  0.11091000  1.0
  C  C65  1  0.40830000  0.79172000  0.88910000  1.0
  C  C66  1  0.40432000  0.94712000  0.25572000  1.0
  C  C67  1  0.90432000  0.05288000  0.74427000  1.0
  C  C68  1  0.38288000  0.95220000  0.37192000  1.0
  C  C69  1  0.88288000  0.04780000  0.62808000  1.0
  C  C70  1  0.19306000  0.01343000  0.38179000  1.0
  C  C71  1  0.69306000  0.98657000  0.61821000  1.0
  C  C72  1  0.41620000  0.79675000  0.45957000  1.0
  C  C73  1  0.91619000  0.20325000  0.54043000  1.0
  N  N74  1  0.09748000  0.51538000  0.25331000  1.0
  N  N75  1  0.59748000  0.48462000  0.74669000  1.0
  N  N76  1  0.57929000  0.88027000  0.24040000  1.0
  N  N77  1  0.07929000  0.11973000  0.75960000  1.0
  Cl  Cl78  1  0.46123000  0.32990000  0.41614000  1.0
  Cl  Cl79  1  0.96123000  0.67010000  0.58386000  1.0
  Cl  Cl80  1  0.41340000  0.37285000  0.11930000  1.0
  Cl  Cl81  1  0.91340000  0.62715000  0.88070000  1.0
  O  O82  1  0.43704000  0.67627000  0.21970000  1.0
  O  O83  1  0.93704000  0.32373000  0.78030000  1.0
