# generated using pymatgen
data_ZnH16C20(NO3)2
_symmetry_space_group_name_H-M   'P 1'
_cell_length_a   6.87536000
_cell_length_b   11.00579233
_cell_length_c   12.30740000
_cell_angle_alpha   91.39351397
_cell_angle_beta   93.86940000
_cell_angle_gamma   106.84039903
_symmetry_Int_Tables_number   1
_chemical_formula_structural   ZnH16C20(NO3)2
_chemical_formula_sum   'Zn2 H32 C40 N4 O12'
_cell_volume   888.37744938
_cell_formula_units_Z   2
loop_
 _symmetry_equiv_pos_site_id
 _symmetry_equiv_pos_as_xyz
  1  'x, y, z'
loop_
 _atom_site_type_symbol
 _atom_site_label
 _atom_site_symmetry_multiplicity
 _atom_site_fract_x
 _atom_site_fract_y
 _atom_site_fract_z
 _atom_site_occupancy
  Zn  Zn0  1  0.73153000  0.17991000  0.79528000  1.0
  Zn  Zn1  1  0.26846000  0.82009000  0.20472000  1.0
  H  H2  1  0.70143000  0.62153000  0.78694000  1.0
  H  H3  1  0.29857000  0.37847000  0.21307000  1.0
  H  H4  1  0.26109000  0.15845000  0.10469000  1.0
  H  H5  1  0.73891000  0.84155000  0.89531000  1.0
  H  H6  1  0.22526000  0.36129000  0.58623000  1.0
  H  H7  1  0.77474000  0.63871000  0.41377000  1.0
  H  H8  1  0.00310000  0.89621000  0.82754000  1.0
  H  H9  1  0.99689000  0.10379000  0.17246000  1.0
  H  H10  1  0.57717000  0.22932000  0.01025000  1.0
  H  H11  1  0.42282000  0.77068000  0.98975000  1.0
  H  H12  1  0.85724000  0.53055000  0.52316000  1.0
  H  H13  1  0.14277000  0.46946000  0.47684000  1.0
  H  H14  1  0.05792000  0.56874000  0.81120000  1.0
  H  H15  1  0.94209000  0.43126000  0.18880000  1.0
  H  H16  1  0.15913000  0.51773000  0.97483000  1.0
  H  H17  1  0.84088000  0.48227000  0.02517000  1.0
  H  H18  1  0.28467000  0.40486000  0.01574000  1.0
  H  H19  1  0.71534000  0.59514000  0.98425000  1.0
  H  H20  1  0.34033000  0.23274000  0.71913000  1.0
  H  H21  1  0.65966000  0.76725000  0.28086000  1.0
  H  H22  1  0.06558000  0.72286000  0.66795000  1.0
  H  H23  1  0.93442000  0.27714000  0.33206000  1.0
  H  H24  1  0.94555000  0.38543000  0.65601000  1.0
  H  H25  1  0.05446000  0.61458000  0.34400000  1.0
  H  H26  1  0.33559000  0.97201000  0.74979000  1.0
  H  H27  1  0.66441000  0.02800000  0.25021000  1.0
  H  H28  1  0.38066000  0.82975000  0.58462000  1.0
  H  H29  1  0.61934000  0.17025000  0.41539000  1.0
  H  H30  1  0.65690000  0.86584000  0.50482000  1.0
  H  H31  1  0.34310000  0.13416000  0.49519000  1.0
  H  H32  1  0.92302000  0.89927000  0.53786000  1.0
  H  H33  1  0.07698000  0.10073000  0.46214000  1.0
  C  C34  1  0.09784000  0.02120000  0.97428000  1.0
  C  C35  1  0.90216000  0.97880000  0.02572000  1.0
  C  C36  1  0.53080000  0.45893000  0.54001000  1.0
  C  C37  1  0.46920000  0.54107000  0.45999000  1.0
  C  C38  1  0.56228000  0.64578000  0.76271000  1.0
  C  C39  1  0.43772000  0.35422000  0.23729000  1.0
  C  C40  1  0.26576000  0.11540000  0.02480000  1.0
  C  C41  1  0.73424000  0.88460000  0.97520000  1.0
  C  C42  1  0.38074000  0.58496000  0.80860000  1.0
  C  C43  1  0.61927000  0.41504000  0.19140000  1.0
  C  C44  1  0.56551000  0.73560000  0.68394000  1.0
  C  C45  1  0.43449000  0.26440000  0.31606000  1.0
  C  C46  1  0.05994000  0.33810000  0.88200000  1.0
  C  C47  1  0.94007000  0.66190000  0.11800000  1.0
  C  C48  1  0.38760000  0.37242000  0.59740000  1.0
  C  C49  1  0.61240000  0.62758000  0.40260000  1.0
  C  C50  1  0.77930000  0.01844000  0.62411000  1.0
  C  C51  1  0.22071000  0.98157000  0.37589000  1.0
  C  C52  1  0.12471000  0.96909000  0.87295000  1.0
  C  C53  1  0.87528000  0.03091000  0.12705000  1.0
  C  C54  1  0.44542000  0.15548000  0.97330000  1.0
  C  C55  1  0.55457000  0.84452000  0.02670000  1.0
  C  C56  1  0.73617000  0.46442000  0.56275000  1.0
  C  C57  1  0.26384000  0.53559000  0.43725000  1.0
  C  C58  1  0.20046000  0.61385000  0.77584000  1.0
  C  C59  1  0.79954000  0.38615000  0.22417000  1.0
  C  C60  1  0.22432000  0.44415000  0.94450000  1.0
  C  C61  1  0.77569000  0.55585000  0.05550000  1.0
  C  C62  1  0.45131000  0.29716000  0.67239000  1.0
  C  C63  1  0.54869000  0.70284000  0.32760000  1.0
  C  C64  1  0.20616000  0.70174000  0.69517000  1.0
  C  C65  1  0.79384000  0.29826000  0.30484000  1.0
  C  C66  1  0.78840000  0.38491000  0.63730000  1.0
  C  C67  1  0.21161000  0.61510000  0.36270000  1.0
  C  C68  1  0.31013000  0.01266000  0.82735000  1.0
  C  C69  1  0.68987000  0.98734000  0.17265000  1.0
  C  C70  1  0.38579000  0.76360000  0.64834000  1.0
  C  C71  1  0.61421000  0.23640000  0.35167000  1.0
  C  C72  1  0.77636000  0.88996000  0.57263000  1.0
  C  C73  1  0.22364000  0.11004000  0.42738000  1.0
  N  N74  1  0.46816000  0.10546000  0.87563000  1.0
  N  N75  1  0.53183000  0.89454000  0.12437000  1.0
  N  N76  1  0.64822000  0.30209000  0.69192000  1.0
  N  N77  1  0.35178000  0.69791000  0.30808000  1.0
  O  O78  1  0.89293000  0.29462000  0.92876000  1.0
  O  O79  1  0.10707000  0.70538000  0.07124000  1.0
  O  O80  1  0.75017000  0.02094000  0.72700000  1.0
  O  O81  1  0.24983000  0.97906000  0.27300000  1.0
  O  O82  1  0.39681000  0.49892000  0.88496000  1.0
  O  O83  1  0.60319000  0.50107000  0.11504000  1.0
  O  O84  1  0.75277000  0.78809000  0.64526000  1.0
  O  O85  1  0.24723000  0.21191000  0.35474000  1.0
  O  O86  1  0.08570000  0.29607000  0.78988000  1.0
  O  O87  1  0.91431000  0.70393000  0.21011000  1.0
  O  O88  1  0.80871000  0.10945000  0.56270000  1.0
  O  O89  1  0.19128000  0.89055000  0.43729000  1.0
