# generated using pymatgen
data_CuH13C19N3O4
_symmetry_space_group_name_H-M   'P 1'
_cell_length_a   7.74451000
_cell_length_b   10.13430000
_cell_length_c   12.89180000
_cell_angle_alpha   105.06570000
_cell_angle_beta   95.77430000
_cell_angle_gamma   92.86430000
_symmetry_Int_Tables_number   1
_chemical_formula_structural   CuH13C19N3O4
_chemical_formula_sum   'Cu2 H26 C38 N6 O8'
_cell_volume   969.02395436
_cell_formula_units_Z   2
loop_
 _symmetry_equiv_pos_site_id
 _symmetry_equiv_pos_as_xyz
  1  'x, y, z'
loop_
 _atom_site_type_symbol
 _atom_site_label
 _atom_site_symmetry_multiplicity
 _atom_site_fract_x
 _atom_site_fract_y
 _atom_site_fract_z
 _atom_site_occupancy
  Cu  Cu0  1  0.27266000  0.65388000  0.28251000  1.0
  Cu  Cu1  1  0.72733000  0.34611000  0.71749000  1.0
  H  H2  1  0.45216000  0.82102000  0.50566000  1.0
  H  H3  1  0.54787000  0.17898000  0.49434000  1.0
  H  H4  1  0.49134000  0.78211000  0.69110000  1.0
  H  H5  1  0.50871000  0.21788000  0.30890000  1.0
  H  H6  1  0.36010000  0.55910000  0.71514000  1.0
  H  H7  1  0.63991000  0.44091000  0.28486000  1.0
  H  H8  1  0.19355000  0.39146000  0.55838000  1.0
  H  H9  1  0.80645000  0.60856000  0.44162000  1.0
  H  H10  1  0.07103000  0.24776000  0.40460000  1.0
  H  H11  1  0.92896000  0.75225000  0.59540000  1.0
  H  H12  1  0.98255000  0.09890000  0.21680000  1.0
  H  H13  1  0.01742000  0.90111000  0.78321000  1.0
  H  H14  1  0.03637000  0.18658000  0.05689000  1.0
  H  H15  1  0.96359000  0.81342000  0.94312000  1.0
  H  H16  1  0.10726000  0.29274000  0.92777000  1.0
  H  H17  1  0.89278000  0.70725000  0.07224000  1.0
  H  H18  1  0.21502000  0.42305000  0.80928000  1.0
  H  H19  1  0.78499000  0.57694000  0.19072000  1.0
  H  H20  1  0.35854000  0.66401000  0.89185000  1.0
  H  H21  1  0.64145000  0.33598000  0.10814000  1.0
  H  H22  1  0.38572000  0.75793000  0.09503000  1.0
  H  H23  1  0.61429000  0.24206000  0.90496000  1.0
  H  H24  1  0.63696000  0.02685000  0.34386000  1.0
  H  H25  1  0.36302000  0.97315000  0.65613000  1.0
  H  H26  1  0.94749000  0.03045000  0.39188000  1.0
  H  H27  1  0.05248000  0.96955000  0.60812000  1.0
  C  C28  1  0.39835000  0.72751000  0.52121000  1.0
  C  C29  1  0.60168000  0.27249000  0.47878000  1.0
  C  C30  1  0.41735000  0.70527000  0.62403000  1.0
  C  C31  1  0.58269000  0.29472000  0.37596000  1.0
  C  C32  1  0.34342000  0.58368000  0.63769000  1.0
  C  C33  1  0.65660000  0.41631000  0.36231000  1.0
  C  C34  1  0.25185000  0.48751000  0.54913000  1.0
  C  C35  1  0.74816000  0.51250000  0.45088000  1.0
  C  C36  1  0.24169000  0.51548000  0.44849000  1.0
  C  C37  1  0.75832000  0.48452000  0.55152000  1.0
  C  C38  1  0.16582000  0.41739000  0.34651000  1.0
  C  C39  1  0.83418000  0.58262000  0.65350000  1.0
  C  C40  1  0.09009000  0.28491000  0.33381000  1.0
  C  C41  1  0.90990000  0.71510000  0.66620000  1.0
  C  C42  1  0.04117000  0.20270000  0.22859000  1.0
  C  C43  1  0.95881000  0.79731000  0.77142000  1.0
  C  C44  1  0.07037000  0.25107000  0.13913000  1.0
  C  C45  1  0.92962000  0.74893000  0.86088000  1.0
  C  C46  1  0.14485000  0.38488000  0.15736000  1.0
  C  C47  1  0.85515000  0.61512000  0.84263000  1.0
  C  C48  1  0.19424000  0.45349000  0.07557000  1.0
  C  C49  1  0.80577000  0.54651000  0.92444000  1.0
  C  C50  1  0.17161000  0.39488000  0.96400000  1.0
  C  C51  1  0.82841000  0.60511000  0.03600000  1.0
  C  C52  1  0.23010000  0.47028000  0.89621000  1.0
  C  C53  1  0.76991000  0.52970000  0.10379000  1.0
  C  C54  1  0.30991000  0.60210000  0.94197000  1.0
  C  C55  1  0.69010000  0.39790000  0.05803000  1.0
  C  C56  1  0.32628000  0.65533000  0.05391000  1.0
  C  C57  1  0.67372000  0.34467000  0.94609000  1.0
  C  C58  1  0.57754000  0.80532000  0.31125000  1.0
  C  C59  1  0.42244000  0.19467000  0.68873000  1.0
  C  C60  1  0.69722000  0.93090000  0.33828000  1.0
  C  C61  1  0.30274000  0.06910000  0.66171000  1.0
  C  C62  1  0.87011000  0.93187000  0.36290000  1.0
  C  C63  1  0.12987000  0.06814000  0.63710000  1.0
  C  C64  1  0.97228000  0.80984000  0.36248000  1.0
  C  C65  1  0.02772000  0.19016000  0.63753000  1.0
  N  N66  1  0.31432000  0.63448000  0.43590000  1.0
  N  N67  1  0.68569000  0.36551000  0.56410000  1.0
  N  N68  1  0.18513000  0.46361000  0.25923000  1.0
  N  N69  1  0.81488000  0.53639000  0.74078000  1.0
  N  N70  1  0.26997000  0.58280000  0.11862000  1.0
  N  N71  1  0.73003000  0.41720000  0.88137000  1.0
  O  O72  1  0.41199000  0.82676000  0.30172000  1.0
  O  O73  1  0.58800000  0.17323000  0.69827000  1.0
  O  O74  1  0.63146000  0.68866000  0.30187000  1.0
  O  O75  1  0.36853000  0.31134000  0.69812000  1.0
  O  O76  1  0.03706000  0.75857000  0.27452000  1.0
  O  O77  1  0.96294000  0.24144000  0.72549000  1.0
  O  O78  1  0.99533000  0.77476000  0.44926000  1.0
  O  O79  1  0.00465000  0.22526000  0.55074000  1.0
