# generated using pymatgen
data_ZnH12C31(N3O7)2
_symmetry_space_group_name_H-M   'P 1'
_cell_length_a   14.55500000
_cell_length_b   14.79100000
_cell_length_c   16.04280000
_cell_angle_alpha   88.21100000
_cell_angle_beta   71.01570000
_cell_angle_gamma   81.42930000
_symmetry_Int_Tables_number   1
_chemical_formula_structural   ZnH12C31(N3O7)2
_chemical_formula_sum   'Zn2 H24 C62 N12 O28'
_cell_volume   3228.86398799
_cell_formula_units_Z   2
loop_
 _symmetry_equiv_pos_site_id
 _symmetry_equiv_pos_as_xyz
  1  'x, y, z'
loop_
 _atom_site_type_symbol
 _atom_site_label
 _atom_site_symmetry_multiplicity
 _atom_site_fract_x
 _atom_site_fract_y
 _atom_site_fract_z
 _atom_site_occupancy
  Zn  Zn0  1  0.59942000  0.52537000  0.46011000  1.0
  Zn  Zn1  1  0.40000000  0.47211000  0.52973000  1.0
  H  H2  1  0.46299000  0.35856000  0.94661000  1.0
  H  H3  1  0.53633000  0.63995000  0.04516000  1.0
  H  H4  1  0.52874000  0.76767000  0.53415000  1.0
  H  H5  1  0.47664000  0.21251000  0.57150000  1.0
  H  H6  1  0.22095000  0.76815000  0.60499000  1.0
  H  H7  1  0.77841000  0.24392000  0.45017000  1.0
  H  H8  1  0.92260000  0.37085000  0.69770000  1.0
  H  H9  1  0.07159000  0.63693000  0.30128000  1.0
  H  H10  1  0.75336000  0.48649000  0.52597000  1.0
  H  H11  1  0.24622000  0.50444000  0.46168000  1.0
  H  H12  1  0.08136000  0.35057000  0.73423000  1.0
  H  H13  1  0.91162000  0.66314000  0.26783000  1.0
  H  H14  1  0.82836000  0.43452000  0.60295000  1.0
  H  H15  1  0.16733000  0.56845000  0.39307000  1.0
  H  H16  1  0.24815000  0.51269000  0.98875000  1.0
  H  H17  1  0.08045000  0.48012000  0.06816000  1.0
  H  H18  1  0.04068000  0.41592000  0.21916000  1.0
  H  H19  1  0.17078000  0.38555000  0.29042000  1.0
  H  H20  1  0.33813000  0.42113000  0.21253000  1.0
  H  H21  1  0.75421000  0.47905000  0.99880000  1.0
  H  H22  1  0.92055000  0.51529000  0.91969000  1.0
  H  H23  1  0.95568000  0.58984000  0.77344000  1.0
  H  H24  1  0.82257000  0.62607000  0.70596000  1.0
  H  H25  1  0.65697000  0.58690000  0.78308000  1.0
  C  C26  1  0.58946000  0.33360000  0.48630000  1.0
  C  C27  1  0.40299000  0.66145000  0.53549000  1.0
  C  C28  1  0.50957000  0.50598000  0.65300000  1.0
  C  C29  1  0.49185000  0.49415000  0.33829000  1.0
  C  C30  1  0.56329000  0.42778000  0.00601000  1.0
  C  C31  1  0.43599000  0.57078000  0.98584000  1.0
  C  C32  1  0.47904000  0.42165000  0.96881000  1.0
  C  C33  1  0.52015000  0.57688000  0.02306000  1.0
  C  C34  1  0.50875000  0.50740000  0.74302000  1.0
  C  C35  1  0.49029000  0.49209000  0.24895000  1.0
  C  C36  1  0.59342000  0.51287000  0.94573000  1.0
  C  C37  1  0.40581000  0.48567000  0.04615000  1.0
  C  C38  1  0.50593000  0.50583000  0.90762000  1.0
  C  C39  1  0.49323000  0.49268000  0.08428000  1.0
  C  C40  1  0.50814000  0.50843000  0.81894000  1.0
  C  C41  1  0.49099000  0.49046000  0.17300000  1.0
  C  C42  1  0.62275000  0.23641000  0.50538000  1.0
  C  C43  1  0.37888000  0.75854000  0.56994000  1.0
  C  C44  1  0.75177000  0.11071000  0.49857000  1.0
  C  C45  1  0.26560000  0.89351000  0.63041000  1.0
  C  C46  1  0.72302000  0.20052000  0.48149000  1.0
  C  C47  1  0.28221000  0.80304000  0.60360000  1.0
  C  C48  1  0.55379000  0.18291000  0.55181000  1.0
  C  C49  1  0.45608000  0.80431000  0.56729000  1.0
  C  C50  1  0.58162000  0.09076000  0.56946000  1.0
  C  C51  1  0.44108000  0.89353000  0.60141000  1.0
  C  C52  1  0.68229000  0.04992000  0.53662000  1.0
  C  C53  1  0.34215000  0.94191000  0.63343000  1.0
  C  C54  1  0.50598000  0.03579000  0.61031000  1.0
  C  C55  1  0.52366000  0.94084000  0.59486000  1.0
  C  C56  1  0.62503000  0.90095000  0.56786000  1.0
  C  C57  1  0.40939000  0.07354000  0.66597000  1.0
  C  C58  1  0.70074000  0.95257000  0.54159000  1.0
  C  C59  1  0.32952000  0.03095000  0.67232000  1.0
  C  C60  1  0.11336000  0.38515000  0.67301000  1.0
  C  C61  1  0.88086000  0.62372000  0.32604000  1.0
  C  C62  1  0.21066000  0.39605000  0.64662000  1.0
  C  C63  1  0.78424000  0.61087000  0.35066000  1.0
  C  C64  1  0.20503000  0.47124000  0.52066000  1.0
  C  C65  1  0.79289000  0.52515000  0.47051000  1.0
  C  C66  1  0.10427000  0.46581000  0.54050000  1.0
  C  C67  1  0.89233000  0.53449000  0.45353000  1.0
  C  C68  1  0.05773000  0.41838000  0.61805000  1.0
  C  C69  1  0.93763000  0.58597000  0.37862000  1.0
  C  C70  1  0.04832000  0.50614000  0.48560000  1.0
  C  C71  1  0.94816000  0.49404000  0.50845000  1.0
  C  C72  1  0.90527000  0.44339000  0.58495000  1.0
  C  C73  1  0.09076000  0.55862000  0.41038000  1.0
  C  C74  1  0.95744000  0.40734000  0.63846000  1.0
  C  C75  1  0.03767000  0.59753000  0.35865000  1.0
  C  C76  1  0.30466000  0.46970000  0.09562000  1.0
  C  C77  1  0.23129000  0.48597000  0.05536000  1.0
  C  C78  1  0.13673000  0.46726000  0.10004000  1.0
  C  C79  1  0.11450000  0.43121000  0.18470000  1.0
  C  C80  1  0.18734000  0.41423000  0.22463000  1.0
  C  C81  1  0.28183000  0.43379000  0.18076000  1.0
  C  C82  1  0.69413000  0.52990000  0.89604000  1.0
  C  C83  1  0.76915000  0.51011000  0.93405000  1.0
  C  C84  1  0.86289000  0.53100000  0.88960000  1.0
  C  C85  1  0.88255000  0.57269000  0.80752000  1.0
  C  C86  1  0.80811000  0.59298000  0.76972000  1.0
  C  C87  1  0.71443000  0.57130000  0.81331000  1.0
  N  N88  1  0.25784000  0.43598000  0.57116000  1.0
  N  N89  1  0.73970000  0.56279000  0.42129000  1.0
  N  N90  1  0.72246000  0.65608000  0.29937000  1.0
  N  N91  1  0.27007000  0.35924000  0.70262000  1.0
  N  N92  1  0.63530000  0.34887000  0.01084000  1.0
  N  N93  1  0.36379000  0.64946000  0.98113000  1.0
  N  N94  1  0.80186000  0.90155000  0.50961000  1.0
  N  N95  1  0.22920000  0.07533000  0.72501000  1.0
  N  N96  1  0.85807000  0.08534000  0.48287000  1.0
  N  N97  1  0.16307000  0.93826000  0.64721000  1.0
  N  N98  1  0.65209000  0.80083000  0.57522000  1.0
  N  N99  1  0.40286000  0.14322000  0.73468000  1.0
  O  O100  1  0.65408000  0.38666000  0.46361000  1.0
  O  O101  1  0.33434000  0.61355000  0.55011000  1.0
  O  O102  1  0.49855000  0.35400000  0.49648000  1.0
  O  O103  1  0.49367000  0.63577000  0.49579000  1.0
  O  O104  1  0.58800000  0.52168000  0.59387000  1.0
  O  O105  1  0.41101000  0.48836000  0.39951000  1.0
  O  O106  1  0.43095000  0.48903000  0.64202000  1.0
  O  O107  1  0.57420000  0.50160000  0.34674000  1.0
  O  O108  1  0.76490000  0.66911000  0.22049000  1.0
  O  O109  1  0.63445000  0.67912000  0.33998000  1.0
  O  O110  1  0.35390000  0.32026000  0.66396000  1.0
  O  O111  1  0.23052000  0.36929000  0.78308000  1.0
  O  O112  1  0.66060000  0.29260000  0.94890000  1.0
  O  O113  1  0.66748000  0.34592000  0.07365000  1.0
  O  O114  1  0.33913000  0.70626000  0.04262000  1.0
  O  O115  1  0.33062000  0.65173000  0.91898000  1.0
  O  O116  1  0.83071000  0.85281000  0.56241000  1.0
  O  O117  1  0.84711000  0.91047000  0.43068000  1.0
  O  O118  1  0.18409000  0.03190000  0.78803000  1.0
  O  O119  1  0.19878000  0.14902000  0.69846000  1.0
  O  O120  1  0.91545000  0.11551000  0.41678000  1.0
  O  O121  1  0.88126000  0.03992000  0.54120000  1.0
  O  O122  1  0.15277000  0.01231000  0.61053000  1.0
  O  O123  1  0.09675000  0.89648000  0.69136000  1.0
  O  O124  1  0.62325000  0.76984000  0.64990000  1.0
  O  O125  1  0.70159000  0.75701000  0.50690000  1.0
  O  O126  1  0.47960000  0.17035000  0.73308000  1.0
  O  O127  1  0.32278000  0.16264000  0.79292000  1.0
