# generated using pymatgen
data_Zn4H40C48N4O13
_symmetry_space_group_name_H-M   'P 1'
_cell_length_a   23.83477671
_cell_length_b   23.83460000
_cell_length_c   23.83390000
_cell_angle_alpha   113.10650000
_cell_angle_beta   107.68966170
_cell_angle_gamma   107.68172137
_symmetry_Int_Tables_number   1
_chemical_formula_structural   Zn4H40C48N4O13
_chemical_formula_sum   'Zn8 H80 C96 N8 O26'
_cell_volume   10391.06774197
_cell_formula_units_Z   2
loop_
 _symmetry_equiv_pos_site_id
 _symmetry_equiv_pos_as_xyz
  1  'x, y, z'
loop_
 _atom_site_type_symbol
 _atom_site_label
 _atom_site_symmetry_multiplicity
 _atom_site_fract_x
 _atom_site_fract_y
 _atom_site_fract_z
 _atom_site_occupancy
  Zn  Zn0  1  0.94294000  0.90036000  0.45646000  1.0
  Zn  Zn1  1  0.94295000  0.04259000  0.48648000  1.0
  Zn  Zn2  1  0.05707000  0.04354000  0.59965000  1.0
  Zn  Zn3  1  0.05705000  0.01352000  0.45741000  1.0
  Zn  Zn4  1  0.05611000  0.59965000  0.04259000  1.0
  Zn  Zn5  1  0.94388000  0.45741000  0.90034000  1.0
  Zn  Zn6  1  0.05611000  0.45647000  0.01352000  1.0
  Zn  Zn7  1  0.94390000  0.48648000  0.04354000  1.0
  H  H8  1  0.07669000  0.72774000  0.96347000  1.0
  H  H9  1  0.92332000  0.53652000  0.77224000  1.0
  H  H10  1  0.07495000  0.96460000  0.72755000  1.0
  H  H11  1  0.92510000  0.77249000  0.53541000  1.0
  H  H12  1  0.92329000  0.38674000  0.15101000  1.0
  H  H13  1  0.07667000  0.34891000  0.11319000  1.0
  H  H14  1  0.92509000  0.15263000  0.38967000  1.0
  H  H15  1  0.07494000  0.11036000  0.34743000  1.0
  H  H16  1  0.26294000  0.72752000  0.15258000  1.0
  H  H17  1  0.26294000  0.53542000  0.11034000  1.0
  H  H18  1  0.73572000  0.96349000  0.38683000  1.0
  H  H19  1  0.73573000  0.77228000  0.34898000  1.0
  H  H20  1  0.73704000  0.34739000  0.77247000  1.0
  H  H21  1  0.73707000  0.38967000  0.96460000  1.0
  H  H22  1  0.26427000  0.11319000  0.53651000  1.0
  H  H23  1  0.26428000  0.15105000  0.72774000  1.0
  H  H24  1  0.08442000  0.92561000  0.33505000  1.0
  H  H25  1  0.09105000  0.89417000  0.26034000  1.0
  H  H26  1  0.90947000  0.57439000  0.15883000  1.0
  H  H27  1  0.86618000  0.60582000  0.19687000  1.0
  H  H28  1  0.09056000  0.74938000  0.16495000  1.0
  H  H29  1  0.13383000  0.83072000  0.23967000  1.0
  H  H30  1  0.91554000  0.75062000  0.34114000  1.0
  H  H31  1  0.90894000  0.66930000  0.30311000  1.0
  H  H32  1  0.08446000  0.15885000  0.74942000  1.0
  H  H33  1  0.09107000  0.19691000  0.83076000  1.0
  H  H34  1  0.90944000  0.33505000  0.75058000  1.0
  H  H35  1  0.86616000  0.26032000  0.66924000  1.0
  H  H36  1  0.09053000  0.34119000  0.92563000  1.0
  H  H37  1  0.13381000  0.30313000  0.89420000  1.0
  H  H38  1  0.91557000  0.16491000  0.57437000  1.0
  H  H39  1  0.90895000  0.23963000  0.60580000  1.0
  H  H40  1  0.91995000  0.54364000  0.65896000  1.0
  H  H41  1  0.91250000  0.61732000  0.66457000  1.0
  H  H42  1  0.85640000  0.55840000  0.67492000  1.0
  H  H43  1  0.08006000  0.84097000  0.95634000  1.0
  H  H44  1  0.08752000  0.83541000  0.88268000  1.0
  H  H45  1  0.14363000  0.82505000  0.94159000  1.0
  H  H46  1  0.85695000  0.67557000  0.55913000  1.0
  H  H47  1  0.91449000  0.66470000  0.61611000  1.0
  H  H48  1  0.91940000  0.65966000  0.54155000  1.0
  H  H49  1  0.14310000  0.94086000  0.82449000  1.0
  H  H50  1  0.08553000  0.88388000  0.83532000  1.0
  H  H51  1  0.08062000  0.95844000  0.84034000  1.0
  H  H52  1  0.08006000  0.23903000  0.12369000  1.0
  H  H53  1  0.08749000  0.25206000  0.20481000  1.0
  H  H54  1  0.14360000  0.31853000  0.20202000  1.0
  H  H55  1  0.91994000  0.37628000  0.26091000  1.0
  H  H56  1  0.91247000  0.29514000  0.24787000  1.0
  H  H57  1  0.85636000  0.29795000  0.18139000  1.0
  H  H58  1  0.14309000  0.20222000  0.31864000  1.0
  H  H59  1  0.08555000  0.20165000  0.25024000  1.0
  H  H60  1  0.08062000  0.12218000  0.24030000  1.0
  H  H61  1  0.85695000  0.18141000  0.29778000  1.0
  H  H62  1  0.91451000  0.24983000  0.29838000  1.0
  H  H63  1  0.91941000  0.25975000  0.37784000  1.0
  H  H64  1  0.38362000  0.55916000  0.20224000  1.0
  H  H65  1  0.45143000  0.61612000  0.20164000  1.0
  H  H66  1  0.38188000  0.54156000  0.12217000  1.0
  H  H67  1  0.38357000  0.82443000  0.18136000  1.0
  H  H68  1  0.45143000  0.83532000  0.24978000  1.0
  H  H69  1  0.38190000  0.84034000  0.25973000  1.0
  H  H70  1  0.61538000  0.65904000  0.23911000  1.0
  H  H71  1  0.54727000  0.66460000  0.25213000  1.0
  H  H72  1  0.61655000  0.67496000  0.31861000  1.0
  H  H73  1  0.61533000  0.95637000  0.37633000  1.0
  H  H74  1  0.54725000  0.88267000  0.29519000  1.0
  H  H75  1  0.61652000  0.94158000  0.29800000  1.0
  H  H76  1  0.61641000  0.29777000  0.94087000  1.0
  H  H77  1  0.54859000  0.29837000  0.88391000  1.0
  H  H78  1  0.61814000  0.37783000  0.95846000  1.0
  H  H79  1  0.61639000  0.31859000  0.67554000  1.0
  H  H80  1  0.54855000  0.25018000  0.66468000  1.0
  H  H81  1  0.61807000  0.24023000  0.65964000  1.0
  H  H82  1  0.38464000  0.26092000  0.84098000  1.0
  H  H83  1  0.45275000  0.24790000  0.83543000  1.0
  H  H84  1  0.38348000  0.18144000  0.82507000  1.0
  H  H85  1  0.38466000  0.12368000  0.54363000  1.0
  H  H86  1  0.45274000  0.20482000  0.61733000  1.0
  H  H87  1  0.38344000  0.20198000  0.55839000  1.0
  C  C88  1  0.81778000  0.90891000  0.40893000  1.0
  C  C89  1  0.00001000  0.13927000  0.63929000  1.0
  C  C90  1  0.00003000  0.90949000  0.59052000  1.0
  C  C91  1  0.18222000  0.09109000  0.59110000  1.0
  C  C92  1  0.99997000  0.86072000  0.36069000  1.0
  C  C93  1  1.00000000  0.09053000  0.40950000  1.0
  C  C94  1  1.00000000  0.59110000  0.90888000  1.0
  C  C95  1  0.99997000  0.36072000  0.86070000  1.0
  C  C96  1  0.18102000  0.59051000  0.09051000  1.0
  C  C97  1  0.99999000  0.40886000  0.09108000  1.0
  C  C98  1  0.00002000  0.63929000  0.13929000  1.0
  C  C99  1  0.81897000  0.40948000  0.90948000  1.0
  C  C100  1  0.99998000  0.80459000  0.30457000  1.0
  C  C101  1  0.00001000  0.69542000  0.19542000  1.0
  C  C102  1  0.04336000  0.82062000  0.27658000  1.0
  C  C103  1  0.95597000  0.67938000  0.22274000  1.0
  C  C104  1  0.04403000  0.76678000  0.22341000  1.0
  C  C105  1  0.95662000  0.73322000  0.27723000  1.0
  C  C106  1  1.00000000  0.19540000  0.69542000  1.0
  C  C107  1  0.99997000  0.30458000  0.80458000  1.0
  C  C108  1  0.04337000  0.22276000  0.76680000  1.0
  C  C109  1  0.95595000  0.27657000  0.73320000  1.0
  C  C110  1  0.04402000  0.27726000  0.82063000  1.0
  C  C111  1  0.95663000  0.22339000  0.67937000  1.0
  C  C112  1  0.00002000  0.62858000  0.87140000  1.0
  C  C113  1  0.04329000  0.70023000  0.90763000  1.0
  C  C114  1  0.04408000  0.73641000  0.87381000  1.0
  C  C115  1  0.00003000  0.69921000  0.80075000  1.0
  C  C116  1  0.95596000  0.62616000  0.76355000  1.0
  C  C117  1  0.95673000  0.59235000  0.79973000  1.0
  C  C118  1  0.00004000  0.73492000  0.76505000  1.0
  C  C119  1  0.00006000  0.76573000  0.73425000  1.0
  C  C120  1  0.00005000  0.80144000  0.69855000  1.0
  C  C121  1  0.04348000  0.87465000  0.73596000  1.0
  C  C122  1  0.04232000  0.90856000  0.69987000  1.0
  C  C123  1  0.00003000  0.87204000  0.62797000  1.0
  C  C124  1  0.95774000  0.80015000  0.59146000  1.0
  C  C125  1  0.95659000  0.76404000  0.62533000  1.0
  C  C126  1  0.99997000  0.37136000  0.12854000  1.0
  C  C127  1  0.95670000  0.36432000  0.15692000  1.0
  C  C128  1  0.95591000  0.32971000  0.19231000  1.0
  C  C129  1  0.99998000  0.30073000  0.19919000  1.0
  C  C130  1  0.04404000  0.30759000  0.17020000  1.0
  C  C131  1  0.04326000  0.34299000  0.13560000  1.0
  C  C132  1  1.00000000  0.26505000  0.23492000  1.0
  C  C133  1  0.00003000  0.23429000  0.26576000  1.0
  C  C134  1  0.00004000  0.19860000  0.30148000  1.0
  C  C135  1  0.95658000  0.19254000  0.33123000  1.0
  C  C136  1  0.95772000  0.15760000  0.36627000  1.0
  C  C137  1  0.00002000  0.12800000  0.37206000  1.0
  C  C138  1  0.04231000  0.13377000  0.34246000  1.0
  C  C139  1  0.04347000  0.16882000  0.30752000  1.0
  C  C140  1  0.25593000  0.62797000  0.12797000  1.0
  C  C141  1  0.29131000  0.69986000  0.15757000  1.0
  C  C142  1  0.36130000  0.73596000  0.19253000  1.0
  C  C143  1  0.39712000  0.69857000  0.19860000  1.0
  C  C144  1  0.36130000  0.62535000  0.16881000  1.0
  C  C145  1  0.29132000  0.59146000  0.13376000  1.0
  C  C146  1  0.46852000  0.73428000  0.23433000  1.0
  C  C147  1  0.53013000  0.76508000  0.26512000  1.0
  C  C148  1  0.60154000  0.80080000  0.30085000  1.0
  C  C149  1  0.63740000  0.87385000  0.32983000  1.0
  C  C150  1  0.70739000  0.90766000  0.36440000  1.0
  C  C151  1  0.74283000  0.87144000  0.37147000  1.0
  C  C152  1  0.70740000  0.79978000  0.34309000  1.0
  C  C153  1  0.63740000  0.76360000  0.30769000  1.0
  C  C154  1  0.74406000  0.37201000  0.87203000  1.0
  C  C155  1  0.70868000  0.34241000  0.80013000  1.0
  C  C156  1  0.63869000  0.30744000  0.76403000  1.0
  C  C157  1  0.60288000  0.30138000  0.80144000  1.0
  C  C158  1  0.63871000  0.33118000  0.87467000  1.0
  C  C159  1  0.70869000  0.36624000  0.90855000  1.0
  C  C160  1  0.53148000  0.26566000  0.76573000  1.0
  C  C161  1  0.46987000  0.23486000  0.73493000  1.0
  C  C162  1  0.39847000  0.19918000  0.69922000  1.0
  C  C163  1  0.36260000  0.17019000  0.62615000  1.0
  C  C164  1  0.29260000  0.13560000  0.59234000  1.0
  C  C165  1  0.25718000  0.12856000  0.62858000  1.0
  C  C166  1  0.29261000  0.15695000  0.70024000  1.0
  C  C167  1  0.36261000  0.19233000  0.73642000  1.0
  C  C168  1  0.90883000  0.58452000  0.68642000  1.0
  C  C169  1  0.09119000  0.81354000  0.91546000  1.0
  C  C170  1  0.90952000  0.68690000  0.58365000  1.0
  C  C171  1  0.09051000  0.91633000  0.81312000  1.0
  C  C172  1  0.09117000  0.27759000  0.17568000  1.0
  C  C173  1  0.90880000  0.32426000  0.22234000  1.0
  C  C174  1  0.09051000  0.17417000  0.27741000  1.0
  C  C175  1  0.90953000  0.22265000  0.32585000  1.0
  C  C176  1  0.39678000  0.58368000  0.17418000  1.0
  C  C177  1  0.39677000  0.81311000  0.22261000  1.0
  C  C178  1  0.60192000  0.68646000  0.27766000  1.0
  C  C179  1  0.60191000  0.91549000  0.32433000  1.0
  C  C180  1  0.60323000  0.32582000  0.91634000  1.0
  C  C181  1  0.60321000  0.27735000  0.68689000  1.0
  C  C182  1  0.39808000  0.22236000  0.81355000  1.0
  C  C183  1  0.39808000  0.17567000  0.58451000  1.0
  N  N184  1  0.08857000  0.88807000  0.29963000  1.0
  N  N185  1  0.91158000  0.61193000  0.20051000  1.0
  N  N186  1  0.08844000  0.78895000  0.20037000  1.0
  N  N187  1  0.91140000  0.71105000  0.29946000  1.0
  N  N188  1  0.08859000  0.20053000  0.78898000  1.0
  N  N189  1  0.91155000  0.29961000  0.71101000  1.0
  N  N190  1  0.08842000  0.29951000  0.88810000  1.0
  N  N191  1  0.91142000  0.20034000  0.61190000  1.0
  O  O192  1  0.00000000  0.00000000  0.50000000  1.0
  O  O193  1  0.84703000  0.87359000  0.41713000  1.0
  O  O194  1  0.95554000  0.11086000  0.57565000  1.0
  O  O195  1  0.03650000  0.97577000  0.62760000  1.0
  O  O196  1  0.84703000  0.97345000  0.42994000  1.0
  O  O197  1  0.96355000  0.87240000  0.52423000  1.0
  O  O198  1  0.04450000  0.12013000  0.65539000  1.0
  O  O199  1  0.15298000  0.08290000  0.62641000  1.0
  O  O200  1  0.04445000  0.92435000  0.38909000  1.0
  O  O201  1  0.15297000  0.07005000  0.52653000  1.0
  O  O202  1  0.95550000  0.84464000  0.37985000  1.0
  O  O203  1  0.96353000  0.09113000  0.43930000  1.0
  O  O204  1  0.03648000  0.06072000  0.40889000  1.0
  O  O205  1  1.00000000  0.50000000  0.00000000  1.0
  O  O206  1  0.04352000  0.62642000  0.97344000  1.0
  O  O207  1  0.96473000  0.38911000  0.84461000  1.0
  O  O208  1  0.15183000  0.52423000  0.06070000  1.0
  O  O209  1  0.95647000  0.52655000  0.87357000  1.0
  O  O210  1  0.15183000  0.62760000  0.09113000  1.0
  O  O211  1  0.03521000  0.37989000  0.92435000  1.0
  O  O212  1  0.04352000  0.41710000  0.07007000  1.0
  O  O213  1  0.96480000  0.57566000  0.12014000  1.0
  O  O214  1  0.95647000  0.42991000  0.08288000  1.0
  O  O215  1  0.03525000  0.65537000  0.11089000  1.0
  O  O216  1  0.84816000  0.40887000  0.87240000  1.0
  O  O217  1  0.84817000  0.43930000  0.97577000  1.0
