# generated using pymatgen
data_Na2H16C16O7
_symmetry_space_group_name_H-M   'P 1'
_cell_length_a   6.16899000
_cell_length_b   7.49224000
_cell_length_c   17.46700000
_cell_angle_alpha   77.64500000
_cell_angle_beta   82.15530000
_cell_angle_gamma   89.97130000
_symmetry_Int_Tables_number   1
_chemical_formula_structural   Na2H16C16O7
_chemical_formula_sum   'Na4 H32 C32 O14'
_cell_volume   780.89607463
_cell_formula_units_Z   2
loop_
 _symmetry_equiv_pos_site_id
 _symmetry_equiv_pos_as_xyz
  1  'x, y, z'
loop_
 _atom_site_type_symbol
 _atom_site_label
 _atom_site_symmetry_multiplicity
 _atom_site_fract_x
 _atom_site_fract_y
 _atom_site_fract_z
 _atom_site_occupancy
  Na  Na0  1  0.03753000  0.64547000  0.06357000  1.0
  Na  Na1  1  0.53746000  0.29126000  0.06357000  1.0
  Na  Na2  1  0.96246000  0.35453000  0.93643000  1.0
  Na  Na3  1  0.46253000  0.70874000  0.93642000  1.0
  H  H4  1  0.25636000  0.03579000  0.95511000  1.0
  H  H5  1  0.75619000  0.00890000  0.95529000  1.0
  H  H6  1  0.74363000  0.96421000  0.04489000  1.0
  H  H7  1  0.24381000  0.99110000  0.04471000  1.0
  H  H8  1  0.43996000  0.67264000  0.24381000  1.0
  H  H9  1  0.94015000  0.08451000  0.24374000  1.0
  H  H10  1  0.56004000  0.32736000  0.75618000  1.0
  H  H11  1  0.05985000  0.91549000  0.75626000  1.0
  H  H12  1  0.35133000  0.87554000  0.18307000  1.0
  H  H13  1  0.85154000  0.94216000  0.18306000  1.0
  H  H14  1  0.64867000  0.12446000  0.81692000  1.0
  H  H15  1  0.14846000  0.05785000  0.81694000  1.0
  H  H16  1  0.78286000  0.46100000  0.23496000  1.0
  H  H17  1  0.28241000  0.30460000  0.23513000  1.0
  H  H18  1  0.21714000  0.53900000  0.76504000  1.0
  H  H19  1  0.71759000  0.69540000  0.76486000  1.0
  H  H20  1  0.55486000  0.38548000  0.36743000  1.0
  H  H21  1  0.05423000  0.24703000  0.36758000  1.0
  H  H22  1  0.44514000  0.61453000  0.63258000  1.0
  H  H23  1  0.94577000  0.75297000  0.63242000  1.0
  H  H24  1  0.67400000  0.49562000  0.48119000  1.0
  H  H25  1  0.17380000  0.02290000  0.48118000  1.0
  H  H26  1  0.32601000  0.50438000  0.51881000  1.0
  H  H27  1  0.82620000  0.97711000  0.51882000  1.0
  H  H28  1  0.01023000  0.69389000  0.45871000  1.0
  H  H29  1  0.51072000  0.84771000  0.45849000  1.0
  H  H30  1  0.98978000  0.30611000  0.54129000  1.0
  H  H31  1  0.48928000  0.15230000  0.54151000  1.0
  H  H32  1  0.23205000  0.77366000  0.32783000  1.0
  H  H33  1  0.73260000  0.89946000  0.32764000  1.0
  H  H34  1  0.76796000  0.22633000  0.67217000  1.0
  H  H35  1  0.26740000  0.10054000  0.67236000  1.0
  C  C36  1  0.50727000  0.68106000  0.12021000  1.0
  C  C37  1  0.00725000  0.19934000  0.12014000  1.0
  C  C38  1  0.49272000  0.31893000  0.87979000  1.0
  C  C39  1  0.99274000  0.80066000  0.87985000  1.0
  C  C40  1  0.36158000  0.72604000  0.19093000  1.0
  C  C41  1  0.86168000  0.08384000  0.19089000  1.0
  C  C42  1  0.63841000  0.27396000  0.80907000  1.0
  C  C43  1  0.13832000  0.91616000  0.80911000  1.0
  C  C44  1  0.02392000  0.61756000  0.27326000  1.0
  C  C45  1  0.52396000  0.10991000  0.27325000  1.0
  C  C46  1  0.97608000  0.38244000  0.72674000  1.0
  C  C47  1  0.47604000  0.89009000  0.72675000  1.0
  C  C48  1  0.82995000  0.51174000  0.28450000  1.0
  C  C49  1  0.32973000  0.20429000  0.28458000  1.0
  C  C50  1  0.17005000  0.48827000  0.71550000  1.0
  C  C51  1  0.67027000  0.79571000  0.71542000  1.0
  C  C52  1  0.70387000  0.46963000  0.35895000  1.0
  C  C53  1  0.20356000  0.17162000  0.35904000  1.0
  C  C54  1  0.29614000  0.53038000  0.64105000  1.0
  C  C55  1  0.79644000  0.82838000  0.64096000  1.0
  C  C56  1  0.76940000  0.53211000  0.42249000  1.0
  C  C57  1  0.26929000  0.04546000  0.42248000  1.0
  C  C58  1  0.23061000  0.46789000  0.57751000  1.0
  C  C59  1  0.73071000  0.95454000  0.57752000  1.0
  C  C60  1  0.95889000  0.64161000  0.41015000  1.0
  C  C61  1  0.45915000  0.94861000  0.41003000  1.0
  C  C62  1  0.04112000  0.35839000  0.58985000  1.0
  C  C63  1  0.54086000  0.05139000  0.58996000  1.0
  C  C64  1  0.08642000  0.68630000  0.33580000  1.0
  C  C65  1  0.58670000  0.97863000  0.33569000  1.0
  C  C66  1  0.91358000  0.31370000  0.66420000  1.0
  C  C67  1  0.41329000  0.02137000  0.66431000  1.0
  O  O68  1  0.14571000  0.64534000  0.19943000  1.0
  O  O69  1  0.64577000  0.15611000  0.19943000  1.0
  O  O70  1  0.85428000  0.35466000  0.80058000  1.0
  O  O71  1  0.35423000  0.84389000  0.80057000  1.0
  O  O72  1  0.43099000  0.58242000  0.07900000  1.0
  O  O73  1  0.93084000  0.33914000  0.07898000  1.0
  O  O74  1  0.56900000  0.41757000  0.92100000  1.0
  O  O75  1  0.06916000  0.66086000  0.92102000  1.0
  O  O76  1  0.70055000  0.74906000  0.10942000  1.0
  O  O77  1  0.20058000  0.14206000  0.10931000  1.0
  O  O78  1  0.29945000  0.25094000  0.89058000  1.0
  O  O79  1  0.79942000  0.85794000  0.89069000  1.0
  O  O80  1  0.25007000  0.92863000  0.99992000  1.0
  O  O81  1  0.74993000  0.07137000  0.00008000  1.0
