# generated using pymatgen
data_ZnH24C30(NO)4
_symmetry_space_group_name_H-M   'P 1'
_cell_length_a   9.25058000
_cell_length_b   10.93790000
_cell_length_c   16.19200000
_cell_angle_alpha   107.66300000
_cell_angle_beta   90.00000000
_cell_angle_gamma   115.01600000
_symmetry_Int_Tables_number   1
_chemical_formula_structural   ZnH24C30(NO)4
_chemical_formula_sum   'Zn2 H48 C60 N8 O8'
_cell_volume   1398.94989794
_cell_formula_units_Z   2
loop_
 _symmetry_equiv_pos_site_id
 _symmetry_equiv_pos_as_xyz
  1  'x, y, z'
loop_
 _atom_site_type_symbol
 _atom_site_label
 _atom_site_symmetry_multiplicity
 _atom_site_fract_x
 _atom_site_fract_y
 _atom_site_fract_z
 _atom_site_occupancy
  Zn  Zn0  1  0.22196000  0.99999000  0.75004000  1.0
  Zn  Zn1  1  0.77804000  0.00001000  0.24996000  1.0
  H  H2  1  0.46612000  0.10636000  0.54404000  1.0
  H  H3  1  0.35969000  0.89347000  0.95603000  1.0
  H  H4  1  0.53388000  0.89364000  0.45596000  1.0
  H  H5  1  0.64031000  0.10653000  0.04397000  1.0
  H  H6  1  0.65188000  0.20657000  0.44428000  1.0
  H  H7  1  0.44555000  0.79336000  0.05572000  1.0
  H  H8  1  0.34812000  0.79343000  0.55572000  1.0
  H  H9  1  0.55445000  0.20664000  0.94428000  1.0
  H  H10  1  0.99983000  0.52575000  0.66947000  1.0
  H  H11  1  0.47433000  0.47427000  0.83046000  1.0
  H  H12  1  0.00017000  0.47425000  0.33053000  1.0
  H  H13  1  0.52567000  0.52573000  0.16954000  1.0
  H  H14  1  0.81464000  0.42320000  0.76726000  1.0
  H  H15  1  0.39148000  0.57682000  0.73272000  1.0
  H  H16  1  0.18536000  0.57680000  0.23274000  1.0
  H  H17  1  0.60852000  0.42318000  0.26728000  1.0
  H  H18  1  0.89483000  0.36731000  0.41997000  1.0
  H  H19  1  0.52745000  0.63264000  0.08004000  1.0
  H  H20  1  0.10517000  0.63269000  0.58003000  1.0
  H  H21  1  0.47255000  0.36736000  0.91996000  1.0
  H  H22  1  0.16811000  0.24087000  0.73220000  1.0
  H  H23  1  0.92724000  0.75893000  0.76781000  1.0
  H  H24  1  0.83189000  0.75913000  0.26780000  1.0
  H  H25  1  0.07276000  0.24107000  0.23219000  1.0
  H  H26  1  0.10503000  0.36833000  0.79662000  1.0
  H  H27  1  0.73668000  0.63144000  0.70335000  1.0
  H  H28  1  0.89497000  0.63167000  0.20338000  1.0
  H  H29  1  0.26332000  0.36856000  0.29665000  1.0
  H  H30  1  0.95962000  0.19062000  0.73811000  1.0
  H  H31  1  0.76900000  0.80916000  0.76186000  1.0
  H  H32  1  0.04038000  0.80938000  0.26189000  1.0
  H  H33  1  0.23100000  0.19085000  0.23814000  1.0
  H  H34  1  0.18535000  0.02597000  0.94694000  1.0
  H  H35  1  0.15940000  0.97409000  0.55316000  1.0
  H  H36  1  0.81465000  0.97403000  0.05306000  1.0
  H  H37  1  0.84060000  0.02591000  0.44684000  1.0
  H  H38  1  0.08751000  0.22103000  0.05497000  1.0
  H  H39  1  0.86653000  0.77904000  0.44508000  1.0
  H  H40  1  0.91249000  0.77897000  0.94503000  1.0
  H  H41  1  0.13347000  0.22096000  0.55492000  1.0
  H  H42  1  0.83577000  0.30384000  0.86272000  1.0
  H  H43  1  0.53187000  0.69614000  0.63728000  1.0
  H  H44  1  0.16423000  0.69616000  0.13728000  1.0
  H  H45  1  0.46813000  0.30386000  0.36272000  1.0
  H  H46  1  0.22007000  0.48850000  0.08045000  1.0
  H  H47  1  0.73156000  0.51150000  0.41959000  1.0
  H  H48  1  0.77993000  0.51150000  0.91955000  1.0
  H  H49  1  0.26844000  0.48849000  0.58041000  1.0
  C  C50  1  0.51678000  0.20073000  0.72229000  1.0
  C  C51  1  0.31605000  0.79929000  0.77779000  1.0
  C  C52  1  0.48322000  0.79927000  0.27771000  1.0
  C  C53  1  0.68395000  0.20071000  0.22221000  1.0
  C  C54  1  0.62766000  0.25973000  0.66200000  1.0
  C  C55  1  0.36788000  0.74019000  0.83802000  1.0
  C  C56  1  0.37234000  0.74027000  0.33800000  1.0
  C  C57  1  0.63212000  0.25981000  0.16198000  1.0
  C  C58  1  0.58305000  0.19846000  0.57073000  1.0
  C  C59  1  0.38461000  0.80142000  0.92929000  1.0
  C  C60  1  0.41695000  0.80154000  0.42927000  1.0
  C  C61  1  0.61539000  0.19858000  0.07071000  1.0
  C  C62  1  0.68650000  0.25401000  0.51530000  1.0
  C  C63  1  0.43280000  0.74599000  0.98470000  1.0
  C  C64  1  0.31350000  0.74598000  0.48470000  1.0
  C  C65  1  0.56720000  0.25401000  0.01530000  1.0
  C  C66  1  0.83665000  0.37525000  0.54961000  1.0
  C  C67  1  0.46177000  0.62482000  0.95036000  1.0
  C  C68  1  0.16335000  0.62475000  0.45039000  1.0
  C  C69  1  0.53824000  0.37518000  0.04964000  1.0
  C  C70  1  0.88246000  0.43430000  0.64137000  1.0
  C  C71  1  0.44847000  0.56575000  0.85858000  1.0
  C  C72  1  0.11754000  0.56570000  0.35863000  1.0
  C  C73  1  0.55154000  0.43425000  0.14142000  1.0
  C  C74  1  0.77952000  0.37705000  0.69639000  1.0
  C  C75  1  0.40256000  0.62294000  0.80359000  1.0
  C  C76  1  0.22048000  0.62295000  0.30361000  1.0
  C  C77  1  0.59744000  0.37706000  0.19641000  1.0
  C  C78  1  0.93547000  0.43493000  0.48885000  1.0
  C  C79  1  0.50062000  0.56509000  0.01115000  1.0
  C  C80  1  0.06453000  0.56507000  0.51115000  1.0
  C  C81  1  0.49939000  0.43491000  0.98885000  1.0
  C  C82  1  0.09976000  0.21169000  0.85196000  1.0
  C  C83  1  0.88811000  0.78819000  0.64806000  1.0
  C  C84  1  0.90024000  0.78831000  0.14804000  1.0
  C  C85  1  0.11189000  0.21181000  0.35194000  1.0
  C  C86  1  0.08170000  0.25572000  0.77584000  1.0
  C  C87  1  0.82599000  0.74403000  0.72414000  1.0
  C  C88  1  0.91830000  0.74428000  0.22416000  1.0
  C  C89  1  0.17401000  0.25597000  0.27586000  1.0
  C  C90  1  0.14894000  0.10039000  0.93293000  1.0
  C  C91  1  0.04854000  0.89969000  0.56717000  1.0
  C  C92  1  0.85106000  0.89961000  0.06707000  1.0
  C  C93  1  0.95146000  0.10031000  0.43283000  1.0
  C  C94  1  0.10252000  0.19622000  0.98651000  1.0
  C  C95  1  0.90632000  0.80386000  0.51355000  1.0
  C  C96  1  0.89748000  0.80378000  0.01349000  1.0
  C  C97  1  0.09368000  0.19614000  0.48645000  1.0
  C  C98  1  0.03320000  0.38356000  0.96775000  1.0
  C  C99  1  0.64968000  0.61648000  0.53227000  1.0
  C  C100  1  0.96680000  0.61644000  0.03225000  1.0
  C  C101  1  0.35032000  0.38352000  0.46773000  1.0
  C  C102  1  0.91147000  0.39082000  0.92146000  1.0
  C  C103  1  0.52063000  0.60919000  0.57853000  1.0
  C  C104  1  0.08853000  0.60918000  0.07854000  1.0
  C  C105  1  0.47937000  0.39081000  0.42147000  1.0
  C  C106  1  0.12103000  0.49176000  0.04630000  1.0
  C  C107  1  0.62929000  0.50824000  0.45374000  1.0
  C  C108  1  0.87896000  0.50824000  0.95370000  1.0
  C  C109  1  0.37071000  0.49176000  0.54626000  1.0
  N  N110  1  0.14738000  0.11156000  0.85018000  1.0
  N  N111  1  0.03584000  0.88840000  0.64988000  1.0
  N  N112  1  0.85262000  0.88844000  0.14982000  1.0
  N  N113  1  0.96416000  0.11160000  0.35012000  1.0
  N  N114  1  0.07124000  0.26605000  0.93515000  1.0
  N  N115  1  0.80523000  0.73393000  0.56488000  1.0
  N  N116  1  0.92876000  0.73395000  0.06485000  1.0
  N  N117  1  0.19477000  0.26607000  0.43512000  1.0
  O  O118  1  0.37108000  0.10682000  0.68410000  1.0
  O  O119  1  0.26421000  0.89315000  0.81598000  1.0
  O  O120  1  0.62892000  0.89318000  0.31590000  1.0
  O  O121  1  0.73579000  0.10685000  0.18402000  1.0
  O  O122  1  0.56512000  0.24181000  0.80257000  1.0
  O  O123  1  0.32341000  0.75836000  0.69750000  1.0
  O  O124  1  0.43488000  0.75819000  0.19743000  1.0
  O  O125  1  0.67659000  0.24164000  0.30250000  1.0
