# generated using pymatgen
data_ZnH8C12N4Cl2O
_symmetry_space_group_name_H-M   'P 1'
_cell_length_a   7.32775000
_cell_length_b   11.74170000
_cell_length_c   16.15120000
_cell_angle_alpha   89.99990000
_cell_angle_beta   100.57100000
_cell_angle_gamma   90.00000000
_symmetry_Int_Tables_number   1
_chemical_formula_structural   ZnH8C12N4Cl2O
_chemical_formula_sum   'Zn4 H32 C48 N16 Cl8 O4'
_cell_volume   1366.06842372
_cell_formula_units_Z   4
loop_
 _symmetry_equiv_pos_site_id
 _symmetry_equiv_pos_as_xyz
  1  'x, y, z'
loop_
 _atom_site_type_symbol
 _atom_site_label
 _atom_site_symmetry_multiplicity
 _atom_site_fract_x
 _atom_site_fract_y
 _atom_site_fract_z
 _atom_site_occupancy
  Zn  Zn0  1  0.76421000  0.75851000  0.48670000  1.0
  Zn  Zn1  1  0.26420000  0.74149000  0.98670000  1.0
  Zn  Zn2  1  0.23580000  0.24149000  0.51330000  1.0
  Zn  Zn3  1  0.73579000  0.25851000  0.01330000  1.0
  H  H4  1  0.68190000  0.99044000  0.54984000  1.0
  H  H5  1  0.18191000  0.50955000  0.04984000  1.0
  H  H6  1  0.31810000  0.00956000  0.45016000  1.0
  H  H7  1  0.81810000  0.49045000  0.95016000  1.0
  H  H8  1  0.84867000  0.14020000  0.64442000  1.0
  H  H9  1  0.34868000  0.35979000  0.14441000  1.0
  H  H10  1  0.15132000  0.85979000  0.35559000  1.0
  H  H11  1  0.65132000  0.64021000  0.85559000  1.0
  H  H12  1  0.17976000  0.10533000  0.71357000  1.0
  H  H13  1  0.67977000  0.39467000  0.21357000  1.0
  H  H14  1  0.82023000  0.89467000  0.28643000  1.0
  H  H15  1  0.32024000  0.60533000  0.78643000  1.0
  H  H16  1  0.14509000  0.78005000  0.58594000  1.0
  H  H17  1  0.64508000  0.71996000  0.08594000  1.0
  H  H18  1  0.85492000  0.21996000  0.41406000  1.0
  H  H19  1  0.35492000  0.28005000  0.91406000  1.0
  H  H20  1  0.01870000  0.89971000  0.81277000  1.0
  H  H21  1  0.51871000  0.60030000  0.31277000  1.0
  H  H22  1  0.98130000  0.10029000  0.18723000  1.0
  H  H23  1  0.48130000  0.39970000  0.68723000  1.0
  H  H24  1  0.24344000  0.01787000  0.91444000  1.0
  H  H25  1  0.74345000  0.48213000  0.41444000  1.0
  H  H26  1  0.75656000  0.98213000  0.08556000  1.0
  H  H27  1  0.25656000  0.51787000  0.58556000  1.0
  H  H28  1  0.57800000  0.10737000  0.87549000  1.0
  H  H29  1  0.07800000  0.39263000  0.37549000  1.0
  H  H30  1  0.42200000  0.89262000  0.12451000  1.0
  H  H31  1  0.92200000  0.60737000  0.62451000  1.0
  H  H32  1  0.11872000  0.17679000  0.99198000  1.0
  H  H33  1  0.61872000  0.32321000  0.49197000  1.0
  H  H34  1  0.88128000  0.82321000  0.00802000  1.0
  H  H35  1  0.38128000  0.67679000  0.50802000  1.0
  C  C36  1  0.82573000  0.97852000  0.58093000  1.0
  C  C37  1  0.32573000  0.52147000  0.08093000  1.0
  C  C38  1  0.17427000  0.02148000  0.41907000  1.0
  C  C39  1  0.67427000  0.47852000  0.91907000  1.0
  C  C40  1  0.91926000  0.06137000  0.63407000  1.0
  C  C41  1  0.41927000  0.43863000  0.13407000  1.0
  C  C42  1  0.08073000  0.93863000  0.36593000  1.0
  C  C43  1  0.58073000  0.56137000  0.86593000  1.0
  C  C44  1  0.10215000  0.04151000  0.67262000  1.0
  C  C45  1  0.60216000  0.45849000  0.17262000  1.0
  C  C46  1  0.89784000  0.95850000  0.32738000  1.0
  C  C47  1  0.39784000  0.54151000  0.82738000  1.0
  C  C48  1  0.18674000  0.93826000  0.65711000  1.0
  C  C49  1  0.68675000  0.56174000  0.15711000  1.0
  C  C50  1  0.81326000  0.06175000  0.34289000  1.0
  C  C51  1  0.31326000  0.43826000  0.84289000  1.0
  C  C52  1  0.08420000  0.86000000  0.60193000  1.0
  C  C53  1  0.58420000  0.64000000  0.10193000  1.0
  C  C54  1  0.91580000  0.14000000  0.39807000  1.0
  C  C55  1  0.41580000  0.36000000  0.89807000  1.0
  C  C56  1  0.37741000  0.91291000  0.69509000  1.0
  C  C57  1  0.87742000  0.58710000  0.19509000  1.0
  C  C58  1  0.62259000  0.08710000  0.30491000  1.0
  C  C59  1  0.12259000  0.41290000  0.80491000  1.0
  C  C60  1  0.64355000  0.93882000  0.77316000  1.0
  C  C61  1  0.14356000  0.56118000  0.27316000  1.0
  C  C62  1  0.35645000  0.06118000  0.22684000  1.0
  C  C63  1  0.85645000  0.43882000  0.72684000  1.0
  C  C64  1  0.78164000  0.99830000  0.83342000  1.0
  C  C65  1  0.28164000  0.50170000  0.33342000  1.0
  C  C66  1  0.21836000  0.00170000  0.16658000  1.0
  C  C67  1  0.71836000  0.49830000  0.66658000  1.0
  C  C68  1  0.97131000  0.97134000  0.84609000  1.0
  C  C69  1  0.47131000  0.52866000  0.34609000  1.0
  C  C70  1  0.02870000  0.02866000  0.15391000  1.0
  C  C71  1  0.52870000  0.47134000  0.65391000  1.0
  C  C72  1  0.09516000  0.03663000  0.90251000  1.0
  C  C73  1  0.59517000  0.46337000  0.40251000  1.0
  C  C74  1  0.90484000  0.96337000  0.09749000  1.0
  C  C75  1  0.40484000  0.53662000  0.59749000  1.0
  C  C76  1  0.72455000  0.08664000  0.88093000  1.0
  C  C77  1  0.22456000  0.41336000  0.38093000  1.0
  C  C78  1  0.27544000  0.91336000  0.11907000  1.0
  C  C79  1  0.77544000  0.58664000  0.61908000  1.0
  C  C80  1  0.02730000  0.12440000  0.94633000  1.0
  C  C81  1  0.52731000  0.37560000  0.44633000  1.0
  C  C82  1  0.97270000  0.87560000  0.05367000  1.0
  C  C83  1  0.47270000  0.62440000  0.55367000  1.0
  N  N84  1  0.90781000  0.88015000  0.56491000  1.0
  N  N85  1  0.40781000  0.61985000  0.06491000  1.0
  N  N86  1  0.09219000  0.11985000  0.43509000  1.0
  N  N87  1  0.59218000  0.38015000  0.93509000  1.0
  N  N88  1  0.48399000  0.82898000  0.67907000  1.0
  N  N89  1  0.98399000  0.67102000  0.17907000  1.0
  N  N90  1  0.51601000  0.17102000  0.32093000  1.0
  N  N91  1  0.01601000  0.32898000  0.82093000  1.0
  N  N92  1  0.65709000  0.84617000  0.72932000  1.0
  N  N93  1  0.15709000  0.65384000  0.22932000  1.0
  N  N94  1  0.34291000  0.15384000  0.27068000  1.0
  N  N95  1  0.84291000  0.34616000  0.77068000  1.0
  N  N96  1  0.84433000  0.14694000  0.93657000  1.0
  N  N97  1  0.34434000  0.35306000  0.43657000  1.0
  N  N98  1  0.15566000  0.85306000  0.06343000  1.0
  N  N99  1  0.65566000  0.64694000  0.56343000  1.0
  Cl  Cl100  1  0.98918000  0.66073000  0.44077000  1.0
  Cl  Cl101  1  0.48918000  0.83927000  0.94077000  1.0
  Cl  Cl102  1  0.01082000  0.33927000  0.55923000  1.0
  Cl  Cl103  1  0.51081000  0.16073000  0.05923000  1.0
  Cl  Cl104  1  0.52690000  0.83226000  0.39846000  1.0
  Cl  Cl105  1  0.02690000  0.66774000  0.89846000  1.0
  Cl  Cl106  1  0.47310000  0.16774000  0.60154000  1.0
  Cl  Cl107  1  0.97310000  0.33226000  0.10154000  1.0
  O  O108  1  0.46911000  0.98533000  0.75461000  1.0
  O  O109  1  0.96912000  0.51467000  0.25461000  1.0
  O  O110  1  0.53088000  0.01467000  0.24539000  1.0
  O  O111  1  0.03088000  0.48533000  0.74539000  1.0
