# generated using pymatgen
data_LiMnH12C16N2(Cl2O3)2
_symmetry_space_group_name_H-M   'P 1'
_cell_length_a   7.70858000
_cell_length_b   11.18990000
_cell_length_c   11.19000000
_cell_angle_alpha   83.19530000
_cell_angle_beta   84.75250000
_cell_angle_gamma   84.75240000
_symmetry_Int_Tables_number   1
_chemical_formula_structural   LiMnH12C16N2(Cl2O3)2
_chemical_formula_sum   'Li2 Mn2 H24 C32 N4 Cl8 O12'
_cell_volume   951.23565363
_cell_formula_units_Z   2
loop_
 _symmetry_equiv_pos_site_id
 _symmetry_equiv_pos_as_xyz
  1  'x, y, z'
loop_
 _atom_site_type_symbol
 _atom_site_label
 _atom_site_symmetry_multiplicity
 _atom_site_fract_x
 _atom_site_fract_y
 _atom_site_fract_z
 _atom_site_occupancy
  Li  Li0  1  0.75000000  0.10472000  0.89529000  1.0
  Li  Li1  1  0.25000000  0.89530000  0.10470000  1.0
  Mn  Mn2  1  0.25000000  0.10570000  0.89429000  1.0
  Mn  Mn3  1  0.75000000  0.89813000  0.10188000  1.0
  H  H4  1  0.96811000  0.10889000  0.99148000  1.0
  H  H5  1  0.53189000  0.00852000  0.89111000  1.0
  H  H6  1  0.03621000  0.88834000  0.01014000  1.0
  H  H7  1  0.46379000  0.98987000  0.11166000  1.0
  H  H8  1  0.06814000  0.26690000  0.73614000  1.0
  H  H9  1  0.43186000  0.26386000  0.73309000  1.0
  H  H10  1  0.93902000  0.70624000  0.25742000  1.0
  H  H11  1  0.56097000  0.74258000  0.29376000  1.0
  H  H12  1  0.12045000  0.34554000  0.59068000  1.0
  H  H13  1  0.37954000  0.40931000  0.65445000  1.0
  H  H14  1  0.87791000  0.65324000  0.41151000  1.0
  H  H15  1  0.62210000  0.58849000  0.34676000  1.0
  H  H16  1  0.35868000  0.99149000  0.55557000  1.0
  H  H17  1  0.14132000  0.44443000  0.00850000  1.0
  H  H18  1  0.66027000  0.99607000  0.42958000  1.0
  H  H19  1  0.83973000  0.57042000  0.00393000  1.0
  H  H20  1  0.50250000  0.53943000  0.86351000  1.0
  H  H21  1  0.99750000  0.13648000  0.46056000  1.0
  H  H22  1  0.50631000  0.45670000  0.13732000  1.0
  H  H23  1  0.99369000  0.86269000  0.54330000  1.0
  H  H24  1  0.51604000  0.80785000  0.55469000  1.0
  H  H25  1  0.98397000  0.44531000  0.19214000  1.0
  H  H26  1  0.48522000  0.18148000  0.44031000  1.0
  H  H27  1  0.01477000  0.55970000  0.81853000  1.0
  C  C28  1  0.17370000  0.28439000  0.66466000  1.0
  C  C29  1  0.32629000  0.33533000  0.71561000  1.0
  C  C30  1  0.83390000  0.70887000  0.33092000  1.0
  C  C31  1  0.66610000  0.66908000  0.29113000  1.0
  C  C32  1  0.33461000  0.98393000  0.65420000  1.0
  C  C33  1  0.16539000  0.34580000  0.01605000  1.0
  C  C34  1  0.66893000  0.00701000  0.33070000  1.0
  C  C35  1  0.83106000  0.66931000  0.99299000  1.0
  C  C36  1  0.38420000  0.86837000  0.71905000  1.0
  C  C37  1  0.11580000  0.28095000  0.13162000  1.0
  C  C38  1  0.61179000  0.12365000  0.27278000  1.0
  C  C39  1  0.88820000  0.72723000  0.87634000  1.0
  C  C40  1  0.33611000  0.83752000  0.84506000  1.0
  C  C41  1  0.16389000  0.15494000  0.16246000  1.0
  C  C42  1  0.65891000  0.15682000  0.14786000  1.0
  C  C43  1  0.84109000  0.85215000  0.84319000  1.0
  C  C44  1  0.37917000  0.71531000  0.89178000  1.0
  C  C45  1  0.12083000  0.10823000  0.28468000  1.0
  C  C46  1  0.62148000  0.28009000  0.10380000  1.0
  C  C47  1  0.87852000  0.89621000  0.71991000  1.0
  C  C48  1  0.47250000  0.63167000  0.82376000  1.0
  C  C49  1  0.02751000  0.17624000  0.36832000  1.0
  C  C50  1  0.53310000  0.36328000  0.17487000  1.0
  C  C51  1  0.96690000  0.82514000  0.63673000  1.0
  C  C52  1  0.52470000  0.66719000  0.70273000  1.0
  C  C53  1  0.97532000  0.29727000  0.33280000  1.0
  C  C54  1  0.48109000  0.32568000  0.29549000  1.0
  C  C55  1  0.01891000  0.70453000  0.67432000  1.0
  C  C56  1  0.47895000  0.78262000  0.65009000  1.0
  C  C57  1  0.02105000  0.34991000  0.21737000  1.0
  C  C58  1  0.52212000  0.20831000  0.34525000  1.0
  C  C59  1  0.97787000  0.65477000  0.79169000  1.0
  N  N60  1  0.26260000  0.07868000  0.70108000  1.0
  N  N61  1  0.23740000  0.29892000  0.92131000  1.0
  N  N62  1  0.73996000  0.91440000  0.27825000  1.0
  N  N63  1  0.76003000  0.72176000  0.08561000  1.0
  Cl  Cl64  1  0.30699000  0.66812000  0.03998000  1.0
  Cl  Cl65  1  0.19301000  0.96003000  0.33187000  1.0
  Cl  Cl66  1  0.69073000  0.32969000  0.95553000  1.0
  Cl  Cl67  1  0.80927000  0.04448000  0.67031000  1.0
  Cl  Cl68  1  0.64364000  0.56254000  0.61841000  1.0
  Cl  Cl69  1  0.85637000  0.38160000  0.43745000  1.0
  Cl  Cl70  1  0.36732000  0.43011000  0.38276000  1.0
  Cl  Cl71  1  0.13267000  0.61725000  0.56989000  1.0
  O  O72  1  0.22842000  0.17493000  0.61073000  1.0
  O  O73  1  0.27157000  0.38927000  0.82506000  1.0
  O  O74  1  0.80902000  0.82743000  0.36909000  1.0
  O  O75  1  0.69098000  0.63091000  0.17258000  1.0
  O  O76  1  0.25268000  0.91414000  0.91414000  1.0
  O  O77  1  0.24732000  0.08587000  0.08585000  1.0
  O  O78  1  0.73623000  0.07919000  0.07687000  1.0
  O  O79  1  0.76377000  0.92314000  0.92081000  1.0
  O  O80  1  0.00579000  0.12205000  0.90498000  1.0
  O  O81  1  0.49421000  0.09502000  0.87794000  1.0
  O  O82  1  0.99540000  0.88706000  0.09606000  1.0
  O  O83  1  0.50460000  0.90394000  0.11294000  1.0
