# generated using pymatgen
data_CdH12C16(NO2)2
_symmetry_space_group_name_H-M   'P 1'
_cell_length_a   7.56488000
_cell_length_b   10.30440000
_cell_length_c   12.78630000
_cell_angle_alpha   111.31500000
_cell_angle_beta   104.01900000
_cell_angle_gamma   97.62820000
_symmetry_Int_Tables_number   1
_chemical_formula_structural   CdH12C16(NO2)2
_chemical_formula_sum   'Cd2 H24 C32 N4 O8'
_cell_volume   873.58306572
_cell_formula_units_Z   2
loop_
 _symmetry_equiv_pos_site_id
 _symmetry_equiv_pos_as_xyz
  1  'x, y, z'
loop_
 _atom_site_type_symbol
 _atom_site_label
 _atom_site_symmetry_multiplicity
 _atom_site_fract_x
 _atom_site_fract_y
 _atom_site_fract_z
 _atom_site_occupancy
  Cd  Cd0  1  0.32629000  0.08062000  0.21996000  1.0
  Cd  Cd1  1  0.60630000  0.86066000  0.77979000  1.0
  H  H2  1  0.07401000  0.58855000  0.15323000  1.0
  H  H3  1  0.42078000  0.43582000  0.84696000  1.0
  H  H4  1  0.02192000  0.60953000  0.91387000  1.0
  H  H5  1  0.60807000  0.69613000  0.08628000  1.0
  H  H6  1  0.67596000  0.13330000  0.72034000  1.0
  H  H7  1  0.45595000  0.41312000  0.27989000  1.0
  H  H8  1  0.88227000  0.08547000  0.03243000  1.0
  H  H9  1  0.34981000  0.05345000  0.96772000  1.0
  H  H10  1  0.02478000  0.34591000  0.14420000  1.0
  H  H11  1  0.38053000  0.20209000  0.85595000  1.0
  H  H12  1  0.81558000  0.39732000  0.81836000  1.0
  H  H13  1  0.49716000  0.57927000  0.18190000  1.0
  H  H14  1  0.89758000  0.33650000  0.35074000  1.0
  H  H15  1  0.04650000  0.98565000  0.64923000  1.0
  H  H16  1  0.01327000  0.80557000  0.84055000  1.0
  H  H17  1  0.67258000  0.96470000  0.15920000  1.0
  H  H18  1  0.19937000  0.64360000  0.74742000  1.0
  H  H19  1  0.95197000  0.89617000  0.25252000  1.0
  H  H20  1  0.76028000  0.50223000  0.41368000  1.0
  H  H21  1  0.84610000  0.08826000  0.58611000  1.0
  H  H22  1  0.58958000  0.66953000  0.52015000  1.0
  H  H23  1  0.56890000  0.14898000  0.47957000  1.0
  H  H24  1  0.24796000  0.47711000  0.57313000  1.0
  H  H25  1  0.17457000  0.90388000  0.42686000  1.0
  C  C26  1  0.15582000  0.79595000  0.08411000  1.0
  C  C27  1  0.57178000  0.71217000  0.91597000  1.0
  C  C28  1  0.02607000  0.54833000  0.05673000  1.0
  C  C29  1  0.46927000  0.49206000  0.94345000  1.0
  C  C30  1  0.05961000  0.64240000  0.00925000  1.0
  C  C31  1  0.55031000  0.63357000  0.99091000  1.0
  C  C32  1  0.75921000  0.18541000  0.81384000  1.0
  C  C33  1  0.44552000  0.37187000  0.18636000  1.0
  C  C34  1  0.93759000  0.39546000  0.99076000  1.0
  C  C35  1  0.44668000  0.40511000  0.00937000  1.0
  C  C36  1  0.87182000  0.15765000  0.98779000  1.0
  C  C37  1  0.38402000  0.17024000  0.01236000  1.0
  C  C38  1  0.95105000  0.30430000  0.04986000  1.0
  C  C39  1  0.40114000  0.25485000  0.95028000  1.0
  C  C40  1  0.83690000  0.33230000  0.86899000  1.0
  C  C41  1  0.46778000  0.46363000  0.13119000  1.0
  C  C42  1  0.15608000  0.26559000  0.35258000  1.0
  C  C43  1  0.30314000  0.91287000  0.64738000  1.0
  C  C44  1  0.04091000  0.35812000  0.40778000  1.0
  C  C45  1  0.13271000  0.95017000  0.59215000  1.0
  C  C46  1  0.95983000  0.73562000  0.74615000  1.0
  C  C47  1  0.71348000  0.98925000  0.25364000  1.0
  C  C48  1  0.06327000  0.64439000  0.69423000  1.0
  C  C49  1  0.86887000  0.95001000  0.30564000  1.0
  C  C50  1  0.99423000  0.55630000  0.57262000  1.0
  C  C51  1  0.92130000  0.98349000  0.42723000  1.0
  C  C52  1  0.82030000  0.56602000  0.50857000  1.0
  C  C53  1  0.81123000  0.05714000  0.49120000  1.0
  C  C54  1  0.72466000  0.65886000  0.56657000  1.0
  C  C55  1  0.65764000  0.09197000  0.43318000  1.0
  C  C56  1  0.10467000  0.46182000  0.51842000  1.0
  C  C57  1  0.08589000  0.94328000  0.48151000  1.0
  N  N58  1  0.77744000  0.09864000  0.87133000  1.0
  N  N59  1  0.40618000  0.22760000  0.12883000  1.0
  N  N60  1  0.79303000  0.74257000  0.68378000  1.0
  N  N61  1  0.60892000  0.05844000  0.31596000  1.0
  O  O62  1  0.19200000  0.84332000  0.19621000  1.0
  O  O63  1  0.49600000  0.64736000  0.80385000  1.0
  O  O64  1  0.19932000  0.87520000  0.03241000  1.0
  O  O65  1  0.66704000  0.84307000  0.96763000  1.0
  O  O66  1  0.07587000  0.17959000  0.24285000  1.0
  O  O67  1  0.33346000  0.93758000  0.75734000  1.0
  O  O68  1  0.32255000  0.27281000  0.40965000  1.0
  O  O69  1  0.41178000  0.86203000  0.59004000  1.0
