# generated using pymatgen
data_ZnH9C8NO7
_symmetry_space_group_name_H-M   'P 1'
_cell_length_a   9.12114000
_cell_length_b   10.03880000
_cell_length_c   11.23450000
_cell_angle_alpha   90.00070000
_cell_angle_beta   69.79600000
_cell_angle_gamma   90.00020000
_symmetry_Int_Tables_number   1
_chemical_formula_structural   ZnH9C8NO7
_chemical_formula_sum   'Zn4 H36 C32 N4 O28'
_cell_volume   965.39393015
_cell_formula_units_Z   4
loop_
 _symmetry_equiv_pos_site_id
 _symmetry_equiv_pos_as_xyz
  1  'x, y, z'
loop_
 _atom_site_type_symbol
 _atom_site_label
 _atom_site_symmetry_multiplicity
 _atom_site_fract_x
 _atom_site_fract_y
 _atom_site_fract_z
 _atom_site_occupancy
  Zn  Zn0  1  0.37507000  0.89294000  0.47391000  1.0
  Zn  Zn1  1  0.62493000  0.39294000  0.02608000  1.0
  Zn  Zn2  1  0.62493000  0.10706000  0.52609000  1.0
  Zn  Zn3  1  0.37507000  0.60706000  0.97392000  1.0
  H  H4  1  0.46781000  0.73589000  0.28964000  1.0
  H  H5  1  0.53219000  0.23589000  0.21036000  1.0
  H  H6  1  0.53219000  0.26411000  0.71037000  1.0
  H  H7  1  0.46781000  0.76411000  0.78964000  1.0
  H  H8  1  0.29751000  0.78125000  0.28804000  1.0
  H  H9  1  0.70249000  0.28126000  0.21197000  1.0
  H  H10  1  0.70249000  0.21875000  0.71197000  1.0
  H  H11  1  0.29751000  0.71875000  0.78803000  1.0
  H  H12  1  0.29913000  0.07075000  0.33396000  1.0
  H  H13  1  0.70087000  0.57075000  0.16603000  1.0
  H  H14  1  0.70087000  0.92925000  0.66603000  1.0
  H  H15  1  0.29913000  0.42925000  0.83397000  1.0
  H  H16  1  0.32816000  0.13702000  0.44879000  1.0
  H  H17  1  0.67183000  0.63702000  0.05121000  1.0
  H  H18  1  0.67184000  0.86298000  0.55121000  1.0
  H  H19  1  0.32816000  0.36298000  0.94879000  1.0
  H  H20  1  0.99902000  0.70360000  0.46592000  1.0
  H  H21  1  0.00098000  0.20361000  0.03408000  1.0
  H  H22  1  0.00098000  0.29640000  0.53408000  1.0
  H  H23  1  0.99902000  0.79640000  0.96592000  1.0
  H  H24  1  0.88293000  0.59739000  0.86131000  1.0
  H  H25  1  0.11707000  0.09739000  0.63869000  1.0
  H  H26  1  0.11707000  0.40260000  0.13869000  1.0
  H  H27  1  0.88293000  0.90261000  0.36131000  1.0
  H  H28  1  0.58549000  0.49429000  0.64681000  1.0
  H  H29  1  0.41451000  0.99429000  0.85319000  1.0
  H  H30  1  0.41451000  0.50571000  0.35320000  1.0
  H  H31  1  0.58548000  0.00571000  0.14681000  1.0
  H  H32  1  0.74102000  0.47589000  0.41966000  1.0
  H  H33  1  0.25898000  0.97590000  0.08034000  1.0
  H  H34  1  0.25898000  0.52411000  0.58034000  1.0
  H  H35  1  0.74103000  0.02410000  0.91966000  1.0
  H  H36  1  0.87446000  0.60786000  0.35425000  1.0
  H  H37  1  0.12555000  0.10787000  0.14575000  1.0
  H  H38  1  0.12554000  0.39214000  0.64576000  1.0
  H  H39  1  0.87446000  0.89213000  0.85425000  1.0
  C  C40  1  0.92292000  0.65885000  0.55392000  1.0
  C  C41  1  0.07708000  0.15885000  0.94608000  1.0
  C  C42  1  0.07708000  0.34114000  0.44608000  1.0
  C  C43  1  0.92292000  0.84115000  0.05392000  1.0
  C  C44  1  0.95450000  0.66138000  0.66658000  1.0
  C  C45  1  0.04550000  0.16138000  0.83342000  1.0
  C  C46  1  0.04550000  0.33862000  0.33343000  1.0
  C  C47  1  0.95450000  0.83862000  0.16658000  1.0
  C  C48  1  0.85363000  0.59929000  0.77505000  1.0
  C  C49  1  0.14638000  0.09929000  0.72495000  1.0
  C  C50  1  0.14638000  0.40071000  0.22495000  1.0
  C  C51  1  0.85363000  0.90071000  0.27505000  1.0
  C  C52  1  0.71238000  0.54106000  0.77410000  1.0
  C  C53  1  0.28762000  0.04107000  0.72590000  1.0
  C  C54  1  0.28762000  0.45893000  0.22591000  1.0
  C  C55  1  0.71238000  0.95893000  0.27410000  1.0
  C  C56  1  0.68857000  0.54041000  0.65649000  1.0
  C  C57  1  0.31143000  0.04041000  0.84351000  1.0
  C  C58  1  0.31142000  0.45960000  0.34352000  1.0
  C  C59  1  0.68857000  0.95959000  0.15649000  1.0
  C  C60  1  0.10169000  0.73164000  0.66666667  1.0
  C  C61  1  0.89831000  0.23163000  0.83335000  1.0
  C  C62  1  0.89831000  0.26836000  0.33333333  1.0
  C  C63  1  0.10169000  0.76837000  0.16665000  1.0
  C  C64  1  0.76609000  0.58105000  0.43080000  1.0
  C  C65  1  0.23391000  0.08106000  0.06919000  1.0
  C  C66  1  0.23391000  0.41895000  0.56920000  1.0
  C  C67  1  0.76609000  0.91894000  0.93080000  1.0
  C  C68  1  0.63252000  0.66330000  0.41517000  1.0
  C  C69  1  0.36748000  0.16330000  0.08482000  1.0
  C  C70  1  0.36747000  0.33669000  0.58483000  1.0
  C  C71  1  0.63253000  0.83670000  0.91517000  1.0
  N  N72  1  0.79287000  0.59547000  0.55191000  1.0
  N  N73  1  0.20713000  0.09548000  0.94809000  1.0
  N  N74  1  0.20713000  0.40452000  0.44810000  1.0
  N  N75  1  0.79287000  0.90452000  0.05191000  1.0
  O  O76  1  0.60315000  0.49063000  0.87348000  1.0
  O  O77  1  0.39685000  0.99063000  0.62652000  1.0
  O  O78  1  0.39684000  0.50937000  0.12652000  1.0
  O  O79  1  0.60315000  0.00937000  0.37348000  1.0
  O  O80  1  0.12321000  0.74506000  0.77102000  1.0
  O  O81  1  0.87680000  0.24504000  0.72897000  1.0
  O  O82  1  0.87679000  0.25496000  0.22898000  1.0
  O  O83  1  0.12321000  0.75496000  0.27102000  1.0
  O  O84  1  0.19140000  0.76918000  0.55718000  1.0
  O  O85  1  0.80859000  0.26918000  0.94280000  1.0
  O  O86  1  0.80858000  0.23083000  0.44281000  1.0
  O  O87  1  0.19141000  0.73082000  0.05719000  1.0
  O  O88  1  0.60270000  0.63362000  0.31621000  1.0
  O  O89  1  0.39731000  0.13363000  0.18378000  1.0
  O  O90  1  0.39731000  0.36637000  0.68379000  1.0
  O  O91  1  0.60269000  0.86637000  0.81621000  1.0
  O  O92  1  0.56286000  0.75028000  0.49658000  1.0
  O  O93  1  0.43715000  0.25028000  0.00341000  1.0
  O  O94  1  0.43714000  0.24972000  0.50342000  1.0
  O  O95  1  0.56285000  0.74972000  0.99658000  1.0
  O  O96  1  0.39583000  0.81296000  0.29968000  1.0
  O  O97  1  0.60417000  0.31296000  0.20032000  1.0
  O  O98  1  0.60417000  0.18704000  0.70032000  1.0
  O  O99  1  0.39583000  0.68704000  0.79968000  1.0
  O  O100  1  0.26741000  0.06404000  0.42769000  1.0
  O  O101  1  0.73259000  0.56405000  0.07231000  1.0
  O  O102  1  0.73259000  0.93595000  0.57231000  1.0
  O  O103  1  0.26741000  0.43596000  0.92769000  1.0
