# generated using pymatgen
data_LaH6C10N5O7
_symmetry_space_group_name_H-M   'P 1'
_cell_length_a   7.99156000
_cell_length_b   7.99154000
_cell_length_c   20.08040000
_cell_angle_alpha   90.00010000
_cell_angle_beta   90.00000000
_cell_angle_gamma   89.99750000
_symmetry_Int_Tables_number   1
_chemical_formula_structural   LaH6C10N5O7
_chemical_formula_sum   'La4 H24 C40 N20 O28'
_cell_volume   1282.43216249
_cell_formula_units_Z   4
loop_
 _symmetry_equiv_pos_site_id
 _symmetry_equiv_pos_as_xyz
  1  'x, y, z'
loop_
 _atom_site_type_symbol
 _atom_site_label
 _atom_site_symmetry_multiplicity
 _atom_site_fract_x
 _atom_site_fract_y
 _atom_site_fract_z
 _atom_site_occupancy
  La  La0  1  0.22189000  0.77812000  0.50000000  1.0
  La  La1  1  0.72193000  0.72193000  0.25000000  1.0
  La  La2  1  0.77811000  0.22188000  0.00000000  1.0
  La  La3  1  0.27807000  0.27807000  0.75000000  1.0
  H  H4  1  0.78345000  0.69203000  0.56023000  1.0
  H  H5  1  0.80780000  0.28342000  0.31022000  1.0
  H  H6  1  0.21656000  0.30796000  0.06023000  1.0
  H  H7  1  0.19220000  0.71658000  0.81022000  1.0
  H  H8  1  0.71658000  0.19220000  0.68978000  1.0
  H  H9  1  0.30796000  0.21656000  0.43977000  1.0
  H  H10  1  0.28341000  0.80780000  0.18978000  1.0
  H  H11  1  0.69203000  0.78345000  0.93977000  1.0
  H  H12  1  0.63435000  0.56990000  0.66093000  1.0
  H  H13  1  0.92998000  0.13439000  0.41092000  1.0
  H  H14  1  0.36564000  0.43010000  0.16093000  1.0
  H  H15  1  0.07002000  0.86561000  0.91092000  1.0
  H  H16  1  0.86561000  0.07002000  0.58908000  1.0
  H  H17  1  0.43010000  0.36565000  0.33907000  1.0
  H  H18  1  0.13439000  0.92998000  0.08908000  1.0
  H  H19  1  0.56990000  0.63435000  0.83907000  1.0
  H  H20  1  0.81535000  0.44598000  0.75104000  1.0
  H  H21  1  0.05404000  0.31544000  0.50097000  1.0
  H  H22  1  0.18465000  0.55401000  0.25104000  1.0
  H  H23  1  0.94596000  0.68456000  0.00097000  1.0
  H  H24  1  0.68456000  0.94596000  0.49902000  1.0
  H  H25  1  0.55401000  0.18465000  0.24896000  1.0
  H  H26  1  0.31544000  0.05404000  0.99902000  1.0
  H  H27  1  0.44599000  0.81535000  0.74896000  1.0
  C  C28  1  0.10352000  0.60246000  0.65465000  1.0
  C  C29  1  0.89761000  0.60360000  0.40457000  1.0
  C  C30  1  0.89648000  0.39754000  0.15465000  1.0
  C  C31  1  0.10239000  0.39641000  0.90457000  1.0
  C  C32  1  0.39640000  0.10239000  0.59543000  1.0
  C  C33  1  0.39754000  0.89648000  0.34535000  1.0
  C  C34  1  0.60359000  0.89761000  0.09543000  1.0
  C  C35  1  0.60247000  0.10352000  0.84535000  1.0
  C  C36  1  0.85194000  0.64808000  0.60380000  1.0
  C  C37  1  0.85182000  0.35196000  0.35376000  1.0
  C  C38  1  0.14807000  0.35192000  0.10380000  1.0
  C  C39  1  0.14818000  0.64804000  0.85376000  1.0
  C  C40  1  0.64804000  0.14818000  0.64624000  1.0
  C  C41  1  0.35192000  0.14806000  0.39620000  1.0
  C  C42  1  0.35196000  0.85182000  0.14624000  1.0
  C  C43  1  0.64808000  0.85194000  0.89620000  1.0
  C  C44  1  0.77042000  0.57626000  0.65797000  1.0
  C  C45  1  0.92366000  0.27046000  0.40793000  1.0
  C  C46  1  0.22958000  0.42374000  0.15797000  1.0
  C  C47  1  0.07634000  0.72955000  0.90793000  1.0
  C  C48  1  0.72954000  0.07634000  0.59207000  1.0
  C  C49  1  0.42373000  0.22958000  0.34203000  1.0
  C  C50  1  0.27045000  0.92366000  0.09207000  1.0
  C  C51  1  0.57627000  0.77042000  0.84203000  1.0
  C  C52  1  0.87029000  0.50941000  0.70825000  1.0
  C  C53  1  0.99060000  0.37036000  0.45818000  1.0
  C  C54  1  0.12971000  0.49059000  0.20825000  1.0
  C  C55  1  0.00941000  0.62964000  0.95818000  1.0
  C  C56  1  0.62964000  0.00940000  0.54182000  1.0
  C  C57  1  0.49058000  0.12971000  0.29175000  1.0
  C  C58  1  0.37036000  0.99059000  0.04182000  1.0
  C  C59  1  0.50942000  0.87029000  0.79175000  1.0
  C  C60  1  0.29092000  0.62801000  0.65513000  1.0
  C  C61  1  0.87210000  0.79101000  0.40508000  1.0
  C  C62  1  0.70907000  0.37200000  0.15513000  1.0
  C  C63  1  0.12790000  0.20899000  0.90508000  1.0
  C  C64  1  0.20899000  0.12790000  0.59492000  1.0
  C  C65  1  0.37199000  0.70908000  0.34487000  1.0
  C  C66  1  0.79101000  0.87209000  0.09493000  1.0
  C  C67  1  0.62801000  0.29092000  0.84487000  1.0
  N  N68  1  0.03783000  0.51791000  0.70582000  1.0
  N  N69  1  0.98218000  0.53789000  0.45573000  1.0
  N  N70  1  0.96218000  0.48209000  0.20582000  1.0
  N  N71  1  0.01783000  0.46212000  0.95573000  1.0
  N  N72  1  0.46212000  0.01782000  0.54427000  1.0
  N  N73  1  0.48208000  0.96217000  0.29418000  1.0
  N  N74  1  0.53788000  0.98217000  0.04427000  1.0
  N  N75  1  0.51792000  0.03782000  0.79418000  1.0
  N  N76  1  0.01934000  0.66552000  0.60271000  1.0
  N  N77  1  0.83447000  0.51939000  0.35264000  1.0
  N  N78  1  0.98067000  0.33448000  0.10271000  1.0
  N  N79  1  0.16552000  0.48061000  0.85264000  1.0
  N  N80  1  0.48061000  0.16553000  0.64735000  1.0
  N  N81  1  0.33448000  0.98066000  0.39729000  1.0
  N  N82  1  0.51939000  0.83447000  0.14736000  1.0
  N  N83  1  0.66552000  0.01934000  0.89729000  1.0
  N  N84  1  0.49393000  0.50607000  0.50000000  1.0
  N  N85  1  0.99401000  0.99401000  0.25000000  1.0
  N  N86  1  0.50607000  0.49393000  0.00000000  1.0
  N  N87  1  0.00599000  0.00598000  0.75000000  1.0
  O  O88  1  0.35104000  0.73121000  0.61393000  1.0
  O  O89  1  0.76896000  0.85125000  0.36387000  1.0
  O  O90  1  0.64897000  0.26878000  0.11393000  1.0
  O  O91  1  0.23106000  0.14876000  0.86387000  1.0
  O  O92  1  0.14876000  0.23106000  0.63613000  1.0
  O  O93  1  0.26879000  0.64897000  0.38608000  1.0
  O  O94  1  0.85125000  0.76896000  0.13613000  1.0
  O  O95  1  0.73123000  0.35104000  0.88607000  1.0
  O  O96  1  0.37444000  0.54533000  0.69776000  1.0
  O  O97  1  0.95466000  0.87443000  0.44777000  1.0
  O  O98  1  0.62556000  0.45467000  0.19775000  1.0
  O  O99  1  0.04532000  0.12557000  0.94776000  1.0
  O  O100  1  0.12557000  0.04534000  0.55223000  1.0
  O  O101  1  0.45466000  0.62555000  0.30224000  1.0
  O  O102  1  0.87443000  0.95466000  0.05223000  1.0
  O  O103  1  0.54532000  0.37444000  0.80225000  1.0
  O  O104  1  0.34035000  0.47146000  0.51337000  1.0
  O  O105  1  0.02866000  0.84041000  0.26331000  1.0
  O  O106  1  0.65966000  0.52854000  0.01337000  1.0
  O  O107  1  0.97134000  0.15959000  0.76331000  1.0
  O  O108  1  0.15959000  0.97134000  0.73669000  1.0
  O  O109  1  0.52854000  0.65965000  0.48663000  1.0
  O  O110  1  0.84041000  0.02866000  0.23669000  1.0
  O  O111  1  0.47147000  0.34034000  0.98663000  1.0
  O  O112  1  0.60345000  0.39655000  0.50000000  1.0
  O  O113  1  0.10353000  0.10353000  0.25000000  1.0
  O  O114  1  0.39655000  0.60345000  0.00000000  1.0
  O  O115  1  0.89647000  0.89647000  0.75000000  1.0
