# generated using pymatgen
data_Eu2H14C14N4O15
_symmetry_space_group_name_H-M   'P 1'
_cell_length_a   10.19220000
_cell_length_b   11.29910000
_cell_length_c   22.05500000
_cell_angle_alpha   89.99970000
_cell_angle_beta   97.08770000
_cell_angle_gamma   89.99980000
_symmetry_Int_Tables_number   1
_chemical_formula_structural   Eu2H14C14N4O15
_chemical_formula_sum   'Eu8 H56 C56 N16 O60'
_cell_volume   2520.50418755
_cell_formula_units_Z   4
loop_
 _symmetry_equiv_pos_site_id
 _symmetry_equiv_pos_as_xyz
  1  'x, y, z'
loop_
 _atom_site_type_symbol
 _atom_site_label
 _atom_site_symmetry_multiplicity
 _atom_site_fract_x
 _atom_site_fract_y
 _atom_site_fract_z
 _atom_site_occupancy
  Eu  Eu0  1  0.38771000  0.31806000  0.27078000  1.0
  Eu  Eu1  1  0.11229000  0.81806000  0.22922000  1.0
  Eu  Eu2  1  0.61229000  0.68194000  0.72922000  1.0
  Eu  Eu3  1  0.88771000  0.18194000  0.77078000  1.0
  Eu  Eu4  1  0.26022000  0.42110000  0.56334000  1.0
  Eu  Eu5  1  0.23978000  0.92110000  0.93666000  1.0
  Eu  Eu6  1  0.73978000  0.57890000  0.43666000  1.0
  Eu  Eu7  1  0.76022000  0.07889000  0.06334000  1.0
  H  H8  1  0.46237000  0.62194000  0.56734000  1.0
  H  H9  1  0.03763000  0.12194000  0.93266000  1.0
  H  H10  1  0.53763000  0.37807000  0.43266000  1.0
  H  H11  1  0.96237000  0.87806000  0.06734000  1.0
  H  H12  1  0.43100000  0.59017000  0.49757000  1.0
  H  H13  1  0.06900000  0.09017000  0.00243000  1.0
  H  H14  1  0.56900000  0.40983000  0.50243000  1.0
  H  H15  1  0.93100000  0.90982000  0.99757000  1.0
  H  H16  1  0.54641000  0.40514000  0.63004000  1.0
  H  H17  1  0.95359000  0.90514000  0.86996000  1.0
  H  H18  1  0.45359000  0.59486000  0.36996000  1.0
  H  H19  1  0.04641000  0.09486000  0.13004000  1.0
  H  H20  1  0.51292000  0.27830000  0.60009000  1.0
  H  H21  1  0.98708000  0.77830000  0.89991000  1.0
  H  H22  1  0.48708000  0.72170000  0.39990000  1.0
  H  H23  1  0.01292000  0.22170000  0.10009000  1.0
  H  H24  1  0.23184000  0.17454000  0.51574000  1.0
  H  H25  1  0.26816000  0.67454000  0.98426000  1.0
  H  H26  1  0.76817000  0.82547000  0.48426000  1.0
  H  H27  1  0.73184000  0.32546000  0.01574000  1.0
  H  H28  1  0.19789000  0.19434000  0.58232000  1.0
  H  H29  1  0.30211000  0.69433000  0.91768000  1.0
  H  H30  1  0.80211000  0.80567000  0.41768000  1.0
  H  H31  1  0.69789000  0.30566000  0.08232000  1.0
  H  H32  1  0.86863000  0.39229000  0.34115000  1.0
  H  H33  1  0.63138000  0.89228000  0.15885000  1.0
  H  H34  1  0.13137000  0.60771000  0.65885000  1.0
  H  H35  1  0.36862000  0.10771000  0.84115000  1.0
  H  H36  1  0.84822000  0.01765000  0.33746000  1.0
  H  H37  1  0.65178000  0.51765000  0.16254000  1.0
  H  H38  1  0.15178000  0.98235000  0.66254000  1.0
  H  H39  1  0.34822000  0.48235000  0.83746000  1.0
  H  H40  1  0.98072000  0.44884000  0.21022000  1.0
  H  H41  1  0.51928000  0.94884000  0.28978000  1.0
  H  H42  1  0.01928000  0.55116000  0.78978000  1.0
  H  H43  1  0.48072000  0.05116000  0.71022000  1.0
  H  H44  1  0.87302000  0.33034000  0.22518000  1.0
  H  H45  1  0.62698000  0.83034000  0.27482000  1.0
  H  H46  1  0.12698000  0.66966000  0.77482000  1.0
  H  H47  1  0.37302000  0.16966000  0.72518000  1.0
  H  H48  1  0.03319000  0.30132000  0.20251000  1.0
  H  H49  1  0.46681000  0.80132000  0.29749000  1.0
  H  H50  1  0.96681000  0.69868000  0.79749000  1.0
  H  H51  1  0.53319000  0.19868000  0.70251000  1.0
  H  H52  1  0.72641000  0.23487000  0.42243000  1.0
  H  H53  1  0.77359000  0.73487000  0.07757000  1.0
  H  H54  1  0.27359000  0.76513000  0.57757000  1.0
  H  H55  1  0.22641000  0.26513000  0.92243000  1.0
  H  H56  1  0.72443000  0.07728000  0.42945000  1.0
  H  H57  1  0.77558000  0.57728000  0.07055000  1.0
  H  H58  1  0.27558000  0.92272000  0.57055000  1.0
  H  H59  1  0.22442000  0.42272000  0.92945000  1.0
  H  H60  1  0.57388000  0.15786000  0.41122000  1.0
  H  H61  1  0.92613000  0.65786000  0.08878000  1.0
  H  H62  1  0.42613000  0.84214000  0.58878000  1.0
  H  H63  1  0.07387000  0.34214000  0.91122000  1.0
  C  C64  1  0.17701000  0.34946000  0.37750000  1.0
  C  C65  1  0.32299000  0.84945000  0.12250000  1.0
  C  C66  1  0.82299000  0.65055000  0.62250000  1.0
  C  C67  1  0.67701000  0.15054000  0.87750000  1.0
  C  C68  1  0.05241000  0.36716000  0.39584000  1.0
  C  C69  1  0.44759000  0.86715000  0.10416000  1.0
  C  C70  1  0.94759000  0.63285000  0.60416000  1.0
  C  C71  1  0.55241000  0.13284000  0.89584000  1.0
  C  C72  1  0.03703000  0.35706000  0.29408000  1.0
  C  C73  1  0.46297000  0.85706000  0.20592000  1.0
  C  C74  1  0.96297000  0.64294000  0.70592000  1.0
  C  C75  1  0.53703000  0.14294000  0.79408000  1.0
  C  C76  1  0.31055000  0.34840000  0.41244000  1.0
  C  C77  1  0.18945000  0.84840000  0.08756000  1.0
  C  C78  1  0.68945000  0.65160000  0.58756000  1.0
  C  C79  1  0.81055000  0.15160000  0.91244000  1.0
  C  C80  1  0.99841000  0.37991000  0.45474000  1.0
  C  C81  1  0.50159000  0.87990000  0.04526000  1.0
  C  C82  1  0.00159000  0.62010000  0.54526000  1.0
  C  C83  1  0.49841000  0.12009000  0.95474000  1.0
  C  C84  1  0.97646000  0.35923000  0.22936000  1.0
  C  C85  1  0.52354000  0.85922000  0.27064000  1.0
  C  C86  1  0.02354000  0.64077000  0.77064000  1.0
  C  C87  1  0.47646000  0.14077000  0.72936000  1.0
  C  C88  1  0.75886000  0.07580000  0.25159000  1.0
  C  C89  1  0.74114000  0.57580000  0.24841000  1.0
  C  C90  1  0.24114000  0.92420000  0.74841000  1.0
  C  C91  1  0.25886000  0.42420000  0.75159000  1.0
  C  C92  1  0.65445000  0.15452000  0.23834000  1.0
  C  C93  1  0.84555000  0.65452000  0.26166000  1.0
  C  C94  1  0.34555000  0.84548000  0.76166000  1.0
  C  C95  1  0.15445000  0.34548000  0.73834000  1.0
  C  C96  1  0.68751000  0.14041000  0.33780000  1.0
  C  C97  1  0.81250000  0.64041000  0.16220000  1.0
  C  C98  1  0.31249000  0.85959000  0.66220000  1.0
  C  C99  1  0.18751000  0.35959000  0.83780000  1.0
  C  C100  1  0.83665000  0.99561000  0.21681000  1.0
  C  C101  1  0.66335000  0.49561000  0.28319000  1.0
  C  C102  1  0.16335000  0.00439000  0.78319000  1.0
  C  C103  1  0.33665000  0.50439000  0.71681000  1.0
  C  C104  1  0.58981000  0.20164000  0.17940000  1.0
  C  C105  1  0.91018000  0.70164000  0.32060000  1.0
  C  C106  1  0.41018000  0.79836000  0.82060000  1.0
  C  C107  1  0.08982000  0.29836000  0.67940000  1.0
  C  C108  1  0.67826000  0.15305000  0.40401000  1.0
  C  C109  1  0.82174000  0.65305000  0.09599000  1.0
  C  C110  1  0.32174000  0.84695000  0.59599000  1.0
  C  C111  1  0.17826000  0.34695000  0.90401000  1.0
  C  C112  1  0.23397000  0.55341000  0.21775000  1.0
  C  C113  1  0.26605000  0.05342000  0.28225000  1.0
  C  C114  1  0.76604000  0.44659000  0.78225000  1.0
  C  C115  1  0.73396000  0.94658000  0.71775000  1.0
  C  C116  1  0.29850000  0.59890000  0.28073000  1.0
  C  C117  1  0.20151000  0.09892000  0.21928000  1.0
  C  C118  1  0.70150000  0.40109000  0.71927000  1.0
  C  C119  1  0.79849000  0.90108000  0.78072000  1.0
  N  N120  1  0.16504000  0.34269000  0.31463000  1.0
  N  N121  1  0.33496000  0.84268000  0.18537000  1.0
  N  N122  1  0.83496000  0.65732000  0.68537000  1.0
  N  N123  1  0.66504000  0.15731000  0.81463000  1.0
  N  N124  1  0.96736000  0.37210000  0.34231000  1.0
  N  N125  1  0.53264000  0.87210000  0.15769000  1.0
  N  N126  1  0.03264000  0.62790000  0.65769000  1.0
  N  N127  1  0.46736000  0.12790000  0.84231000  1.0
  N  N128  1  0.61128000  0.19308000  0.29188000  1.0
  N  N129  1  0.88872000  0.69308000  0.20812000  1.0
  N  N130  1  0.38871000  0.80692000  0.70812000  1.0
  N  N131  1  0.11128000  0.30692000  0.79188000  1.0
  N  N132  1  0.77777000  0.07030000  0.31455000  1.0
  N  N133  1  0.72223000  0.57030000  0.18545000  1.0
  N  N134  1  0.22223000  0.92970000  0.68545000  1.0
  N  N135  1  0.27777000  0.42970000  0.81455000  1.0
  O  O136  1  0.40869000  0.32776000  0.38298000  1.0
  O  O137  1  0.09131000  0.82775000  0.11702000  1.0
  O  O138  1  0.59131000  0.67224000  0.61702000  1.0
  O  O139  1  0.90869000  0.17224000  0.88298000  1.0
  O  O140  1  0.32539000  0.37138000  0.46919000  1.0
  O  O141  1  0.17462000  0.87138000  0.03082000  1.0
  O  O142  1  0.67461000  0.62863000  0.53082000  1.0
  O  O143  1  0.82538000  0.12862000  0.96918000  1.0
  O  O144  1  0.06786000  0.35069000  0.50394000  1.0
  O  O145  1  0.43214000  0.85069000  0.99606000  1.0
  O  O146  1  0.93214000  0.64931000  0.49606000  1.0
  O  O147  1  0.56786000  0.14930000  0.00394000  1.0
  O  O148  1  0.87972000  0.41731000  0.45111000  1.0
  O  O149  1  0.62028000  0.91730000  0.04888000  1.0
  O  O150  1  0.12028000  0.58270000  0.54889000  1.0
  O  O151  1  0.37972000  0.08269000  0.95111000  1.0
  O  O152  1  0.92967000  0.94261000  0.24894000  1.0
  O  O153  1  0.57033000  0.44261000  0.25106000  1.0
  O  O154  1  0.07033000  0.05739000  0.75106000  1.0
  O  O155  1  0.42967000  0.55739000  0.74894000  1.0
  O  O156  1  0.80308000  0.97940000  0.15949000  1.0
  O  O157  1  0.69692000  0.47941000  0.34052000  1.0
  O  O158  1  0.19692000  0.02059000  0.84051000  1.0
  O  O159  1  0.30308000  0.52060000  0.65948000  1.0
  O  O160  1  0.65109000  0.19118000  0.13220000  1.0
  O  O161  1  0.84891000  0.69119000  0.36779000  1.0
  O  O162  1  0.34890000  0.80881000  0.86779000  1.0
  O  O163  1  0.15109000  0.30882000  0.63221000  1.0
  O  O164  1  0.48057000  0.25308000  0.17971000  1.0
  O  O165  1  0.01944000  0.75309000  0.32029000  1.0
  O  O166  1  0.51943000  0.74692000  0.82029000  1.0
  O  O167  1  0.98056000  0.24691000  0.67971000  1.0
  O  O168  1  0.15133000  0.62249000  0.18854000  1.0
  O  O169  1  0.34867000  0.12249000  0.31145000  1.0
  O  O170  1  0.84867000  0.37751000  0.81146000  1.0
  O  O171  1  0.65133000  0.87751000  0.68855000  1.0
  O  O172  1  0.26831000  0.45235000  0.20088000  1.0
  O  O173  1  0.23170000  0.95235000  0.29913000  1.0
  O  O174  1  0.73169000  0.54765000  0.79912000  1.0
  O  O175  1  0.76830000  0.04765000  0.70088000  1.0
  O  O176  1  0.37276000  0.52666000  0.31352000  1.0
  O  O177  1  0.12724000  0.02665000  0.18648000  1.0
  O  O178  1  0.62724000  0.47334000  0.68648000  1.0
  O  O179  1  0.87276000  0.97334000  0.81352000  1.0
  O  O180  1  0.27539000  0.70395000  0.29523000  1.0
  O  O181  1  0.22460000  0.20394000  0.20477000  1.0
  O  O182  1  0.72460000  0.29605000  0.70477000  1.0
  O  O183  1  0.77540000  0.79606000  0.79523000  1.0
  O  O184  1  0.39394000  0.58554000  0.53634000  1.0
  O  O185  1  0.10606000  0.08554000  0.96366000  1.0
  O  O186  1  0.60606000  0.41446000  0.46365000  1.0
  O  O187  1  0.89395000  0.91446000  0.03634000  1.0
  O  O188  1  0.48883000  0.36151000  0.59601000  1.0
  O  O189  1  0.01117000  0.86151000  0.90399000  1.0
  O  O190  1  0.51117000  0.63849000  0.40399000  1.0
  O  O191  1  0.98883000  0.13848000  0.09601000  1.0
  O  O192  1  0.27222000  0.18783000  0.55754000  1.0
  O  O193  1  0.22778000  0.68782000  0.94246000  1.0
  O  O194  1  0.72778000  0.81218000  0.44246000  1.0
  O  O195  1  0.77222000  0.31217000  0.05754000  1.0
