# generated using pymatgen
data_U3H14(C8O13)2
_symmetry_space_group_name_H-M   'P 1'
_cell_length_a   8.41039000
_cell_length_b   8.66726000
_cell_length_c   10.54200000
_cell_angle_alpha   100.39190000
_cell_angle_beta   111.91990000
_cell_angle_gamma   91.49400000
_symmetry_Int_Tables_number   1
_chemical_formula_structural   U3H14(C8O13)2
_chemical_formula_sum   'U3 H14 C16 O26'
_cell_volume   697.52741226
_cell_formula_units_Z   1
loop_
 _symmetry_equiv_pos_site_id
 _symmetry_equiv_pos_as_xyz
  1  'x, y, z'
loop_
 _atom_site_type_symbol
 _atom_site_label
 _atom_site_symmetry_multiplicity
 _atom_site_fract_x
 _atom_site_fract_y
 _atom_site_fract_z
 _atom_site_occupancy
  U  U0  1  0.99999000  0.49998000  0.99999000  1.0
  U  U1  1  0.68529000  0.77092000  0.39103000  1.0
  U  U2  1  0.31474000  0.22910000  0.60897000  1.0
  H  H3  1  0.17059000  0.93185000  0.74146000  1.0
  H  H4  1  0.82941000  0.06816000  0.25855000  1.0
  H  H5  1  0.89496000  0.50994000  0.29599000  1.0
  H  H6  1  0.10504000  0.49005000  0.70400000  1.0
  H  H7  1  0.78099000  0.43417000  0.36574000  1.0
  H  H8  1  0.21903000  0.56584000  0.63427000  1.0
  H  H9  1  0.47076000  0.58800000  0.86057000  1.0
  H  H10  1  0.52923000  0.41202000  0.13943000  1.0
  H  H11  1  0.58655000  0.63017000  0.63941000  1.0
  H  H12  1  0.41345000  0.36982000  0.36058000  1.0
  H  H13  1  0.80750000  0.90966000  0.86923000  1.0
  H  H14  1  0.19250000  0.09034000  0.13077000  1.0
  H  H15  1  0.58874000  0.92542000  0.95937000  1.0
  H  H16  1  0.41127000  0.07458000  0.04063000  1.0
  C  C17  1  0.59089000  0.66765000  0.90495000  1.0
  C  C18  1  0.40912000  0.33237000  0.09505000  1.0
  C  C19  1  0.70115000  0.68065000  0.73368000  1.0
  C  C20  1  0.29885000  0.31935000  0.26632000  1.0
  C  C21  1  0.68202000  0.85272000  0.79053000  1.0
  C  C22  1  0.31798000  0.14728000  0.20947000  1.0
  C  C23  1  0.55837000  0.83241000  0.86634000  1.0
  C  C24  1  0.44163000  0.16760000  0.13367000  1.0
  C  C25  1  0.67350000  0.67210000  0.06134000  1.0
  C  C26  1  0.32650000  0.32790000  0.93865000  1.0
  C  C27  1  0.85891000  0.64764000  0.70090000  1.0
  C  C28  1  0.14108000  0.35236000  0.29910000  1.0
  C  C29  1  0.62013000  0.95847000  0.68387000  1.0
  C  C30  1  0.37988000  0.04152000  0.31612000  1.0
  C  C31  1  0.37324000  0.83046000  0.76623000  1.0
  C  C32  1  0.62677000  0.16957000  0.23380000  1.0
  O  O33  1  0.86679000  0.31484000  0.93927000  1.0
  O  O34  1  0.13322000  0.68515000  0.06072000  1.0
  O  O35  1  0.85534000  0.89624000  0.38380000  1.0
  O  O36  1  0.14466000  0.10375000  0.61620000  1.0
  O  O37  1  0.52043000  0.63911000  0.39776000  1.0
  O  O38  1  0.47956000  0.36087000  0.60223000  1.0
  O  O39  1  0.82853000  0.63957000  0.10775000  1.0
  O  O40  1  0.17145000  0.36041000  0.89224000  1.0
  O  O41  1  0.58380000  0.70526000  0.13372000  1.0
  O  O42  1  0.41619000  0.29476000  0.86628000  1.0
  O  O43  1  0.96274000  0.56197000  0.77261000  1.0
  O  O44  1  0.03724000  0.43802000  0.22739000  1.0
  O  O45  1  0.88116000  0.70113000  0.60452000  1.0
  O  O46  1  0.11883000  0.29888000  0.39550000  1.0
  O  O47  1  0.67125000  0.94385000  0.58398000  1.0
  O  O48  1  0.32876000  0.05614000  0.41602000  1.0
  O  O49  1  0.52254000  0.05958000  0.70579000  1.0
  O  O50  1  0.47746000  0.94040000  0.29420000  1.0
  O  O51  1  0.31539000  0.74964000  0.64699000  1.0
  O  O52  1  0.68459000  0.25035000  0.35300000  1.0
  O  O53  1  0.27805000  0.92161000  0.81971000  1.0
  O  O54  1  0.72197000  0.07840000  0.18030000  1.0
  O  O55  1  0.70919000  0.60286000  0.84497000  1.0
  O  O56  1  0.29081000  0.39714000  0.15503000  1.0
  O  O57  1  0.80531000  0.53119000  0.33631000  1.0
  O  O58  1  0.19468000  0.46879000  0.66371000  1.0
