# generated using pymatgen
data_AlH6C11O5F
_symmetry_space_group_name_H-M   'P 1'
_cell_length_a   6.65746000
_cell_length_b   11.09116105
_cell_length_c   11.23118105
_cell_angle_alpha   80.06085289
_cell_angle_beta   72.81196084
_cell_angle_gamma   73.15053562
_symmetry_Int_Tables_number   1
_chemical_formula_structural   AlH6C11O5F
_chemical_formula_sum   'Al2 H12 C22 O10 F2'
_cell_volume   754.81406403
_cell_formula_units_Z   2
loop_
 _symmetry_equiv_pos_site_id
 _symmetry_equiv_pos_as_xyz
  1  'x, y, z'
loop_
 _atom_site_type_symbol
 _atom_site_label
 _atom_site_symmetry_multiplicity
 _atom_site_fract_x
 _atom_site_fract_y
 _atom_site_fract_z
 _atom_site_occupancy
  Al  Al0  1  0.48484000  0.51478000  0.49271000  1.0
  Al  Al1  1  0.98376000  0.51472000  0.49434000  1.0
  H  H2  1  0.26175000  0.60274000  0.34849000  1.0
  H  H3  1  0.78064000  0.35975000  0.55683000  1.0
  H  H4  1  0.82192000  0.29121000  0.89935000  1.0
  H  H5  1  0.61272000  0.43136000  0.88294000  1.0
  H  H6  1  0.49371000  0.43375000  0.11912000  1.0
  H  H7  1  0.70411000  0.29357000  0.13243000  1.0
  H  H8  1  0.83708000  0.76964000  0.66212000  1.0
  H  H9  1  0.97672000  0.88060000  0.77969000  1.0
  H  H10  1  0.57710000  0.23732000  0.66735000  1.0
  H  H11  1  0.84317000  0.11549000  0.78359000  1.0
  H  H12  1  0.18522000  0.13284000  0.41950000  1.0
  H  H13  1  0.29971000  0.89666000  0.42754000  1.0
  C  C14  1  0.61404000  0.73906000  0.51211000  1.0
  C  C15  1  0.84709000  0.52304000  0.26592000  1.0
  C  C16  1  0.34353000  0.28448000  0.50184000  1.0
  C  C17  1  0.12122000  0.51627000  0.71810000  1.0
  C  C18  1  0.04919000  0.52237000  0.85612000  1.0
  C  C19  1  0.91380000  0.52525000  0.12692000  1.0
  C  C20  1  0.88899000  0.46504000  0.93293000  1.0
  C  C21  1  0.07359000  0.58493000  0.05010000  1.0
  C  C22  1  0.82392000  0.46642000  0.06262000  1.0
  C  C23  1  0.13836000  0.58391000  0.91961000  1.0
  C  C24  1  0.73897000  0.38524000  0.93235000  1.0
  C  C25  1  0.66493000  0.38667000  0.07984000  1.0
  C  C26  1  0.53813000  0.87765000  0.52662000  1.0
  C  C27  1  0.63094000  0.93943000  0.59113000  1.0
  C  C28  1  0.37376000  0.94666000  0.47124000  1.0
  C  C29  1  0.78270000  0.87201000  0.66103000  1.0
  C  C30  1  0.85972000  0.93427000  0.72724000  1.0
  C  C31  1  0.40399000  0.14345000  0.52140000  1.0
  C  C32  1  0.30823000  0.07905000  0.46769000  1.0
  C  C33  1  0.55935000  0.07528000  0.59014000  1.0
  C  C34  1  0.63814000  0.13559000  0.66246000  1.0
  C  C35  1  0.78541000  0.06693000  0.72884000  1.0
  O  O36  1  0.47250000  0.68482000  0.50759000  1.0
  O  O37  1  0.99314000  0.51773000  0.31980000  1.0
  O  O38  1  0.14711000  0.33880000  0.49976000  1.0
  O  O39  1  0.32115000  0.50630000  0.66478000  1.0
  O  O40  1  0.49291000  0.34053000  0.48659000  1.0
  O  O41  1  0.97480000  0.51771000  0.66610000  1.0
  O  O42  1  0.81498000  0.68555000  0.49972000  1.0
  O  O43  1  0.64859000  0.52472000  0.31829000  1.0
  O  O44  1  0.23488000  0.57152000  0.43646000  1.0
  O  O45  1  0.73901000  0.45161000  0.54514000  1.0
  F  F46  1  0.16742000  0.65062000  0.09984000  1.0
  F  F47  1  0.28692000  0.64928000  0.85552000  1.0
