# generated using pymatgen
data_Zn4H6C18O13
_symmetry_space_group_name_H-M   'P 1'
_cell_length_a   17.19150000
_cell_length_b   17.20840000
_cell_length_c   22.63020000
_cell_angle_alpha   89.95050000
_cell_angle_beta   89.94890000
_cell_angle_gamma   82.27460000
_symmetry_Int_Tables_number   1
_chemical_formula_structural   Zn4H6C18O13
_chemical_formula_sum   'Zn16 H24 C72 O52'
_cell_volume   6634.10862973
_cell_formula_units_Z   4
loop_
 _symmetry_equiv_pos_site_id
 _symmetry_equiv_pos_as_xyz
  1  'x, y, z'
loop_
 _atom_site_type_symbol
 _atom_site_label
 _atom_site_symmetry_multiplicity
 _atom_site_fract_x
 _atom_site_fract_y
 _atom_site_fract_z
 _atom_site_occupancy
  Zn  Zn0  1  0.90588000  0.50534000  0.79987000  1.0
  Zn  Zn1  1  0.00417000  0.40501000  0.29977000  1.0
  Zn  Zn2  1  0.00442000  0.40490000  0.70039000  1.0
  Zn  Zn3  1  0.99575000  0.59495000  0.29972000  1.0
  Zn  Zn4  1  0.49583000  0.09499000  0.20023000  1.0
  Zn  Zn5  1  0.50535000  0.90599000  0.79994000  1.0
  Zn  Zn6  1  0.50425000  0.90505000  0.20028000  1.0
  Zn  Zn7  1  0.49558000  0.09510000  0.79961000  1.0
  Zn  Zn8  1  0.09427000  0.49449000  0.20024000  1.0
  Zn  Zn9  1  0.09520000  0.49559000  0.79954000  1.0
  Zn  Zn10  1  0.90578000  0.50558000  0.20029000  1.0
  Zn  Zn11  1  0.40573000  0.00551000  0.29976000  1.0
  Zn  Zn12  1  0.59412000  0.99466000  0.70013000  1.0
  Zn  Zn13  1  0.59422000  0.99442000  0.29971000  1.0
  Zn  Zn14  1  0.40480000  0.00441000  0.70046000  1.0
  Zn  Zn15  1  0.99465000  0.59401000  0.70006000  1.0
  H  H16  1  0.24342000  0.69096000  0.34817000  1.0
  H  H17  1  0.88092000  0.18457000  0.77630000  1.0
  H  H18  1  0.88095000  0.18456000  0.22370000  1.0
  H  H19  1  0.14599000  0.79102000  0.67756000  1.0
  H  H20  1  0.61908000  0.31543000  0.72370000  1.0
  H  H21  1  0.38092000  0.68457000  0.27630000  1.0
  H  H22  1  0.35401000  0.70898000  0.82244000  1.0
  H  H23  1  0.61905000  0.31544000  0.27630000  1.0
  H  H24  1  0.70888000  0.35387000  0.82247000  1.0
  H  H25  1  0.29113000  0.64613000  0.17753000  1.0
  H  H26  1  0.19098000  0.74348000  0.84821000  1.0
  H  H27  1  0.75658000  0.30904000  0.65183000  1.0
  H  H28  1  0.70905000  0.35402000  0.17754000  1.0
  H  H29  1  0.20887000  0.85387000  0.32247000  1.0
  H  H30  1  0.79113000  0.14613000  0.67753000  1.0
  H  H31  1  0.79095000  0.14598000  0.32246000  1.0
  H  H32  1  0.30902000  0.75652000  0.65179000  1.0
  H  H33  1  0.75643000  0.30885000  0.34817000  1.0
  H  H34  1  0.31549000  0.61919000  0.72373000  1.0
  H  H35  1  0.74342000  0.19096000  0.84817000  1.0
  H  H36  1  0.25658000  0.80904000  0.15183000  1.0
  H  H37  1  0.18451000  0.88081000  0.77627000  1.0
  H  H38  1  0.74357000  0.19115000  0.15183000  1.0
  H  H39  1  0.11908000  0.81543000  0.22370000  1.0
  C  C40  1  0.13996000  0.64091000  0.74959000  1.0
  C  C41  1  0.77687000  0.72324000  0.25008000  1.0
  C  C42  1  0.77680000  0.72317000  0.75003000  1.0
  C  C43  1  0.22312000  0.27676000  0.25007000  1.0
  C  C44  1  0.72313000  0.77676000  0.24992000  1.0
  C  C45  1  0.27681000  0.22316000  0.74997000  1.0
  C  C46  1  0.27687000  0.22324000  0.24993000  1.0
  C  C47  1  0.72320000  0.77683000  0.74997000  1.0
  C  C48  1  0.00006000  0.49982000  0.52676000  1.0
  C  C49  1  0.00003000  0.49992000  0.47311000  1.0
  C  C50  1  0.49997000  0.00008000  0.02689000  1.0
  C  C51  1  0.85914000  0.35999000  0.24955000  1.0
  C  C52  1  0.49994000  0.00018000  0.97324000  1.0
  C  C53  1  0.84080000  0.65916000  0.75002000  1.0
  C  C54  1  0.15902000  0.34072000  0.25002000  1.0
  C  C55  1  0.15914000  0.34089000  0.75002000  1.0
  C  C56  1  0.84097000  0.65928000  0.25002000  1.0
  C  C57  1  0.34098000  0.15928000  0.24998000  1.0
  C  C58  1  0.65920000  0.84084000  0.74998000  1.0
  C  C59  1  0.65903000  0.84072000  0.24998000  1.0
  C  C60  1  0.34086000  0.15911000  0.74997000  1.0
  C  C61  1  0.99990000  0.49985000  0.59082000  1.0
  C  C62  1  0.85911000  0.36002000  0.75046000  1.0
  C  C63  1  0.99999000  0.49996000  0.40905000  1.0
  C  C64  1  0.50001000  0.00003000  0.09095000  1.0
  C  C65  1  0.50009000  0.00015000  0.90918000  1.0
  C  C66  1  0.00014000  0.50009000  0.90908000  1.0
  C  C67  1  0.00004000  0.50001000  0.09079000  1.0
  C  C68  1  0.49996000  0.99999000  0.40921000  1.0
  C  C69  1  0.49986000  0.99991000  0.59092000  1.0
  C  C70  1  0.00018000  0.49995000  0.97311000  1.0
  C  C71  1  0.00009000  0.49998000  0.02676000  1.0
  C  C72  1  0.49991000  0.00002000  0.47324000  1.0
  C  C73  1  0.14088000  0.63999000  0.24953000  1.0
  C  C74  1  0.49982000  0.00005000  0.52689000  1.0
  C  C75  1  0.72651000  0.30737000  0.79039000  1.0
  C  C76  1  0.27348000  0.69263000  0.20961000  1.0
  C  C77  1  0.21788000  0.74709000  0.80464000  1.0
  C  C78  1  0.72662000  0.30745000  0.20962000  1.0
  C  C79  1  0.22651000  0.80737000  0.29040000  1.0
  C  C80  1  0.77348000  0.19263000  0.70961000  1.0
  C  C81  1  0.77338000  0.19255000  0.29038000  1.0
  C  C82  1  0.28212000  0.75290000  0.69536000  1.0
  C  C83  1  0.24706000  0.71787000  0.30462000  1.0
  C  C84  1  0.64086000  0.14001000  0.25045000  1.0
  C  C85  1  0.75294000  0.28212000  0.69538000  1.0
  C  C86  1  0.75285000  0.28201000  0.30463000  1.0
  C  C87  1  0.28716000  0.67795000  0.73537000  1.0
  C  C88  1  0.74706000  0.21788000  0.80462000  1.0
  C  C89  1  0.25294000  0.78213000  0.19538000  1.0
  C  C90  1  0.21284000  0.82204000  0.76463000  1.0
  C  C91  1  0.74715000  0.21799000  0.19538000  1.0
  C  C92  1  0.19858000  0.69666000  0.24902000  1.0
  C  C93  1  0.80142000  0.30334000  0.75097000  1.0
  C  C94  1  0.80146000  0.30331000  0.24903000  1.0
  C  C95  1  0.36004000  0.85909000  0.75042000  1.0
  C  C96  1  0.19663000  0.69861000  0.74908000  1.0
  C  C97  1  0.69858000  0.19666000  0.74903000  1.0
  C  C98  1  0.30142000  0.80334000  0.25098000  1.0
  C  C99  1  0.30337000  0.80139000  0.75092000  1.0
  C  C100  1  0.69854000  0.19669000  0.25097000  1.0
  C  C101  1  0.17789000  0.78712000  0.23535000  1.0
  C  C102  1  0.82212000  0.21288000  0.76465000  1.0
  C  C103  1  0.82213000  0.21289000  0.23534000  1.0
  C  C104  1  0.19255000  0.77341000  0.70962000  1.0
  C  C105  1  0.67788000  0.28711000  0.73535000  1.0
  C  C106  1  0.35912000  0.86001000  0.25048000  1.0
  C  C107  1  0.32211000  0.71288000  0.26465000  1.0
  C  C108  1  0.30745000  0.72658000  0.79038000  1.0
  C  C109  1  0.67787000  0.28711000  0.26466000  1.0
  C  C110  1  0.64089000  0.13998000  0.74954000  1.0
  C  C111  1  0.22319000  0.27684000  0.75003000  1.0
  O  O112  1  0.00039000  0.49961000  0.74997000  1.0
  O  O113  1  0.34573000  0.91673000  0.71448000  1.0
  O  O114  1  0.34651000  0.91817000  0.28589000  1.0
  O  O115  1  0.65352000  0.08180000  0.71413000  1.0
  O  O116  1  0.89684000  0.66576000  0.71433000  1.0
  O  O117  1  0.10280000  0.33410000  0.28553000  1.0
  O  O118  1  0.10299000  0.33411000  0.71455000  1.0
  O  O119  1  0.89715000  0.66586000  0.28549000  1.0
  O  O120  1  0.39720000  0.16590000  0.21447000  1.0
  O  O121  1  0.60316000  0.83424000  0.78567000  1.0
  O  O122  1  0.60285000  0.83414000  0.21451000  1.0
  O  O123  1  0.99999000  0.50001000  0.25037000  1.0
  O  O124  1  0.39701000  0.16589000  0.78545000  1.0
  O  O125  1  0.99563000  0.56688000  0.61537000  1.0
  O  O126  1  0.00394000  0.43306000  0.38440000  1.0
  O  O127  1  0.00398000  0.43302000  0.61564000  1.0
  O  O128  1  0.99600000  0.56693000  0.38438000  1.0
  O  O129  1  0.49606000  0.06694000  0.11559000  1.0
  O  O130  1  0.50437000  0.93312000  0.88463000  1.0
  O  O131  1  0.50400000  0.93307000  0.11562000  1.0
  O  O132  1  0.49602000  0.06698000  0.88436000  1.0
  O  O133  1  0.06705000  0.49602000  0.88428000  1.0
  O  O134  1  0.50001000  0.99999000  0.24963000  1.0
  O  O135  1  0.93301000  0.50440000  0.11550000  1.0
  O  O136  1  0.93304000  0.50435000  0.88455000  1.0
  O  O137  1  0.06701000  0.49566000  0.11548000  1.0
  O  O138  1  0.56699000  0.99560000  0.38450000  1.0
  O  O139  1  0.43295000  0.00397000  0.61572000  1.0
  O  O140  1  0.43299000  0.00434000  0.38452000  1.0
  O  O141  1  0.56696000  0.99565000  0.61545000  1.0
  O  O142  1  0.83416000  0.60316000  0.78570000  1.0
  O  O143  1  0.16587000  0.39670000  0.21434000  1.0
  O  O144  1  0.16596000  0.39701000  0.78548000  1.0
  O  O145  1  0.49961000  0.00039000  0.75003000  1.0
  O  O146  1  0.83416000  0.60334000  0.21437000  1.0
  O  O147  1  0.33413000  0.10330000  0.28566000  1.0
  O  O148  1  0.66584000  0.89684000  0.71430000  1.0
  O  O149  1  0.66584000  0.89666000  0.28562000  1.0
  O  O150  1  0.33404000  0.10299000  0.71452000  1.0
  O  O151  1  0.08175000  0.65349000  0.71415000  1.0
  O  O152  1  0.91674000  0.34570000  0.28550000  1.0
  O  O153  1  0.91677000  0.34576000  0.71450000  1.0
  O  O154  1  0.08321000  0.65428000  0.28548000  1.0
  O  O155  1  0.58326000  0.15430000  0.21449000  1.0
  O  O156  1  0.15427000  0.58327000  0.78552000  1.0
  O  O157  1  0.41825000  0.84651000  0.78585000  1.0
  O  O158  1  0.41679000  0.84572000  0.21452000  1.0
  O  O159  1  0.58323000  0.15424000  0.78550000  1.0
  O  O160  1  0.84654000  0.41823000  0.21414000  1.0
  O  O161  1  0.84648000  0.41820000  0.78587000  1.0
  O  O162  1  0.15349000  0.58183000  0.21411000  1.0
  O  O163  1  0.65346000  0.08177000  0.28586000  1.0
