# generated using pymatgen
data_CuH18AuC10N4ClO4
_symmetry_space_group_name_H-M   'P 1'
_cell_length_a   7.14607000
_cell_length_b   9.38586000
_cell_length_c   12.81010000
_cell_angle_alpha   90.00000000
_cell_angle_beta   90.00030000
_cell_angle_gamma   112.37200000
_symmetry_Int_Tables_number   1
_chemical_formula_structural   CuH18AuC10N4ClO4
_chemical_formula_sum   'Cu2 H36 Au2 C20 N8 Cl2 O8'
_cell_volume   794.52911201
_cell_formula_units_Z   2
loop_
 _symmetry_equiv_pos_site_id
 _symmetry_equiv_pos_as_xyz
  1  'x, y, z'
loop_
 _atom_site_type_symbol
 _atom_site_label
 _atom_site_symmetry_multiplicity
 _atom_site_fract_x
 _atom_site_fract_y
 _atom_site_fract_z
 _atom_site_occupancy
  Cu  Cu0  1  0.22661000  0.45315000  0.75001000  1.0
  Cu  Cu1  1  0.77339000  0.54685000  0.25001000  1.0
  H  H2  1  0.14865000  0.63414000  0.86528000  1.0
  H  H3  1  0.51424000  0.36590000  0.13471000  1.0
  H  H4  1  0.48576000  0.63410000  0.63471000  1.0
  H  H5  1  0.85136000  0.36587000  0.36528000  1.0
  H  H6  1  0.57687000  0.77217000  0.80416000  1.0
  H  H7  1  0.80439000  0.22780000  0.19580000  1.0
  H  H8  1  0.19561000  0.77220000  0.69580000  1.0
  H  H9  1  0.42313000  0.22783000  0.30416000  1.0
  H  H10  1  0.49088000  0.91869000  0.94329000  1.0
  H  H11  1  0.57181000  0.08127000  0.05669000  1.0
  H  H12  1  0.42819000  0.91872000  0.55669000  1.0
  H  H13  1  0.50913000  0.08132000  0.44329000  1.0
  H  H14  1  0.27781000  0.91753000  0.87196000  1.0
  H  H15  1  0.35994000  0.08234000  0.12809000  1.0
  H  H16  1  0.64007000  0.91765000  0.62808000  1.0
  H  H17  1  0.72220000  0.08247000  0.37196000  1.0
  H  H18  1  0.56555000  0.16820000  0.84673000  1.0
  H  H19  1  0.39744000  0.83178000  0.15330000  1.0
  H  H20  1  0.60256000  0.16822000  0.65329000  1.0
  H  H21  1  0.43445000  0.83180000  0.34673000  1.0
  H  H22  1  0.72488000  0.07343000  0.80730000  1.0
  H  H23  1  0.65152000  0.92674000  0.19268000  1.0
  H  H24  1  0.34848000  0.07326000  0.69268000  1.0
  H  H25  1  0.27512000  0.92658000  0.30731000  1.0
  H  H26  1  0.26362000  0.49399000  0.99143000  1.0
  H  H27  1  0.76924000  0.50604000  0.00852000  1.0
  H  H28  1  0.23076000  0.49396000  0.50852000  1.0
  H  H29  1  0.73639000  0.50602000  0.49143000  1.0
  H  H30  1  0.37452000  0.69562000  0.01474000  1.0
  H  H31  1  0.67864000  0.30441000  0.98521000  1.0
  H  H32  1  0.32136000  0.69559000  0.48521000  1.0
  H  H33  1  0.62548000  0.30439000  0.51474000  1.0
  H  H34  1  0.51604000  0.60106000  0.94938000  1.0
  H  H35  1  0.91468000  0.39903000  0.05056000  1.0
  H  H36  1  0.08532000  0.60096000  0.55056000  1.0
  H  H37  1  0.48397000  0.39895000  0.44938000  1.0
  Au  Au38  1  0.01107000  0.99996000  0.50007000  1.0
  Au  Au39  1  0.98891000  0.00004000  0.00007000  1.0
  C  C40  1  0.10426000  0.18460000  0.58905000  1.0
  C  C41  1  0.91990000  0.81532000  0.41109000  1.0
  C  C42  1  0.08007000  0.18468000  0.91109000  1.0
  C  C43  1  0.89574000  0.81540000  0.08905000  1.0
  C  C44  1  0.42401000  0.77502000  0.80589000  1.0
  C  C45  1  0.64869000  0.22496000  0.19407000  1.0
  C  C46  1  0.35132000  0.77504000  0.69406000  1.0
  C  C47  1  0.57599000  0.22498000  0.30589000  1.0
  C  C48  1  0.43283000  0.91971000  0.86410000  1.0
  C  C49  1  0.51283000  0.08024000  0.13590000  1.0
  C  C50  1  0.48718000  0.91976000  0.63590000  1.0
  C  C51  1  0.56717000  0.08029000  0.36410000  1.0
  C  C52  1  0.56712000  0.06538000  0.80632000  1.0
  C  C53  1  0.50173000  0.93464000  0.19369000  1.0
  C  C54  1  0.49828000  0.06536000  0.69369000  1.0
  C  C55  1  0.43288000  0.93462000  0.30633000  1.0
  C  C56  1  0.36530000  0.60396000  0.95927000  1.0
  C  C57  1  0.76101000  0.39608000  0.04068000  1.0
  C  C58  1  0.23899000  0.60392000  0.54068000  1.0
  C  C59  1  0.63470000  0.39604000  0.45927000  1.0
  N  N60  1  0.16121000  0.29363000  0.64254000  1.0
  N  N61  1  0.86779000  0.70633000  0.35756000  1.0
  N  N62  1  0.13220000  0.29367000  0.85756000  1.0
  N  N63  1  0.83879000  0.70637000  0.14255000  1.0
  N  N64  1  0.29002000  0.62980000  0.85677000  1.0
  N  N65  1  0.65994000  0.37020000  0.14319000  1.0
  N  N66  1  0.34006000  0.62980000  0.64319000  1.0
  N  N67  1  0.70998000  0.37020000  0.35677000  1.0
  Cl  Cl68  1  0.77549000  0.55103000  0.74999000  1.0
  Cl  Cl69  1  0.22451000  0.44898000  0.24999000  1.0
  O  O70  1  0.88147000  0.45362000  0.71547000  1.0
  O  O71  1  0.42796000  0.54630000  0.28448000  1.0
  O  O72  1  0.57204000  0.45370000  0.78448000  1.0
  O  O73  1  0.11853000  0.54638000  0.21547000  1.0
  O  O74  1  0.88565000  0.64939000  0.83684000  1.0
  O  O75  1  0.23614000  0.35048000  0.16318000  1.0
  O  O76  1  0.76385000  0.64952000  0.66318000  1.0
  O  O77  1  0.11435000  0.35061000  0.33684000  1.0
