# generated using pymatgen
data_Tb2H14C18S3O16
_symmetry_space_group_name_H-M   'P 1'
_cell_length_a   5.79976000
_cell_length_b   12.87397357
_cell_length_c   15.75320000
_cell_angle_alpha   93.62526382
_cell_angle_beta   100.56530000
_cell_angle_gamma   103.01739124
_symmetry_Int_Tables_number   1
_chemical_formula_structural   Tb2H14C18S3O16
_chemical_formula_sum   'Tb4 H28 C36 S6 O32'
_cell_volume   1119.84261162
_cell_formula_units_Z   2
loop_
 _symmetry_equiv_pos_site_id
 _symmetry_equiv_pos_as_xyz
  1  'x, y, z'
loop_
 _atom_site_type_symbol
 _atom_site_label
 _atom_site_symmetry_multiplicity
 _atom_site_fract_x
 _atom_site_fract_y
 _atom_site_fract_z
 _atom_site_occupancy
  Tb  Tb0  1  0.13877000  0.84791000  0.11073000  1.0
  Tb  Tb1  1  0.67915000  0.65200000  0.38928000  1.0
  Tb  Tb2  1  0.86123000  0.15209000  0.88927000  1.0
  Tb  Tb3  1  0.32085000  0.34800000  0.61072000  1.0
  H  H4  1  0.31788000  0.51008000  0.18703000  1.0
  H  H5  1  0.12175000  0.99064000  0.31307000  1.0
  H  H6  1  0.68212000  0.48992000  0.81297000  1.0
  H  H7  1  0.87824000  0.00936000  0.68693000  1.0
  H  H8  1  0.14109000  0.32400000  0.08697000  1.0
  H  H9  1  0.23199000  0.17683000  0.41319000  1.0
  H  H10  1  0.85890000  0.67599000  0.91302000  1.0
  H  H11  1  0.76802000  0.82318000  0.58681000  1.0
  H  H12  1  0.96581000  0.15317000  0.20557000  1.0
  H  H13  1  0.10656000  0.34658000  0.29436000  1.0
  H  H14  1  0.03420000  0.84683000  0.79443000  1.0
  H  H15  1  0.89346000  0.65342000  0.70564000  1.0
  H  H16  1  0.81316000  0.81477000  0.23364000  1.0
  H  H17  1  0.26419000  0.68537000  0.26651000  1.0
  H  H18  1  0.18684000  0.18523000  0.76636000  1.0
  H  H19  1  0.73581000  0.31463000  0.73349000  1.0
  H  H20  1  0.74503000  0.91127000  0.18259000  1.0
  H  H21  1  0.15058000  0.58874000  0.31749000  1.0
  H  H22  1  0.25498000  0.08874000  0.81741000  1.0
  H  H23  1  0.84942000  0.41126000  0.68251000  1.0
  H  H24  1  0.99270000  0.91817000  0.93610000  1.0
  H  H25  1  0.63831000  0.58178000  0.56411000  1.0
  H  H26  1  0.00731000  0.08183000  0.06390000  1.0
  H  H27  1  0.36169000  0.41822000  0.43589000  1.0
  H  H28  1  0.27396000  0.95610000  0.94602000  1.0
  H  H29  1  0.87188000  0.54415000  0.55388000  1.0
  H  H30  1  0.72605000  0.04390000  0.05398000  1.0
  H  H31  1  0.12811000  0.45585000  0.44612000  1.0
  C  C32  1  0.79812000  0.62773000  0.17717000  1.0
  C  C33  1  0.49315000  0.87243000  0.32298000  1.0
  C  C34  1  0.20187000  0.37227000  0.82283000  1.0
  C  C35  1  0.50685000  0.12757000  0.67702000  1.0
  C  C36  1  0.64704000  0.52184000  0.13694000  1.0
  C  C37  1  0.48859000  0.97839000  0.36323000  1.0
  C  C38  1  0.35294000  0.47815000  0.86306000  1.0
  C  C39  1  0.51142000  0.02162000  0.63677000  1.0
  C  C40  1  0.41343000  0.47344000  0.14486000  1.0
  C  C41  1  0.29599000  0.02709000  0.35526000  1.0
  C  C42  1  0.58657000  0.52656000  0.85514000  1.0
  C  C43  1  0.70400000  0.97291000  0.64474000  1.0
  C  C44  1  0.32087000  0.37532000  0.09189000  1.0
  C  C45  1  0.35503000  0.12524000  0.40830000  1.0
  C  C46  1  0.67913000  0.62468000  0.90811000  1.0
  C  C47  1  0.64497000  0.87476000  0.59169000  1.0
  C  C48  1  0.48479000  0.34950000  0.04496000  1.0
  C  C49  1  0.59140000  0.15069000  0.45527000  1.0
  C  C50  1  0.51521000  0.65050000  0.95503000  1.0
  C  C51  1  0.40859000  0.84931000  0.54473000  1.0
  C  C52  1  0.45018000  0.25281000  0.98416000  1.0
  C  C53  1  0.71454000  0.24743000  0.51595000  1.0
  C  C54  1  0.54982000  0.74719000  0.01584000  1.0
  C  C55  1  0.28546000  0.75257000  0.48405000  1.0
  C  C56  1  0.44445000  0.05966000  0.16054000  1.0
  C  C57  1  0.72372000  0.44018000  0.33920000  1.0
  C  C58  1  0.55556000  0.94034000  0.83946000  1.0
  C  C59  1  0.27629000  0.55982000  0.66080000  1.0
  C  C60  1  0.59476000  0.16111000  0.20753000  1.0
  C  C61  1  0.72553000  0.33875000  0.29208000  1.0
  C  C62  1  0.40526000  0.83889000  0.79247000  1.0
  C  C63  1  0.27447000  0.66125000  0.70792000  1.0
  C  C64  1  0.84543000  0.19897000  0.22596000  1.0
  C  C65  1  0.92006000  0.30085000  0.27378000  1.0
  C  C66  1  0.15458000  0.80104000  0.77404000  1.0
  C  C67  1  0.07995000  0.69915000  0.72622000  1.0
  S  S68  1  0.74982000  0.44739000  0.06412000  1.0
  S  S69  1  0.73867000  0.05254000  0.43609000  1.0
  S  S70  1  0.25017000  0.55261000  0.93588000  1.0
  S  S71  1  0.26132000  0.94746000  0.56391000  1.0
  S  S72  1  0.45597000  0.24995000  0.24975000  1.0
  S  S73  1  0.54404000  0.75005000  0.75025000  1.0
  O  O74  1  0.95441000  0.67569000  0.13663000  1.0
  O  O75  1  0.64134000  0.82426000  0.36358000  1.0
  O  O76  1  0.04558000  0.32430000  0.86337000  1.0
  O  O77  1  0.35866000  0.17574000  0.63642000  1.0
  O  O78  1  0.76596000  0.66727000  0.24969000  1.0
  O  O79  1  0.34943000  0.83305000  0.25040000  1.0
  O  O80  1  0.23403000  0.33273000  0.75031000  1.0
  O  O81  1  0.65056000  0.16695000  0.74960000  1.0
  O  O82  1  0.62215000  0.24529000  0.94580000  1.0
  O  O83  1  0.93211000  0.25483000  0.55437000  1.0
  O  O84  1  0.37785000  0.75471000  0.05420000  1.0
  O  O85  1  0.06788000  0.74517000  0.44564000  1.0
  O  O86  1  0.24946000  0.18289000  0.97347000  1.0
  O  O87  1  0.59475000  0.31759000  0.52650000  1.0
  O  O88  1  0.75055000  0.81711000  0.02653000  1.0
  O  O89  1  0.40525000  0.68242000  0.47351000  1.0
  O  O90  1  0.54071000  0.98788000  0.13097000  1.0
  O  O91  1  0.92127000  0.51184000  0.36886000  1.0
  O  O92  1  0.45930000  0.01212000  0.86903000  1.0
  O  O93  1  0.07873000  0.48816000  0.63114000  1.0
  O  O94  1  0.21382000  0.04110000  0.15098000  1.0
  O  O95  1  0.52121000  0.45879000  0.34878000  1.0
  O  O96  1  0.78620000  0.95890000  0.84902000  1.0
  O  O97  1  0.47879000  0.54121000  0.65122000  1.0
  O  O98  1  0.87966000  0.88061000  0.20845000  1.0
  O  O99  1  0.29011000  0.61957000  0.29167000  1.0
  O  O100  1  0.12035000  0.11940000  0.79155000  1.0
  O  O101  1  0.70989000  0.38043000  0.70833000  1.0
  O  O102  1  0.14696000  0.91470000  0.97306000  1.0
  O  O103  1  0.75878000  0.58533000  0.52694000  1.0
  O  O104  1  0.85304000  0.08530000  0.02694000  1.0
  O  O105  1  0.24123000  0.41468000  0.47306000  1.0
