# generated using pymatgen
data_CdH22C26N3O5
_symmetry_space_group_name_H-M   'P 1'
_cell_length_a   10.37690000
_cell_length_b   10.54620000
_cell_length_c   13.88300000
_cell_angle_alpha   101.86000000
_cell_angle_beta   101.69200000
_cell_angle_gamma   109.44000000
_symmetry_Int_Tables_number   1
_chemical_formula_structural   CdH22C26N3O5
_chemical_formula_sum   'Cd2 H44 C52 N6 O10'
_cell_volume   1340.27243747
_cell_formula_units_Z   2
loop_
 _symmetry_equiv_pos_site_id
 _symmetry_equiv_pos_as_xyz
  1  'x, y, z'
loop_
 _atom_site_type_symbol
 _atom_site_label
 _atom_site_symmetry_multiplicity
 _atom_site_fract_x
 _atom_site_fract_y
 _atom_site_fract_z
 _atom_site_occupancy
  Cd  Cd0  1  0.12458000  0.26883000  0.31070000  1.0
  Cd  Cd1  1  0.87542000  0.73116000  0.68930000  1.0
  H  H2  1  0.61807000  0.27629000  0.30942000  1.0
  H  H3  1  0.38194000  0.72370000  0.69058000  1.0
  H  H4  1  0.26007000  0.87822000  0.21553000  1.0
  H  H5  1  0.73993000  0.12178000  0.78447000  1.0
  H  H6  1  0.67793000  0.89161000  0.21007000  1.0
  H  H7  1  0.32207000  0.10838000  0.78993000  1.0
  H  H8  1  0.20058000  0.49462000  0.54071000  1.0
  H  H9  1  0.79943000  0.50539000  0.45929000  1.0
  H  H10  1  0.21255000  0.50175000  0.72048000  1.0
  H  H11  1  0.78745000  0.49826000  0.27952000  1.0
  H  H12  1  0.13344000  0.05805000  0.63533000  1.0
  H  H13  1  0.86657000  0.94196000  0.36467000  1.0
  H  H14  1  0.13074000  0.07174000  0.45558000  1.0
  H  H15  1  0.86927000  0.92827000  0.54442000  1.0
  H  H16  1  0.17233000  0.17434000  0.81030000  1.0
  H  H17  1  0.82767000  0.82567000  0.18970000  1.0
  H  H18  1  0.26727000  0.36094000  0.85705000  1.0
  H  H19  1  0.73273000  0.63907000  0.14295000  1.0
  H  H20  1  0.94254000  0.20042000  0.77078000  1.0
  H  H21  1  0.05746000  0.79959000  0.22922000  1.0
  H  H22  1  0.03055000  0.38775000  0.81332000  1.0
  H  H23  1  0.96946000  0.61227000  0.18669000  1.0
  H  H24  1  0.90778000  0.06857000  0.89477000  1.0
  H  H25  1  0.09222000  0.93143000  0.10523000  1.0
  H  H26  1  0.93719000  0.07448000  0.08047000  1.0
  H  H27  1  0.06281000  0.92551000  0.91953000  1.0
  H  H28  1  0.20711000  0.49634000  0.18196000  1.0
  H  H29  1  0.79289000  0.50365000  0.81804000  1.0
  H  H30  1  0.18191000  0.51105000  0.00369000  1.0
  H  H31  1  0.81810000  0.48894000  0.99632000  1.0
  H  H32  1  0.03605000  0.52765000  0.35616000  1.0
  H  H33  1  0.96394000  0.47235000  0.64384000  1.0
  H  H34  1  0.13923000  0.79069000  0.42833000  1.0
  H  H35  1  0.86077000  0.20931000  0.57167000  1.0
  H  H36  1  0.55732000  0.77735000  0.46102000  1.0
  H  H37  1  0.44268000  0.22265000  0.53898000  1.0
  H  H38  1  0.43597000  0.51645000  0.38761000  1.0
  H  H39  1  0.56403000  0.48355000  0.61239000  1.0
  H  H40  1  0.36023000  0.00567000  0.44129000  1.0
  H  H41  1  0.63977000  0.99432000  0.55870000  1.0
  H  H42  1  0.39865000  0.99257000  0.56750000  1.0
  H  H43  1  0.60135000  0.00743000  0.43250000  1.0
  H  H44  1  0.47613000  0.68800000  0.16851000  1.0
  H  H45  1  0.52386000  0.31199000  0.83148000  1.0
  C  C46  1  0.66450000  0.09198000  0.26243000  1.0
  C  C47  1  0.33550000  0.90801000  0.73756000  1.0
  C  C48  1  0.57489000  0.16206000  0.28079000  1.0
  C  C49  1  0.42511000  0.83793000  0.71921000  1.0
  C  C50  1  0.42919000  0.08488000  0.26353000  1.0
  C  C51  1  0.57081000  0.91512000  0.73647000  1.0
  C  C52  1  0.37285000  0.93775000  0.22760000  1.0
  C  C53  1  0.62714000  0.06225000  0.77240000  1.0
  C  C54  1  0.46187000  0.86796000  0.20775000  1.0
  C  C55  1  0.53812000  0.13203000  0.79225000  1.0
  C  C56  1  0.60711000  0.94465000  0.22513000  1.0
  C  C57  1  0.39289000  0.05535000  0.77487000  1.0
  C  C58  1  0.82251000  0.17224000  0.28359000  1.0
  C  C59  1  0.17750000  0.82775000  0.71641000  1.0
  C  C60  1  0.33216000  0.15920000  0.28438000  1.0
  C  C61  1  0.66784000  0.84080000  0.71562000  1.0
  C  C62  1  0.18813000  0.39982000  0.56406000  1.0
  C  C63  1  0.81187000  0.60019000  0.43594000  1.0
  C  C64  1  0.19456000  0.40278000  0.66555000  1.0
  C  C65  1  0.80544000  0.59724000  0.33445000  1.0
  C  C66  1  0.17351000  0.27870000  0.69332000  1.0
  C  C67  1  0.82649000  0.72132000  0.30668000  1.0
  C  C68  1  0.15018000  0.15693000  0.61670000  1.0
  C  C69  1  0.84982000  0.84308000  0.38330000  1.0
  C  C70  1  0.14778000  0.16389000  0.51733000  1.0
  C  C71  1  0.85222000  0.83612000  0.48267000  1.0
  C  C72  1  0.17147000  0.27491000  0.80062000  1.0
  C  C73  1  0.82853000  0.72510000  0.19938000  1.0
  C  C74  1  0.03714000  0.28965000  0.82483000  1.0
  C  C75  1  0.96287000  0.71036000  0.17517000  1.0
  C  C76  1  0.04349000  0.28924000  0.93375000  1.0
  C  C77  1  0.95651000  0.71076000  0.06625000  1.0
  C  C78  1  0.97376000  0.16575000  0.95685000  1.0
  C  C79  1  0.02624000  0.83424000  0.04315000  1.0
  C  C80  1  0.99091000  0.16823000  0.05943000  1.0
  C  C81  1  0.00909000  0.83175000  0.94056000  1.0
  C  C82  1  0.14046000  0.40369000  0.11659000  1.0
  C  C83  1  0.85954000  0.59630000  0.88341000  1.0
  C  C84  1  0.12665000  0.41084000  0.01637000  1.0
  C  C85  1  0.87335000  0.58915000  0.98364000  1.0
  C  C86  1  0.15091000  0.58912000  0.38002000  1.0
  C  C87  1  0.84909000  0.41088000  0.61998000  1.0
  C  C88  1  0.20946000  0.73441000  0.42033000  1.0
  C  C89  1  0.79054000  0.26559000  0.57967000  1.0
  C  C90  1  0.35818000  0.80776000  0.45042000  1.0
  C  C91  1  0.64183000  0.19223000  0.54958000  1.0
  C  C92  1  0.44122000  0.72810000  0.43875000  1.0
  C  C93  1  0.55878000  0.27189000  0.56125000  1.0
  C  C94  1  0.37522000  0.58244000  0.39812000  1.0
  C  C95  1  0.62478000  0.41756000  0.60188000  1.0
  C  C96  1  0.42045000  0.96512000  0.49310000  1.0
  C  C97  1  0.57955000  0.03488000  0.50690000  1.0
  N  N98  1  0.16517000  0.28275000  0.49062000  1.0
  N  N99  1  0.83483000  0.71726000  0.50938000  1.0
  N  N100  1  0.07440000  0.28436000  0.13832000  1.0
  N  N101  1  0.92560000  0.71563000  0.86167000  1.0
  N  N102  1  0.23238000  0.51400000  0.36870000  1.0
  N  N103  1  0.76762000  0.48600000  0.63130000  1.0
  O  O104  1  0.87419000  0.30505000  0.31318000  1.0
  O  O105  1  0.12581000  0.69494000  0.68682000  1.0
  O  O106  1  0.89748000  0.09758000  0.27043000  1.0
  O  O107  1  0.10251000  0.90241000  0.72956000  1.0
  O  O108  1  0.37967000  0.29197000  0.30652000  1.0
  O  O109  1  0.62034000  0.70804000  0.69347000  1.0
  O  O110  1  0.20311000  0.08240000  0.27827000  1.0
  O  O111  1  0.79688000  0.91761000  0.72172000  1.0
  O  O112  1  0.40074000  0.72301000  0.17130000  1.0
  O  O113  1  0.59925000  0.27698000  0.82870000  1.0
