# generated using pymatgen
data_MgH16C24(NO2)2
_symmetry_space_group_name_H-M   'P 1'
_cell_length_a   8.50954000
_cell_length_b   12.20070000
_cell_length_c   12.20080000
_cell_angle_alpha   77.10450000
_cell_angle_beta   74.59120000
_cell_angle_gamma   74.59120000
_symmetry_Int_Tables_number   1
_chemical_formula_structural   MgH16C24(NO2)2
_chemical_formula_sum   'Mg2 H32 C48 N4 O8'
_cell_volume   1161.31485045
_cell_formula_units_Z   2
loop_
 _symmetry_equiv_pos_site_id
 _symmetry_equiv_pos_as_xyz
  1  'x, y, z'
loop_
 _atom_site_type_symbol
 _atom_site_label
 _atom_site_symmetry_multiplicity
 _atom_site_fract_x
 _atom_site_fract_y
 _atom_site_fract_z
 _atom_site_occupancy
  Mg  Mg0  1  0.75000000  0.57497000  0.42503000  1.0
  Mg  Mg1  1  0.25000000  0.42503000  0.57497000  1.0
  H  H2  1  0.17240000  0.67495000  0.67384000  1.0
  H  H3  1  0.32759000  0.32616000  0.32505000  1.0
  H  H4  1  0.82760000  0.32505000  0.32616000  1.0
  H  H5  1  0.67240000  0.67385000  0.67495000  1.0
  H  H6  1  0.16213000  0.83891000  0.77006000  1.0
  H  H7  1  0.33786000  0.22994000  0.16109000  1.0
  H  H8  1  0.83786000  0.16109000  0.22994000  1.0
  H  H9  1  0.66214000  0.77006000  0.83891000  1.0
  H  H10  1  0.93854000  0.01699000  0.75269000  1.0
  H  H11  1  0.56146000  0.24731000  0.98301000  1.0
  H  H12  1  0.06146000  0.98301000  0.24731000  1.0
  H  H13  1  0.43854000  0.75269000  0.01699000  1.0
  H  H14  1  0.73665000  0.86443000  0.54896000  1.0
  H  H15  1  0.76335000  0.45104000  0.13557000  1.0
  H  H16  1  0.26335000  0.13557000  0.45105000  1.0
  H  H17  1  0.23665000  0.54896000  0.86443000  1.0
  H  H18  1  0.61894000  0.35151000  0.59166000  1.0
  H  H19  1  0.88107000  0.40834000  0.64849000  1.0
  H  H20  1  0.38107000  0.64849000  0.40834000  1.0
  H  H21  1  0.11894000  0.59166000  0.35151000  1.0
  H  H22  1  0.84613000  0.17785000  0.61725000  1.0
  H  H23  1  0.65388000  0.38275000  0.82215000  1.0
  H  H24  1  0.15388000  0.82215000  0.38275000  1.0
  H  H25  1  0.34613000  0.61725000  0.17785000  1.0
  H  H26  1  0.48841000  0.97034000  0.65705000  1.0
  H  H27  1  0.01158000  0.34295000  0.02966000  1.0
  H  H28  1  0.51159000  0.02966000  0.34295000  1.0
  H  H29  1  0.98841000  0.65705000  0.97034000  1.0
  H  H30  1  0.27383000  0.15400000  0.63389000  1.0
  H  H31  1  0.22617000  0.36611000  0.84600000  1.0
  H  H32  1  0.72617000  0.84600000  0.36611000  1.0
  H  H33  1  0.77383000  0.63389000  0.15401000  1.0
  C  C34  1  0.96844000  0.66398000  0.54319000  1.0
  C  C35  1  0.53155000  0.45681000  0.33602000  1.0
  C  C36  1  0.03154000  0.33603000  0.45681000  1.0
  C  C37  1  0.46845000  0.54319000  0.66397000  1.0
  C  C38  1  0.95670000  0.76113000  0.60504000  1.0
  C  C39  1  0.54330000  0.39496000  0.23887000  1.0
  C  C40  1  0.04330000  0.23887000  0.39496000  1.0
  C  C41  1  0.45670000  0.60504000  0.76113000  1.0
  C  C42  1  0.07584000  0.75359000  0.66796000  1.0
  C  C43  1  0.42416000  0.33204000  0.24641000  1.0
  C  C44  1  0.92416000  0.24642000  0.33204000  1.0
  C  C45  1  0.57584000  0.66796000  0.75358000  1.0
  C  C46  1  0.06914000  0.84546000  0.72090000  1.0
  C  C47  1  0.43086000  0.27910000  0.15454000  1.0
  C  C48  1  0.93086000  0.15454000  0.27910000  1.0
  C  C49  1  0.56914000  0.72090000  0.84546000  1.0
  C  C50  1  0.94392000  0.94528000  0.71104000  1.0
  C  C51  1  0.55608000  0.28896000  0.05472000  1.0
  C  C52  1  0.05608000  0.05472000  0.28896000  1.0
  C  C53  1  0.44392000  0.71104000  0.94528000  1.0
  C  C54  1  0.82114000  0.95325000  0.65016000  1.0
  C  C55  1  0.67886000  0.34984000  0.04675000  1.0
  C  C56  1  0.17886000  0.04675000  0.34984000  1.0
  C  C57  1  0.32114000  0.65016000  0.95325000  1.0
  C  C58  1  0.82890000  0.86011000  0.59787000  1.0
  C  C59  1  0.67110000  0.40213000  0.13989000  1.0
  C  C60  1  0.17110000  0.13989000  0.40214000  1.0
  C  C61  1  0.32890000  0.59786000  0.86011000  1.0
  C  C62  1  0.59369000  0.26538000  0.60950000  1.0
  C  C63  1  0.90631000  0.39050000  0.73462000  1.0
  C  C64  1  0.40631000  0.73462000  0.39050000  1.0
  C  C65  1  0.09370000  0.60950000  0.26538000  1.0
  C  C66  1  0.72042000  0.16795000  0.62349000  1.0
  C  C67  1  0.77958000  0.37651000  0.83205000  1.0
  C  C68  1  0.27958000  0.83206000  0.37651000  1.0
  C  C69  1  0.22042000  0.62349000  0.16794000  1.0
  C  C70  1  0.68750000  0.05809000  0.63964000  1.0
  C  C71  1  0.81250000  0.36035000  0.94190000  1.0
  C  C72  1  0.31250000  0.94191000  0.36036000  1.0
  C  C73  1  0.18750000  0.63964000  0.05810000  1.0
  C  C74  1  0.52303000  0.05303000  0.64328000  1.0
  C  C75  1  0.97696000  0.35672000  0.94697000  1.0
  C  C76  1  0.47696000  0.94698000  0.35672000  1.0
  C  C77  1  0.02304000  0.64328000  0.05303000  1.0
  C  C78  1  0.40278000  0.15482000  0.63105000  1.0
  C  C79  1  0.09722000  0.36895000  0.84518000  1.0
  C  C80  1  0.59722000  0.84519000  0.36895000  1.0
  C  C81  1  0.90278000  0.63105000  0.15482000  1.0
  N  N82  1  0.43611000  0.25998000  0.61355000  1.0
  N  N83  1  0.06390000  0.38645000  0.74002000  1.0
  N  N84  1  0.56390000  0.74002000  0.38645000  1.0
  N  N85  1  0.93611000  0.61355000  0.25998000  1.0
  O  O86  1  0.09456000  0.58101000  0.54332000  1.0
  O  O87  1  0.40543000  0.45668000  0.41898000  1.0
  O  O88  1  0.90544000  0.41898000  0.45667000  1.0
  O  O89  1  0.59456000  0.54333000  0.58101000  1.0
  O  O90  1  0.85139000  0.67428000  0.49263000  1.0
  O  O91  1  0.64861000  0.50737000  0.32572000  1.0
  O  O92  1  0.14861000  0.32572000  0.50737000  1.0
  O  O93  1  0.35139000  0.49263000  0.67428000  1.0
