# generated using pymatgen
data_CuH16C24N2(ClO2)2
_symmetry_space_group_name_H-M   'P 1'
_cell_length_a   5.07147000
_cell_length_b   9.25737000
_cell_length_c   12.04970000
_cell_angle_alpha   105.71200000
_cell_angle_beta   90.87960000
_cell_angle_gamma   98.34480000
_symmetry_Int_Tables_number   1
_chemical_formula_structural   CuH16C24N2(ClO2)2
_chemical_formula_sum   'Cu1 H16 C24 N2 Cl2 O4'
_cell_volume   537.92367644
_cell_formula_units_Z   1
loop_
 _symmetry_equiv_pos_site_id
 _symmetry_equiv_pos_as_xyz
  1  'x, y, z'
loop_
 _atom_site_type_symbol
 _atom_site_label
 _atom_site_symmetry_multiplicity
 _atom_site_fract_x
 _atom_site_fract_y
 _atom_site_fract_z
 _atom_site_occupancy
  Cu  Cu0  1  0.50000000  0.99999000  0.00000000  1.0
  H  H1  1  0.00820000  0.05176000  0.87972000  1.0
  H  H2  1  0.99179000  0.94823000  0.12028000  1.0
  H  H3  1  0.79201000  0.26382000  0.86881000  1.0
  H  H4  1  0.20799000  0.73617000  0.13120000  1.0
  H  H5  1  0.36242000  0.55141000  0.13937000  1.0
  H  H6  1  0.63757000  0.44858000  0.86064000  1.0
  H  H7  1  0.56323000  0.32167000  0.13555000  1.0
  H  H8  1  0.43679000  0.67832000  0.86445000  1.0
  H  H9  1  0.09460000  0.27846000  0.26352000  1.0
  H  H10  1  0.90539000  0.72153000  0.73647000  1.0
  H  H11  1  0.36485000  0.40414000  0.44742000  1.0
  H  H12  1  0.63515000  0.59586000  0.55256000  1.0
  H  H13  1  0.78601000  0.18093000  0.63115000  1.0
  H  H14  1  0.21398000  0.81910000  0.36886000  1.0
  H  H15  1  0.51386000  0.06171000  0.44454000  1.0
  H  H16  1  0.48615000  0.93830000  0.55546000  1.0
  C  C17  1  0.08454000  0.16429000  0.93537000  1.0
  C  C18  1  0.91547000  0.83571000  0.06464000  1.0
  C  C19  1  0.96261000  0.28740000  0.93023000  1.0
  C  C20  1  0.03738000  0.71259000  0.06977000  1.0
  C  C21  1  0.05943000  0.43257000  0.00236000  1.0
  C  C22  1  0.94056000  0.56743000  0.99765000  1.0
  C  C23  1  0.27704000  0.44353000  0.07921000  1.0
  C  C24  1  0.72297000  0.55645000  0.92080000  1.0
  C  C25  1  0.39112000  0.31600000  0.07860000  1.0
  C  C26  1  0.60888000  0.68399000  0.92140000  1.0
  C  C27  1  0.62311000  0.08031000  0.23418000  1.0
  C  C28  1  0.37688000  0.91967000  0.76583000  1.0
  C  C29  1  0.78782000  0.16123000  0.34345000  1.0
  C  C30  1  0.21217000  0.83878000  0.65654000  1.0
  C  C31  1  0.02694000  0.25862000  0.34413000  1.0
  C  C32  1  0.97306000  0.74137000  0.65585000  1.0
  C  C33  1  0.17836000  0.32916000  0.44698000  1.0
  C  C34  1  0.82165000  0.67085000  0.55300000  1.0
  C  C35  1  0.08867000  0.30095000  0.54926000  1.0
  C  C36  1  0.91133000  0.69907000  0.45073000  1.0
  C  C37  1  0.85173000  0.20386000  0.55099000  1.0
  C  C38  1  0.14828000  0.79617000  0.44901000  1.0
  C  C39  1  0.70223000  0.13574000  0.44729000  1.0
  C  C40  1  0.29776000  0.86428000  0.55272000  1.0
  N  N41  1  0.29876000  0.17765000  0.00694000  1.0
  N  N42  1  0.70124000  0.82233000  0.99305000  1.0
  Cl  Cl43  1  0.27609000  0.39027000  0.67789000  1.0
  Cl  Cl44  1  0.72391000  0.60975000  0.32209000  1.0
  O  O45  1  0.70690000  0.11829000  0.14236000  1.0
  O  O46  1  0.29309000  0.88169000  0.85764000  1.0
  O  O47  1  0.42417000  0.98285000  0.23314000  1.0
  O  O48  1  0.57583000  0.01714000  0.76686000  1.0
