# generated using pymatgen
data_CdH8C5O6
_symmetry_space_group_name_H-M   'P 1'
_cell_length_a   7.09890000
_cell_length_b   7.28496000
_cell_length_c   16.25310000
_cell_angle_alpha   90.00010000
_cell_angle_beta   90.00000000
_cell_angle_gamma   114.48300000
_symmetry_Int_Tables_number   1
_chemical_formula_structural   CdH8C5O6
_chemical_formula_sum   'Cd4 H32 C20 O24'
_cell_volume   764.95528021
_cell_formula_units_Z   4
loop_
 _symmetry_equiv_pos_site_id
 _symmetry_equiv_pos_as_xyz
  1  'x, y, z'
loop_
 _atom_site_type_symbol
 _atom_site_label
 _atom_site_symmetry_multiplicity
 _atom_site_fract_x
 _atom_site_fract_y
 _atom_site_fract_z
 _atom_site_occupancy
  Cd  Cd0  1  0.04936000  0.48229000  0.30615000  1.0
  Cd  Cd1  1  0.45064000  0.01771000  0.80615000  1.0
  Cd  Cd2  1  0.95064000  0.51771000  0.69385000  1.0
  Cd  Cd3  1  0.54936000  0.98229000  0.19385000  1.0
  H  H4  1  0.02965000  0.85152000  0.40422000  1.0
  H  H5  1  0.47035000  0.64848000  0.90421000  1.0
  H  H6  1  0.97035000  0.14848000  0.59578000  1.0
  H  H7  1  0.52965000  0.35152000  0.09578000  1.0
  H  H8  1  0.22829000  0.81867000  0.45776000  1.0
  H  H9  1  0.27171000  0.68133000  0.95776000  1.0
  H  H10  1  0.77171000  0.18133000  0.54224000  1.0
  H  H11  1  0.72829000  0.31867000  0.04224000  1.0
  H  H12  1  0.39049000  0.04715000  0.56555000  1.0
  H  H13  1  0.10951000  0.45285000  0.06555000  1.0
  H  H14  1  0.60951000  0.95285000  0.43445000  1.0
  H  H15  1  0.89049000  0.54714000  0.93445000  1.0
  H  H16  1  0.38083000  0.29751000  0.57308000  1.0
  H  H17  1  0.11917000  0.20249000  0.07308000  1.0
  H  H18  1  0.61917000  0.70249000  0.42691000  1.0
  H  H19  1  0.88083000  0.79751000  0.92691000  1.0
  H  H20  1  0.64141000  0.34653000  0.36741000  1.0
  H  H21  1  0.85859000  0.15347000  0.86741000  1.0
  H  H22  1  0.35859000  0.65348000  0.63259000  1.0
  H  H23  1  0.14141000  0.84652000  0.13259000  1.0
  H  H24  1  0.77197000  0.49392000  0.44115000  1.0
  H  H25  1  0.72803000  0.00608000  0.94114000  1.0
  H  H26  1  0.22803000  0.50608000  0.55886000  1.0
  H  H27  1  0.27197000  0.99392000  0.05886000  1.0
  H  H28  1  0.39754000  0.50346000  0.19382000  1.0
  H  H29  1  0.10246000  0.99654000  0.69382000  1.0
  H  H30  1  0.60245000  0.49654000  0.80618000  1.0
  H  H31  1  0.89754000  0.00346000  0.30618000  1.0
  H  H32  1  0.33868000  0.31843000  0.25683000  1.0
  H  H33  1  0.16132000  0.18157000  0.75683000  1.0
  H  H34  1  0.66132000  0.68157000  0.74317000  1.0
  H  H35  1  0.83868000  0.81843000  0.24317000  1.0
  C  C36  1  0.31610000  0.95994000  0.34130000  1.0
  C  C37  1  0.18390000  0.54006000  0.84130000  1.0
  C  C38  1  0.68390000  0.04006000  0.65870000  1.0
  C  C39  1  0.81610000  0.45994000  0.15870000  1.0
  C  C40  1  0.19456000  0.92762000  0.42060000  1.0
  C  C41  1  0.30544000  0.57238000  0.92060000  1.0
  C  C42  1  0.80544000  0.07238000  0.57940000  1.0
  C  C43  1  0.69456000  0.42762000  0.07940000  1.0
  C  C44  1  0.34347000  0.15869000  0.53883000  1.0
  C  C45  1  0.15653000  0.34132000  0.03883000  1.0
  C  C46  1  0.65653000  0.84131000  0.46117000  1.0
  C  C47  1  0.84346000  0.65868000  0.96117000  1.0
  C  C48  1  0.23903000  0.11845000  0.46763000  1.0
  C  C49  1  0.26097000  0.38155000  0.96763000  1.0
  C  C50  1  0.76096000  0.88155000  0.53236000  1.0
  C  C51  1  0.73904000  0.61845000  0.03236000  1.0
  C  C52  1  0.16454000  0.26366000  0.42992000  1.0
  C  C53  1  0.33546000  0.23634000  0.92992000  1.0
  C  C54  1  0.83546000  0.73634000  0.57008000  1.0
  C  C55  1  0.66454000  0.76366000  0.07008000  1.0
  O  O56  1  0.29122000  0.80444000  0.29776000  1.0
  O  O57  1  0.20878000  0.69556000  0.79776000  1.0
  O  O58  1  0.70878000  0.19556000  0.70224000  1.0
  O  O59  1  0.79122000  0.30444000  0.20224000  1.0
  O  O60  1  0.44238000  0.13393000  0.31790000  1.0
  O  O61  1  0.05762000  0.36607000  0.81790000  1.0
  O  O62  1  0.55762000  0.86606000  0.68210000  1.0
  O  O63  1  0.94237000  0.63393000  0.18210000  1.0
  O  O64  1  0.05471000  0.20229000  0.36393000  1.0
  O  O65  1  0.44528000  0.29770000  0.86393000  1.0
  O  O66  1  0.94528000  0.79771000  0.63607000  1.0
  O  O67  1  0.55472000  0.70229000  0.13607000  1.0
  O  O68  1  0.20881000  0.43790000  0.45902000  1.0
  O  O69  1  0.29118000  0.06210000  0.95902000  1.0
  O  O70  1  0.79119000  0.56210000  0.54098000  1.0
  O  O71  1  0.70882000  0.93790000  0.04098000  1.0
  O  O72  1  0.76794000  0.46823000  0.38045000  1.0
  O  O73  1  0.73206000  0.03177000  0.88045000  1.0
  O  O74  1  0.23206000  0.53177000  0.61955000  1.0
  O  O75  1  0.26794000  0.96823000  0.11955000  1.0
  O  O76  1  0.28393000  0.40178000  0.22642000  1.0
  O  O77  1  0.21607000  0.09822000  0.72642000  1.0
  O  O78  1  0.71607000  0.59822000  0.77358000  1.0
  O  O79  1  0.78393000  0.90178000  0.27358000  1.0
