# generated using pymatgen
data_H10PbC14N2O11
_symmetry_space_group_name_H-M   'P 1'
_cell_length_a   4.93487000
_cell_length_b   12.05930000
_cell_length_c   14.66310000
_cell_angle_alpha   67.90860000
_cell_angle_beta   86.44180000
_cell_angle_gamma   78.71210000
_symmetry_Int_Tables_number   1
_chemical_formula_structural   H10PbC14N2O11
_chemical_formula_sum   'H20 Pb2 C28 N4 O22'
_cell_volume   792.84906323
_cell_formula_units_Z   2
loop_
 _symmetry_equiv_pos_site_id
 _symmetry_equiv_pos_as_xyz
  1  'x, y, z'
loop_
 _atom_site_type_symbol
 _atom_site_label
 _atom_site_symmetry_multiplicity
 _atom_site_fract_x
 _atom_site_fract_y
 _atom_site_fract_z
 _atom_site_occupancy
  H  H0  1  0.98045000  0.89064000  0.49331000  1.0
  H  H1  1  0.01955000  0.10936000  0.50669000  1.0
  H  H2  1  0.37474000  0.92956000  0.27658000  1.0
  H  H3  1  0.62526000  0.07044000  0.72342000  1.0
  H  H4  1  0.30321000  0.60039000  0.48697000  1.0
  H  H5  1  0.69678000  0.39961000  0.51303000  1.0
  H  H6  1  0.58930000  0.72599000  0.27653000  1.0
  H  H7  1  0.41068000  0.27401000  0.72347000  1.0
  H  H8  1  0.08657000  0.30493000  0.86361000  1.0
  H  H9  1  0.91344000  0.69507000  0.13639000  1.0
  H  H10  1  0.29981000  0.41452000  0.04061000  1.0
  H  H11  1  0.70019000  0.58548000  0.95939000  1.0
  H  H12  1  0.60097000  0.08106000  0.08471000  1.0
  H  H13  1  0.39903000  0.91894000  0.91529000  1.0
  H  H14  1  0.72381000  0.16952000  0.20387000  1.0
  H  H15  1  0.27619000  0.83047000  0.79613000  1.0
  H  H16  1  0.69904000  0.55869000  0.24802000  1.0
  H  H17  1  0.30096000  0.44131000  0.75198000  1.0
  H  H18  1  0.58379000  0.56215000  0.14740000  1.0
  H  H19  1  0.41621000  0.43785000  0.85260000  1.0
  Pb  Pb20  1  0.38950000  0.36881000  0.32093000  1.0
  Pb  Pb21  1  0.61050000  0.63119000  0.67907000  1.0
  C  C22  1  0.90715000  0.69315000  0.38254000  1.0
  C  C23  1  0.09284000  0.30685000  0.61746000  1.0
  C  C24  1  0.01513000  0.73842000  0.44666000  1.0
  C  C25  1  0.98486000  0.26158000  0.55334000  1.0
  C  C26  1  0.89394000  0.85323000  0.44732000  1.0
  C  C27  1  0.10606000  0.14677000  0.55268000  1.0
  C  C28  1  0.66969000  0.91958000  0.38455000  1.0
  C  C29  1  0.33031000  0.08042000  0.61545000  1.0
  C  C30  1  0.55145000  0.87560000  0.32394000  1.0
  C  C31  1  0.44854000  0.12440000  0.67606000  1.0
  C  C32  1  0.67324000  0.76162000  0.32443000  1.0
  C  C33  1  0.32675000  0.23838000  0.67557000  1.0
  C  C34  1  0.05600000  0.57854000  0.37284000  1.0
  C  C35  1  0.94399000  0.42146000  0.62716000  1.0
  C  C36  1  0.97280000  0.28517000  0.10187000  1.0
  C  C37  1  0.02720000  0.71483000  0.89813000  1.0
  C  C38  1  0.08371000  0.32269000  0.00578000  1.0
  C  C39  1  0.91629000  0.67730000  0.99422000  1.0
  C  C40  1  0.01161000  0.27604000  0.93856000  1.0
  C  C41  1  0.98840000  0.72396000  0.06144000  1.0
  C  C42  1  0.83797000  0.19142000  0.96914000  1.0
  C  C43  1  0.16204000  0.80858000  0.03086000  1.0
  C  C44  1  0.73172000  0.14937000  0.06404000  1.0
  C  C45  1  0.26829000  0.85063000  0.93596000  1.0
  C  C46  1  0.80177000  0.19809000  0.12930000  1.0
  C  C47  1  0.19824000  0.80191000  0.87070000  1.0
  C  C48  1  0.04435000  0.33386000  0.17466000  1.0
  C  C49  1  0.95566000  0.66614000  0.82534000  1.0
  N  N50  1  0.56033000  0.04354000  0.37880000  1.0
  N  N51  1  0.43968000  0.95646000  0.62120000  1.0
  N  N52  1  0.76219000  0.14437000  0.89719000  1.0
  N  N53  1  0.23782000  0.85563000  0.10281000  1.0
  O  O54  1  0.97144000  0.53885000  0.31230000  1.0
  O  O55  1  0.02855000  0.46115000  0.68770000  1.0
  O  O56  1  0.27692000  0.52244000  0.42419000  1.0
  O  O57  1  0.72308000  0.47757000  0.57581000  1.0
  O  O58  1  0.36086000  0.10392000  0.32232000  1.0
  O  O59  1  0.63916000  0.89608000  0.67768000  1.0
  O  O60  1  0.67380000  0.08605000  0.42855000  1.0
  O  O61  1  0.32620000  0.91395000  0.57146000  1.0
  O  O62  1  0.23666000  0.67495000  0.50535000  1.0
  O  O63  1  0.76334000  0.32505000  0.49465000  1.0
  O  O64  1  0.25081000  0.39172000  0.15311000  1.0
  O  O65  1  0.74919000  0.60828000  0.84688000  1.0
  O  O66  1  0.91797000  0.31617000  0.25502000  1.0
  O  O67  1  0.08204000  0.68383000  0.74499000  1.0
  O  O68  1  0.55304000  0.09734000  0.91355000  1.0
  O  O69  1  0.44697000  0.90265000  0.08645000  1.0
  O  O70  1  0.90959000  0.15462000  0.82375000  1.0
  O  O71  1  0.09041000  0.84539000  0.17625000  1.0
  O  O72  1  0.25848000  0.40333000  0.97750000  1.0
  O  O73  1  0.74153000  0.59666000  0.02249000  1.0
  O  O74  1  0.52756000  0.55989000  0.21378000  1.0
  O  O75  1  0.47243000  0.44011000  0.78622000  1.0
