# generated using pymatgen
data_Zn4H14C23O13
_symmetry_space_group_name_H-M   'P 1'
_cell_length_a   18.61500000
_cell_length_b   18.61870000
_cell_length_c   18.62260000
_cell_angle_alpha   89.61060000
_cell_angle_beta   60.41400000
_cell_angle_gamma   119.96600000
_symmetry_Int_Tables_number   1
_chemical_formula_structural   Zn4H14C23O13
_chemical_formula_sum   'Zn8 H28 C46 O26'
_cell_volume   4579.16561742
_cell_formula_units_Z   2
loop_
 _symmetry_equiv_pos_site_id
 _symmetry_equiv_pos_as_xyz
  1  'x, y, z'
loop_
 _atom_site_type_symbol
 _atom_site_label
 _atom_site_symmetry_multiplicity
 _atom_site_fract_x
 _atom_site_fract_y
 _atom_site_fract_z
 _atom_site_occupancy
  Zn  Zn0  1  0.41379000  0.95564000  0.12995000  1.0
  Zn  Zn1  1  0.58566000  0.12824000  0.95769000  1.0
  Zn  Zn2  1  0.41347000  0.95564000  0.95792000  1.0
  Zn  Zn3  1  0.58572000  0.95604000  0.95837000  1.0
  Zn  Zn4  1  0.58566000  0.54398000  0.36996000  1.0
  Zn  Zn5  1  0.58576000  0.54357000  0.54210000  1.0
  Zn  Zn6  1  0.41347000  0.37185000  0.54218000  1.0
  Zn  Zn7  1  0.41393000  0.54434000  0.54165000  1.0
  H  H8  1  0.64083000  0.02839000  0.29221000  1.0
  H  H9  1  0.90716000  0.31288000  0.79128000  1.0
  H  H10  1  0.42515000  0.72059000  0.10533000  1.0
  H  H11  1  0.91703000  0.15295000  0.80117000  1.0
  H  H12  1  0.38226000  0.18746000  0.71118000  1.0
  H  H13  1  0.57079000  0.34464000  0.69210000  1.0
  H  H14  1  0.39889000  0.09365000  0.78834000  1.0
  H  H15  1  0.53677000  0.26308000  0.80763000  1.0
  H  H16  1  0.39640000  0.18720000  0.40537000  1.0
  H  H17  1  0.54555000  0.34692000  0.23554000  1.0
  H  H18  1  0.38744000  0.09395000  0.31290000  1.0
  H  H19  1  0.91732000  0.71790000  0.34683000  1.0
  H  H20  1  0.56461000  0.26422000  0.15329000  1.0
  H  H21  1  0.35852000  0.56677000  0.11294000  1.0
  H  H22  1  0.35863000  0.47151000  0.20821000  1.0
  H  H23  1  0.42536000  0.53067000  0.29530000  1.0
  H  H24  1  0.57460000  0.77933000  0.39471000  1.0
  H  H25  1  0.64086000  0.93304000  0.38747000  1.0
  H  H26  1  0.57454000  0.96948000  0.20479000  1.0
  H  H27  1  0.90663000  0.69960000  0.18732000  1.0
  H  H28  1  0.08223000  0.23576000  0.69995000  1.0
  H  H29  1  0.09240000  0.80156000  0.09480000  1.0
  H  H30  1  0.08242000  0.78127000  0.26458000  1.0
  H  H31  1  0.39732000  0.70990000  0.69707000  1.0
  H  H32  1  0.54591000  0.69879000  0.71845000  1.0
  H  H33  1  0.38728000  0.79226000  0.80018000  1.0
  H  H34  1  0.56493000  0.80018000  0.78259000  1.0
  H  H35  1  0.09294000  0.40605000  0.70718000  1.0
  C  C36  1  0.77380000  0.13766000  0.86494000  1.0
  C  C37  1  0.61143000  0.90619000  0.34884000  1.0
  C  C38  1  0.61142000  0.96033000  0.29473000  1.0
  C  C39  1  0.22559000  0.86066000  0.13665000  1.0
  C  C40  1  0.57475000  0.92751000  0.24562000  1.0
  C  C41  1  0.94462000  0.72230000  0.22044000  1.0
  C  C42  1  0.88557000  0.69694000  0.30881000  1.0
  C  C43  1  0.05460000  0.77815000  0.16565000  1.0
  C  C44  1  0.11388000  0.80282000  0.19507000  1.0
  C  C45  1  0.44453000  0.72389000  0.72092000  1.0
  C  C46  1  0.49844000  0.68939000  0.69624000  1.0
  C  C47  1  0.42511000  0.57259000  0.25445000  1.0
  C  C48  1  0.44315000  0.77728000  0.77747000  1.0
  C  C49  1  0.50583000  0.81056000  0.80360000  1.0
  C  C50  1  0.05489000  0.33490000  0.72265000  1.0
  C  C51  1  0.50132000  0.13555000  0.13841000  1.0
  C  C52  1  0.11392000  0.30554000  0.68902000  1.0
  C  C53  1  0.94488000  0.27974000  0.77681000  1.0
  C  C54  1  0.88554000  0.19101000  0.81121000  1.0
  C  C55  1  0.44125000  0.21972000  0.72296000  1.0
  C  C56  1  0.50806000  0.30805000  0.68558000  1.0
  C  C57  1  0.44292000  0.16442000  0.77656000  1.0
  C  C58  1  0.46402000  0.66149000  0.25248000  1.0
  C  C59  1  0.49369000  0.19383000  0.81411000  1.0
  C  C60  1  0.44386000  0.22028000  0.33452000  1.0
  C  C61  1  0.49766000  0.30897000  0.30508000  1.0
  C  C62  1  0.44306000  0.16508000  0.27974000  1.0
  C  C63  1  0.50015000  0.86334000  0.86249000  1.0
  C  C64  1  0.50593000  0.19440000  0.19135000  1.0
  C  C65  1  0.49814000  0.63621000  0.63770000  1.0
  C  C66  1  0.49690000  0.36238000  0.36341000  1.0
  C  C67  1  0.77378000  0.63930000  0.36176000  1.0
  C  C68  1  0.22566000  0.36432000  0.63474000  1.0
  C  C69  1  0.46401000  0.71662000  0.19735000  1.0
  C  C70  1  0.50194000  0.36223000  0.63354000  1.0
  C  C71  1  0.50000000  0.63901000  0.36102000  1.0
  C  C72  1  0.49562000  0.13566000  0.86633000  1.0
  C  C73  1  0.49994000  0.86113000  0.13880000  1.0
  C  C74  1  0.42503000  0.67956000  0.14745000  1.0
  C  C75  1  0.38812000  0.59371000  0.15145000  1.0
  C  C76  1  0.38818000  0.53961000  0.20555000  1.0
  C  C77  1  0.50005000  0.69627000  0.30372000  1.0
  C  C78  1  0.53601000  0.78353000  0.30249000  1.0
  C  C79  1  0.53597000  0.83865000  0.24739000  1.0
  C  C80  1  0.50004000  0.80393000  0.19605000  1.0
  C  C81  1  0.57476000  0.82043000  0.35261000  1.0
  O  O82  1  0.49956000  0.99879000  0.00110000  1.0
  O  O83  1  0.26937000  0.32492000  0.61127000  1.0
  O  O84  1  0.56539000  0.44555000  0.60952000  1.0
  O  O85  1  0.72978000  0.05424000  0.88846000  1.0
  O  O86  1  0.43835000  0.61653000  0.44357000  1.0
  O  O87  1  0.43555000  0.32305000  0.61701000  1.0
  O  O88  1  0.56154000  0.61796000  0.32210000  1.0
  O  O89  1  0.73041000  0.61468000  0.32201000  1.0
  O  O90  1  0.26912000  0.44745000  0.61573000  1.0
  O  O91  1  0.55709000  0.61197000  0.61791000  1.0
  O  O92  1  0.43922000  0.32278000  0.44619000  1.0
  O  O93  1  0.43800000  0.05238000  0.17821000  1.0
  O  O94  1  0.26975000  0.88142000  0.17595000  1.0
  O  O95  1  0.56324000  0.17488000  0.05531000  1.0
  O  O96  1  0.43613000  0.88207000  0.88657000  1.0
  O  O97  1  0.55501000  0.17513000  0.89028000  1.0
  O  O98  1  0.56038000  0.88258000  0.05620000  1.0
  O  O99  1  0.43969000  0.05273000  0.88307000  1.0
  O  O100  1  0.43941000  0.88318000  0.17784000  1.0
  O  O101  1  0.56173000  0.88567000  0.88442000  1.0
  O  O102  1  0.73061000  0.17734000  0.88342000  1.0
  O  O103  1  0.26859000  0.88492000  0.05383000  1.0
  O  O104  1  0.49959000  0.50118000  0.49880000  1.0
  O  O105  1  0.44091000  0.61894000  0.61191000  1.0
  O  O106  1  0.55600000  0.44582000  0.32398000  1.0
  O  O107  1  0.72995000  0.61909000  0.44486000  1.0
