# generated using pymatgen
data_SrH18(C5O6)2
_symmetry_space_group_name_H-M   'P 1'
_cell_length_a   8.55063000
_cell_length_b   8.74096000
_cell_length_c   10.22640000
_cell_angle_alpha   89.99880000
_cell_angle_beta   108.64100000
_cell_angle_gamma   89.99930000
_symmetry_Int_Tables_number   1
_chemical_formula_structural   SrH18(C5O6)2
_chemical_formula_sum   'Sr2 H36 C20 O24'
_cell_volume   724.23171789
_cell_formula_units_Z   2
loop_
 _symmetry_equiv_pos_site_id
 _symmetry_equiv_pos_as_xyz
  1  'x, y, z'
loop_
 _atom_site_type_symbol
 _atom_site_label
 _atom_site_symmetry_multiplicity
 _atom_site_fract_x
 _atom_site_fract_y
 _atom_site_fract_z
 _atom_site_occupancy
  Sr  Sr0  1  0.53137000  0.50744000  0.39575000  1.0
  Sr  Sr1  1  0.46862000  0.00743000  0.60425000  1.0
  H  H2  1  0.15599000  0.36252000  0.30906000  1.0
  H  H3  1  0.84401000  0.86251000  0.69094000  1.0
  H  H4  1  0.36678000  0.72547000  0.11704000  1.0
  H  H5  1  0.63322000  0.22547000  0.88296000  1.0
  H  H6  1  0.41436000  0.26140000  0.19295000  1.0
  H  H7  1  0.58564000  0.76139000  0.80706000  1.0
  H  H8  1  0.72965000  0.45846000  0.95139000  1.0
  H  H9  1  0.27035000  0.95847000  0.04861000  1.0
  H  H10  1  0.11016000  0.32180000  0.05874000  1.0
  H  H11  1  0.88985000  0.82179000  0.94127000  1.0
  H  H12  1  0.19869000  0.56516000  0.96595000  1.0
  H  H13  1  0.80131000  0.06515000  0.03405000  1.0
  H  H14  1  0.33641000  0.31898000  0.96369000  1.0
  H  H15  1  0.66360000  0.81898000  0.03632000  1.0
  H  H16  1  0.45014000  0.57101000  0.90662000  1.0
  H  H17  1  0.54986000  0.07101000  0.09337000  1.0
  H  H18  1  0.59689000  0.56674000  0.07535000  1.0
  H  H19  1  0.40311000  0.06674000  0.92465000  1.0
  H  H20  1  0.17456000  0.12251000  0.72838000  1.0
  H  H21  1  0.82543000  0.62252000  0.27162000  1.0
  H  H22  1  0.92893000  0.28830000  0.35067000  1.0
  H  H23  1  0.07107000  0.78830000  0.64934000  1.0
  H  H24  1  0.71882000  0.19074000  0.42780000  1.0
  H  H25  1  0.28119000  0.69073000  0.57221000  1.0
  H  H26  1  0.85076000  0.60970000  0.61580000  1.0
  H  H27  1  0.14924000  0.10969000  0.38419000  1.0
  H  H28  1  0.22302000  0.38937000  0.73633000  1.0
  H  H29  1  0.77697000  0.88939000  0.26367000  1.0
  H  H30  1  0.04013000  0.47780000  0.51590000  1.0
  H  H31  1  0.95987000  0.97780000  0.48410000  1.0
  H  H32  1  0.92101000  0.17850000  0.60970000  1.0
  H  H33  1  0.07900000  0.67850000  0.39031000  1.0
  H  H34  1  0.77176000  0.32608000  0.71957000  1.0
  H  H35  1  0.22823000  0.82607000  0.28042000  1.0
  H  H36  1  0.96708000  0.41590000  0.76980000  1.0
  H  H37  1  0.03291000  0.91591000  0.23019000  1.0
  C  C38  1  0.98974000  0.51633000  0.10710000  1.0
  C  C39  1  0.01025000  0.01632000  0.89289000  1.0
  C  C40  1  0.14962000  0.42682000  0.12132000  1.0
  C  C41  1  0.85037000  0.92681000  0.87868000  1.0
  C  C42  1  0.27042000  0.51358000  0.06552000  1.0
  C  C43  1  0.72958000  0.01358000  0.93448000  1.0
  C  C44  1  0.40100000  0.40499000  0.04147000  1.0
  C  C45  1  0.59900000  0.90499000  0.95853000  1.0
  C  C46  1  0.52142000  0.49445000  0.99037000  1.0
  C  C47  1  0.47858000  0.99445000  0.00963000  1.0
  C  C48  1  0.35355000  0.38418000  0.58884000  1.0
  C  C49  1  0.64646000  0.88419000  0.41117000  1.0
  C  C50  1  0.21812000  0.32156000  0.64387000  1.0
  C  C51  1  0.78188000  0.82157000  0.35614000  1.0
  C  C52  1  0.05005000  0.35324000  0.53475000  1.0
  C  C53  1  0.94995000  0.85324000  0.46525000  1.0
  C  C54  1  0.89951000  0.29683000  0.57151000  1.0
  C  C55  1  0.10049000  0.79683000  0.42849000  1.0
  C  C56  1  0.85661000  0.39215000  0.68072000  1.0
  C  C57  1  0.14338000  0.89215000  0.31927000  1.0
  O  O58  1  0.95216000  0.53380000  0.21661000  1.0
  O  O59  1  0.04783000  0.03379000  0.78338000  1.0
  O  O60  1  0.23738000  0.38528000  0.26092000  1.0
  O  O61  1  0.76262000  0.88527000  0.73908000  1.0
  O  O62  1  0.34775000  0.62961000  0.16360000  1.0
  O  O63  1  0.65224000  0.12960000  0.83640000  1.0
  O  O64  1  0.49296000  0.32688000  0.16728000  1.0
  O  O65  1  0.50704000  0.82688000  0.83273000  1.0
  O  O66  1  0.62718000  0.39784000  0.94337000  1.0
  O  O67  1  0.37283000  0.89785000  0.05664000  1.0
  O  O68  1  0.90461000  0.55581000  0.98594000  1.0
  O  O69  1  0.09538000  0.05581000  0.01405000  1.0
  O  O70  1  0.44856000  0.29117000  0.55650000  1.0
  O  O71  1  0.55144000  0.79118000  0.44350000  1.0
  O  O72  1  0.24834000  0.16464000  0.67622000  1.0
  O  O73  1  0.75165000  0.66465000  0.32378000  1.0
  O  O74  1  0.04598000  0.27829000  0.40748000  1.0
  O  O75  1  0.95403000  0.77829000  0.59252000  1.0
  O  O76  1  0.76342000  0.29807000  0.44371000  1.0
  O  O77  1  0.23659000  0.79806000  0.55628000  1.0
  O  O78  1  0.77266000  0.53079000  0.62551000  1.0
  O  O79  1  0.22734000  0.03078000  0.37448000  1.0
  O  O80  1  0.35935000  0.52782000  0.57041000  1.0
  O  O81  1  0.64066000  0.02783000  0.42960000  1.0
