# generated using pymatgen
data_Ni2H48C48N4O11
_symmetry_space_group_name_H-M   'P 1'
_cell_length_a   16.67600000
_cell_length_b   16.97440000
_cell_length_c   17.97960000
_cell_angle_alpha   104.93100000
_cell_angle_beta   89.99990000
_cell_angle_gamma   90.00000000
_symmetry_Int_Tables_number   1
_chemical_formula_structural   Ni2H48C48N4O11
_chemical_formula_sum   'Ni8 H192 C192 N16 O44'
_cell_volume   4917.56291635
_cell_formula_units_Z   4
loop_
 _symmetry_equiv_pos_site_id
 _symmetry_equiv_pos_as_xyz
  1  'x, y, z'
loop_
 _atom_site_type_symbol
 _atom_site_label
 _atom_site_symmetry_multiplicity
 _atom_site_fract_x
 _atom_site_fract_y
 _atom_site_fract_z
 _atom_site_occupancy
  Ni  Ni0  1  0.69067000  0.35310000  0.79395000  1.0
  Ni  Ni1  1  0.19067000  0.14690000  0.20605000  1.0
  Ni  Ni2  1  0.30933000  0.64690000  0.20605000  1.0
  Ni  Ni3  1  0.80933000  0.85310000  0.79395000  1.0
  Ni  Ni4  1  0.18267000  0.14758000  0.71597000  1.0
  Ni  Ni5  1  0.68266000  0.35242000  0.28403000  1.0
  Ni  Ni6  1  0.81734000  0.85242000  0.28403000  1.0
  Ni  Ni7  1  0.31734000  0.64758000  0.71597000  1.0
  H  H8  1  0.08131000  0.12018000  0.60917000  1.0
  H  H9  1  0.58130000  0.37982000  0.39083000  1.0
  H  H10  1  0.91870000  0.87982000  0.39083000  1.0
  H  H11  1  0.41870000  0.62018000  0.60917000  1.0
  H  H12  1  0.13918000  0.04306000  0.59066000  1.0
  H  H13  1  0.63918000  0.45694000  0.40934000  1.0
  H  H14  1  0.86082000  0.95694000  0.40934000  1.0
  H  H15  1  0.36082000  0.54306000  0.59066000  1.0
  H  H16  1  0.72403000  0.10682000  0.81623000  1.0
  H  H17  1  0.22403000  0.39318000  0.18377000  1.0
  H  H18  1  0.27597000  0.89318000  0.18377000  1.0
  H  H19  1  0.77597000  0.60682000  0.81623000  1.0
  H  H20  1  0.63579000  0.99358000  0.98754000  1.0
  H  H21  1  0.13578000  0.50642000  0.01246000  1.0
  H  H22  1  0.36422000  0.00642000  0.01246000  1.0
  H  H23  1  0.86422000  0.49358000  0.98754000  1.0
  H  H24  1  0.57446000  0.24469000  0.99921000  1.0
  H  H25  1  0.07446000  0.25531000  0.00079000  1.0
  H  H26  1  0.42554000  0.75531000  0.00079000  1.0
  H  H27  1  0.92554000  0.74469000  0.99921000  1.0
  H  H28  1  0.61665000  0.04723000  0.11418000  1.0
  H  H29  1  0.11666000  0.45277000  0.88581000  1.0
  H  H30  1  0.38334000  0.95277000  0.88582000  1.0
  H  H31  1  0.88334000  0.54724000  0.11419000  1.0
  H  H32  1  0.52864000  0.00924000  0.06066000  1.0
  H  H33  1  0.02864000  0.49076000  0.93934000  1.0
  H  H34  1  0.47136000  0.99076000  0.93934000  1.0
  H  H35  1  0.97136000  0.50924000  0.06066000  1.0
  H  H36  1  0.53161000  0.13768000  0.21588000  1.0
  H  H37  1  0.03161000  0.36232000  0.78412000  1.0
  H  H38  1  0.46839000  0.86232000  0.78412000  1.0
  H  H39  1  0.96839000  0.63768000  0.21588000  1.0
  H  H40  1  0.44392000  0.10075000  0.16171000  1.0
  H  H41  1  0.94393000  0.39926000  0.83829000  1.0
  H  H42  1  0.55607000  0.89926000  0.83829000  1.0
  H  H43  1  0.05607000  0.60075000  0.16172000  1.0
  H  H44  1  0.56594000  0.99504000  0.22107000  1.0
  H  H45  1  0.06594000  0.50496000  0.77892000  1.0
  H  H46  1  0.43406000  0.00497000  0.77893000  1.0
  H  H47  1  0.93406000  0.49503000  0.22107000  1.0
  H  H48  1  0.47833000  0.95807000  0.16804000  1.0
  H  H49  1  0.97834000  0.54193000  0.83196000  1.0
  H  H50  1  0.52167000  0.04194000  0.83196000  1.0
  H  H51  1  0.02167000  0.45806000  0.16804000  1.0
  H  H52  1  0.48124000  0.08074000  0.32659000  1.0
  H  H53  1  0.98124000  0.41925000  0.67341000  1.0
  H  H54  1  0.51876000  0.91926000  0.67341000  1.0
  H  H55  1  0.01876000  0.58074000  0.32659000  1.0
  H  H56  1  0.39383000  0.04146000  0.27468000  1.0
  H  H57  1  0.89383000  0.45853000  0.72532000  1.0
  H  H58  1  0.60617000  0.95854000  0.72532000  1.0
  H  H59  1  0.10617000  0.54146000  0.27468000  1.0
  H  H60  1  0.43058000  0.90071000  0.27951000  1.0
  H  H61  1  0.93058000  0.59928000  0.72049000  1.0
  H  H62  1  0.56942000  0.09929000  0.72049000  1.0
  H  H63  1  0.06943000  0.40071000  0.27951000  1.0
  H  H64  1  0.52290000  0.93644000  0.32502000  1.0
  H  H65  1  0.02290000  0.56356000  0.67498000  1.0
  H  H66  1  0.47710000  0.06356000  0.67498000  1.0
  H  H67  1  0.97710000  0.43644000  0.32502000  1.0
  H  H68  1  0.44785000  0.02437000  0.43703000  1.0
  H  H69  1  0.94785000  0.47562000  0.56297000  1.0
  H  H70  1  0.55215000  0.97562000  0.56297000  1.0
  H  H71  1  0.05216000  0.52437000  0.43703000  1.0
  H  H72  1  0.35566000  0.98230000  0.39350000  1.0
  H  H73  1  0.85567000  0.51770000  0.60650000  1.0
  H  H74  1  0.64434000  0.01770000  0.60650000  1.0
  H  H75  1  0.14434000  0.48230000  0.39350000  1.0
  H  H76  1  0.44089000  0.78007000  0.48936000  1.0
  H  H77  1  0.94090000  0.71992000  0.51064000  1.0
  H  H78  1  0.55910000  0.21992000  0.51064000  1.0
  H  H79  1  0.05911000  0.28007000  0.48936000  1.0
  H  H80  1  0.32034000  0.89877000  0.70020000  1.0
  H  H81  1  0.82033000  0.60123000  0.29980000  1.0
  H  H82  1  0.67967000  0.10123000  0.29980000  1.0
  H  H83  1  0.17967000  0.39877000  0.70020000  1.0
  H  H84  1  0.35035000  0.02571000  0.52388000  1.0
  H  H85  1  0.85036000  0.47429000  0.47612000  1.0
  H  H86  1  0.64965000  0.97429000  0.47612000  1.0
  H  H87  1  0.14965000  0.52571000  0.52388000  1.0
  H  H88  1  0.83977000  0.26952000  0.73385000  1.0
  H  H89  1  0.33977000  0.23048000  0.26615000  1.0
  H  H90  1  0.16023000  0.73048000  0.26615000  1.0
  H  H91  1  0.66022000  0.76952000  0.73385000  1.0
  H  H92  1  0.91592000  0.23294000  0.60837000  1.0
  H  H93  1  0.41592000  0.26707000  0.39163000  1.0
  H  H94  1  0.08408000  0.76707000  0.39163000  1.0
  H  H95  1  0.58407000  0.73293000  0.60837000  1.0
  H  H96  1  0.73886000  0.36911000  0.51823000  1.0
  H  H97  1  0.23886000  0.13089000  0.48177000  1.0
  H  H98  1  0.26114000  0.63089000  0.48177000  1.0
  H  H99  1  0.76114000  0.86911000  0.51823000  1.0
  H  H100  1  0.67261000  0.40244000  0.64793000  1.0
  H  H101  1  0.17261000  0.09756000  0.35207000  1.0
  H  H102  1  0.32739000  0.59756000  0.35207000  1.0
  H  H103  1  0.82739000  0.90243000  0.64793000  1.0
  H  H104  1  0.93388000  0.27017000  0.47738000  1.0
  H  H105  1  0.43388000  0.22983000  0.52262000  1.0
  H  H106  1  0.06612000  0.72983000  0.52262000  1.0
  H  H107  1  0.56612000  0.77017000  0.47738000  1.0
  H  H108  1  0.85103000  0.31449000  0.44062000  1.0
  H  H109  1  0.35102000  0.18551000  0.55938000  1.0
  H  H110  1  0.14898000  0.68552000  0.55938000  1.0
  H  H111  1  0.64897000  0.81448000  0.44062000  1.0
  H  H112  1  0.77347000  0.18090000  0.44588000  1.0
  H  H113  1  0.27347000  0.31910000  0.55413000  1.0
  H  H114  1  0.22653000  0.81910000  0.55413000  1.0
  H  H115  1  0.72653000  0.68090000  0.44587000  1.0
  H  H116  1  0.86921000  0.13858000  0.45202000  1.0
  H  H117  1  0.36921000  0.36142000  0.54797000  1.0
  H  H118  1  0.13079000  0.86143000  0.54797000  1.0
  H  H119  1  0.63079000  0.63858000  0.45202000  1.0
  H  H120  1  0.81218000  0.10900000  0.31740000  1.0
  H  H121  1  0.31219000  0.39100000  0.68260000  1.0
  H  H122  1  0.18781000  0.89100000  0.68260000  1.0
  H  H123  1  0.68781000  0.60900000  0.31739000  1.0
  H  H124  1  0.80935000  0.21509000  0.32490000  1.0
  H  H125  1  0.30935000  0.28492000  0.67510000  1.0
  H  H126  1  0.19065000  0.78492000  0.67510000  1.0
  H  H127  1  0.69065000  0.71509000  0.32490000  1.0
  H  H128  1  0.92731000  0.03050000  0.27123000  1.0
  H  H129  1  0.42731000  0.46950000  0.72877000  1.0
  H  H130  1  0.07269000  0.96950000  0.72877000  1.0
  H  H131  1  0.57269000  0.53050000  0.27123000  1.0
  H  H132  1  0.06728000  0.02668000  0.21807000  1.0
  H  H133  1  0.56728000  0.47332000  0.78193000  1.0
  H  H134  1  0.93272000  0.97332000  0.78193000  1.0
  H  H135  1  0.43272000  0.52668000  0.21807000  1.0
  H  H136  1  0.09035000  0.27678000  0.29633000  1.0
  H  H137  1  0.59036000  0.22322000  0.70367000  1.0
  H  H138  1  0.90965000  0.72321000  0.70367000  1.0
  H  H139  1  0.40965000  0.77678000  0.29633000  1.0
  H  H140  1  0.95065000  0.29253000  0.34660000  1.0
  H  H141  1  0.45065000  0.20748000  0.65339000  1.0
  H  H142  1  0.04935000  0.70747000  0.65340000  1.0
  H  H143  1  0.54935000  0.79252000  0.34661000  1.0
  H  H144  1  0.16614000  0.10559000  0.86449000  1.0
  H  H145  1  0.66613000  0.39441000  0.13551000  1.0
  H  H146  1  0.83387000  0.89441000  0.13551000  1.0
  H  H147  1  0.33386000  0.60558000  0.86449000  1.0
  H  H148  1  0.05615000  0.09205000  0.95333000  1.0
  H  H149  1  0.55614000  0.40795000  0.04667000  1.0
  H  H150  1  0.94386000  0.90795000  0.04667000  1.0
  H  H151  1  0.44386000  0.59204000  0.95332000  1.0
  H  H152  1  0.89601000  0.19342000  0.81328000  1.0
  H  H153  1  0.39601000  0.30658000  0.18672000  1.0
  H  H154  1  0.10399000  0.80658000  0.18672000  1.0
  H  H155  1  0.60399000  0.69342000  0.81328000  1.0
  H  H156  1  0.01386000  0.20269000  0.72965000  1.0
  H  H157  1  0.51385000  0.29731000  0.27034000  1.0
  H  H158  1  0.98614000  0.79731000  0.27034000  1.0
  H  H159  1  0.48615000  0.70269000  0.72965000  1.0
  H  H160  1  0.87314000  0.19085000  0.97027000  1.0
  H  H161  1  0.37314000  0.30916000  0.02973000  1.0
  H  H162  1  0.12686000  0.80916000  0.02973000  1.0
  H  H163  1  0.62686000  0.69084000  0.97027000  1.0
  H  H164  1  0.84385000  0.10786000  0.89532000  1.0
  H  H165  1  0.34384000  0.39214000  0.10468000  1.0
  H  H166  1  0.15615000  0.89215000  0.10469000  1.0
  H  H167  1  0.65615000  0.60785000  0.89532000  1.0
  H  H168  1  0.94066000  0.02079000  0.96170000  1.0
  H  H169  1  0.44066000  0.47921000  0.03830000  1.0
  H  H170  1  0.05934000  0.97921000  0.03830000  1.0
  H  H171  1  0.55934000  0.52079000  0.96171000  1.0
  H  H172  1  0.84259000  0.04414000  0.99325000  1.0
  H  H173  1  0.34259000  0.45586000  0.00675000  1.0
  H  H174  1  0.15741000  0.95586000  0.00675000  1.0
  H  H175  1  0.65741000  0.54414000  0.99325000  1.0
  H  H176  1  0.98973000  0.14387000  0.06938000  1.0
  H  H177  1  0.48973000  0.35613000  0.93062000  1.0
  H  H178  1  0.01027000  0.85613000  0.93062000  1.0
  H  H179  1  0.51027000  0.64387000  0.06938000  1.0
  H  H180  1  0.94249000  0.06625000  0.10175000  1.0
  H  H181  1  0.44249000  0.43375000  0.89825000  1.0
  H  H182  1  0.05751000  0.93376000  0.89825000  1.0
  H  H183  1  0.55751000  0.56625000  0.10175000  1.0
  H  H184  1  0.94916000  0.27916000  0.13734000  1.0
  H  H185  1  0.44917000  0.22084000  0.86265000  1.0
  H  H186  1  0.05084000  0.72084000  0.86266000  1.0
  H  H187  1  0.55084000  0.77916000  0.13734000  1.0
  H  H188  1  0.84686000  0.37174000  0.21604000  1.0
  H  H189  1  0.34687000  0.12826000  0.78396000  1.0
  H  H190  1  0.15313000  0.62826000  0.78397000  1.0
  H  H191  1  0.65313000  0.87174000  0.21604000  1.0
  H  H192  1  0.68086000  0.18545000  0.18668000  1.0
  H  H193  1  0.18086000  0.31455000  0.81332000  1.0
  H  H194  1  0.31914000  0.81455000  0.81332000  1.0
  H  H195  1  0.81914000  0.68545000  0.18668000  1.0
  H  H196  1  0.77560000  0.08502000  0.10686000  1.0
  H  H197  1  0.27561000  0.41498000  0.89314000  1.0
  H  H198  1  0.22440000  0.91498000  0.89314000  1.0
  H  H199  1  0.72439000  0.58502000  0.10686000  1.0
  C  C200  1  0.65744000  0.25233000  0.86761000  1.0
  C  C201  1  0.15743000  0.24767000  0.13239000  1.0
  C  C202  1  0.34256000  0.74767000  0.13239000  1.0
  C  C203  1  0.84256000  0.75233000  0.86761000  1.0
  C  C204  1  0.64876000  0.18263000  0.90333000  1.0
  C  C205  1  0.14876000  0.31737000  0.09667000  1.0
  C  C206  1  0.35124000  0.81737000  0.09667000  1.0
  C  C207  1  0.85124000  0.68263000  0.90333000  1.0
  C  C208  1  0.68903000  0.11042000  0.86798000  1.0
  C  C209  1  0.18902000  0.38958000  0.13202000  1.0
  C  C210  1  0.31098000  0.88958000  0.13202000  1.0
  C  C211  1  0.81098000  0.61042000  0.86798000  1.0
  C  C212  1  0.68415000  0.04375000  0.89924000  1.0
  C  C213  1  0.18415000  0.45626000  0.10077000  1.0
  C  C214  1  0.31585000  0.95625000  0.10076000  1.0
  C  C215  1  0.81585000  0.54375000  0.89924000  1.0
  C  C216  1  0.63872000  0.04755000  0.96561000  1.0
  C  C217  1  0.13872000  0.45245000  0.03439000  1.0
  C  C218  1  0.36128000  0.95245000  0.03439000  1.0
  C  C219  1  0.86128000  0.54755000  0.96561000  1.0
  C  C220  1  0.59960000  0.12047000  0.00171000  1.0
  C  C221  1  0.09960000  0.37953000  0.99829000  1.0
  C  C222  1  0.40040000  0.87953000  0.99829000  1.0
  C  C223  1  0.90040000  0.62047000  0.00171000  1.0
  C  C224  1  0.60450000  0.18810000  0.97035000  1.0
  C  C225  1  0.10449000  0.31190000  0.02965000  1.0
  C  C226  1  0.39551000  0.81190000  0.02965000  1.0
  C  C227  1  0.89551000  0.68810000  0.97035000  1.0
  C  C228  1  0.72944000  0.96907000  0.86118000  1.0
  C  C229  1  0.22944000  0.53093000  0.13882000  1.0
  C  C230  1  0.27056000  0.03093000  0.13882000  1.0
  C  C231  1  0.77056000  0.46907000  0.86119000  1.0
  C  C232  1  0.55453000  0.06296000  0.10189000  1.0
  C  C233  1  0.05453000  0.43704000  0.89811000  1.0
  C  C234  1  0.44547000  0.93704000  0.89811000  1.0
  C  C235  1  0.94547000  0.56296000  0.10189000  1.0
  C  C236  1  0.50521000  0.08432000  0.17487000  1.0
  C  C237  1  0.00521000  0.41568000  0.82513000  1.0
  C  C238  1  0.49479000  0.91568000  0.82513000  1.0
  C  C239  1  0.99479000  0.58432000  0.17487000  1.0
  C  C240  1  0.50378000  0.01142000  0.21001000  1.0
  C  C241  1  0.00379000  0.48858000  0.78999000  1.0
  C  C242  1  0.49621000  0.98858000  0.78999000  1.0
  C  C243  1  0.99621000  0.51142000  0.21001000  1.0
  C  C244  1  0.45657000  0.02682000  0.28496000  1.0
  C  C245  1  0.95658000  0.47318000  0.71503000  1.0
  C  C246  1  0.54343000  0.97318000  0.71504000  1.0
  C  C247  1  0.04343000  0.52682000  0.28496000  1.0
  C  C248  1  0.45987000  0.95327000  0.31901000  1.0
  C  C249  1  0.95987000  0.54673000  0.68098000  1.0
  C  C250  1  0.54013000  0.04673000  0.68099000  1.0
  C  C251  1  0.04013000  0.45327000  0.31901000  1.0
  C  C252  1  0.42044000  0.97048000  0.39733000  1.0
  C  C253  1  0.92044000  0.52952000  0.60267000  1.0
  C  C254  1  0.57956000  0.02952000  0.60267000  1.0
  C  C255  1  0.07956000  0.47048000  0.39733000  1.0
  C  C256  1  0.40178000  0.90368000  0.49844000  1.0
  C  C257  1  0.90178000  0.59632000  0.50156000  1.0
  C  C258  1  0.59822000  0.09632000  0.50156000  1.0
  C  C259  1  0.09822000  0.40368000  0.49844000  1.0
  C  C260  1  0.41211000  0.83394000  0.52572000  1.0
  C  C261  1  0.91211000  0.66606000  0.47428000  1.0
  C  C262  1  0.58788000  0.16606000  0.47428000  1.0
  C  C263  1  0.08789000  0.33394000  0.52572000  1.0
  C  C264  1  0.38364000  0.83237000  0.59835000  1.0
  C  C265  1  0.88363000  0.66763000  0.40165000  1.0
  C  C266  1  0.61637000  0.16763000  0.40165000  1.0
  C  C267  1  0.11636000  0.33237000  0.59835000  1.0
  C  C268  1  0.34379000  0.90049000  0.64421000  1.0
  C  C269  1  0.84378000  0.59950000  0.35578000  1.0
  C  C270  1  0.65622000  0.09950000  0.35578000  1.0
  C  C271  1  0.15622000  0.40050000  0.64422000  1.0
  C  C272  1  0.33171000  0.96904000  0.61619000  1.0
  C  C273  1  0.83171000  0.53096000  0.38381000  1.0
  C  C274  1  0.66829000  0.03096000  0.38380000  1.0
  C  C275  1  0.16829000  0.46904000  0.61620000  1.0
  C  C276  1  0.36127000  0.97129000  0.54366000  1.0
  C  C277  1  0.86127000  0.52871000  0.45634000  1.0
  C  C278  1  0.63873000  0.02871000  0.45634000  1.0
  C  C279  1  0.13873000  0.47129000  0.54366000  1.0
  C  C280  1  0.39185000  0.75508000  0.62419000  1.0
  C  C281  1  0.89185000  0.74492000  0.37581000  1.0
  C  C282  1  0.60815000  0.24492000  0.37581000  1.0
  C  C283  1  0.10815000  0.25508000  0.62419000  1.0
  C  C284  1  0.28173000  0.03889000  0.65918000  1.0
  C  C285  1  0.78173000  0.46111000  0.34082000  1.0
  C  C286  1  0.71828000  0.96111000  0.34082000  1.0
  C  C287  1  0.21827000  0.53889000  0.65918000  1.0
  C  C288  1  0.82014000  0.28995000  0.68410000  1.0
  C  C289  1  0.32014000  0.21005000  0.31590000  1.0
  C  C290  1  0.17986000  0.71005000  0.31590000  1.0
  C  C291  1  0.67986000  0.78994000  0.68410000  1.0
  C  C292  1  0.86138000  0.26971000  0.61453000  1.0
  C  C293  1  0.36138000  0.23029000  0.38547000  1.0
  C  C294  1  0.13862000  0.73029000  0.38547000  1.0
  C  C295  1  0.63862000  0.76970000  0.61452000  1.0
  C  C296  1  0.83213000  0.29696000  0.55238000  1.0
  C  C297  1  0.33214000  0.20304000  0.44762000  1.0
  C  C298  1  0.16787000  0.70304000  0.44762000  1.0
  C  C299  1  0.66786000  0.79696000  0.55238000  1.0
  C  C300  1  0.76350000  0.34628000  0.56493000  1.0
  C  C301  1  0.26350000  0.15372000  0.43507000  1.0
  C  C302  1  0.23651000  0.65372000  0.43507000  1.0
  C  C303  1  0.73650000  0.84627000  0.56493000  1.0
  C  C304  1  0.72624000  0.36455000  0.63636000  1.0
  C  C305  1  0.22624000  0.13545000  0.36364000  1.0
  C  C306  1  0.27376000  0.63545000  0.36364000  1.0
  C  C307  1  0.77376000  0.86455000  0.63636000  1.0
  C  C308  1  0.86820000  0.27073000  0.47355000  1.0
  C  C309  1  0.36819000  0.22928000  0.52645000  1.0
  C  C310  1  0.13181000  0.72928000  0.52645000  1.0
  C  C311  1  0.63180000  0.77072000  0.47355000  1.0
  C  C312  1  0.83696000  0.18534000  0.43112000  1.0
  C  C313  1  0.33696000  0.31466000  0.56887000  1.0
  C  C314  1  0.16304000  0.81466000  0.56888000  1.0
  C  C315  1  0.66304000  0.68534000  0.43112000  1.0
  C  C316  1  0.84247000  0.16710000  0.34297000  1.0
  C  C317  1  0.34248000  0.33290000  0.65703000  1.0
  C  C318  1  0.15752000  0.83290000  0.65703000  1.0
  C  C319  1  0.65753000  0.66710000  0.34297000  1.0
  C  C320  1  0.92648000  0.16218000  0.31284000  1.0
  C  C321  1  0.42648000  0.33782000  0.68716000  1.0
  C  C322  1  0.07352000  0.83782000  0.68716000  1.0
  C  C323  1  0.57352000  0.66218000  0.31284000  1.0
  C  C324  1  0.96109000  0.08673000  0.27687000  1.0
  C  C325  1  0.46109000  0.41327000  0.72313000  1.0
  C  C326  1  0.03890000  0.91327000  0.72313000  1.0
  C  C327  1  0.53891000  0.58673000  0.27687000  1.0
  C  C328  1  0.03857000  0.08381000  0.24792000  1.0
  C  C329  1  0.53857000  0.41619000  0.75208000  1.0
  C  C330  1  0.96143000  0.91619000  0.75208000  1.0
  C  C331  1  0.46143000  0.58381000  0.24792000  1.0
  C  C332  1  0.05139000  0.22421000  0.29121000  1.0
  C  C333  1  0.55139000  0.27579000  0.70879000  1.0
  C  C334  1  0.94861000  0.77578000  0.70879000  1.0
  C  C335  1  0.44861000  0.72422000  0.29121000  1.0
  C  C336  1  0.97378000  0.23195000  0.31965000  1.0
  C  C337  1  0.47378000  0.26806000  0.68035000  1.0
  C  C338  1  0.02622000  0.76805000  0.68035000  1.0
  C  C339  1  0.52622000  0.73195000  0.31965000  1.0
  C  C340  1  0.10513000  0.12416000  0.85512000  1.0
  C  C341  1  0.60513000  0.37584000  0.14488000  1.0
  C  C342  1  0.89487000  0.87584000  0.14488000  1.0
  C  C343  1  0.39487000  0.62415000  0.85512000  1.0
  C  C344  1  0.04278000  0.11613000  0.90409000  1.0
  C  C345  1  0.54278000  0.38387000  0.09591000  1.0
  C  C346  1  0.95722000  0.88387000  0.09591000  1.0
  C  C347  1  0.45722000  0.61612000  0.90409000  1.0
  C  C348  1  0.96497000  0.13992000  0.88991000  1.0
  C  C349  1  0.46497000  0.36008000  0.11009000  1.0
  C  C350  1  0.03503000  0.86009000  0.11009000  1.0
  C  C351  1  0.53503000  0.63991000  0.88991000  1.0
  C  C352  1  0.95515000  0.17313000  0.82659000  1.0
  C  C353  1  0.45515000  0.32687000  0.17341000  1.0
  C  C354  1  0.04485000  0.82687000  0.17341000  1.0
  C  C355  1  0.54485000  0.67313000  0.82659000  1.0
  C  C356  1  0.02003000  0.17884000  0.78013000  1.0
  C  C357  1  0.52003000  0.32116000  0.21987000  1.0
  C  C358  1  0.97997000  0.82116000  0.21987000  1.0
  C  C359  1  0.47997000  0.67884000  0.78013000  1.0
  C  C360  1  0.89259000  0.12989000  0.93656000  1.0
  C  C361  1  0.39259000  0.37012000  0.06344000  1.0
  C  C362  1  0.10741000  0.87012000  0.06344000  1.0
  C  C363  1  0.60741000  0.62988000  0.93656000  1.0
  C  C364  1  0.90132000  0.07214000  0.98902000  1.0
  C  C365  1  0.40132000  0.42786000  0.01098000  1.0
  C  C366  1  0.09868000  0.92786000  0.01098000  1.0
  C  C367  1  0.59868000  0.57214000  0.98903000  1.0
  C  C368  1  0.93173000  0.11337000  0.07062000  1.0
  C  C369  1  0.43173000  0.38663000  0.92938000  1.0
  C  C370  1  0.06827000  0.88663000  0.92938000  1.0
  C  C371  1  0.56827000  0.61337000  0.07062000  1.0
  C  C372  1  0.87196000  0.17310000  0.11619000  1.0
  C  C373  1  0.37196000  0.32690000  0.88381000  1.0
  C  C374  1  0.12804000  0.82690000  0.88381000  1.0
  C  C375  1  0.62804000  0.67310000  0.11620000  1.0
  C  C376  1  0.89030000  0.25553000  0.14686000  1.0
  C  C377  1  0.39030000  0.24447000  0.85314000  1.0
  C  C378  1  0.10971000  0.74447000  0.85315000  1.0
  C  C379  1  0.60970000  0.75553000  0.14686000  1.0
  C  C380  1  0.83378000  0.30749000  0.19104000  1.0
  C  C381  1  0.33379000  0.19251000  0.80896000  1.0
  C  C382  1  0.16622000  0.69251000  0.80896000  1.0
  C  C383  1  0.66622000  0.80749000  0.19104000  1.0
  C  C384  1  0.74094000  0.20344000  0.17406000  1.0
  C  C385  1  0.24094000  0.29656000  0.82594000  1.0
  C  C386  1  0.25906000  0.79656000  0.82594000  1.0
  C  C387  1  0.75906000  0.70344000  0.17406000  1.0
  C  C388  1  0.79444000  0.14809000  0.12998000  1.0
  C  C389  1  0.29444000  0.35191000  0.87002000  1.0
  C  C390  1  0.20556000  0.85191000  0.87002000  1.0
  C  C391  1  0.70556000  0.64810000  0.12998000  1.0
  N  N392  1  0.75308000  0.33576000  0.69491000  1.0
  N  N393  1  0.25308000  0.16424000  0.30509000  1.0
  N  N394  1  0.24692000  0.66424000  0.30509000  1.0
  N  N395  1  0.74692000  0.83576000  0.69491000  1.0
  N  N396  1  0.08302000  0.15156000  0.25469000  1.0
  N  N397  1  0.58302000  0.34844000  0.74531000  1.0
  N  N398  1  0.91698000  0.84843000  0.74531000  1.0
  N  N399  1  0.41698000  0.65156000  0.25469000  1.0
  N  N400  1  0.09422000  0.15389000  0.79339000  1.0
  N  N401  1  0.59422000  0.34612000  0.20661000  1.0
  N  N402  1  0.90578000  0.84612000  0.20661000  1.0
  N  N403  1  0.40578000  0.65388000  0.79339000  1.0
  N  N404  1  0.76039000  0.28208000  0.20581000  1.0
  N  N405  1  0.26039000  0.21792000  0.79419000  1.0
  N  N406  1  0.23961000  0.71792000  0.79419000  1.0
  N  N407  1  0.73960000  0.78208000  0.20582000  1.0
  O  O408  1  0.63111000  0.32323000  0.89924000  1.0
  O  O409  1  0.13111000  0.17677000  0.10076000  1.0
  O  O410  1  0.36889000  0.67677000  0.10076000  1.0
  O  O411  1  0.86889000  0.82323000  0.89924000  1.0
  O  O412  1  0.69406000  0.23726000  0.80224000  1.0
  O  O413  1  0.19406000  0.26274000  0.19776000  1.0
  O  O414  1  0.30594000  0.76274000  0.19776000  1.0
  O  O415  1  0.80594000  0.73726000  0.80224000  1.0
  O  O416  1  0.79301000  0.97723000  0.82326000  1.0
  O  O417  1  0.29301000  0.52277000  0.17673000  1.0
  O  O418  1  0.20699000  0.02277000  0.17674000  1.0
  O  O419  1  0.70699000  0.47723000  0.82327000  1.0
  O  O420  1  0.70642000  0.89873000  0.86521000  1.0
  O  O421  1  0.20642000  0.60127000  0.13479000  1.0
  O  O422  1  0.29358000  0.10126000  0.13479000  1.0
  O  O423  1  0.79358000  0.39874000  0.86522000  1.0
  O  O424  1  0.55609000  0.13091000  0.06797000  1.0
  O  O425  1  0.05609000  0.36909000  0.93202000  1.0
  O  O426  1  0.44392000  0.86909000  0.93202000  1.0
  O  O427  1  0.94391000  0.63092000  0.06798000  1.0
  O  O428  1  0.43201000  0.90014000  0.42713000  1.0
  O  O429  1  0.93201000  0.59986000  0.57287000  1.0
  O  O430  1  0.56799000  0.09986000  0.57287000  1.0
  O  O431  1  0.06799000  0.40014000  0.42713000  1.0
  O  O432  1  0.27393000  0.10178000  0.63253000  1.0
  O  O433  1  0.77393000  0.39822000  0.36747000  1.0
  O  O434  1  0.72607000  0.89822000  0.36747000  1.0
  O  O435  1  0.22607000  0.60179000  0.63253000  1.0
  O  O436  1  0.24360000  0.03496000  0.71995000  1.0
  O  O437  1  0.74360000  0.46504000  0.28005000  1.0
  O  O438  1  0.75640000  0.96504000  0.28005000  1.0
  O  O439  1  0.25640000  0.53496000  0.71995000  1.0
  O  O440  1  0.34859000  0.75021000  0.68176000  1.0
  O  O441  1  0.84859000  0.74978000  0.31824000  1.0
  O  O442  1  0.65141000  0.24978000  0.31824000  1.0
  O  O443  1  0.15141000  0.25022000  0.68176000  1.0
  O  O444  1  0.43928000  0.70012000  0.58725000  1.0
  O  O445  1  0.93928000  0.79988000  0.41275000  1.0
  O  O446  1  0.56072000  0.29988000  0.41276000  1.0
  O  O447  1  0.06072000  0.20012000  0.58725000  1.0
  O  O448  1  0.10406000  0.07418000  0.63088000  1.0
  O  O449  1  0.60406000  0.42582000  0.36912000  1.0
  O  O450  1  0.89594000  0.92582000  0.36912000  1.0
  O  O451  1  0.39594000  0.57418000  0.63088000  1.0
