# generated using pymatgen
data_H16PbC25(NO3)2
_symmetry_space_group_name_H-M   'P 1'
_cell_length_a   8.32322000
_cell_length_b   10.48170000
_cell_length_c   12.47470000
_cell_angle_alpha   84.67170000
_cell_angle_beta   76.87100000
_cell_angle_gamma   86.40800000
_symmetry_Int_Tables_number   1
_chemical_formula_structural   H16PbC25(NO3)2
_chemical_formula_sum   'H32 Pb2 C50 N4 O12'
_cell_volume   1054.31486384
_cell_formula_units_Z   2
loop_
 _symmetry_equiv_pos_site_id
 _symmetry_equiv_pos_as_xyz
  1  'x, y, z'
loop_
 _atom_site_type_symbol
 _atom_site_label
 _atom_site_symmetry_multiplicity
 _atom_site_fract_x
 _atom_site_fract_y
 _atom_site_fract_z
 _atom_site_occupancy
  H  H0  1  0.43306000  0.59760000  0.98943000  1.0
  H  H1  1  0.56695000  0.40240000  0.01057000  1.0
  H  H2  1  0.43442000  0.10072000  0.57238000  1.0
  H  H3  1  0.56558000  0.89928000  0.42762000  1.0
  H  H4  1  0.49632000  0.11029000  0.90345000  1.0
  H  H5  1  0.50369000  0.88971000  0.09654000  1.0
  H  H6  1  0.24667000  0.98048000  0.97319000  1.0
  H  H7  1  0.75333000  0.01953000  0.02681000  1.0
  H  H8  1  0.20266000  0.74221000  0.93990000  1.0
  H  H9  1  0.79735000  0.25779000  0.06010000  1.0
  H  H10  1  0.97281000  0.59553000  0.00868000  1.0
  H  H11  1  0.02720000  0.40447000  0.99132000  1.0
  H  H12  1  0.65064000  0.85884000  0.86085000  1.0
  H  H13  1  0.34936000  0.14115000  0.13915000  1.0
  H  H14  1  0.87989000  0.00432000  0.79014000  1.0
  H  H15  1  0.12011000  0.99568000  0.20986000  1.0
  H  H16  1  0.33198000  0.55148000  0.49731000  1.0
  H  H17  1  0.66803000  0.44853000  0.50269000  1.0
  H  H18  1  0.40616000  0.35326000  0.60993000  1.0
  H  H19  1  0.59385000  0.64675000  0.39007000  1.0
  H  H20  1  0.18818000  0.26796000  0.77172000  1.0
  H  H21  1  0.81182000  0.73205000  0.22828000  1.0
  H  H22  1  0.90736000  0.37347000  0.80621000  1.0
  H  H23  1  0.09264000  0.62653000  0.19379000  1.0
  H  H24  1  0.67579000  0.41506000  0.77484000  1.0
  H  H25  1  0.32421000  0.58495000  0.22515000  1.0
  H  H26  1  0.39744000  0.52511000  0.78910000  1.0
  H  H27  1  0.60256000  0.47489000  0.21090000  1.0
  H  H28  1  0.37538000  0.74490000  0.69394000  1.0
  H  H29  1  0.62462000  0.25510000  0.30605000  1.0
  H  H30  1  0.63891000  0.84909000  0.59266000  1.0
  H  H31  1  0.36108000  0.15091000  0.40734000  1.0
  Pb  Pb32  1  0.04359000  0.78009000  0.47678000  1.0
  Pb  Pb33  1  0.95641000  0.21991000  0.52322000  1.0
  C  C34  1  0.18387000  0.94396000  0.61229000  1.0
  C  C35  1  0.81612000  0.05604000  0.38772000  1.0
  C  C36  1  0.25621000  0.99747000  0.69766000  1.0
  C  C37  1  0.74379000  0.00253000  0.30234000  1.0
  C  C38  1  0.39236000  0.07441000  0.66039000  1.0
  C  C39  1  0.60764000  0.92559000  0.33961000  1.0
  C  C40  1  0.48044000  0.11413000  0.73350000  1.0
  C  C41  1  0.51956000  0.88587000  0.26650000  1.0
  C  C42  1  0.63296000  0.18975000  0.69062000  1.0
  C  C43  1  0.36704000  0.81025000  0.30938000  1.0
  C  C44  1  0.42785000  0.07868000  0.84655000  1.0
  C  C45  1  0.57215000  0.92132000  0.15345000  1.0
  C  C46  1  0.28959000  0.00514000  0.88490000  1.0
  C  C47  1  0.71042000  0.99486000  0.11510000  1.0
  C  C48  1  0.20217000  0.96256000  0.81203000  1.0
  C  C49  1  0.79783000  0.03744000  0.18797000  1.0
  C  C50  1  0.05923000  0.88112000  0.85735000  1.0
  C  C51  1  0.94077000  0.11888000  0.14266000  1.0
  C  C52  1  0.08158000  0.76759000  0.92262000  1.0
  C  C53  1  0.91842000  0.23241000  0.07738000  1.0
  C  C54  1  0.95305000  0.68503000  0.96089000  1.0
  C  C55  1  0.04695000  0.31497000  0.03912000  1.0
  C  C56  1  0.79739000  0.71646000  0.93778000  1.0
  C  C57  1  0.20261000  0.28353000  0.06222000  1.0
  C  C58  1  0.66599000  0.62345000  0.97302000  1.0
  C  C59  1  0.33401000  0.37654000  0.02698000  1.0
  C  C60  1  0.77204000  0.83306000  0.87739000  1.0
  C  C61  1  0.22797000  0.16693000  0.12261000  1.0
  C  C62  1  0.90198000  0.91409000  0.83687000  1.0
  C  C63  1  0.09802000  0.08591000  0.16314000  1.0
  C  C64  1  0.24181000  0.50681000  0.56571000  1.0
  C  C65  1  0.75819000  0.49320000  0.43429000  1.0
  C  C66  1  0.28243000  0.39852000  0.62955000  1.0
  C  C67  1  0.71756000  0.60148000  0.37045000  1.0
  C  C68  1  0.16113000  0.35103000  0.71836000  1.0
  C  C69  1  0.83887000  0.64898000  0.28164000  1.0
  C  C70  1  0.00365000  0.41006000  0.73797000  1.0
  C  C71  1  0.99635000  0.58994000  0.26203000  1.0
  C  C72  1  0.97042000  0.51567000  0.66747000  1.0
  C  C73  1  0.02958000  0.48433000  0.33253000  1.0
  C  C74  1  0.80278000  0.57685000  0.67953000  1.0
  C  C75  1  0.19722000  0.42315000  0.32046000  1.0
  C  C76  1  0.66292000  0.51238000  0.73793000  1.0
  C  C77  1  0.33708000  0.48762000  0.26207000  1.0
  C  C78  1  0.50787000  0.57319000  0.74411000  1.0
  C  C79  1  0.49213000  0.42681000  0.25588000  1.0
  C  C80  1  0.49510000  0.69588000  0.69230000  1.0
  C  C81  1  0.50489000  0.30412000  0.30770000  1.0
  C  C82  1  0.63998000  0.75328000  0.63525000  1.0
  C  C83  1  0.36001000  0.24672000  0.36475000  1.0
  N  N84  1  0.09031000  0.56351000  0.58376000  1.0
  N  N85  1  0.90969000  0.43649000  0.41623000  1.0
  N  N86  1  0.78967000  0.69503000  0.62844000  1.0
  N  N87  1  0.21033000  0.30498000  0.37156000  1.0
  O  O88  1  0.13415000  0.82903000  0.63420000  1.0
  O  O89  1  0.86584000  0.17098000  0.36581000  1.0
  O  O90  1  0.17987000  0.00996000  0.52226000  1.0
  O  O91  1  0.82013000  0.99004000  0.47774000  1.0
  O  O92  1  0.64941000  0.24670000  0.59268000  1.0
  O  O93  1  0.35059000  0.75330000  0.40732000  1.0
  O  O94  1  0.73701000  0.19107000  0.75004000  1.0
  O  O95  1  0.26299000  0.80893000  0.24995000  1.0
  O  O96  1  0.51379000  0.67096000  0.97617000  1.0
  O  O97  1  0.48621000  0.32903000  0.02384000  1.0
  O  O98  1  0.69791000  0.50716000  0.99657000  1.0
  O  O99  1  0.30209000  0.49284000  0.00343000  1.0
