# generated using pymatgen
data_ZnH9(CN)7
_symmetry_space_group_name_H-M   'P 1'
_cell_length_a   6.09247000
_cell_length_b   8.52094000
_cell_length_c   20.38660000
_cell_angle_alpha   90.00030000
_cell_angle_beta   90.00010000
_cell_angle_gamma   89.30710000
_symmetry_Int_Tables_number   1
_chemical_formula_structural   ZnH9(CN)7
_chemical_formula_sum   'Zn4 H36 C28 N28'
_cell_volume   1058.26382284
_cell_formula_units_Z   4
loop_
 _symmetry_equiv_pos_site_id
 _symmetry_equiv_pos_as_xyz
  1  'x, y, z'
loop_
 _atom_site_type_symbol
 _atom_site_label
 _atom_site_symmetry_multiplicity
 _atom_site_fract_x
 _atom_site_fract_y
 _atom_site_fract_z
 _atom_site_occupancy
  Zn  Zn0  1  0.74347000  0.94392000  0.98154000  1.0
  Zn  Zn1  1  0.25653000  0.55609000  0.48154000  1.0
  Zn  Zn2  1  0.25654000  0.05609000  0.01846000  1.0
  Zn  Zn3  1  0.74346000  0.44390000  0.51846000  1.0
  H  H4  1  0.02975000  0.67047000  0.95775000  1.0
  H  H5  1  0.97026000  0.82953000  0.45775000  1.0
  H  H6  1  0.97026000  0.32954000  0.04225000  1.0
  H  H7  1  0.02974000  0.17046000  0.54225000  1.0
  H  H8  1  0.93242000  0.53800000  0.75627000  1.0
  H  H9  1  0.06758000  0.96199000  0.25627000  1.0
  H  H10  1  0.06758000  0.46200000  0.24374000  1.0
  H  H11  1  0.93242000  0.03801000  0.74373000  1.0
  H  H12  1  0.55581000  0.90831000  0.84832000  1.0
  H  H13  1  0.44419000  0.59169000  0.34832000  1.0
  H  H14  1  0.44419000  0.09170000  0.15168000  1.0
  H  H15  1  0.55580000  0.40830000  0.65167000  1.0
  H  H16  1  0.16137000  0.40139000  0.91272000  1.0
  H  H17  1  0.83862000  0.09862000  0.41272000  1.0
  H  H18  1  0.83862000  0.59862000  0.08729000  1.0
  H  H19  1  0.16137000  0.90138000  0.58729000  1.0
  H  H20  1  0.34234000  0.51190000  0.86386000  1.0
  H  H21  1  0.65767000  0.98810000  0.36386000  1.0
  H  H22  1  0.65767000  0.48810000  0.13615000  1.0
  H  H23  1  0.34232000  0.01190000  0.63615000  1.0
  H  H24  1  0.16621000  0.37365000  0.82612000  1.0
  H  H25  1  0.83380000  0.12635000  0.32612000  1.0
  H  H26  1  0.83381000  0.62635000  0.17388000  1.0
  H  H27  1  0.16619000  0.87365000  0.67388000  1.0
  H  H28  1  0.47268000  0.66466000  0.72509000  1.0
  H  H29  1  0.52731000  0.83534000  0.22509000  1.0
  H  H30  1  0.52731000  0.33534000  0.27490000  1.0
  H  H31  1  0.47269000  0.16466000  0.77490000  1.0
  H  H32  1  0.70862000  0.74539000  0.68797000  1.0
  H  H33  1  0.29138000  0.75461000  0.18797000  1.0
  H  H34  1  0.29138000  0.25461000  0.31203000  1.0
  H  H35  1  0.70861000  0.24540000  0.81203000  1.0
  H  H36  1  0.51992000  0.86834000  0.73118000  1.0
  H  H37  1  0.48008000  0.63165000  0.23117000  1.0
  H  H38  1  0.48009000  0.13166000  0.26882000  1.0
  H  H39  1  0.51990000  0.36835000  0.76882000  1.0
  C  C40  1  0.94863000  0.68373000  0.91032000  1.0
  C  C41  1  0.05137000  0.81627000  0.41032000  1.0
  C  C42  1  0.05138000  0.31628000  0.08968000  1.0
  C  C43  1  0.94863000  0.18372000  0.58968000  1.0
  C  C44  1  0.00387000  0.58614000  0.85763000  1.0
  C  C45  1  0.99614000  0.91386000  0.35763000  1.0
  C  C46  1  0.99614000  0.41386000  0.14237000  1.0
  C  C47  1  0.00386000  0.08614000  0.64237000  1.0
  C  C48  1  0.89073000  0.61004000  0.79885000  1.0
  C  C49  1  0.10927000  0.88996000  0.29885000  1.0
  C  C50  1  0.10927000  0.38997000  0.20115000  1.0
  C  C51  1  0.89073000  0.11004000  0.70115000  1.0
  C  C52  1  0.72727000  0.72637000  0.79347000  1.0
  C  C53  1  0.27272000  0.77363000  0.29347000  1.0
  C  C54  1  0.27273000  0.27363000  0.20653000  1.0
  C  C55  1  0.72728000  0.22637000  0.70653000  1.0
  C  C56  1  0.68251000  0.81661000  0.84906000  1.0
  C  C57  1  0.31748000  0.68339000  0.34906000  1.0
  C  C58  1  0.31749000  0.18339000  0.15094000  1.0
  C  C59  1  0.68251000  0.31661000  0.65094000  1.0
  C  C60  1  0.17716000  0.46127000  0.86530000  1.0
  C  C61  1  0.82285000  0.03873000  0.36530000  1.0
  C  C62  1  0.82285000  0.53873000  0.13470000  1.0
  C  C63  1  0.17714000  0.96127000  0.63470000  1.0
  C  C64  1  0.60142000  0.75304000  0.73119000  1.0
  C  C65  1  0.39857000  0.74696000  0.23119000  1.0
  C  C66  1  0.39857000  0.24696000  0.26881000  1.0
  C  C67  1  0.60142000  0.25305000  0.76881000  1.0
  N  N68  1  0.94563000  0.91360000  0.05855000  1.0
  N  N69  1  0.05437000  0.58640000  0.55855000  1.0
  N  N70  1  0.05438000  0.08640000  0.94145000  1.0
  N  N71  1  0.94562000  0.41360000  0.44145000  1.0
  N  N72  1  0.87690000  0.94301000  0.11293000  1.0
  N  N73  1  0.12311000  0.55699000  0.61294000  1.0
  N  N74  1  0.12311000  0.05699000  0.88706000  1.0
  N  N75  1  0.87689000  0.44301000  0.38706000  1.0
  N  N76  1  0.81674000  0.97132000  0.16583000  1.0
  N  N77  1  0.18327000  0.52867000  0.66583000  1.0
  N  N78  1  0.18327000  0.02868000  0.83417000  1.0
  N  N79  1  0.81673000  0.47133000  0.33417000  1.0
  N  N80  1  0.55511000  0.13963000  0.97535000  1.0
  N  N81  1  0.44489000  0.36037000  0.47535000  1.0
  N  N82  1  0.44490000  0.86039000  0.02465000  1.0
  N  N83  1  0.55510000  0.63961000  0.52465000  1.0
  N  N84  1  0.61670000  0.27223000  0.96486000  1.0
  N  N85  1  0.38329000  0.22776000  0.46486000  1.0
  N  N86  1  0.38331000  0.72778000  0.03514000  1.0
  N  N87  1  0.61670000  0.77222000  0.53515000  1.0
  N  N88  1  0.67397000  0.39907000  0.95483000  1.0
  N  N89  1  0.32603000  0.10094000  0.45483000  1.0
  N  N90  1  0.32604000  0.60095000  0.04517000  1.0
  N  N91  1  0.67396000  0.89905000  0.54517000  1.0
  N  N92  1  0.79182000  0.79556000  0.90603000  1.0
  N  N93  1  0.20819000  0.70444000  0.40603000  1.0
  N  N94  1  0.20820000  0.20445000  0.09397000  1.0
  N  N95  1  0.79181000  0.29556000  0.59397000  1.0
