# generated using pymatgen
data_RbH6C6NO4
_symmetry_space_group_name_H-M   'P 1'
_cell_length_a   7.26564000
_cell_length_b   11.06330000
_cell_length_c   19.72400000
_cell_angle_alpha   90.00000000
_cell_angle_beta   90.00000000
_cell_angle_gamma   90.00000000
_symmetry_Int_Tables_number   1
_chemical_formula_structural   RbH6C6NO4
_chemical_formula_sum   'Rb8 H48 C48 N8 O32'
_cell_volume   1585.45368066
_cell_formula_units_Z   8
loop_
 _symmetry_equiv_pos_site_id
 _symmetry_equiv_pos_as_xyz
  1  'x, y, z'
loop_
 _atom_site_type_symbol
 _atom_site_label
 _atom_site_symmetry_multiplicity
 _atom_site_fract_x
 _atom_site_fract_y
 _atom_site_fract_z
 _atom_site_occupancy
  Rb  Rb0  1  0.90959000  0.15775000  0.48160000  1.0
  Rb  Rb1  1  0.40959000  0.34225000  0.51840000  1.0
  Rb  Rb2  1  0.09041000  0.65775000  0.01840000  1.0
  Rb  Rb3  1  0.59041000  0.84225000  0.98160000  1.0
  Rb  Rb4  1  0.09041000  0.84225000  0.51840000  1.0
  Rb  Rb5  1  0.59042000  0.65775000  0.48160000  1.0
  Rb  Rb6  1  0.90959000  0.34225000  0.98160000  1.0
  Rb  Rb7  1  0.40958000  0.15775000  0.01840000  1.0
  H  H8  1  0.48138000  0.94323000  0.65391000  1.0
  H  H9  1  0.98138000  0.55677000  0.34610000  1.0
  H  H10  1  0.51863000  0.44323000  0.84610000  1.0
  H  H11  1  0.01862000  0.05677000  0.15390000  1.0
  H  H12  1  0.51862000  0.05677000  0.34610000  1.0
  H  H13  1  0.01861000  0.44323000  0.65390000  1.0
  H  H14  1  0.48138000  0.55678000  0.15391000  1.0
  H  H15  1  0.98138000  0.94322000  0.84610000  1.0
  H  H16  1  0.48531000  0.95215000  0.78026000  1.0
  H  H17  1  0.98531000  0.54786000  0.21974000  1.0
  H  H18  1  0.51470000  0.45214000  0.71975000  1.0
  H  H19  1  0.01470000  0.04785000  0.28025000  1.0
  H  H20  1  0.51470000  0.04785000  0.21975000  1.0
  H  H21  1  0.01471000  0.45215000  0.78025000  1.0
  H  H22  1  0.48529000  0.54785000  0.28026000  1.0
  H  H23  1  0.98529000  0.95215000  0.71974000  1.0
  H  H24  1  0.72397000  0.30829000  0.77299000  1.0
  H  H25  1  0.22397000  0.19171000  0.22702000  1.0
  H  H26  1  0.27603000  0.80829000  0.72702000  1.0
  H  H27  1  0.77604000  0.69171000  0.27298000  1.0
  H  H28  1  0.27603000  0.69171000  0.22702000  1.0
  H  H29  1  0.77605000  0.80829000  0.77298000  1.0
  H  H30  1  0.72396000  0.19171000  0.27299000  1.0
  H  H31  1  0.22396000  0.30829000  0.72701000  1.0
  H  H32  1  0.71927000  0.30226000  0.64640000  1.0
  H  H33  1  0.21928000  0.19774000  0.35360000  1.0
  H  H34  1  0.28071000  0.80226000  0.85360000  1.0
  H  H35  1  0.78073000  0.69774000  0.14640000  1.0
  H  H36  1  0.28071000  0.69775000  0.35360000  1.0
  H  H37  1  0.78072000  0.80226000  0.64640000  1.0
  H  H38  1  0.71928000  0.19775000  0.14640000  1.0
  H  H39  1  0.21928000  0.30226000  0.85360000  1.0
  H  H40  1  0.84869000  0.48609000  0.54172000  1.0
  H  H41  1  0.34869000  0.01391000  0.45828000  1.0
  H  H42  1  0.15131000  0.98609000  0.95828000  1.0
  H  H43  1  0.65131000  0.51391000  0.04172000  1.0
  H  H44  1  0.15131000  0.51391000  0.45828000  1.0
  H  H45  1  0.65131000  0.98609000  0.54173000  1.0
  H  H46  1  0.84869000  0.01391000  0.04172000  1.0
  H  H47  1  0.34869000  0.48609000  0.95828000  1.0
  H  H48  1  0.88749000  0.41349000  0.47547000  1.0
  H  H49  1  0.38749000  0.08651000  0.52453000  1.0
  H  H50  1  0.11251000  0.91349000  0.02453000  1.0
  H  H51  1  0.61251000  0.58651000  0.97547000  1.0
  H  H52  1  0.11251000  0.58651000  0.52453000  1.0
  H  H53  1  0.61251000  0.91349000  0.47547000  1.0
  H  H54  1  0.88749000  0.08651000  0.97547000  1.0
  H  H55  1  0.38749000  0.41349000  0.02453000  1.0
  C  C56  1  0.59446000  0.12390000  0.64065000  1.0
  C  C57  1  0.09447000  0.37610000  0.35935000  1.0
  C  C58  1  0.40553000  0.62390000  0.85935000  1.0
  C  C59  1  0.90553000  0.87610000  0.14064000  1.0
  C  C60  1  0.40553000  0.87611000  0.35935000  1.0
  C  C61  1  0.90554000  0.62390000  0.64064000  1.0
  C  C62  1  0.59447000  0.37611000  0.14065000  1.0
  C  C63  1  0.09447000  0.12389000  0.85935000  1.0
  C  C64  1  0.53351000  0.02294000  0.68028000  1.0
  C  C65  1  0.03351000  0.47706000  0.31972000  1.0
  C  C66  1  0.46649000  0.52294000  0.81972000  1.0
  C  C67  1  0.96649000  0.97706000  0.18027000  1.0
  C  C68  1  0.46649000  0.97706000  0.31973000  1.0
  C  C69  1  0.96649000  0.52294000  0.68027000  1.0
  C  C70  1  0.53351000  0.47706000  0.18028000  1.0
  C  C71  1  0.03351000  0.02294000  0.81972000  1.0
  C  C72  1  0.53592000  0.02719000  0.74995000  1.0
  C  C73  1  0.03593000  0.47281000  0.25006000  1.0
  C  C74  1  0.46408000  0.52718000  0.75006000  1.0
  C  C75  1  0.96408000  0.97281000  0.24994000  1.0
  C  C76  1  0.46408000  0.97282000  0.25006000  1.0
  C  C77  1  0.96409000  0.52719000  0.74994000  1.0
  C  C78  1  0.53592000  0.47281000  0.24994000  1.0
  C  C79  1  0.03592000  0.02718000  0.75006000  1.0
  C  C80  1  0.60073000  0.13159000  0.78322000  1.0
  C  C81  1  0.10073000  0.36841000  0.21678000  1.0
  C  C82  1  0.39927000  0.63159000  0.71678000  1.0
  C  C83  1  0.89927000  0.86841000  0.28321000  1.0
  C  C84  1  0.39927000  0.86841000  0.21679000  1.0
  C  C85  1  0.89928000  0.63159000  0.78321000  1.0
  C  C86  1  0.60073000  0.36841000  0.28322000  1.0
  C  C87  1  0.10073000  0.13159000  0.71678000  1.0
  C  C88  1  0.66864000  0.23061000  0.74596000  1.0
  C  C89  1  0.16864000  0.26939000  0.25404000  1.0
  C  C90  1  0.33136000  0.73060000  0.75405000  1.0
  C  C91  1  0.83137000  0.76939000  0.24595000  1.0
  C  C92  1  0.33136000  0.76939000  0.25405000  1.0
  C  C93  1  0.83137000  0.73061000  0.74595000  1.0
  C  C94  1  0.66864000  0.26939000  0.24596000  1.0
  C  C95  1  0.16864000  0.23061000  0.75404000  1.0
  C  C96  1  0.66557000  0.22697000  0.67622000  1.0
  C  C97  1  0.16557000  0.27303000  0.32378000  1.0
  C  C98  1  0.33442000  0.72696000  0.82378000  1.0
  C  C99  1  0.83443000  0.77303000  0.17621000  1.0
  C  C100  1  0.33443000  0.77303000  0.32379000  1.0
  C  C101  1  0.83444000  0.72697000  0.67621000  1.0
  C  C102  1  0.66558000  0.27304000  0.17622000  1.0
  C  C103  1  0.16558000  0.22697000  0.82378000  1.0
  N  N104  1  0.59153000  0.13756000  0.85455000  1.0
  N  N105  1  0.09153000  0.36244000  0.14545000  1.0
  N  N106  1  0.40847000  0.63756000  0.64545000  1.0
  N  N107  1  0.90847000  0.86244000  0.35455000  1.0
  N  N108  1  0.40847000  0.86244000  0.14545000  1.0
  N  N109  1  0.90847000  0.63756000  0.85455000  1.0
  N  N110  1  0.59153000  0.36244000  0.35455000  1.0
  N  N111  1  0.09153000  0.13756000  0.64545000  1.0
  O  O112  1  0.58637000  0.12279000  0.57484000  1.0
  O  O113  1  0.08637000  0.37721000  0.42516000  1.0
  O  O114  1  0.41363000  0.62279000  0.92516000  1.0
  O  O115  1  0.91362000  0.87721000  0.07484000  1.0
  O  O116  1  0.41363000  0.87721000  0.42516000  1.0
  O  O117  1  0.91362000  0.62280000  0.57484000  1.0
  O  O118  1  0.58637000  0.37721000  0.07484000  1.0
  O  O119  1  0.08638000  0.12279000  0.92516000  1.0
  O  O120  1  0.53122000  0.04753000  0.88695000  1.0
  O  O121  1  0.03121000  0.45247000  0.11305000  1.0
  O  O122  1  0.46878000  0.54753000  0.61306000  1.0
  O  O123  1  0.96878000  0.95247000  0.38694000  1.0
  O  O124  1  0.46879000  0.95247000  0.11306000  1.0
  O  O125  1  0.96878000  0.54753000  0.88694000  1.0
  O  O126  1  0.53121000  0.45247000  0.38695000  1.0
  O  O127  1  0.03122000  0.04753000  0.61305000  1.0
  O  O128  1  0.63885000  0.23350000  0.88464000  1.0
  O  O129  1  0.13885000  0.26651000  0.11537000  1.0
  O  O130  1  0.36115000  0.73349000  0.61537000  1.0
  O  O131  1  0.86114000  0.76651000  0.38463000  1.0
  O  O132  1  0.36115000  0.76651000  0.11537000  1.0
  O  O133  1  0.86116000  0.73349000  0.88463000  1.0
  O  O134  1  0.63885000  0.26651000  0.38464000  1.0
  O  O135  1  0.13885000  0.23349000  0.61537000  1.0
  O  O136  1  0.79822000  0.41944000  0.51325000  1.0
  O  O137  1  0.29823000  0.08056000  0.48675000  1.0
  O  O138  1  0.20178000  0.91944000  0.98675000  1.0
  O  O139  1  0.70178000  0.58056000  0.01325000  1.0
  O  O140  1  0.20178000  0.58056000  0.48675000  1.0
  O  O141  1  0.70178000  0.91944000  0.51325000  1.0
  O  O142  1  0.79823000  0.08056000  0.01325000  1.0
  O  O143  1  0.29822000  0.41944000  0.98675000  1.0
