# generated using pymatgen
data_MnH8(C4N9)2
_symmetry_space_group_name_H-M   'P 1'
_cell_length_a   6.39430000
_cell_length_b   10.03770000
_cell_length_c   12.10630000
_cell_angle_alpha   75.62100000
_cell_angle_beta   89.99970000
_cell_angle_gamma   89.99930000
_symmetry_Int_Tables_number   1
_chemical_formula_structural   MnH8(C4N9)2
_chemical_formula_sum   'Mn2 H16 C16 N36'
_cell_volume   752.69044802
_cell_formula_units_Z   2
loop_
 _symmetry_equiv_pos_site_id
 _symmetry_equiv_pos_as_xyz
  1  'x, y, z'
loop_
 _atom_site_type_symbol
 _atom_site_label
 _atom_site_symmetry_multiplicity
 _atom_site_fract_x
 _atom_site_fract_y
 _atom_site_fract_z
 _atom_site_occupancy
  Mn  Mn0  1  0.99998000  0.50000000  0.99999000  1.0
  Mn  Mn1  1  0.49998000  0.99999000  0.00001000  1.0
  H  H2  1  0.42741000  0.48881000  0.62844000  1.0
  H  H3  1  0.92744000  0.01122000  0.37155000  1.0
  H  H4  1  0.57256000  0.51121000  0.37155000  1.0
  H  H5  1  0.07258000  0.98879000  0.62844000  1.0
  H  H6  1  0.39720000  0.72749000  0.87243000  1.0
  H  H7  1  0.89716000  0.77250000  0.12758000  1.0
  H  H8  1  0.60281000  0.27251000  0.12757000  1.0
  H  H9  1  0.10284000  0.22751000  0.87242000  1.0
  H  H10  1  0.89022000  0.60283000  0.71194000  1.0
  H  H11  1  0.39022000  0.89715000  0.28806000  1.0
  H  H12  1  0.10977000  0.39716000  0.28806000  1.0
  H  H13  1  0.60979000  0.10285000  0.71195000  1.0
  H  H14  1  0.41919000  0.89843000  0.58436000  1.0
  H  H15  1  0.91916000  0.60159000  0.41563000  1.0
  H  H16  1  0.58082000  0.10158000  0.41564000  1.0
  H  H17  1  0.08084000  0.39841000  0.58436000  1.0
  C  C18  1  0.38326000  0.52099000  0.70433000  1.0
  C  C19  1  0.88326000  0.97902000  0.29566000  1.0
  C  C20  1  0.61674000  0.47901000  0.29566000  1.0
  C  C21  1  0.11675000  0.02098000  0.70434000  1.0
  C  C22  1  0.37022000  0.64401000  0.83190000  1.0
  C  C23  1  0.87020000  0.85600000  0.16810000  1.0
  C  C24  1  0.62978000  0.35599000  0.16810000  1.0
  C  C25  1  0.12980000  0.14401000  0.83189000  1.0
  C  C26  1  0.81845000  0.69712000  0.66284000  1.0
  C  C27  1  0.31844000  0.80288000  0.33716000  1.0
  C  C28  1  0.18156000  0.30288000  0.33715000  1.0
  C  C29  1  0.68156000  0.19713000  0.66285000  1.0
  C  C30  1  0.57246000  0.85052000  0.59827000  1.0
  C  C31  1  0.07243000  0.64948000  0.40173000  1.0
  C  C32  1  0.42756000  0.14949000  0.40173000  1.0
  C  C33  1  0.92757000  0.35052000  0.59826000  1.0
  N  N34  1  0.24076000  0.53946000  0.86281000  1.0
  N  N35  1  0.74075000  0.96055000  0.13719000  1.0
  N  N36  1  0.75923000  0.46055000  0.13718000  1.0
  N  N37  1  0.25926000  0.03946000  0.86281000  1.0
  N  N38  1  0.24904000  0.46134000  0.78287000  1.0
  N  N39  1  0.74903000  0.03868000  0.21712000  1.0
  N  N40  1  0.75094000  0.53867000  0.21712000  1.0
  N  N41  1  0.25097000  0.96133000  0.78288000  1.0
  N  N42  1  0.46146000  0.63636000  0.73150000  1.0
  N  N43  1  0.96145000  0.86366000  0.26850000  1.0
  N  N44  1  0.53854000  0.36364000  0.26850000  1.0
  N  N45  1  0.03856000  0.13635000  0.73150000  1.0
  N  N46  1  0.60863000  0.72381000  0.67039000  1.0
  N  N47  1  0.10862000  0.77620000  0.32960000  1.0
  N  N48  1  0.39137000  0.27620000  0.32960000  1.0
  N  N49  1  0.89139000  0.22380000  0.67040000  1.0
  N  N50  1  0.90589000  0.80202000  0.59096000  1.0
  N  N51  1  0.40587000  0.69797000  0.40904000  1.0
  N  N52  1  0.09411000  0.19798000  0.40905000  1.0
  N  N53  1  0.59413000  0.30203000  0.59097000  1.0
  N  N54  1  0.74982000  0.89985000  0.55080000  1.0
  N  N55  1  0.24979000  0.60014000  0.44920000  1.0
  N  N56  1  0.25019000  0.10016000  0.44920000  1.0
  N  N57  1  0.75021000  0.39986000  0.55081000  1.0
  N  N58  1  0.78617000  0.42270000  0.88609000  1.0
  N  N59  1  0.28612000  0.07725000  0.11390000  1.0
  N  N60  1  0.21380000  0.57727000  0.11390000  1.0
  N  N61  1  0.71388000  0.92274000  0.88611000  1.0
  N  N62  1  0.69637000  0.31570000  0.90925000  1.0
  N  N63  1  0.19641000  0.18426000  0.09077000  1.0
  N  N64  1  0.30360000  0.68428000  0.09075000  1.0
  N  N65  1  0.80360000  0.81573000  0.90923000  1.0
  N  N66  1  0.60529000  0.21036000  0.93074000  1.0
  N  N67  1  0.10538000  0.28966000  0.06929000  1.0
  N  N68  1  0.39469000  0.78962000  0.06927000  1.0
  N  N69  1  0.89463000  0.71034000  0.93070000  1.0
