# generated using pymatgen
data_AgH16C18N3O4
_symmetry_space_group_name_H-M   'P 1'
_cell_length_a   7.51428000
_cell_length_b   8.24014000
_cell_length_c   13.73770000
_cell_angle_alpha   106.77200000
_cell_angle_beta   94.36480000
_cell_angle_gamma   94.08220000
_symmetry_Int_Tables_number   1
_chemical_formula_structural   AgH16C18N3O4
_chemical_formula_sum   'Ag2 H32 C36 N6 O8'
_cell_volume   808.19907449
_cell_formula_units_Z   2
loop_
 _symmetry_equiv_pos_site_id
 _symmetry_equiv_pos_as_xyz
  1  'x, y, z'
loop_
 _atom_site_type_symbol
 _atom_site_label
 _atom_site_symmetry_multiplicity
 _atom_site_fract_x
 _atom_site_fract_y
 _atom_site_fract_z
 _atom_site_occupancy
  Ag  Ag0  1  0.32844000  0.98985000  0.54876000  1.0
  Ag  Ag1  1  0.67156000  0.01015000  0.45124000  1.0
  H  H2  1  0.71187000  0.37399000  0.24654000  1.0
  H  H3  1  0.28814000  0.62601000  0.75346000  1.0
  H  H4  1  0.57830000  0.48802000  0.18581000  1.0
  H  H5  1  0.42170000  0.51197000  0.81419000  1.0
  H  H6  1  0.49043000  0.73391000  0.65523000  1.0
  H  H7  1  0.50958000  0.26610000  0.34477000  1.0
  H  H8  1  0.66621000  0.75524000  0.82195000  1.0
  H  H9  1  0.33380000  0.24475000  0.17805000  1.0
  H  H10  1  0.76485000  0.03946000  0.94364000  1.0
  H  H11  1  0.23515000  0.96055000  0.05636000  1.0
  H  H12  1  0.50106000  0.25924000  0.72795000  1.0
  H  H13  1  0.49894000  0.74076000  0.27205000  1.0
  H  H14  1  0.69186000  0.44202000  0.85949000  1.0
  H  H15  1  0.30813000  0.55799000  0.14051000  1.0
  H  H16  1  0.64342000  0.21909000  0.06027000  1.0
  H  H17  1  0.35657000  0.78090000  0.93972000  1.0
  H  H18  1  0.87737000  0.27878000  0.08996000  1.0
  H  H19  1  0.12263000  0.72122000  0.91004000  1.0
  H  H20  1  0.19893000  0.31272000  0.52271000  1.0
  H  H21  1  0.80108000  0.68727000  0.47729000  1.0
  H  H22  1  0.02178000  0.41497000  0.39571000  1.0
  H  H23  1  0.97823000  0.58503000  0.60429000  1.0
  H  H24  1  0.88983000  0.19984000  0.23073000  1.0
  H  H25  1  0.11018000  0.80016000  0.76928000  1.0
  H  H26  1  0.10508000  0.80970000  0.34440000  1.0
  H  H27  1  0.89492000  0.19029000  0.65560000  1.0
  H  H28  1  0.88587000  0.92497000  0.11453000  1.0
  H  H29  1  0.11412000  0.07503000  0.88548000  1.0
  H  H30  1  0.98836000  0.54929000  0.23540000  1.0
  H  H31  1  0.01164000  0.45071000  0.76459000  1.0
  H  H32  1  0.83157000  0.67742000  0.30123000  1.0
  H  H33  1  0.16843000  0.32258000  0.69877000  1.0
  C  C34  1  0.79544000  0.61280000  0.04039000  1.0
  C  C35  1  0.20454000  0.38721000  0.95961000  1.0
  C  C36  1  0.71269000  0.44423000  0.18982000  1.0
  C  C37  1  0.28731000  0.55577000  0.81018000  1.0
  C  C38  1  0.53066000  0.85668000  0.71212000  1.0
  C  C39  1  0.46935000  0.14332000  0.28787000  1.0
  C  C40  1  0.62864000  0.86998000  0.80484000  1.0
  C  C41  1  0.37137000  0.13002000  0.19515000  1.0
  C  C42  1  0.68232000  0.03027000  0.87332000  1.0
  C  C43  1  0.31768000  0.96973000  0.12667000  1.0
  C  C44  1  0.63815000  0.17707000  0.84759000  1.0
  C  C45  1  0.36185000  0.82293000  0.15241000  1.0
  C  C46  1  0.53775000  0.15068000  0.75265000  1.0
  C  C47  1  0.46225000  0.84932000  0.24735000  1.0
  C  C48  1  0.69312000  0.35345000  0.90544000  1.0
  C  C49  1  0.30688000  0.64655000  0.09457000  1.0
  C  C50  1  0.74316000  0.42454000  0.00681000  1.0
  C  C51  1  0.25683000  0.57546000  0.99319000  1.0
  C  C52  1  0.74535000  0.32932000  0.08518000  1.0
  C  C53  1  0.25465000  0.67068000  0.91482000  1.0
  C  C54  1  0.13214000  0.22346000  0.45282000  1.0
  C  C55  1  0.86787000  0.77654000  0.54718000  1.0
  C  C56  1  0.03347000  0.27939000  0.38103000  1.0
  C  C57  1  0.96654000  0.72061000  0.61897000  1.0
  C  C58  1  0.96115000  0.16037000  0.29073000  1.0
  C  C59  1  0.03886000  0.83963000  0.70928000  1.0
  C  C60  1  0.97948000  0.98590000  0.27434000  1.0
  C  C61  1  0.02052000  0.01410000  0.72565000  1.0
  C  C62  1  0.07943000  0.94077000  0.35171000  1.0
  C  C63  1  0.92057000  0.05923000  0.64828000  1.0
  C  C64  1  0.90626000  0.86771000  0.17670000  1.0
  C  C65  1  0.09374000  0.13229000  0.82330000  1.0
  C  C66  1  0.85704000  0.69791000  0.15106000  1.0
  C  C67  1  0.14295000  0.30209000  0.84894000  1.0
  C  C68  1  0.85546000  0.59535000  0.22545000  1.0
  C  C69  1  0.14454000  0.40465000  0.77455000  1.0
  N  N70  1  0.34757000  0.60669000  0.39320000  1.0
  N  N71  1  0.65244000  0.39331000  0.60680000  1.0
  N  N72  1  0.48446000  0.99613000  0.68713000  1.0
  N  N73  1  0.51554000  0.00387000  0.31286000  1.0
  N  N74  1  0.15643000  0.05756000  0.43753000  1.0
  N  N75  1  0.84357000  0.94244000  0.56247000  1.0
  O  O76  1  0.28855000  0.51653000  0.30355000  1.0
  O  O77  1  0.71146000  0.48348000  0.69645000  1.0
  O  O78  1  0.23703000  0.66428000  0.45814000  1.0
  O  O79  1  0.76298000  0.33571000  0.54187000  1.0
  O  O80  1  0.51466000  0.64256000  0.41809000  1.0
  O  O81  1  0.48535000  0.35744000  0.58191000  1.0
  O  O82  1  0.79183000  0.69608000  0.97779000  1.0
  O  O83  1  0.20813000  0.30392000  0.02221000  1.0
