# generated using pymatgen
data_Zn4H26C47S10(N2O9)2
_symmetry_space_group_name_H-M   'P 1'
_cell_length_a   11.44560000
_cell_length_b   12.73670000
_cell_length_c   23.91200000
_cell_angle_alpha   90.14880000
_cell_angle_beta   89.72360000
_cell_angle_gamma   89.94470000
_symmetry_Int_Tables_number   1
_chemical_formula_structural   Zn4H26C47S10(N2O9)2
_chemical_formula_sum   'Zn4 H26 C47 S10 N4 O18'
_cell_volume   3485.81761450
_cell_formula_units_Z   1
loop_
 _symmetry_equiv_pos_site_id
 _symmetry_equiv_pos_as_xyz
  1  'x, y, z'
loop_
 _atom_site_type_symbol
 _atom_site_label
 _atom_site_symmetry_multiplicity
 _atom_site_fract_x
 _atom_site_fract_y
 _atom_site_fract_z
 _atom_site_occupancy
  Zn  Zn0  1  0.62105000  0.50001000  0.49894000  1.0
  Zn  Zn1  1  0.37847000  0.49696000  0.49876000  1.0
  Zn  Zn2  1  0.37758000  0.50244000  0.96621000  1.0
  Zn  Zn3  1  0.62040000  0.49886000  0.96371000  1.0
  H  H4  1  0.16653000  0.60158000  0.56516000  1.0
  H  H5  1  0.30847000  0.85775000  0.49872000  1.0
  H  H6  1  0.76887000  0.57254000  0.78643000  1.0
  H  H7  1  0.76847000  0.43228000  0.78695000  1.0
  H  H8  1  0.77357000  0.43102000  0.68182000  1.0
  H  H9  1  0.77369000  0.57115000  0.68164000  1.0
  H  H10  1  0.68913000  0.50065000  0.15611000  1.0
  H  H11  1  0.83200000  0.60136000  0.89841000  1.0
  H  H12  1  0.69122000  0.86022000  0.96560000  1.0
  H  H13  1  0.79071000  0.42848000  0.38517000  1.0
  H  H14  1  0.89722000  0.33035000  0.40164000  1.0
  H  H15  1  0.75552000  0.33091000  0.43439000  1.0
  H  H16  1  0.73757000  0.20763000  0.53072000  1.0
  H  H17  1  0.77479000  0.07209000  0.52134000  1.0
  H  H18  1  0.75726000  0.15546000  0.46269000  1.0
  H  H19  1  0.25644000  0.56651000  0.33668000  1.0
  H  H20  1  0.21996000  0.50359000  0.27216000  1.0
  H  H21  1  0.25583000  0.42865000  0.33272000  1.0
  H  H22  1  0.20879000  0.43142000  0.07978000  1.0
  H  H23  1  0.10137000  0.33394000  0.06358000  1.0
  H  H24  1  0.24237000  0.33343000  0.03021000  1.0
  H  H25  1  0.26060000  0.20895000  0.93292000  1.0
  H  H26  1  0.22384000  0.07354000  0.94251000  1.0
  H  H27  1  0.24130000  0.15777000  0.00105000  1.0
  H  H28  1  0.30893000  0.49626000  0.63437000  1.0
  H  H29  1  0.29994000  0.49835000  0.82689000  1.0
  C  C30  1  0.49200000  0.70325000  0.50142000  1.0
  C  C31  1  0.50270000  0.49827000  0.60990000  1.0
  C  C32  1  0.50007000  0.29247000  0.49862000  1.0
  C  C33  1  0.49891000  0.50041000  0.38896000  1.0
  C  C34  1  0.50844000  0.70525000  0.96308000  1.0
  C  C35  1  0.49294000  0.50103000  0.85413000  1.0
  C  C36  1  0.49801000  0.29465000  0.96462000  1.0
  C  C37  1  0.50461000  0.50188000  0.07473000  1.0
  C  C38  1  0.87287000  0.44817000  0.46435000  1.0
  C  C39  1  0.12753000  0.55168000  0.53326000  1.0
  C  C40  1  0.00751000  0.53619000  0.52188000  1.0
  C  C41  1  0.99226000  0.46611000  0.47689000  1.0
  C  C42  1  0.59671000  0.10893000  0.50252000  1.0
  C  C43  1  0.39790000  0.88620000  0.50020000  1.0
  C  C44  1  0.50142000  0.17694000  0.50006000  1.0
  C  C45  1  0.49275000  0.81893000  0.50194000  1.0
  C  C46  1  0.43441000  0.99217000  0.50031000  1.0
  C  C47  1  0.55678000  0.00366000  0.50237000  1.0
  C  C48  1  0.49419000  0.50196000  0.79247000  1.0
  C  C49  1  0.49946000  0.50031000  0.67155000  1.0
  C  C50  1  0.59894000  0.50247000  0.76165000  1.0
  C  C51  1  0.39182000  0.50042000  0.70139000  1.0
  C  C52  1  0.60159000  0.50160000  0.70390000  1.0
  C  C53  1  0.38924000  0.50112000  0.76114000  1.0
  C  C54  1  0.73084000  0.50213000  0.76696000  1.0
  C  C55  1  0.73395000  0.50130000  0.70079000  1.0
  C  C56  1  0.40264000  0.50065000  0.29177000  1.0
  C  C57  1  0.59981000  0.50093000  0.17180000  1.0
  C  C58  1  0.49852000  0.50073000  0.32740000  1.0
  C  C59  1  0.50459000  0.50178000  0.13644000  1.0
  C  C60  1  0.56399000  0.50079000  0.22846000  1.0
  C  C61  1  0.44162000  0.50099000  0.23544000  1.0
  C  C62  1  0.12536000  0.45142000  0.00091000  1.0
  C  C63  1  0.87118000  0.55246000  0.93058000  1.0
  C  C64  1  0.99102000  0.53813000  0.94278000  1.0
  C  C65  1  0.00599000  0.46827000  0.98773000  1.0
  C  C66  1  0.40189000  0.11084000  0.96119000  1.0
  C  C67  1  0.60163000  0.88845000  0.96403000  1.0
  C  C68  1  0.49687000  0.17906000  0.96340000  1.0
  C  C69  1  0.50707000  0.82095000  0.96245000  1.0
  C  C70  1  0.56468000  0.99435000  0.96359000  1.0
  C  C71  1  0.44223000  0.00561000  0.96154000  1.0
  C  C72  1  0.82727000  0.37994000  0.41875000  1.0
  C  C73  1  0.72338000  0.13782000  0.50480000  1.0
  C  C74  1  0.27671000  0.50000000  0.30899000  1.0
  C  C75  1  0.17124000  0.38309000  0.04626000  1.0
  C  C76  1  0.27511000  0.13955000  0.95895000  1.0
  S  S77  1  0.87280000  0.57467000  0.54607000  1.0
  S  S78  1  0.12563000  0.42486000  0.45281000  1.0
  S  S79  1  0.36665000  0.11295000  0.49847000  1.0
  S  S80  1  0.62642000  0.88358000  0.50384000  1.0
  S  S81  1  0.63269000  0.50150000  0.29245000  1.0
  S  S82  1  0.37136000  0.50264000  0.17179000  1.0
  S  S83  1  0.12575000  0.57865000  0.91986000  1.0
  S  S84  1  0.87235000  0.42644000  0.01108000  1.0
  S  S85  1  0.63191000  0.11528000  0.96505000  1.0
  S  S86  1  0.37315000  0.88536000  0.96033000  1.0
  N  N87  1  0.80240000  0.50184000  0.49868000  1.0
  N  N88  1  0.19751000  0.49695000  0.49961000  1.0
  N  N89  1  0.19600000  0.50603000  0.96730000  1.0
  N  N90  1  0.80106000  0.49742000  0.96375000  1.0
  O  O91  1  0.59191000  0.65833000  0.50186000  1.0
  O  O92  1  0.39284000  0.65773000  0.50034000  1.0
  O  O93  1  0.40297000  0.49717000  0.58421000  1.0
  O  O94  1  0.60094000  0.49744000  0.58507000  1.0
  O  O95  1  0.39977000  0.33673000  0.49856000  1.0
  O  O96  1  0.59846000  0.33991000  0.49733000  1.0
  O  O97  1  0.59852000  0.50370000  0.41283000  1.0
  O  O98  1  0.39987000  0.49681000  0.41370000  1.0
  O  O99  1  0.40870000  0.66002000  0.96185000  1.0
  O  O100  1  0.60764000  0.66000000  0.96497000  1.0
  O  O101  1  0.59032000  0.50299000  0.87938000  1.0
  O  O102  1  0.39227000  0.49778000  0.87914000  1.0
  O  O103  1  0.59819000  0.33879000  0.96361000  1.0
  O  O104  1  0.39959000  0.34227000  0.96685000  1.0
  O  O105  1  0.40442000  0.50650000  0.05140000  1.0
  O  O106  1  0.60314000  0.49723000  0.04993000  1.0
  O  O107  1  0.28735000  0.49903000  0.67523000  1.0
  O  O108  1  0.28266000  0.50022000  0.78576000  1.0
