# generated using pymatgen
data_CdH12C18S2(NO)6
_symmetry_space_group_name_H-M   'P 1'
_cell_length_a   4.62696000
_cell_length_b   8.11095000
_cell_length_c   26.65200000
_cell_angle_alpha   90.00000000
_cell_angle_beta   90.00000000
_cell_angle_gamma   104.67000000
_symmetry_Int_Tables_number   1
_chemical_formula_structural   CdH12C18S2(NO)6
_chemical_formula_sum   'Cd2 H24 C36 S4 N12 O12'
_cell_volume   967.61719141
_cell_formula_units_Z   2
loop_
 _symmetry_equiv_pos_site_id
 _symmetry_equiv_pos_as_xyz
  1  'x, y, z'
loop_
 _atom_site_type_symbol
 _atom_site_label
 _atom_site_symmetry_multiplicity
 _atom_site_fract_x
 _atom_site_fract_y
 _atom_site_fract_z
 _atom_site_occupancy
  Cd  Cd0  1  0.50000000  0.00000000  0.00000000  1.0
  Cd  Cd1  1  0.50000000  0.50000000  0.50000000  1.0
  H  H2  1  0.51741000  0.56292000  0.37854000  1.0
  H  H3  1  0.48259000  0.93708000  0.87854000  1.0
  H  H4  1  0.48259000  0.43707000  0.62146000  1.0
  H  H5  1  0.51741000  0.06293000  0.12146000  1.0
  H  H6  1  0.99319000  0.85367000  0.49308000  1.0
  H  H7  1  0.00681000  0.64633000  0.99308000  1.0
  H  H8  1  0.00680000  0.14633000  0.50692000  1.0
  H  H9  1  0.99320000  0.35367000  0.00692000  1.0
  H  H10  1  0.32289000  0.05044000  0.43336000  1.0
  H  H11  1  0.67711000  0.44956000  0.93336000  1.0
  H  H12  1  0.67711000  0.94956000  0.56664000  1.0
  H  H13  1  0.32290000  0.55044000  0.06664000  1.0
  H  H14  1  0.25182000  0.99198000  0.33997000  1.0
  H  H15  1  0.74818000  0.50802000  0.83997000  1.0
  H  H16  1  0.74819000  0.00802000  0.66003000  1.0
  H  H17  1  0.25182000  0.49198000  0.16003000  1.0
  H  H18  1  0.56499000  0.77892000  0.13110000  1.0
  H  H19  1  0.43501000  0.72108000  0.63110000  1.0
  H  H20  1  0.43501000  0.22108000  0.86890000  1.0
  H  H21  1  0.56499000  0.27892000  0.36890000  1.0
  H  H22  1  0.75568000  0.61643000  0.12268000  1.0
  H  H23  1  0.24432000  0.88357000  0.62268000  1.0
  H  H24  1  0.24432000  0.38357000  0.87732000  1.0
  H  H25  1  0.75568000  0.11643000  0.37732000  1.0
  C  C26  1  0.87544000  0.77415000  0.35224000  1.0
  C  C27  1  0.12456000  0.72585000  0.85224000  1.0
  C  C28  1  0.12456000  0.22585000  0.64776000  1.0
  C  C29  1  0.87544000  0.27416000  0.14776000  1.0
  C  C30  1  0.69996000  0.67100000  0.38896000  1.0
  C  C31  1  0.30004000  0.82899000  0.88896000  1.0
  C  C32  1  0.30004000  0.32899000  0.61104000  1.0
  C  C33  1  0.69996000  0.17101000  0.11104000  1.0
  C  C34  1  0.96389000  0.83492000  0.45290000  1.0
  C  C35  1  0.03612000  0.66508000  0.95290000  1.0
  C  C36  1  0.03611000  0.16508000  0.54710000  1.0
  C  C37  1  0.96389000  0.33493000  0.04710000  1.0
  C  C38  1  0.14963000  0.94310000  0.41908000  1.0
  C  C39  1  0.85037000  0.55690000  0.91908000  1.0
  C  C40  1  0.85036000  0.05690000  0.58092000  1.0
  C  C41  1  0.14963000  0.44310000  0.08092000  1.0
  C  C42  1  0.10908000  0.91163000  0.36786000  1.0
  C  C43  1  0.89092000  0.58837000  0.86786000  1.0
  C  C44  1  0.89093000  0.08836000  0.63214000  1.0
  C  C45  1  0.10908000  0.41164000  0.13214000  1.0
  C  C46  1  0.81483000  0.73846000  0.29944000  1.0
  C  C47  1  0.18517000  0.76154000  0.79944000  1.0
  C  C48  1  0.18517000  0.26154000  0.70056000  1.0
  C  C49  1  0.81482000  0.23847000  0.20056000  1.0
  C  C50  1  0.88372000  0.76948000  0.22016000  1.0
  C  C51  1  0.11628000  0.73052000  0.72016000  1.0
  C  C52  1  0.11628000  0.23051000  0.77983000  1.0
  C  C53  1  0.88372000  0.26948000  0.27984000  1.0
  C  C54  1  0.78163000  0.75468000  0.12187000  1.0
  C  C55  1  0.21836000  0.74532000  0.62187000  1.0
  C  C56  1  0.21836000  0.24532000  0.87813000  1.0
  C  C57  1  0.78163000  0.25468000  0.37813000  1.0
  C  C58  1  0.88338000  0.82276000  0.06971000  1.0
  C  C59  1  0.11662000  0.67724000  0.56971000  1.0
  C  C60  1  0.11662000  0.17724000  0.93029000  1.0
  C  C61  1  0.88338000  0.32276000  0.43029000  1.0
  S  S62  1  0.06205000  0.85992000  0.16645000  1.0
  S  S63  1  0.93794000  0.64008000  0.66645000  1.0
  S  S64  1  0.93794000  0.14008000  0.83355000  1.0
  S  S65  1  0.06206000  0.35991000  0.33355000  1.0
  N  N66  1  0.74599000  0.69959000  0.43822000  1.0
  N  N67  1  0.25401000  0.80041000  0.93822000  1.0
  N  N68  1  0.25401000  0.30041000  0.56178000  1.0
  N  N69  1  0.74599000  0.19959000  0.06178000  1.0
  N  N70  1  0.59856000  0.62531000  0.27782000  1.0
  N  N71  1  0.40144000  0.87469000  0.77782000  1.0
  N  N72  1  0.40144000  0.37469000  0.72218000  1.0
  N  N73  1  0.59855000  0.12531000  0.22217000  1.0
  N  N74  1  0.64161000  0.64437000  0.22613000  1.0
  N  N75  1  0.35839000  0.85563000  0.72613000  1.0
  N  N76  1  0.35839000  0.35563000  0.77387000  1.0
  N  N77  1  0.64161000  0.14437000  0.27387000  1.0
  O  O78  1  0.00600000  0.83538000  0.26486000  1.0
  O  O79  1  0.99401000  0.66462000  0.76486000  1.0
  O  O80  1  0.99401000  0.16462000  0.73513000  1.0
  O  O81  1  0.00599000  0.33539000  0.23514000  1.0
  O  O82  1  0.68870000  0.78534000  0.03517000  1.0
  O  O83  1  0.31129000  0.71466000  0.53517000  1.0
  O  O84  1  0.31130000  0.21466000  0.96483000  1.0
  O  O85  1  0.68871000  0.28534000  0.46483000  1.0
  O  O86  1  0.15197000  0.90909000  0.06523000  1.0
  O  O87  1  0.84803000  0.59091000  0.56523000  1.0
  O  O88  1  0.84803000  0.09091000  0.93477000  1.0
  O  O89  1  0.15197000  0.40909000  0.43477000  1.0
