# generated using pymatgen
data_CdH14C23Br4N6O5
_symmetry_space_group_name_H-M   'P 1'
_cell_length_a   10.74590000
_cell_length_b   11.95610000
_cell_length_c   12.06150000
_cell_angle_alpha   90.78540000
_cell_angle_beta   108.82200000
_cell_angle_gamma   110.61800000
_symmetry_Int_Tables_number   1
_chemical_formula_structural   CdH14C23Br4N6O5
_chemical_formula_sum   'Cd2 H28 C46 Br8 N12 O10'
_cell_volume   1358.58313907
_cell_formula_units_Z   2
loop_
 _symmetry_equiv_pos_site_id
 _symmetry_equiv_pos_as_xyz
  1  'x, y, z'
loop_
 _atom_site_type_symbol
 _atom_site_label
 _atom_site_symmetry_multiplicity
 _atom_site_fract_x
 _atom_site_fract_y
 _atom_site_fract_z
 _atom_site_occupancy
  Cd  Cd0  1  0.33863000  0.33431000  0.12817000  1.0
  Cd  Cd1  1  0.66137000  0.66569000  0.87183000  1.0
  H  H2  1  0.12406000  0.38599000  0.27644000  1.0
  H  H3  1  0.87594000  0.61401000  0.72356000  1.0
  H  H4  1  0.26727000  0.10027000  0.29351000  1.0
  H  H5  1  0.73274000  0.89973000  0.70649000  1.0
  H  H6  1  0.12643000  0.08180000  0.45499000  1.0
  H  H7  1  0.87357000  0.91820000  0.54501000  1.0
  H  H8  1  0.15415000  0.22628000  0.61583000  1.0
  H  H9  1  0.84585000  0.77372000  0.38417000  1.0
  H  H10  1  0.83552000  0.35123000  0.64867000  1.0
  H  H11  1  0.16448000  0.64877000  0.35133000  1.0
  H  H12  1  0.89383000  0.32561000  0.30990000  1.0
  H  H13  1  0.10617000  0.67439000  0.69010000  1.0
  H  H14  1  0.24923000  0.39680000  0.84078000  1.0
  H  H15  1  0.75077000  0.60320000  0.15922000  1.0
  H  H16  1  0.99336000  0.13991000  0.99279000  1.0
  H  H17  1  0.00664000  0.86009000  0.00721000  1.0
  H  H18  1  0.83632000  0.12696000  0.75528000  1.0
  H  H19  1  0.16368000  0.87304000  0.24472000  1.0
  H  H20  1  0.73180000  0.47192000  0.57545000  1.0
  H  H21  1  0.26820000  0.52808000  0.42455000  1.0
  H  H22  1  0.50389000  0.50178000  0.40488000  1.0
  H  H23  1  0.49611000  0.49822000  0.59512000  1.0
  H  H24  1  0.66837000  0.30901000  0.23540000  1.0
  H  H25  1  0.33163000  0.69100000  0.76460000  1.0
  H  H26  1  0.51122000  0.28736000  0.02568000  1.0
  H  H27  1  0.48878000  0.71264000  0.97432000  1.0
  H  H28  1  0.53766000  0.40221000  0.95641000  1.0
  H  H29  1  0.46234000  0.59779000  0.04359000  1.0
  C  C30  1  0.14168000  0.30463000  0.30167000  1.0
  C  C31  1  0.85832000  0.69537000  0.69833000  1.0
  C  C32  1  0.21638000  0.15657000  0.31557000  1.0
  C  C33  1  0.78362000  0.84343000  0.68443000  1.0
  C  C34  1  0.14734000  0.14657000  0.39499000  1.0
  C  C35  1  0.85266000  0.85343000  0.60501000  1.0
  C  C36  1  0.02989000  0.27255000  0.45537000  1.0
  C  C37  1  0.97011000  0.72745000  0.54463000  1.0
  C  C38  1  0.06887000  0.25816000  0.57501000  1.0
  C  C39  1  0.93114000  0.74184000  0.42499000  1.0
  C  C40  1  0.99683000  0.28683000  0.64168000  1.0
  C  C41  1  0.00317000  0.71317000  0.35832000  1.0
  C  C42  1  0.88886000  0.32987000  0.59278000  1.0
  C  C43  1  0.11114000  0.67013000  0.40722000  1.0
  C  C44  1  0.85322000  0.34487000  0.47310000  1.0
  C  C45  1  0.14678000  0.65513000  0.52690000  1.0
  C  C46  1  0.92324000  0.31655000  0.40368000  1.0
  C  C47  1  0.07676000  0.68345000  0.59632000  1.0
  C  C48  1  0.15993000  0.32508000  0.85157000  1.0
  C  C49  1  0.84007000  0.67493000  0.14843000  1.0
  C  C50  1  0.02278000  0.19183000  0.92601000  1.0
  C  C51  1  0.97722000  0.80817000  0.07399000  1.0
  C  C52  1  0.94392000  0.18372000  0.80925000  1.0
  C  C53  1  0.05608000  0.81629000  0.19074000  1.0
  C  C54  1  0.68709000  0.44609000  0.48032000  1.0
  C  C55  1  0.31291000  0.55391000  0.51968000  1.0
  C  C56  1  0.57315000  0.45758000  0.39578000  1.0
  C  C57  1  0.42685000  0.54242000  0.60422000  1.0
  C  C58  1  0.65666000  0.36091000  0.30316000  1.0
  C  C59  1  0.34334000  0.63909000  0.69684000  1.0
  C  C60  1  0.41039000  0.09626000  0.10210000  1.0
  C  C61  1  0.58960000  0.90374000  0.89790000  1.0
  C  C62  1  0.38577000  0.96510000  0.11867000  1.0
  C  C63  1  0.61423000  0.03490000  0.88133000  1.0
  C  C64  1  0.45699000  0.93604000  0.22658000  1.0
  C  C65  1  0.54301000  0.06396000  0.77342000  1.0
  C  C66  1  0.43157000  0.81550000  0.24309000  1.0
  C  C67  1  0.56843000  0.18450000  0.75691000  1.0
  C  C68  1  0.33120000  0.72182000  0.15315000  1.0
  C  C69  1  0.66880000  0.27818000  0.84685000  1.0
  C  C70  1  0.25923000  0.75069000  0.04531000  1.0
  C  C71  1  0.74078000  0.24931000  0.95470000  1.0
  C  C72  1  0.28786000  0.87131000  0.02769000  1.0
  C  C73  1  0.71214000  0.12869000  0.97231000  1.0
  C  C74  1  0.29771000  0.59115000  0.17482000  1.0
  C  C75  1  0.70229000  0.40884000  0.82518000  1.0
  Br  Br76  1  0.58616000  0.06285000  0.35255000  1.0
  Br  Br77  1  0.41384000  0.93716000  0.64745000  1.0
  Br  Br78  1  0.53248000  0.77663000  0.38867000  1.0
  Br  Br79  1  0.46752000  0.22338000  0.61133000  1.0
  Br  Br80  1  0.11768000  0.62118000  0.92786000  1.0
  Br  Br81  1  0.88232000  0.37882000  0.07215000  1.0
  Br  Br82  1  0.19558000  0.91277000  0.88077000  1.0
  Br  Br83  1  0.80442000  0.08722000  0.11923000  1.0
  N  N84  1  0.21291000  0.25598000  0.25896000  1.0
  N  N85  1  0.78709000  0.74402000  0.74104000  1.0
  N  N86  1  0.10004000  0.24164000  0.38571000  1.0
  N  N87  1  0.89996000  0.75836000  0.61429000  1.0
  N  N88  1  0.03233000  0.26846000  0.76267000  1.0
  N  N89  1  0.96767000  0.73154000  0.23733000  1.0
  N  N90  1  0.15571000  0.28057000  0.95096000  1.0
  N  N91  1  0.84429000  0.71943000  0.04904000  1.0
  N  N92  1  0.74090000  0.38499000  0.42067000  1.0
  N  N93  1  0.25910000  0.61501000  0.57933000  1.0
  N  N94  1  0.55477000  0.40335000  0.28661000  1.0
  N  N95  1  0.44522000  0.59665000  0.71339000  1.0
  O  O96  1  0.51418000  0.15467000  0.07237000  1.0
  O  O97  1  0.48582000  0.84533000  0.92763000  1.0
  O  O98  1  0.49755000  0.36548000  0.01637000  1.0
  O  O99  1  0.50245000  0.63452000  0.98363000  1.0
  O  O100  1  0.32124000  0.13282000  0.12230000  1.0
  O  O101  1  0.67875000  0.86718000  0.87770000  1.0
  O  O102  1  0.36359000  0.53684000  0.13849000  1.0
  O  O103  1  0.63641000  0.46316000  0.86152000  1.0
  O  O104  1  0.21100000  0.55016000  0.22713000  1.0
  O  O105  1  0.78900000  0.44983000  0.77287000  1.0
