# generated using pymatgen
data_ZnH20C33N2(O2F3)2
_symmetry_space_group_name_H-M   'P 1'
_cell_length_a   7.14768000
_cell_length_b   21.99580000
_cell_length_c   23.61830000
_cell_angle_alpha   89.99940000
_cell_angle_beta   90.00040000
_cell_angle_gamma   89.99940000
_symmetry_Int_Tables_number   1
_chemical_formula_structural   ZnH20C33N2(O2F3)2
_chemical_formula_sum   'Zn4 H80 C132 N8 O16 F24'
_cell_volume   3713.24408406
_cell_formula_units_Z   4
loop_
 _symmetry_equiv_pos_site_id
 _symmetry_equiv_pos_as_xyz
  1  'x, y, z'
loop_
 _atom_site_type_symbol
 _atom_site_label
 _atom_site_symmetry_multiplicity
 _atom_site_fract_x
 _atom_site_fract_y
 _atom_site_fract_z
 _atom_site_occupancy
  Zn  Zn0  1  0.48081000  0.29406000  0.17783000  1.0
  Zn  Zn1  1  0.48083000  0.70594000  0.82217000  1.0
  Zn  Zn2  1  0.51918000  0.20593000  0.67783000  1.0
  Zn  Zn3  1  0.51917000  0.79406000  0.32217000  1.0
  H  H4  1  0.26344000  0.64961000  0.44813000  1.0
  H  H5  1  0.26343000  0.35038000  0.55187000  1.0
  H  H6  1  0.73654000  0.85038000  0.94813000  1.0
  H  H7  1  0.73657000  0.14962000  0.05187000  1.0
  H  H8  1  0.50976000  0.57255000  0.46726000  1.0
  H  H9  1  0.50976000  0.42745000  0.53275000  1.0
  H  H10  1  0.49022000  0.92745000  0.96725000  1.0
  H  H11  1  0.49025000  0.07255000  0.03274000  1.0
  H  H12  1  0.54864000  0.48419000  0.40310000  1.0
  H  H13  1  0.54863000  0.51580000  0.59690000  1.0
  H  H14  1  0.45134000  0.01580000  0.90310000  1.0
  H  H15  1  0.45138000  0.98420000  0.09690000  1.0
  H  H16  1  0.09994000  0.55111000  0.29857000  1.0
  H  H17  1  0.09993000  0.44889000  0.70143000  1.0
  H  H18  1  0.90005000  0.94889000  0.79858000  1.0
  H  H19  1  0.90007000  0.05111000  0.20143000  1.0
  H  H20  1  0.16632000  0.72881000  0.39283000  1.0
  H  H21  1  0.16630000  0.27118000  0.60716000  1.0
  H  H22  1  0.83368000  0.77119000  0.89283000  1.0
  H  H23  1  0.83368000  0.22881000  0.10717000  1.0
  H  H24  1  0.90503000  0.80003000  0.37407000  1.0
  H  H25  1  0.90501000  0.19997000  0.62593000  1.0
  H  H26  1  0.09497000  0.69997000  0.87407000  1.0
  H  H27  1  0.09495000  0.30003000  0.12593000  1.0
  H  H28  1  0.57380000  0.66408000  0.30617000  1.0
  H  H29  1  0.57379000  0.33592000  0.69383000  1.0
  H  H30  1  0.42619000  0.83592000  0.80618000  1.0
  H  H31  1  0.42621000  0.16408000  0.19382000  1.0
  H  H32  1  0.81526000  0.58469000  0.32590000  1.0
  H  H33  1  0.81527000  0.41530000  0.67411000  1.0
  H  H34  1  0.18472000  0.91531000  0.82590000  1.0
  H  H35  1  0.18474000  0.08469000  0.17410000  1.0
  H  H36  1  0.65532000  0.45567000  0.31920000  1.0
  H  H37  1  0.65533000  0.54433000  0.68080000  1.0
  H  H38  1  0.34467000  0.04433000  0.81920000  1.0
  H  H39  1  0.34467000  0.95567000  0.18079000  1.0
  H  H40  1  0.69826000  0.36877000  0.25238000  1.0
  H  H41  1  0.69827000  0.63122000  0.74762000  1.0
  H  H42  1  0.30172000  0.13122000  0.75238000  1.0
  H  H43  1  0.30173000  0.86877000  0.24762000  1.0
  H  H44  1  0.13025000  0.36436000  0.21559000  1.0
  H  H45  1  0.13027000  0.63564000  0.78441000  1.0
  H  H46  1  0.86973000  0.13564000  0.71558000  1.0
  H  H47  1  0.86974000  0.86435000  0.28441000  1.0
  H  H48  1  0.06403000  0.44951000  0.28069000  1.0
  H  H49  1  0.06405000  0.55049000  0.71931000  1.0
  H  H50  1  0.93595000  0.05049000  0.78069000  1.0
  H  H51  1  0.93596000  0.94951000  0.21931000  1.0
  H  H52  1  0.28326000  0.16287000  0.34796000  1.0
  H  H53  1  0.28327000  0.83712000  0.65203000  1.0
  H  H54  1  0.71675000  0.33713000  0.84796000  1.0
  H  H55  1  0.71674000  0.66288000  0.15204000  1.0
  H  H56  1  0.13830000  0.24698000  0.29285000  1.0
  H  H57  1  0.13829000  0.75302000  0.70715000  1.0
  H  H58  1  0.86172000  0.25303000  0.79285000  1.0
  H  H59  1  0.86171000  0.74698000  0.20715000  1.0
  H  H60  1  0.64000000  0.14098000  0.27222000  1.0
  H  H61  1  0.64001000  0.85902000  0.72777000  1.0
  H  H62  1  0.36002000  0.35902000  0.77223000  1.0
  H  H63  1  0.36000000  0.64098000  0.22777000  1.0
  H  H64  1  0.78075000  0.05649000  0.32557000  1.0
  H  H65  1  0.78078000  0.94351000  0.67443000  1.0
  H  H66  1  0.21925000  0.44351000  0.82558000  1.0
  H  H67  1  0.21925000  0.55649000  0.17443000  1.0
  H  H68  1  0.49642000  0.02604000  0.42157000  1.0
  H  H69  1  0.49645000  0.97395000  0.57844000  1.0
  H  H70  1  0.50358000  0.47396000  0.92156000  1.0
  H  H71  1  0.50356000  0.52605000  0.07844000  1.0
  H  H72  1  0.63672000  0.07180000  0.50728000  1.0
  H  H73  1  0.63675000  0.92820000  0.49272000  1.0
  H  H74  1  0.36326000  0.42821000  0.00728000  1.0
  H  H75  1  0.36325000  0.57180000  0.99272000  1.0
  H  H76  1  0.14716000  0.18145000  0.53160000  1.0
  H  H77  1  0.14719000  0.81856000  0.46840000  1.0
  H  H78  1  0.85282000  0.31856000  0.03160000  1.0
  H  H79  1  0.85283000  0.68145000  0.96840000  1.0
  H  H80  1  0.00770000  0.13902000  0.44431000  1.0
  H  H81  1  0.00772000  0.86098000  0.55569000  1.0
  H  H82  1  0.99230000  0.36098000  0.94432000  1.0
  H  H83  1  0.99229000  0.63902000  0.05569000  1.0
  C  C84  1  0.16173000  0.60453000  0.37284000  1.0
  C  C85  1  0.16172000  0.39546000  0.62716000  1.0
  C  C86  1  0.83827000  0.89547000  0.87285000  1.0
  C  C87  1  0.83829000  0.10453000  0.12716000  1.0
  C  C88  1  0.28143000  0.61106000  0.41963000  1.0
  C  C89  1  0.28143000  0.38893000  0.58038000  1.0
  C  C90  1  0.71855000  0.88893000  0.91963000  1.0
  C  C91  1  0.71858000  0.11106000  0.08037000  1.0
  C  C92  1  0.41971000  0.56785000  0.43023000  1.0
  C  C93  1  0.41972000  0.43214000  0.56977000  1.0
  C  C94  1  0.58026000  0.93214000  0.93023000  1.0
  C  C95  1  0.58030000  0.06785000  0.06977000  1.0
  C  C96  1  0.44223000  0.51837000  0.39399000  1.0
  C  C97  1  0.44224000  0.48162000  0.60601000  1.0
  C  C98  1  0.55775000  0.98163000  0.89399000  1.0
  C  C99  1  0.55778000  0.01837000  0.10601000  1.0
  C  C100  1  0.32616000  0.51140000  0.34630000  1.0
  C  C101  1  0.32616000  0.48859000  0.65370000  1.0
  C  C102  1  0.67382000  0.98859000  0.84630000  1.0
  C  C103  1  0.67383000  0.01140000  0.15370000  1.0
  C  C104  1  0.18590000  0.55466000  0.33655000  1.0
  C  C105  1  0.18590000  0.44534000  0.66345000  1.0
  C  C106  1  0.81409000  0.94534000  0.83656000  1.0
  C  C107  1  0.81410000  0.05466000  0.16345000  1.0
  C  C108  1  0.01303000  0.64948000  0.36173000  1.0
  C  C109  1  0.01301000  0.35052000  0.63827000  1.0
  C  C110  1  0.98697000  0.85052000  0.86173000  1.0
  C  C111  1  0.98698000  0.14948000  0.13827000  1.0
  C  C112  1  0.03594000  0.71110000  0.37543000  1.0
  C  C113  1  0.03593000  0.28890000  0.62457000  1.0
  C  C114  1  0.96406000  0.78890000  0.87543000  1.0
  C  C115  1  0.96406000  0.21110000  0.12457000  1.0
  C  C116  1  0.89304000  0.75195000  0.36366000  1.0
  C  C117  1  0.89303000  0.24805000  0.63634000  1.0
  C  C118  1  0.10696000  0.74805000  0.86365000  1.0
  C  C119  1  0.10695000  0.25195000  0.13635000  1.0
  C  C120  1  0.70724000  0.67539000  0.32590000  1.0
  C  C121  1  0.70725000  0.32460000  0.67410000  1.0
  C  C122  1  0.29275000  0.82461000  0.82590000  1.0
  C  C123  1  0.29275000  0.17539000  0.17410000  1.0
  C  C124  1  0.84288000  0.63198000  0.33679000  1.0
  C  C125  1  0.84288000  0.36802000  0.66321000  1.0
  C  C126  1  0.15712000  0.86802000  0.83680000  1.0
  C  C127  1  0.15712000  0.13198000  0.16321000  1.0
  C  C128  1  0.35473000  0.46031000  0.30667000  1.0
  C  C129  1  0.35473000  0.53968000  0.69333000  1.0
  C  C130  1  0.64526000  0.03969000  0.80666000  1.0
  C  C131  1  0.64527000  0.96031000  0.19333000  1.0
  C  C132  1  0.53417000  0.43629000  0.29789000  1.0
  C  C133  1  0.53417000  0.56371000  0.70211000  1.0
  C  C134  1  0.46582000  0.06371000  0.79789000  1.0
  C  C135  1  0.46583000  0.93629000  0.20211000  1.0
  C  C136  1  0.56056000  0.38876000  0.26027000  1.0
  C  C137  1  0.56058000  0.61124000  0.73973000  1.0
  C  C138  1  0.43941000  0.11124000  0.76027000  1.0
  C  C139  1  0.43942000  0.88876000  0.23973000  1.0
  C  C140  1  0.24357000  0.38612000  0.23881000  1.0
  C  C141  1  0.24359000  0.61388000  0.76119000  1.0
  C  C142  1  0.75641000  0.11388000  0.73881000  1.0
  C  C143  1  0.75641000  0.88611000  0.26119000  1.0
  C  C144  1  0.20767000  0.43384000  0.27584000  1.0
  C  C145  1  0.20768000  0.56615000  0.72417000  1.0
  C  C146  1  0.79231000  0.06615000  0.77583000  1.0
  C  C147  1  0.79232000  0.93384000  0.22417000  1.0
  C  C148  1  0.14092000  0.05287000  0.37452000  1.0
  C  C149  1  0.14091000  0.94712000  0.62549000  1.0
  C  C150  1  0.85909000  0.44713000  0.87452000  1.0
  C  C151  1  0.85908000  0.55288000  0.12549000  1.0
  C  C152  1  0.04295000  0.10352000  0.34085000  1.0
  C  C153  1  0.04295000  0.89647000  0.65915000  1.0
  C  C154  1  0.95706000  0.39648000  0.84085000  1.0
  C  C155  1  0.95705000  0.60353000  0.15915000  1.0
  C  C156  1  0.14247000  0.15759000  0.33097000  1.0
  C  C157  1  0.14248000  0.84240000  0.66903000  1.0
  C  C158  1  0.85755000  0.34241000  0.83097000  1.0
  C  C159  1  0.85753000  0.65759000  0.16903000  1.0
  C  C160  1  0.06193000  0.20489000  0.30048000  1.0
  C  C161  1  0.06194000  0.79511000  0.69952000  1.0
  C  C162  1  0.93807000  0.29512000  0.80048000  1.0
  C  C163  1  0.93807000  0.70489000  0.19952000  1.0
  C  C164  1  0.88020000  0.19918000  0.27914000  1.0
  C  C165  1  0.88022000  0.80081000  0.72086000  1.0
  C  C166  1  0.11982000  0.30083000  0.77914000  1.0
  C  C167  1  0.11980000  0.69918000  0.22087000  1.0
  C  C168  1  0.78157000  0.14527000  0.28869000  1.0
  C  C169  1  0.78158000  0.85473000  0.71131000  1.0
  C  C170  1  0.21843000  0.35474000  0.78869000  1.0
  C  C171  1  0.21843000  0.64527000  0.21131000  1.0
  C  C172  1  0.86184000  0.09768000  0.31904000  1.0
  C  C173  1  0.86185000  0.90232000  0.68096000  1.0
  C  C174  1  0.13816000  0.40233000  0.81904000  1.0
  C  C175  1  0.13816000  0.59768000  0.18096000  1.0
  C  C176  1  0.79334000  0.25030000  0.24610000  1.0
  C  C177  1  0.79336000  0.74969000  0.75390000  1.0
  C  C178  1  0.20669000  0.24971000  0.74610000  1.0
  C  C179  1  0.20664000  0.75030000  0.25390000  1.0
  C  C180  1  0.24230000  0.07988000  0.42617000  1.0
  C  C181  1  0.24231000  0.92012000  0.57383000  1.0
  C  C182  1  0.75770000  0.42012000  0.92616000  1.0
  C  C183  1  0.75769000  0.57989000  0.07384000  1.0
  C  C184  1  0.41935000  0.06096000  0.44432000  1.0
  C  C185  1  0.41937000  0.93904000  0.55569000  1.0
  C  C186  1  0.58065000  0.43904000  0.94431000  1.0
  C  C187  1  0.58063000  0.56097000  0.05569000  1.0
  C  C188  1  0.49894000  0.08622000  0.49282000  1.0
  C  C189  1  0.49896000  0.91378000  0.50718000  1.0
  C  C190  1  0.50105000  0.41378000  0.99282000  1.0
  C  C191  1  0.50104000  0.58622000  0.00718000  1.0
  C  C192  1  0.40193000  0.12966000  0.52452000  1.0
  C  C193  1  0.40194000  0.87034000  0.47548000  1.0
  C  C194  1  0.59806000  0.37034000  0.02452000  1.0
  C  C195  1  0.59806000  0.62966000  0.97548000  1.0
  C  C196  1  0.22441000  0.14839000  0.50649000  1.0
  C  C197  1  0.22444000  0.85161000  0.49351000  1.0
  C  C198  1  0.77557000  0.35161000  0.00648000  1.0
  C  C199  1  0.77557000  0.64839000  0.99351000  1.0
  C  C200  1  0.14598000  0.12404000  0.45773000  1.0
  C  C201  1  0.14600000  0.87597000  0.54227000  1.0
  C  C202  1  0.85402000  0.37597000  0.95773000  1.0
  C  C203  1  0.85401000  0.62403000  0.04227000  1.0
  C  C204  1  0.48429000  0.15356000  0.57839000  1.0
  C  C205  1  0.48431000  0.84645000  0.42161000  1.0
  C  C206  1  0.51569000  0.34645000  0.07838000  1.0
  C  C207  1  0.51569000  0.65355000  0.92161000  1.0
  C  C208  1  0.00179000  0.00419000  0.39815000  1.0
  C  C209  1  0.00179000  0.99581000  0.60184000  1.0
  C  C210  1  0.99822000  0.49581000  0.89816000  1.0
  C  C211  1  0.99820000  0.50419000  0.10185000  1.0
  C  C212  1  0.27473000  0.02063000  0.33209000  1.0
  C  C213  1  0.27471000  0.97937000  0.66791000  1.0
  C  C214  1  0.72529000  0.47937000  0.83209000  1.0
  C  C215  1  0.72529000  0.52064000  0.16791000  1.0
  N  N216  1  0.41740000  0.36379000  0.23111000  1.0
  N  N217  1  0.41743000  0.63621000  0.76889000  1.0
  N  N218  1  0.58257000  0.13621000  0.73110000  1.0
  N  N219  1  0.58258000  0.86379000  0.26889000  1.0
  N  N220  1  0.73164000  0.73459000  0.33898000  1.0
  N  N221  1  0.73164000  0.26541000  0.66102000  1.0
  N  N222  1  0.26835000  0.76541000  0.83898000  1.0
  N  N223  1  0.26835000  0.23459000  0.16102000  1.0
  O  O224  1  0.88016000  0.29928000  0.24004000  1.0
  O  O225  1  0.88020000  0.70071000  0.75996000  1.0
  O  O226  1  0.11989000  0.20074000  0.74004000  1.0
  O  O227  1  0.11980000  0.79929000  0.25995000  1.0
  O  O228  1  0.62886000  0.23806000  0.22593000  1.0
  O  O229  1  0.62890000  0.76193000  0.77407000  1.0
  O  O230  1  0.37117000  0.26196000  0.72593000  1.0
  O  O231  1  0.37111000  0.73807000  0.27407000  1.0
  O  O232  1  0.37654000  0.18944000  0.60798000  1.0
  O  O233  1  0.37656000  0.81057000  0.39202000  1.0
  O  O234  1  0.62344000  0.31057000  0.10798000  1.0
  O  O235  1  0.62344000  0.68944000  0.89202000  1.0
  O  O236  1  0.64545000  0.13845000  0.59384000  1.0
  O  O237  1  0.64548000  0.86155000  0.40616000  1.0
  O  O238  1  0.35451000  0.36155000  0.09383000  1.0
  O  O239  1  0.35452000  0.63845000  0.90616000  1.0
  F  F240  1  0.42141000  0.05726000  0.31768000  1.0
  F  F241  1  0.42139000  0.94274000  0.68232000  1.0
  F  F242  1  0.57861000  0.44275000  0.81768000  1.0
  F  F243  1  0.57859000  0.55726000  0.18232000  1.0
  F  F244  1  0.18482000  0.00706000  0.28237000  1.0
  F  F245  1  0.18479000  0.99295000  0.71763000  1.0
  F  F246  1  0.81521000  0.49295000  0.78237000  1.0
  F  F247  1  0.81521000  0.50706000  0.21764000  1.0
  F  F248  1  0.34783000  0.96771000  0.35171000  1.0
  F  F249  1  0.34781000  0.03229000  0.64829000  1.0
  F  F250  1  0.65218000  0.53229000  0.85171000  1.0
  F  F251  1  0.65219000  0.46771000  0.14829000  1.0
  F  F252  1  0.92355000  0.96906000  0.35681000  1.0
  F  F253  1  0.92355000  0.03095000  0.64319000  1.0
  F  F254  1  0.07648000  0.53094000  0.85681000  1.0
  F  F255  1  0.07646000  0.46906000  0.14319000  1.0
  F  F256  1  0.08710000  0.96605000  0.43492000  1.0
  F  F257  1  0.08710000  0.03394000  0.56507000  1.0
  F  F258  1  0.91293000  0.53395000  0.93492000  1.0
  F  F259  1  0.91290000  0.46605000  0.06508000  1.0
  F  F260  1  0.85843000  0.03129000  0.42671000  1.0
  F  F261  1  0.85844000  0.96871000  0.57329000  1.0
  F  F262  1  0.14158000  0.46871000  0.92671000  1.0
  F  F263  1  0.14155000  0.53129000  0.07329000  1.0
