# generated using pymatgen
data_ZnH10C9N5O3
_symmetry_space_group_name_H-M   'P 1'
_cell_length_a   9.50890000
_cell_length_b   9.98205000
_cell_length_c   25.70150000
_cell_angle_alpha   90.00000000
_cell_angle_beta   90.00000000
_cell_angle_gamma   90.00000000
_symmetry_Int_Tables_number   1
_chemical_formula_structural   ZnH10C9N5O3
_chemical_formula_sum   'Zn8 H80 C72 N40 O24'
_cell_volume   2439.54307927
_cell_formula_units_Z   8
loop_
 _symmetry_equiv_pos_site_id
 _symmetry_equiv_pos_as_xyz
  1  'x, y, z'
loop_
 _atom_site_type_symbol
 _atom_site_label
 _atom_site_symmetry_multiplicity
 _atom_site_fract_x
 _atom_site_fract_y
 _atom_site_fract_z
 _atom_site_occupancy
  Zn  Zn0  1  0.07986000  0.39098000  0.45243000  1.0
  Zn  Zn1  1  0.57986000  0.10902000  0.54757000  1.0
  Zn  Zn2  1  0.42014000  0.89098000  0.04757000  1.0
  Zn  Zn3  1  0.92014000  0.60902000  0.95243000  1.0
  Zn  Zn4  1  0.92014000  0.60902000  0.54757000  1.0
  Zn  Zn5  1  0.42014000  0.89098000  0.45243000  1.0
  Zn  Zn6  1  0.57986000  0.10902000  0.95243000  1.0
  Zn  Zn7  1  0.07986000  0.39098000  0.04757000  1.0
  H  H8  1  0.17478000  0.09955000  0.41801000  1.0
  H  H9  1  0.67477000  0.40045000  0.58199000  1.0
  H  H10  1  0.32523000  0.59955000  0.08199000  1.0
  H  H11  1  0.82523000  0.90045000  0.91801000  1.0
  H  H12  1  0.82523000  0.90045000  0.58199000  1.0
  H  H13  1  0.32522000  0.59955000  0.41801000  1.0
  H  H14  1  0.67477000  0.40045000  0.91801000  1.0
  H  H15  1  0.17477000  0.09955000  0.08199000  1.0
  H  H16  1  0.36138000  0.35357000  0.52982000  1.0
  H  H17  1  0.86138000  0.14643000  0.47019000  1.0
  H  H18  1  0.13862000  0.85358000  0.97019000  1.0
  H  H19  1  0.63862000  0.64643000  0.02981000  1.0
  H  H20  1  0.63862000  0.64643000  0.47019000  1.0
  H  H21  1  0.13862000  0.85357000  0.52982000  1.0
  H  H22  1  0.86138000  0.14643000  0.02981000  1.0
  H  H23  1  0.36138000  0.35357000  0.97019000  1.0
  H  H24  1  0.16493000  0.44090000  0.25000000  1.0
  H  H25  1  0.66493000  0.05910000  0.75000000  1.0
  H  H26  1  0.33507000  0.94090000  0.25000000  1.0
  H  H27  1  0.83507000  0.55910000  0.75000000  1.0
  H  H28  1  0.97448000  0.11432000  0.33400000  1.0
  H  H29  1  0.47448000  0.38568000  0.66600000  1.0
  H  H30  1  0.52552000  0.61432000  0.16600000  1.0
  H  H31  1  0.02552000  0.88568000  0.83400000  1.0
  H  H32  1  0.02552000  0.88568000  0.66600000  1.0
  H  H33  1  0.52552000  0.61432000  0.33400000  1.0
  H  H34  1  0.47448000  0.38568000  0.83400000  1.0
  H  H35  1  0.97448000  0.11432000  0.16600000  1.0
  H  H36  1  0.92160000  0.99862000  0.25000000  1.0
  H  H37  1  0.42160000  0.50138000  0.75000000  1.0
  H  H38  1  0.57840000  0.49862000  0.25000000  1.0
  H  H39  1  0.07840000  0.00138000  0.75000000  1.0
  H  H40  1  0.47076000  0.27961000  0.29435000  1.0
  H  H41  1  0.97076000  0.22038000  0.70565000  1.0
  H  H42  1  0.02924000  0.77961000  0.20565000  1.0
  H  H43  1  0.52924000  0.72039000  0.79435000  1.0
  H  H44  1  0.52924000  0.72039000  0.70565000  1.0
  H  H45  1  0.02924000  0.77962000  0.29435000  1.0
  H  H46  1  0.97076000  0.22039000  0.79435000  1.0
  H  H47  1  0.47076000  0.27961000  0.20565000  1.0
  H  H48  1  0.42765000  0.14092000  0.33525000  1.0
  H  H49  1  0.92765000  0.35908000  0.66475000  1.0
  H  H50  1  0.07235000  0.64092000  0.16475000  1.0
  H  H51  1  0.57235000  0.85908000  0.83525000  1.0
  H  H52  1  0.57235000  0.85908000  0.66475000  1.0
  H  H53  1  0.07235000  0.64092000  0.33525000  1.0
  H  H54  1  0.92765000  0.35908000  0.83525000  1.0
  H  H55  1  0.42765000  0.14092000  0.16475000  1.0
  H  H56  1  0.67140000  0.10937000  0.36125000  1.0
  H  H57  1  0.17140000  0.39063000  0.63875000  1.0
  H  H58  1  0.82860000  0.60937000  0.13875000  1.0
  H  H59  1  0.32860000  0.89063000  0.86125000  1.0
  H  H60  1  0.32860000  0.89063000  0.63875000  1.0
  H  H61  1  0.82860000  0.60937000  0.36125000  1.0
  H  H62  1  0.17140000  0.39063000  0.86125000  1.0
  H  H63  1  0.67140000  0.10937000  0.13875000  1.0
  H  H64  1  0.70187000  0.17957000  0.29844000  1.0
  H  H65  1  0.20187000  0.32043000  0.70156000  1.0
  H  H66  1  0.79813000  0.67957000  0.20156000  1.0
  H  H67  1  0.29813000  0.82043000  0.79844000  1.0
  H  H68  1  0.29813000  0.82043000  0.70156000  1.0
  H  H69  1  0.79813000  0.67957000  0.29844000  1.0
  H  H70  1  0.20187000  0.32043000  0.79844000  1.0
  H  H71  1  0.70187000  0.17957000  0.20156000  1.0
  H  H72  1  0.38429000  0.37754000  0.37552000  1.0
  H  H73  1  0.88429000  0.12246000  0.62448000  1.0
  H  H74  1  0.11571000  0.87754000  0.12448000  1.0
  H  H75  1  0.61571000  0.62246000  0.87552000  1.0
  H  H76  1  0.61571000  0.62246000  0.62449000  1.0
  H  H77  1  0.11571000  0.87754000  0.37552000  1.0
  H  H78  1  0.88429000  0.12246000  0.87552000  1.0
  H  H79  1  0.38429000  0.37754000  0.12448000  1.0
  H  H80  1  0.80831000  0.32623000  0.37270000  1.0
  H  H81  1  0.30831000  0.17377000  0.62730000  1.0
  H  H82  1  0.69170000  0.82623000  0.12730000  1.0
  H  H83  1  0.19170000  0.67377000  0.87270000  1.0
  H  H84  1  0.19169000  0.67377000  0.62730000  1.0
  H  H85  1  0.69170000  0.82623000  0.37270000  1.0
  H  H86  1  0.30830000  0.17377000  0.87270000  1.0
  H  H87  1  0.80831000  0.32623000  0.12730000  1.0
  C  C88  1  0.24457000  0.13953000  0.44756000  1.0
  C  C89  1  0.74457000  0.36047000  0.55244000  1.0
  C  C90  1  0.25543000  0.63953000  0.05244000  1.0
  C  C91  1  0.75543000  0.86047000  0.94756000  1.0
  C  C92  1  0.75543000  0.86047000  0.55244000  1.0
  C  C93  1  0.25543000  0.63953000  0.44756000  1.0
  C  C94  1  0.74457000  0.36047000  0.94756000  1.0
  C  C95  1  0.24456000  0.13953000  0.05244000  1.0
  C  C96  1  0.33914000  0.26856000  0.50443000  1.0
  C  C97  1  0.83914000  0.23144000  0.49557000  1.0
  C  C98  1  0.16087000  0.76856000  0.99557000  1.0
  C  C99  1  0.66086000  0.73144000  0.00443000  1.0
  C  C100  1  0.66086000  0.73144000  0.49557000  1.0
  C  C101  1  0.16086000  0.76856000  0.50443000  1.0
  C  C102  1  0.83914000  0.23144000  0.00443000  1.0
  C  C103  1  0.33913000  0.26856000  0.99557000  1.0
  C  C104  1  0.10040000  0.35453000  0.34726000  1.0
  C  C105  1  0.60040000  0.14547000  0.65274000  1.0
  C  C106  1  0.39960000  0.85453000  0.15274000  1.0
  C  C107  1  0.89960000  0.64547000  0.84726000  1.0
  C  C108  1  0.89960000  0.64547000  0.65274000  1.0
  C  C109  1  0.39960000  0.85453000  0.34726000  1.0
  C  C110  1  0.60040000  0.14547000  0.84726000  1.0
  C  C111  1  0.10040000  0.35453000  0.15274000  1.0
  C  C112  1  0.10921000  0.34541000  0.25000000  1.0
  C  C113  1  0.60921000  0.15459000  0.75000000  1.0
  C  C114  1  0.39079000  0.84541000  0.25000000  1.0
  C  C115  1  0.89078000  0.65459000  0.75000000  1.0
  C  C116  1  0.07088000  0.28517000  0.29701000  1.0
  C  C117  1  0.57088000  0.21483000  0.70299000  1.0
  C  C118  1  0.42913000  0.78518000  0.20299000  1.0
  C  C119  1  0.92912000  0.71483000  0.79701000  1.0
  C  C120  1  0.92912000  0.71483000  0.70299000  1.0
  C  C121  1  0.42912000  0.78518000  0.29701000  1.0
  C  C122  1  0.57087000  0.21483000  0.79701000  1.0
  C  C123  1  0.07087000  0.28517000  0.20299000  1.0
  C  C124  1  0.00293000  0.16023000  0.29698000  1.0
  C  C125  1  0.50293000  0.33977000  0.70302000  1.0
  C  C126  1  0.49707000  0.66023000  0.20302000  1.0
  C  C127  1  0.99707000  0.83977000  0.79698000  1.0
  C  C128  1  0.99707000  0.83977000  0.70302000  1.0
  C  C129  1  0.49707000  0.66023000  0.29698000  1.0
  C  C130  1  0.50293000  0.33977000  0.79698000  1.0
  C  C131  1  0.00293000  0.16023000  0.20302000  1.0
  C  C132  1  0.97246000  0.09662000  0.25000000  1.0
  C  C133  1  0.47246000  0.40338000  0.75000000  1.0
  C  C134  1  0.52754000  0.59662000  0.25000000  1.0
  C  C135  1  0.02754000  0.90338000  0.75000000  1.0
  C  C136  1  0.60053000  0.38493000  0.38727000  1.0
  C  C137  1  0.10053000  0.11507000  0.61273000  1.0
  C  C138  1  0.89948000  0.88492000  0.11273000  1.0
  C  C139  1  0.39948000  0.61508000  0.88727000  1.0
  C  C140  1  0.39947000  0.61507000  0.61273000  1.0
  C  C141  1  0.89948000  0.88493000  0.38727000  1.0
  C  C142  1  0.10052000  0.11508000  0.88727000  1.0
  C  C143  1  0.60053000  0.38492000  0.11273000  1.0
  C  C144  1  0.49476000  0.22985000  0.33174000  1.0
  C  C145  1  0.99476000  0.27014000  0.66826000  1.0
  C  C146  1  0.00524000  0.72985000  0.16826000  1.0
  C  C147  1  0.50524000  0.77015000  0.83174000  1.0
  C  C148  1  0.50524000  0.77015000  0.66826000  1.0
  C  C149  1  0.00524000  0.72985000  0.33174000  1.0
  C  C150  1  0.99476000  0.27015000  0.83174000  1.0
  C  C151  1  0.49477000  0.22985000  0.16826000  1.0
  C  C152  1  0.65242000  0.19761000  0.33637000  1.0
  C  C153  1  0.15242000  0.30239000  0.66363000  1.0
  C  C154  1  0.84758000  0.69761000  0.16363000  1.0
  C  C155  1  0.34758000  0.80239000  0.83637000  1.0
  C  C156  1  0.34758000  0.80239000  0.66363000  1.0
  C  C157  1  0.84758000  0.69761000  0.33637000  1.0
  C  C158  1  0.15242000  0.30239000  0.83637000  1.0
  C  C159  1  0.65242000  0.19761000  0.16363000  1.0
  N  N160  1  0.23155000  0.26105000  0.47007000  1.0
  N  N161  1  0.73155000  0.23895000  0.52993000  1.0
  N  N162  1  0.26845000  0.76105000  0.02993000  1.0
  N  N163  1  0.76845000  0.73895000  0.97007000  1.0
  N  N164  1  0.76845000  0.73895000  0.52993000  1.0
  N  N165  1  0.26844000  0.76105000  0.47007000  1.0
  N  N166  1  0.73155000  0.23895000  0.97007000  1.0
  N  N167  1  0.23155000  0.26105000  0.02993000  1.0
  N  N168  1  0.35471000  0.07440000  0.46675000  1.0
  N  N169  1  0.85471000  0.42560000  0.53325000  1.0
  N  N170  1  0.14529000  0.57440000  0.03325000  1.0
  N  N171  1  0.64529000  0.92560000  0.96675000  1.0
  N  N172  1  0.64529000  0.92560000  0.53325000  1.0
  N  N173  1  0.14529000  0.57440000  0.46675000  1.0
  N  N174  1  0.85470000  0.42560000  0.96675000  1.0
  N  N175  1  0.35471000  0.07440000  0.03325000  1.0
  N  N176  1  0.41470000  0.15647000  0.50322000  1.0
  N  N177  1  0.91470000  0.34353000  0.49678000  1.0
  N  N178  1  0.08530000  0.65647000  0.99678000  1.0
  N  N179  1  0.58530000  0.84353000  0.00322000  1.0
  N  N180  1  0.58530000  0.84353000  0.49678000  1.0
  N  N181  1  0.08530000  0.65647000  0.50322000  1.0
  N  N182  1  0.91470000  0.34353000  0.00322000  1.0
  N  N183  1  0.41470000  0.15647000  0.99678000  1.0
  N  N184  1  0.47490000  0.32242000  0.37520000  1.0
  N  N185  1  0.97490000  0.17758000  0.62480000  1.0
  N  N186  1  0.02511000  0.82242000  0.12480000  1.0
  N  N187  1  0.52510000  0.67758000  0.87520000  1.0
  N  N188  1  0.52510000  0.67758000  0.62480000  1.0
  N  N189  1  0.02510000  0.82242000  0.37520000  1.0
  N  N190  1  0.97490000  0.17758000  0.87520000  1.0
  N  N191  1  0.47490000  0.32241000  0.12480000  1.0
  N  N192  1  0.70586000  0.31968000  0.36076000  1.0
  N  N193  1  0.20586000  0.18032000  0.63924000  1.0
  N  N194  1  0.79414000  0.81968000  0.13924000  1.0
  N  N195  1  0.29414000  0.68032000  0.86076000  1.0
  N  N196  1  0.29414000  0.68032000  0.63924000  1.0
  N  N197  1  0.79414000  0.81968000  0.36076000  1.0
  N  N198  1  0.20586000  0.18032000  0.86076000  1.0
  N  N199  1  0.70586000  0.31968000  0.13924000  1.0
  O  O200  1  0.01249000  0.32697000  0.38479000  1.0
  O  O201  1  0.51249000  0.17303000  0.61521000  1.0
  O  O202  1  0.48751000  0.82697000  0.11521000  1.0
  O  O203  1  0.98751000  0.67303000  0.88479000  1.0
  O  O204  1  0.98751000  0.67303000  0.61521000  1.0
  O  O205  1  0.48751000  0.82697000  0.38479000  1.0
  O  O206  1  0.51249000  0.17303000  0.88479000  1.0
  O  O207  1  0.01249000  0.32697000  0.11521000  1.0
  O  O208  1  0.20246000  0.43287000  0.35236000  1.0
  O  O209  1  0.70246000  0.06713000  0.64764000  1.0
  O  O210  1  0.29754000  0.93287000  0.14764000  1.0
  O  O211  1  0.79754000  0.56713000  0.85236000  1.0
  O  O212  1  0.79754000  0.56712000  0.64764000  1.0
  O  O213  1  0.29754000  0.93287000  0.35236000  1.0
  O  O214  1  0.70246000  0.06713000  0.85236000  1.0
  O  O215  1  0.20246000  0.43287000  0.14764000  1.0
  O  O216  1  0.61458000  0.48353000  0.41666000  1.0
  O  O217  1  0.11458000  0.01647000  0.58334000  1.0
  O  O218  1  0.88542000  0.98352000  0.08334000  1.0
  O  O219  1  0.38542000  0.51648000  0.91666000  1.0
  O  O220  1  0.38542000  0.51647000  0.58334000  1.0
  O  O221  1  0.88542000  0.98352000  0.41666000  1.0
  O  O222  1  0.11458000  0.01647000  0.91666000  1.0
  O  O223  1  0.61458000  0.48352000  0.08334000  1.0
