# generated using pymatgen
data_H8PbC12(IN)2
_symmetry_space_group_name_H-M   'P 1'
_cell_length_a   8.17057000
_cell_length_b   9.78625000
_cell_length_c   9.78738000
_cell_angle_alpha   68.41390000
_cell_angle_beta   79.80250000
_cell_angle_gamma   79.80500000
_symmetry_Int_Tables_number   1
_chemical_formula_structural   H8PbC12(IN)2
_chemical_formula_sum   'H16 Pb2 C24 I4 N4'
_cell_volume   710.83910835
_cell_formula_units_Z   2
loop_
 _symmetry_equiv_pos_site_id
 _symmetry_equiv_pos_as_xyz
  1  'x, y, z'
loop_
 _atom_site_type_symbol
 _atom_site_label
 _atom_site_symmetry_multiplicity
 _atom_site_fract_x
 _atom_site_fract_y
 _atom_site_fract_z
 _atom_site_occupancy
  H  H0  1  0.93947000  0.32968000  0.98859000  1.0
  H  H1  1  0.56062000  0.01140000  0.67041000  1.0
  H  H2  1  0.06051000  0.67037000  0.01138000  1.0
  H  H3  1  0.43942000  0.98861000  0.32964000  1.0
  H  H4  1  0.82042000  0.59524000  0.87158000  1.0
  H  H5  1  0.67952000  0.12831000  0.40479000  1.0
  H  H6  1  0.17953000  0.40478000  0.12838000  1.0
  H  H7  1  0.32042000  0.87163000  0.59521000  1.0
  H  H8  1  0.94020000  0.73874000  0.61416000  1.0
  H  H9  1  0.55973000  0.38571000  0.26125000  1.0
  H  H10  1  0.05977000  0.26128000  0.38580000  1.0
  H  H11  1  0.44023000  0.61422000  0.73872000  1.0
  H  H12  1  0.13687000  0.74185000  0.38760000  1.0
  H  H13  1  0.36311000  0.61231000  0.25813000  1.0
  H  H14  1  0.86313000  0.25816000  0.61233000  1.0
  H  H15  1  0.63688000  0.38766000  0.74186000  1.0
  Pb  Pb16  1  0.24998000  0.06484000  0.93512000  1.0
  Pb  Pb17  1  0.74994000  0.93517000  0.06497000  1.0
  C  C18  1  0.98939000  0.39647000  0.87720000  1.0
  C  C19  1  0.51066000  0.12277000  0.60359000  1.0
  C  C20  1  0.01060000  0.60355000  0.12279000  1.0
  C  C21  1  0.48932000  0.87722000  0.39645000  1.0
  C  C22  1  0.92326000  0.54474000  0.81126000  1.0
  C  C23  1  0.57673000  0.18866000  0.45528000  1.0
  C  C24  1  0.07676000  0.45528000  0.18870000  1.0
  C  C25  1  0.42323000  0.81132000  0.54472000  1.0
  C  C26  1  0.98883000  0.62349000  0.66920000  1.0
  C  C27  1  0.51119000  0.33070000  0.37654000  1.0
  C  C28  1  0.01119000  0.37653000  0.33078000  1.0
  C  C29  1  0.48879000  0.66923000  0.62345000  1.0
  C  C30  1  0.11944000  0.55361000  0.59319000  1.0
  C  C31  1  0.38058000  0.40677000  0.44641000  1.0
  C  C32  1  0.88056000  0.44644000  0.40680000  1.0
  C  C33  1  0.61940000  0.59321000  0.55359000  1.0
  C  C34  1  0.18184000  0.40396000  0.66960000  1.0
  C  C35  1  0.31822000  0.33038000  0.59603000  1.0
  C  C36  1  0.81820000  0.59605000  0.33040000  1.0
  C  C37  1  0.68181000  0.66963000  0.40396000  1.0
  C  C38  1  0.18780000  0.62735000  0.44380000  1.0
  C  C39  1  0.31220000  0.55614000  0.37263000  1.0
  C  C40  1  0.81221000  0.37263000  0.55616000  1.0
  C  C41  1  0.68779000  0.44386000  0.62736000  1.0
  I  I42  1  0.48195000  0.23922000  0.03341000  1.0
  I  I43  1  0.01814000  0.96663000  0.76084000  1.0
  I  I44  1  0.51812000  0.76070000  0.96656000  1.0
  I  I45  1  0.98196000  0.03343000  0.23935000  1.0
  N  N46  1  0.11544000  0.32892000  0.80946000  1.0
  N  N47  1  0.38467000  0.19055000  0.67114000  1.0
  N  N48  1  0.88461000  0.67111000  0.19054000  1.0
  N  N49  1  0.61535000  0.80946000  0.32889000  1.0
