# generated using pymatgen
data_CuH6C4N3
_symmetry_space_group_name_H-M   'P 1'
_cell_length_a   5.17441000
_cell_length_b   10.20370000
_cell_length_c   10.20424253
_cell_angle_alpha   86.32126113
_cell_angle_beta   75.30771996
_cell_angle_gamma   75.31820000
_symmetry_Int_Tables_number   1
_chemical_formula_structural   CuH6C4N3
_chemical_formula_sum   'Cu4 H24 C16 N12'
_cell_volume   504.13194922
_cell_formula_units_Z   4
loop_
 _symmetry_equiv_pos_site_id
 _symmetry_equiv_pos_as_xyz
  1  'x, y, z'
loop_
 _atom_site_type_symbol
 _atom_site_label
 _atom_site_symmetry_multiplicity
 _atom_site_fract_x
 _atom_site_fract_y
 _atom_site_fract_z
 _atom_site_occupancy
  Cu  Cu0  1  0.54013000  0.08487000  0.58487000  1.0
  Cu  Cu1  1  0.20998000  0.91502000  0.41502000  1.0
  Cu  Cu2  1  0.87516000  0.58493000  0.91498000  1.0
  Cu  Cu3  1  0.37493000  0.41498000  0.08493000  1.0
  H  H4  1  0.68536000  0.32099000  0.47326000  1.0
  H  H5  1  0.47986000  0.67923000  0.52696000  1.0
  H  H6  1  0.84139000  0.47315000  0.67901000  1.0
  H  H7  1  0.99304000  0.52697000  0.32075000  1.0
  H  H8  1  0.27039000  0.97326000  0.82099000  1.0
  H  H9  1  0.06393000  0.02695000  0.17924000  1.0
  H  H10  1  0.75647000  0.17902000  0.97313000  1.0
  H  H11  1  0.90925000  0.82075000  0.02698000  1.0
  H  H12  1  0.49734000  0.45693000  0.38941000  1.0
  H  H13  1  0.34387000  0.54321000  0.61057000  1.0
  H  H14  1  0.11330000  0.38943000  0.54303000  1.0
  H  H15  1  0.04540000  0.61071000  0.45671000  1.0
  H  H16  1  0.40634000  0.88941000  0.95693000  1.0
  H  H17  1  0.25233000  0.11056000  0.04322000  1.0
  H  H18  1  0.70426000  0.04303000  0.88942000  1.0
  H  H19  1  0.63719000  0.95671000  0.11072000  1.0
  H  H20  1  0.81550000  0.35681000  0.29952000  1.0
  H  H21  1  0.47151000  0.64330000  0.70070000  1.0
  H  H22  1  0.88541000  0.29940000  0.64311000  1.0
  H  H23  1  0.82758000  0.70073000  0.35662000  1.0
  H  H24  1  0.27818000  0.79952000  0.85681000  1.0
  H  H25  1  0.93448000  0.20069000  0.14330000  1.0
  H  H26  1  0.92207000  0.14312000  0.79939000  1.0
  H  H27  1  0.86508000  0.85663000  0.20074000  1.0
  C  C28  1  0.48338000  0.25783000  0.34183000  1.0
  C  C29  1  0.08300000  0.74221000  0.65819000  1.0
  C  C30  1  0.17496000  0.34179000  0.74211000  1.0
  C  C31  1  0.25870000  0.65819000  0.25770000  1.0
  C  C32  1  0.66695000  0.84183000  0.75783000  1.0
  C  C33  1  0.26658000  0.15819000  0.24222000  1.0
  C  C34  1  0.49114000  0.24211000  0.84179000  1.0
  C  C35  1  0.57541000  0.75770000  0.15820000  1.0
  C  C36  1  0.62773000  0.35338000  0.37793000  1.0
  C  C37  1  0.35907000  0.64677000  0.62219000  1.0
  C  C38  1  0.99455000  0.37786000  0.64658000  1.0
  C  C39  1  0.01860000  0.62224000  0.35316000  1.0
  C  C40  1  0.39096000  0.87792000  0.85338000  1.0
  C  C41  1  0.12196000  0.12219000  0.14677000  1.0
  C  C42  1  0.73101000  0.14659000  0.87785000  1.0
  C  C43  1  0.75601000  0.85316000  0.12225000  1.0
  N  N44  1  0.44501000  0.14788000  0.41605000  1.0
  N  N45  1  0.00894000  0.85209000  0.58393000  1.0
  N  N46  1  0.13916000  0.41606000  0.85199000  1.0
  N  N47  1  0.40709000  0.58392000  0.14780000  1.0
  N  N48  1  0.74106000  0.91605000  0.64788000  1.0
  N  N49  1  0.30502000  0.08393000  0.35210000  1.0
  N  N50  1  0.34278000  0.35199000  0.91606000  1.0
  N  N51  1  0.61120000  0.64781000  0.08393000  1.0
  N  N52  1  0.37489000  0.26824000  0.23184000  1.0
  N  N53  1  0.87501000  0.73184000  0.76824000  1.0
  N  N54  1  0.39328000  0.23173000  0.73172000  1.0
  N  N55  1  0.35684000  0.76817000  0.26817000  1.0
