# generated using pymatgen
data_HoH8C6NO7
_symmetry_space_group_name_H-M   'P 1'
_cell_length_a   6.57568000
_cell_length_b   6.76690000
_cell_length_c   19.44240000
_cell_angle_alpha   86.78570000
_cell_angle_beta   89.99960000
_cell_angle_gamma   89.99990000
_symmetry_Int_Tables_number   1
_chemical_formula_structural   HoH8C6NO7
_chemical_formula_sum   'Ho4 H32 C24 N4 O28'
_cell_volume   863.76685164
_cell_formula_units_Z   4
loop_
 _symmetry_equiv_pos_site_id
 _symmetry_equiv_pos_as_xyz
  1  'x, y, z'
loop_
 _atom_site_type_symbol
 _atom_site_label
 _atom_site_symmetry_multiplicity
 _atom_site_fract_x
 _atom_site_fract_y
 _atom_site_fract_z
 _atom_site_occupancy
  Ho  Ho0  1  0.74187000  0.26778000  0.10203000  1.0
  Ho  Ho1  1  0.24186000  0.23223000  0.39797000  1.0
  Ho  Ho2  1  0.25813000  0.73223000  0.89797000  1.0
  Ho  Ho3  1  0.75813000  0.76777000  0.60203000  1.0
  H  H4  1  0.17770000  0.99823000  0.24967000  1.0
  H  H5  1  0.67770000  0.50177000  0.25032000  1.0
  H  H6  1  0.82231000  0.00177000  0.75033000  1.0
  H  H7  1  0.32230000  0.49823000  0.74968000  1.0
  H  H8  1  0.91162000  0.99337000  0.26450000  1.0
  H  H9  1  0.41162000  0.50663000  0.23549000  1.0
  H  H10  1  0.08838000  0.00663000  0.73550000  1.0
  H  H11  1  0.58838000  0.49337000  0.76451000  1.0
  H  H12  1  0.16236000  0.91790000  0.07403000  1.0
  H  H13  1  0.66235000  0.58210000  0.42597000  1.0
  H  H14  1  0.83764000  0.08210000  0.92597000  1.0
  H  H15  1  0.33764000  0.41790000  0.57403000  1.0
  H  H16  1  0.31038000  0.96284000  0.14754000  1.0
  H  H17  1  0.81037000  0.53717000  0.35245000  1.0
  H  H18  1  0.68962000  0.03717000  0.85246000  1.0
  H  H19  1  0.18962000  0.46283000  0.64755000  1.0
  H  H20  1  0.81402000  0.77698000  0.20626000  1.0
  H  H21  1  0.31402000  0.72303000  0.29373000  1.0
  H  H22  1  0.18598000  0.22303000  0.79374000  1.0
  H  H23  1  0.68597000  0.27697000  0.70627000  1.0
  H  H24  1  0.01395000  0.68977000  0.15671000  1.0
  H  H25  1  0.51396000  0.81023000  0.34328000  1.0
  H  H26  1  0.98605000  0.31023000  0.84329000  1.0
  H  H27  1  0.48604000  0.18977000  0.65672000  1.0
  H  H28  1  0.79190000  0.45562000  0.96671000  1.0
  H  H29  1  0.29190000  0.04439000  0.53329000  1.0
  H  H30  1  0.20810000  0.54438000  0.03329000  1.0
  H  H31  1  0.70810000  0.95561000  0.46671000  1.0
  H  H32  1  0.57772000  0.35097000  0.96175000  1.0
  H  H33  1  0.07772000  0.14903000  0.53825000  1.0
  H  H34  1  0.42228000  0.64903000  0.03825000  1.0
  H  H35  1  0.92228000  0.85097000  0.46175000  1.0
  C  C36  1  0.03095000  0.05711000  0.23048000  1.0
  C  C37  1  0.53095000  0.44289000  0.26951000  1.0
  C  C38  1  0.96905000  0.94289000  0.76952000  1.0
  C  C39  1  0.46905000  0.55711000  0.73049000  1.0
  C  C40  1  0.02351000  0.27892000  0.23918000  1.0
  C  C41  1  0.52351000  0.22109000  0.26081000  1.0
  C  C42  1  0.97649000  0.72108000  0.76082000  1.0
  C  C43  1  0.47650000  0.77891000  0.73919000  1.0
  C  C44  1  0.17768000  0.01537000  0.11726000  1.0
  C  C45  1  0.67768000  0.48463000  0.38274000  1.0
  C  C46  1  0.82232000  0.98464000  0.88274000  1.0
  C  C47  1  0.32232000  0.51537000  0.61727000  1.0
  C  C48  1  0.22079000  0.22002000  0.08458000  1.0
  C  C49  1  0.72078000  0.27998000  0.41542000  1.0
  C  C50  1  0.77922000  0.77999000  0.91542000  1.0
  C  C51  1  0.27921000  0.72001000  0.58458000  1.0
  C  C52  1  0.89935000  0.80725000  0.15826000  1.0
  C  C53  1  0.39934000  0.69275000  0.34173000  1.0
  C  C54  1  0.10065000  0.19275000  0.84174000  1.0
  C  C55  1  0.60065000  0.30725000  0.65827000  1.0
  C  C56  1  0.74571000  0.78943000  0.10048000  1.0
  C  C57  1  0.24571000  0.71056000  0.39952000  1.0
  C  C58  1  0.25429000  0.21057000  0.89952000  1.0
  C  C59  1  0.75428000  0.28944000  0.60048000  1.0
  N  N60  1  0.98938000  0.00598000  0.15919000  1.0
  N  N61  1  0.48938000  0.49403000  0.34080000  1.0
  N  N62  1  0.01062000  0.99403000  0.84081000  1.0
  N  N63  1  0.51062000  0.50597000  0.65920000  1.0
  O  O64  1  0.94387000  0.38724000  0.19122000  1.0
  O  O65  1  0.44386000  0.11276000  0.30878000  1.0
  O  O66  1  0.05614000  0.61276000  0.80878000  1.0
  O  O67  1  0.55615000  0.88724000  0.69122000  1.0
  O  O68  1  0.08907000  0.34376000  0.29501000  1.0
  O  O69  1  0.58908000  0.15623000  0.20498000  1.0
  O  O70  1  0.91093000  0.65623000  0.70499000  1.0
  O  O71  1  0.41093000  0.84377000  0.79502000  1.0
  O  O72  1  0.06983000  0.31896000  0.05896000  1.0
  O  O73  1  0.56982000  0.18104000  0.44104000  1.0
  O  O74  1  0.93017000  0.68104000  0.94104000  1.0
  O  O75  1  0.43017000  0.81896000  0.55896000  1.0
  O  O76  1  0.40012000  0.28454000  0.08153000  1.0
  O  O77  1  0.90011000  0.21546000  0.41846000  1.0
  O  O78  1  0.59988000  0.71546000  0.91847000  1.0
  O  O79  1  0.09988000  0.78454000  0.58154000  1.0
  O  O80  1  0.68898000  0.94726000  0.06768000  1.0
  O  O81  1  0.18898000  0.55274000  0.43232000  1.0
  O  O82  1  0.31102000  0.05275000  0.93233000  1.0
  O  O83  1  0.81101000  0.44726000  0.56768000  1.0
  O  O84  1  0.67411000  0.61807000  0.09029000  1.0
  O  O85  1  0.17411000  0.88193000  0.40971000  1.0
  O  O86  1  0.32589000  0.38193000  0.90971000  1.0
  O  O87  1  0.82588000  0.11807000  0.59029000  1.0
  O  O88  1  0.71571000  0.33379000  0.98172000  1.0
  O  O89  1  0.21571000  0.16621000  0.51828000  1.0
  O  O90  1  0.28429000  0.66621000  0.01828000  1.0
  O  O91  1  0.78429000  0.83379000  0.48172000  1.0
