# generated using pymatgen
data_CdH28C28(S2N5)2
_symmetry_space_group_name_H-M   'P 1'
_cell_length_a   11.00320000
_cell_length_b   12.75100000
_cell_length_c   13.75730000
_cell_angle_alpha   69.44740000
_cell_angle_beta   66.44830000
_cell_angle_gamma   64.44750000
_symmetry_Int_Tables_number   1
_chemical_formula_structural   CdH28C28(S2N5)2
_chemical_formula_sum   'Cd2 H56 C56 S8 N20'
_cell_volume   1558.61126988
_cell_formula_units_Z   2
loop_
 _symmetry_equiv_pos_site_id
 _symmetry_equiv_pos_as_xyz
  1  'x, y, z'
loop_
 _atom_site_type_symbol
 _atom_site_label
 _atom_site_symmetry_multiplicity
 _atom_site_fract_x
 _atom_site_fract_y
 _atom_site_fract_z
 _atom_site_occupancy
  Cd  Cd0  1  0.73641000  0.74999000  0.24986000  1.0
  Cd  Cd1  1  0.26359000  0.25001000  0.75013000  1.0
  H  H2  1  0.81626000  0.69110000  0.01860000  1.0
  H  H3  1  0.52658000  0.80889000  0.48128000  1.0
  H  H4  1  0.18374000  0.30890000  0.98140000  1.0
  H  H5  1  0.47342000  0.19111000  0.51872000  1.0
  H  H6  1  0.43467000  0.88860000  0.20295000  1.0
  H  H7  1  0.52640000  0.61147000  0.29698000  1.0
  H  H8  1  0.56532000  0.11140000  0.79705000  1.0
  H  H9  1  0.47360000  0.38853000  0.70302000  1.0
  H  H10  1  0.45577000  0.84562000  0.89842000  1.0
  H  H11  1  0.20023000  0.65467000  0.60151000  1.0
  H  H12  1  0.54423000  0.15438000  0.10158000  1.0
  H  H13  1  0.79976000  0.34534000  0.39849000  1.0
  H  H14  1  0.31388000  0.92649000  0.06891000  1.0
  H  H15  1  0.30949000  0.57369000  0.43108000  1.0
  H  H16  1  0.68612000  0.07351000  0.93109000  1.0
  H  H17  1  0.69051000  0.42631000  0.56892000  1.0
  H  H18  1  0.71889000  0.52379000  0.96617000  1.0
  H  H19  1  0.20901000  0.97629000  0.53379000  1.0
  H  H20  1  0.28111000  0.47621000  0.03383000  1.0
  H  H21  1  0.79099000  0.02371000  0.46621000  1.0
  H  H22  1  0.73694000  0.17398000  0.12559000  1.0
  H  H23  1  0.03636000  0.32611000  0.37455000  1.0
  H  H24  1  0.26306000  0.82602000  0.87441000  1.0
  H  H25  1  0.96363000  0.67389000  0.62545000  1.0
  H  H26  1  0.64256000  0.73071000  0.73186000  1.0
  H  H27  1  0.10589000  0.76914000  0.76802000  1.0
  H  H28  1  0.35744000  0.26929000  0.26814000  1.0
  H  H29  1  0.89411000  0.23086000  0.23198000  1.0
  H  H30  1  0.93026000  0.37119000  0.81910000  1.0
  H  H31  1  0.12052000  0.12897000  0.68107000  1.0
  H  H32  1  0.06974000  0.62881000  0.18090000  1.0
  H  H33  1  0.87948000  0.87103000  0.31893000  1.0
  H  H34  1  0.77896000  0.78161000  0.78203000  1.0
  H  H35  1  0.34333000  0.71858000  0.71781000  1.0
  H  H36  1  0.22105000  0.21839000  0.21797000  1.0
  H  H37  1  0.65667000  0.28142000  0.28219000  1.0
  H  H38  1  0.83573000  0.63800000  0.86217000  1.0
  H  H39  1  0.33625000  0.86232000  0.63773000  1.0
  H  H40  1  0.16427000  0.36200000  0.13783000  1.0
  H  H41  1  0.66375000  0.13768000  0.36227000  1.0
  H  H42  1  0.62255000  0.36617000  0.92204000  1.0
  H  H43  1  0.91091000  0.13370000  0.57817000  1.0
  H  H44  1  0.37745000  0.63383000  0.07796000  1.0
  H  H45  1  0.08909000  0.86630000  0.42183000  1.0
  H  H46  1  0.60261000  0.37573000  0.05468000  1.0
  H  H47  1  0.03296000  0.12426000  0.44540000  1.0
  H  H48  1  0.39739000  0.62427000  0.94531000  1.0
  H  H49  1  0.96704000  0.87574000  0.55460000  1.0
  H  H50  1  0.97900000  0.02684000  0.12510000  1.0
  H  H51  1  0.13080000  0.47329000  0.37496000  1.0
  H  H52  1  0.02100000  0.97316000  0.87490000  1.0
  H  H53  1  0.86920000  0.52671000  0.62504000  1.0
  H  H54  1  0.18484000  0.05961000  0.96666000  1.0
  H  H55  1  0.21118000  0.44050000  0.53340000  1.0
  H  H56  1  0.81516000  0.94039000  0.03334000  1.0
  H  H57  1  0.78882000  0.55950000  0.46660000  1.0
  C  C58  1  0.70513000  0.74357000  0.02630000  1.0
  C  C59  1  0.47547000  0.75654000  0.47358000  1.0
  C  C60  1  0.29487000  0.25643000  0.97370000  1.0
  C  C61  1  0.52454000  0.24346000  0.52642000  1.0
  C  C62  1  0.64742000  0.76099000  0.94569000  1.0
  C  C63  1  0.35457000  0.73923000  0.55418000  1.0
  C  C64  1  0.35258000  0.23901000  0.05431000  1.0
  C  C65  1  0.64543000  0.26077000  0.44582000  1.0
  C  C66  1  0.49223000  0.85344000  0.12925000  1.0
  C  C67  1  0.47518000  0.64666000  0.37067000  1.0
  C  C68  1  0.50777000  0.14655000  0.87075000  1.0
  C  C69  1  0.52482000  0.35334000  0.62933000  1.0
  C  C70  1  0.50445000  0.82841000  0.96020000  1.0
  C  C71  1  0.29346000  0.67182000  0.53970000  1.0
  C  C72  1  0.49555000  0.17159000  0.03980000  1.0
  C  C73  1  0.70654000  0.32818000  0.46030000  1.0
  C  C74  1  0.86037000  0.49011000  0.18538000  1.0
  C  C75  1  0.53598000  0.00982000  0.31459000  1.0
  C  C76  1  0.13963000  0.50990000  0.81463000  1.0
  C  C77  1  0.46401000  0.99019000  0.68541000  1.0
  C  C78  1  0.42576000  0.87440000  0.05350000  1.0
  C  C79  1  0.35396000  0.62574000  0.44646000  1.0
  C  C80  1  0.57425000  0.12560000  0.94650000  1.0
  C  C81  1  0.64604000  0.37426000  0.55354000  1.0
  C  C82  1  0.82877000  0.18517000  0.05759000  1.0
  C  C83  1  0.07144000  0.31492000  0.44252000  1.0
  C  C84  1  0.17123000  0.81483000  0.94241000  1.0
  C  C85  1  0.92855000  0.68509000  0.55748000  1.0
  C  C86  1  0.64862000  0.56935000  0.83342000  1.0
  C  C87  1  0.05183000  0.93052000  0.66657000  1.0
  C  C88  1  0.35138000  0.43065000  0.16658000  1.0
  C  C89  1  0.94817000  0.06948000  0.33343000  1.0
  C  C90  1  0.93484000  0.29459000  0.88733000  1.0
  C  C91  1  0.11676000  0.20552000  0.61278000  1.0
  C  C92  1  0.06516000  0.70541000  0.11267000  1.0
  C  C93  1  0.88325000  0.79448000  0.38722000  1.0
  C  C94  1  0.81331000  0.28404000  0.97105000  1.0
  C  C95  1  0.06837000  0.21603000  0.52905000  1.0
  C  C96  1  0.18669000  0.71596000  0.02895000  1.0
  C  C97  1  0.93163000  0.78396000  0.47095000  1.0
  C  C98  1  0.74102000  0.71131000  0.84510000  1.0
  C  C99  1  0.29798000  0.78888000  0.65479000  1.0
  C  C100  1  0.25898000  0.28869000  0.15490000  1.0
  C  C101  1  0.70202000  0.21112000  0.34521000  1.0
  C  C102  1  0.67202000  0.37900000  0.97068000  1.0
  C  C103  1  0.02176000  0.12098000  0.52941000  1.0
  C  C104  1  0.32798000  0.62100000  0.02932000  1.0
  C  C105  1  0.97824000  0.87901000  0.47059000  1.0
  C  C106  1  0.96250000  0.10290000  0.05783000  1.0
  C  C107  1  0.12319000  0.39721000  0.44223000  1.0
  C  C108  1  0.03750000  0.89710000  0.94217000  1.0
  C  C109  1  0.87681000  0.60279000  0.55776000  1.0
  C  C110  1  0.07768000  0.12094000  0.97093000  1.0
  C  C111  1  0.16955000  0.37918000  0.52915000  1.0
  C  C112  1  0.92232000  0.87906000  0.02907000  1.0
  C  C113  1  0.83044000  0.62083000  0.47085000  1.0
  S  S114  1  0.87695000  0.41388000  0.10504000  1.0
  S  S115  1  0.39591000  0.08598000  0.39489000  1.0
  S  S116  1  0.12306000  0.58612000  0.89496000  1.0
  S  S117  1  0.60408000  0.91402000  0.60511000  1.0
  S  S118  1  0.57806000  0.53463000  0.76462000  1.0
  S  S119  1  0.87783000  0.96502000  0.73543000  1.0
  S  S120  1  0.42194000  0.46538000  0.23537000  1.0
  S  S121  1  0.12217000  0.03497000  0.26457000  1.0
  N  N122  1  0.84911000  0.54527000  0.24459000  1.0
  N  N123  1  0.63918000  0.95475000  0.25539000  1.0
  N  N124  1  0.15090000  0.45472000  0.75540000  1.0
  N  N125  1  0.36081000  0.04525000  0.74461000  1.0
  N  N126  1  0.62968000  0.78906000  0.11564000  1.0
  N  N127  1  0.53471000  0.71102000  0.38427000  1.0
  N  N128  1  0.37032000  0.21094000  0.88436000  1.0
  N  N129  1  0.46529000  0.28898000  0.61573000  1.0
  N  N130  1  0.68280000  0.49673000  0.92461000  1.0
  N  N131  1  0.10437000  0.00329000  0.57544000  1.0
  N  N132  1  0.31720000  0.50327000  0.07539000  1.0
  N  N133  1  0.89563000  0.99671000  0.42456000  1.0
  N  N134  1  0.06369000  0.21481000  0.88720000  1.0
  N  N135  1  0.16563000  0.28534000  0.61290000  1.0
  N  N136  1  0.93631000  0.78519000  0.11280000  1.0
  N  N137  1  0.83437000  0.71466000  0.38710000  1.0
  N  N138  1  0.67176000  0.67424000  0.79918000  1.0
  N  N139  1  0.14579000  0.82573000  0.70074000  1.0
  N  N140  1  0.32824000  0.32576000  0.20082000  1.0
  N  N141  1  0.85422000  0.17427000  0.29926000  1.0
