# generated using pymatgen
data_CdH12C10S2N2O5
_symmetry_space_group_name_H-M   'P 1'
_cell_length_a   6.76090000
_cell_length_b   10.48640000
_cell_length_c   20.75817444
_cell_angle_alpha   89.99973593
_cell_angle_beta   82.81310280
_cell_angle_gamma   89.99950000
_symmetry_Int_Tables_number   1
_chemical_formula_structural   CdH12C10S2N2O5
_chemical_formula_sum   'Cd4 H48 C40 S8 N8 O20'
_cell_volume   1460.14003714
_cell_formula_units_Z   4
loop_
 _symmetry_equiv_pos_site_id
 _symmetry_equiv_pos_as_xyz
  1  'x, y, z'
loop_
 _atom_site_type_symbol
 _atom_site_label
 _atom_site_symmetry_multiplicity
 _atom_site_fract_x
 _atom_site_fract_y
 _atom_site_fract_z
 _atom_site_occupancy
  Cd  Cd0  1  0.77400000  0.20969000  0.26306000  1.0
  Cd  Cd1  1  0.22603000  0.70969000  0.23694000  1.0
  Cd  Cd2  1  0.22601000  0.79032000  0.73694000  1.0
  Cd  Cd3  1  0.77400000  0.29031000  0.76306000  1.0
  H  H4  1  0.64831000  0.48529000  0.30699000  1.0
  H  H5  1  0.35171000  0.98528000  0.19301000  1.0
  H  H6  1  0.35169000  0.51471000  0.69300000  1.0
  H  H7  1  0.64830000  0.01471000  0.80699000  1.0
  H  H8  1  0.54960000  0.61972000  0.40135000  1.0
  H  H9  1  0.45039000  0.11972000  0.09865000  1.0
  H  H10  1  0.45037000  0.38028000  0.59865000  1.0
  H  H11  1  0.54958000  0.88028000  0.90135000  1.0
  H  H12  1  0.52187000  0.27470000  0.51914000  1.0
  H  H13  1  0.47811000  0.77470000  0.98086000  1.0
  H  H14  1  0.47812000  0.72531000  0.48086000  1.0
  H  H15  1  0.52186000  0.22530000  0.01914000  1.0
  H  H16  1  0.62703000  0.15598000  0.41880000  1.0
  H  H17  1  0.37297000  0.65598000  0.08120000  1.0
  H  H18  1  0.37298000  0.84402000  0.58120000  1.0
  H  H19  1  0.62702000  0.34402000  0.91880000  1.0
  H  H20  1  0.96793000  0.30159000  0.12096000  1.0
  H  H21  1  0.03213000  0.80161000  0.37904000  1.0
  H  H22  1  0.03207000  0.69840000  0.87904000  1.0
  H  H23  1  0.96790000  0.19840000  0.62096000  1.0
  H  H24  1  0.04055000  0.22531000  0.00851000  1.0
  H  H25  1  0.95947000  0.72532000  0.49150000  1.0
  H  H26  1  0.95942000  0.77469000  0.99150000  1.0
  H  H27  1  0.04054000  0.27468000  0.50850000  1.0
  H  H28  1  0.90706000  0.84342000  0.08227000  1.0
  H  H29  1  0.09290000  0.34341000  0.41772000  1.0
  H  H30  1  0.09292000  0.15658000  0.91772000  1.0
  H  H31  1  0.90706000  0.65658000  0.58227000  1.0
  H  H32  1  0.83289000  0.93741000  0.18992000  1.0
  H  H33  1  0.16711000  0.43742000  0.31008000  1.0
  H  H34  1  0.16711000  0.06258000  0.81008000  1.0
  H  H35  1  0.83287000  0.56258000  0.68992000  1.0
  H  H36  1  0.05407000  0.43154000  0.20944000  1.0
  H  H37  1  0.94595000  0.93154000  0.29056000  1.0
  H  H38  1  0.94593000  0.56847000  0.79056000  1.0
  H  H39  1  0.05408000  0.06847000  0.70944000  1.0
  H  H40  1  0.81850000  0.44413000  0.20418000  1.0
  H  H41  1  0.18152000  0.94413000  0.29582000  1.0
  H  H42  1  0.18149000  0.55587000  0.79582000  1.0
  H  H43  1  0.81851000  0.05587000  0.70419000  1.0
  H  H44  1  0.18749000  0.23475000  0.28145000  1.0
  H  H45  1  0.81254000  0.73475000  0.21855000  1.0
  H  H46  1  0.81253000  0.76525000  0.71855000  1.0
  H  H47  1  0.18748000  0.26525000  0.78145000  1.0
  H  H48  1  0.13859000  0.12939000  0.33276000  1.0
  H  H49  1  0.86145000  0.62938000  0.16724000  1.0
  H  H50  1  0.86143000  0.87062000  0.66724000  1.0
  H  H51  1  0.13858000  0.37062000  0.83276000  1.0
  C  C52  1  0.61994000  0.44215000  0.35499000  1.0
  C  C53  1  0.38007000  0.94215000  0.14500000  1.0
  C  C54  1  0.38005000  0.55785000  0.64501000  1.0
  C  C55  1  0.61993000  0.05785000  0.85499000  1.0
  C  C56  1  0.56415000  0.51758000  0.40907000  1.0
  C  C57  1  0.43584000  0.01757000  0.09093000  1.0
  C  C58  1  0.43583000  0.48243000  0.59093000  1.0
  C  C59  1  0.56413000  0.98243000  0.90907000  1.0
  C  C60  1  0.52860000  0.46103000  0.47065000  1.0
  C  C61  1  0.47137000  0.96103000  0.02935000  1.0
  C  C62  1  0.47138000  0.53897000  0.52935000  1.0
  C  C63  1  0.52859000  0.03897000  0.97065000  1.0
  C  C64  1  0.54915000  0.32775000  0.47376000  1.0
  C  C65  1  0.45083000  0.82775000  0.02624000  1.0
  C  C66  1  0.45084000  0.67225000  0.52624000  1.0
  C  C67  1  0.54914000  0.17225000  0.97376000  1.0
  C  C68  1  0.60813000  0.25921000  0.41720000  1.0
  C  C69  1  0.39188000  0.75921000  0.08279000  1.0
  C  C70  1  0.39188000  0.74079000  0.58279000  1.0
  C  C71  1  0.60811000  0.24079000  0.91721000  1.0
  C  C72  1  0.95566000  0.20063000  0.11002000  1.0
  C  C73  1  0.04438000  0.70064000  0.38998000  1.0
  C  C74  1  0.04434000  0.79937000  0.88998000  1.0
  C  C75  1  0.95563000  0.29936000  0.61002000  1.0
  C  C76  1  0.99628000  0.15634000  0.04675000  1.0
  C  C77  1  0.00373000  0.65634000  0.45325000  1.0
  C  C78  1  0.00370000  0.84366000  0.95325000  1.0
  C  C79  1  0.99627000  0.34366000  0.54675000  1.0
  C  C80  1  0.97974000  0.02552000  0.03344000  1.0
  C  C81  1  0.02023000  0.52553000  0.46657000  1.0
  C  C82  1  0.02023000  0.97448000  0.96656000  1.0
  C  C83  1  0.97975000  0.47447000  0.53343000  1.0
  C  C84  1  0.92225000  0.94609000  0.08679000  1.0
  C  C85  1  0.07773000  0.44609000  0.41321000  1.0
  C  C86  1  0.07773000  0.05391000  0.91321000  1.0
  C  C87  1  0.92224000  0.55391000  0.58679000  1.0
  C  C88  1  0.88195000  0.99809000  0.14858000  1.0
  C  C89  1  0.11805000  0.49810000  0.35142000  1.0
  C  C90  1  0.11804000  0.00191000  0.85142000  1.0
  C  C91  1  0.88194000  0.50190000  0.64858000  1.0
  S  S92  1  0.56020000  0.76407000  0.28858000  1.0
  S  S93  1  0.43984000  0.26406000  0.21141000  1.0
  S  S94  1  0.43982000  0.23594000  0.71142000  1.0
  S  S95  1  0.56019000  0.73593000  0.78858000  1.0
  S  S96  1  0.54628000  0.93192000  0.34028000  1.0
  S  S97  1  0.45375000  0.43192000  0.15971000  1.0
  S  S98  1  0.45376000  0.06808000  0.65972000  1.0
  S  S99  1  0.54625000  0.56808000  0.84028000  1.0
  N  N100  1  0.64450000  0.31509000  0.35859000  1.0
  N  N101  1  0.35552000  0.81508000  0.14141000  1.0
  N  N102  1  0.35550000  0.68491000  0.64141000  1.0
  N  N103  1  0.64448000  0.18491000  0.85859000  1.0
  N  N104  1  0.89807000  0.12314000  0.16068000  1.0
  N  N105  1  0.10196000  0.62315000  0.33932000  1.0
  N  N106  1  0.10192000  0.87686000  0.83933000  1.0
  N  N107  1  0.89804000  0.37686000  0.66068000  1.0
  O  O108  1  0.91911000  0.40255000  0.22829000  1.0
  O  O109  1  0.08092000  0.90255000  0.27171000  1.0
  O  O110  1  0.08089000  0.59746000  0.77171000  1.0
  O  O111  1  0.91912000  0.09745000  0.72830000  1.0
  O  O112  1  0.07816000  0.20377000  0.31453000  1.0
  O  O113  1  0.92187000  0.70376000  0.18547000  1.0
  O  O114  1  0.92186000  0.79624000  0.68547000  1.0
  O  O115  1  0.07814000  0.29624000  0.81454000  1.0
  O  O116  1  0.72940000  0.00644000  0.31295000  1.0
  O  O117  1  0.27063000  0.50644000  0.18705000  1.0
  O  O118  1  0.27063000  0.99356000  0.68705000  1.0
  O  O119  1  0.72938000  0.49356000  0.81295000  1.0
  O  O120  1  0.36768000  0.00650000  0.32809000  1.0
  O  O121  1  0.63235000  0.50649000  0.17190000  1.0
  O  O122  1  0.63235000  0.99351000  0.67192000  1.0
  O  O123  1  0.36766000  0.49351000  0.82809000  1.0
  O  O124  1  0.55128000  0.90162000  0.40851000  1.0
  O  O125  1  0.44873000  0.40161000  0.09149000  1.0
  O  O126  1  0.44878000  0.09839000  0.59149000  1.0
  O  O127  1  0.55124000  0.59838000  0.90851000  1.0
