# generated using pymatgen
data_AgH6C9S2N4O5F3
_symmetry_space_group_name_H-M   'P 1'
_cell_length_a   7.99579000
_cell_length_b   12.16150000
_cell_length_c   14.48180000
_cell_angle_alpha   90.00000000
_cell_angle_beta   90.00000000
_cell_angle_gamma   90.00000000
_symmetry_Int_Tables_number   1
_chemical_formula_structural   AgH6C9S2N4O5F3
_chemical_formula_sum   'Ag4 H24 C36 S8 N16 O20 F12'
_cell_volume   1408.22181867
_cell_formula_units_Z   4
loop_
 _symmetry_equiv_pos_site_id
 _symmetry_equiv_pos_as_xyz
  1  'x, y, z'
loop_
 _atom_site_type_symbol
 _atom_site_label
 _atom_site_symmetry_multiplicity
 _atom_site_fract_x
 _atom_site_fract_y
 _atom_site_fract_z
 _atom_site_occupancy
  Ag  Ag0  1  0.94465000  0.56917000  0.68165000  1.0
  Ag  Ag1  1  0.05535000  0.43083000  0.18165000  1.0
  Ag  Ag2  1  0.55535000  0.06917000  0.68165000  1.0
  Ag  Ag3  1  0.44465000  0.93083000  0.18165000  1.0
  H  H4  1  0.96107000  0.30041000  0.37705000  1.0
  H  H5  1  0.03893000  0.69959000  0.87705000  1.0
  H  H6  1  0.53893000  0.80041000  0.37705000  1.0
  H  H7  1  0.46107000  0.19959000  0.87705000  1.0
  H  H8  1  0.92024000  0.68159000  0.47857000  1.0
  H  H9  1  0.07976000  0.31841000  0.97857000  1.0
  H  H10  1  0.57976000  0.18159000  0.47857000  1.0
  H  H11  1  0.42024000  0.81841000  0.97857000  1.0
  H  H12  1  0.96480000  0.63448000  0.31206000  1.0
  H  H13  1  0.03520000  0.36552000  0.81206000  1.0
  H  H14  1  0.53520000  0.13448000  0.31206000  1.0
  H  H15  1  0.46480000  0.86552000  0.81206000  1.0
  H  H16  1  0.21898000  0.14860000  0.58038000  1.0
  H  H17  1  0.78102000  0.85140000  0.08038000  1.0
  H  H18  1  0.28102000  0.64860000  0.58038000  1.0
  H  H19  1  0.71898000  0.35140000  0.08038000  1.0
  H  H20  1  0.58037000  0.33411000  0.71812000  1.0
  H  H21  1  0.41963000  0.66589000  0.21812000  1.0
  H  H22  1  0.91963000  0.83411000  0.71812000  1.0
  H  H23  1  0.08037000  0.16589000  0.21812000  1.0
  H  H24  1  0.38926000  0.49915000  0.71454000  1.0
  H  H25  1  0.61074000  0.50085000  0.21454000  1.0
  H  H26  1  0.11074000  0.99915000  0.71454000  1.0
  H  H27  1  0.88926000  0.00085000  0.21454000  1.0
  C  C28  1  0.95242000  0.38580000  0.39891000  1.0
  C  C29  1  0.04758000  0.61420000  0.89891000  1.0
  C  C30  1  0.54758000  0.88580000  0.39891000  1.0
  C  C31  1  0.45242000  0.11420000  0.89891000  1.0
  C  C32  1  0.93372000  0.41417000  0.49146000  1.0
  C  C33  1  0.06628000  0.58583000  0.99146000  1.0
  C  C34  1  0.56628000  0.91417000  0.49146000  1.0
  C  C35  1  0.43372000  0.08583000  0.99146000  1.0
  C  C36  1  0.93008000  0.59633000  0.45639000  1.0
  C  C37  1  0.06992000  0.40367000  0.95639000  1.0
  C  C38  1  0.56992000  0.09633000  0.45639000  1.0
  C  C39  1  0.43008000  0.90367000  0.95639000  1.0
  C  C40  1  0.95317000  0.56960000  0.36332000  1.0
  C  C41  1  0.04682000  0.43041000  0.86332000  1.0
  C  C42  1  0.54683000  0.06960000  0.36332000  1.0
  C  C43  1  0.45317000  0.93040000  0.86332000  1.0
  C  C44  1  0.15075000  0.31616000  0.61645000  1.0
  C  C45  1  0.84925000  0.68384000  0.11645000  1.0
  C  C46  1  0.34925000  0.81616000  0.61645000  1.0
  C  C47  1  0.65075000  0.18384000  0.11645000  1.0
  C  C48  1  0.25671000  0.22573000  0.61245000  1.0
  C  C49  1  0.74329000  0.77427000  0.11245000  1.0
  C  C50  1  0.24329000  0.72573000  0.61245000  1.0
  C  C51  1  0.75671000  0.27427000  0.11245000  1.0
  C  C52  1  0.45579000  0.32885000  0.68809000  1.0
  C  C53  1  0.54421000  0.67115000  0.18809000  1.0
  C  C54  1  0.04421000  0.82885000  0.68809000  1.0
  C  C55  1  0.95579000  0.17115000  0.18810000  1.0
  C  C56  1  0.34902000  0.42007000  0.68712000  1.0
  C  C57  1  0.65098000  0.57993000  0.18712000  1.0
  C  C58  1  0.15098000  0.92007000  0.68712000  1.0
  C  C59  1  0.84902000  0.07993000  0.18712000  1.0
  C  C60  1  0.54494000  0.53769000  0.91913000  1.0
  C  C61  1  0.45506000  0.46231000  0.41913000  1.0
  C  C62  1  0.95506000  0.03769000  0.91913000  1.0
  C  C63  1  0.04494000  0.96232000  0.41913000  1.0
  S  S64  1  0.93721000  0.30846000  0.57812000  1.0
  S  S65  1  0.06279000  0.69154000  0.07812000  1.0
  S  S66  1  0.56279000  0.80846000  0.57812000  1.0
  S  S67  1  0.43721000  0.19154000  0.07812000  1.0
  S  S68  1  0.59136000  0.63880000  0.82541000  1.0
  S  S69  1  0.40864000  0.36120000  0.32541000  1.0
  S  S70  1  0.90864000  0.13880000  0.82541000  1.0
  S  S71  1  0.09136000  0.86120000  0.32541000  1.0
  N  N72  1  0.96253000  0.46512000  0.33454000  1.0
  N  N73  1  0.03747000  0.53488000  0.83454000  1.0
  N  N74  1  0.53747000  0.96512000  0.33454000  1.0
  N  N75  1  0.46253000  0.03488000  0.83454000  1.0
  N  N76  1  0.92124000  0.51823000  0.52118000  1.0
  N  N77  1  0.07876000  0.48177000  0.02118000  1.0
  N  N78  1  0.57876000  0.01823000  0.52118000  1.0
  N  N79  1  0.42124000  0.98177000  0.02118000  1.0
  N  N80  1  0.41046000  0.23276000  0.64986000  1.0
  N  N81  1  0.58954000  0.76724000  0.14986000  1.0
  N  N82  1  0.08954000  0.73276000  0.64986000  1.0
  N  N83  1  0.91046000  0.26724000  0.14986000  1.0
  N  N84  1  0.19495000  0.41297000  0.65212000  1.0
  N  N85  1  0.80505000  0.58703000  0.15212000  1.0
  N  N86  1  0.30505000  0.91297000  0.65212000  1.0
  N  N87  1  0.69495000  0.08703000  0.15212000  1.0
  O  O88  1  0.83380000  0.34341000  0.65481000  1.0
  O  O89  1  0.16620000  0.65659000  0.15481000  1.0
  O  O90  1  0.66620000  0.84341000  0.65481000  1.0
  O  O91  1  0.33380000  0.15659000  0.15481000  1.0
  O  O92  1  0.91095000  0.20383000  0.53330000  1.0
  O  O93  1  0.08905000  0.79617000  0.03330000  1.0
  O  O94  1  0.58905000  0.70382000  0.53330000  1.0
  O  O95  1  0.41095000  0.29618000  0.03330000  1.0
  O  O96  1  0.66477000  0.56901000  0.75348000  1.0
  O  O97  1  0.33523000  0.43099000  0.25348000  1.0
  O  O98  1  0.83523000  0.06901000  0.75348000  1.0
  O  O99  1  0.16477000  0.93100000  0.25348000  1.0
  O  O100  1  0.42493000  0.68044000  0.80261000  1.0
  O  O101  1  0.57507000  0.31956000  0.30261000  1.0
  O  O102  1  0.07507000  0.18044000  0.80261000  1.0
  O  O103  1  0.92493000  0.81956000  0.30261000  1.0
  O  O104  1  0.70472000  0.71669000  0.86913000  1.0
  O  O105  1  0.29528000  0.28332000  0.36913000  1.0
  O  O106  1  0.79528000  0.21669000  0.86913000  1.0
  O  O107  1  0.20472000  0.78332000  0.36913000  1.0
  F  F108  1  0.44517000  0.45554000  0.88778000  1.0
  F  F109  1  0.55483000  0.54446000  0.38778000  1.0
  F  F110  1  0.05483000  0.95554000  0.88778000  1.0
  F  F111  1  0.94517000  0.04446000  0.38778000  1.0
  F  F112  1  0.46468000  0.58754000  0.99092000  1.0
  F  F113  1  0.53531000  0.41246000  0.49093000  1.0
  F  F114  1  0.03532000  0.08754000  0.99092000  1.0
  F  F115  1  0.96468000  0.91246000  0.49093000  1.0
  F  F116  1  0.68721000  0.49134000  0.95316000  1.0
  F  F117  1  0.31279000  0.50866000  0.45316000  1.0
  F  F118  1  0.81279000  0.99134000  0.95316000  1.0
  F  F119  1  0.18721000  0.00866000  0.45316000  1.0
