# generated using pymatgen
data_Y2P2H16C14N2O19
_symmetry_space_group_name_H-M   'P 1'
_cell_length_a   11.48040000
_cell_length_b   14.57670000
_cell_length_c   16.32050000
_cell_angle_alpha   89.99950000
_cell_angle_beta   90.00000000
_cell_angle_gamma   89.99970000
_symmetry_Int_Tables_number   1
_chemical_formula_structural   Y2P2H16C14N2O19
_chemical_formula_sum   'Y8 P8 H64 C56 N8 O76'
_cell_volume   2731.17605085
_cell_formula_units_Z   4
loop_
 _symmetry_equiv_pos_site_id
 _symmetry_equiv_pos_as_xyz
  1  'x, y, z'
loop_
 _atom_site_type_symbol
 _atom_site_label
 _atom_site_symmetry_multiplicity
 _atom_site_fract_x
 _atom_site_fract_y
 _atom_site_fract_z
 _atom_site_occupancy
  Y  Y0  1  0.27461000  0.25973000  0.43306000  1.0
  Y  Y1  1  0.22539000  0.74027000  0.93306000  1.0
  Y  Y2  1  0.72539000  0.75973000  0.06693000  1.0
  Y  Y3  1  0.77461000  0.24027000  0.56693000  1.0
  Y  Y4  1  0.23832000  0.20128000  0.05325000  1.0
  Y  Y5  1  0.26168000  0.79871000  0.55325000  1.0
  Y  Y6  1  0.76168000  0.70129000  0.44675000  1.0
  Y  Y7  1  0.73832000  0.29872000  0.94675000  1.0
  P  P8  1  0.26808000  0.18405000  0.82629000  1.0
  P  P9  1  0.23193000  0.81594000  0.32629000  1.0
  P  P10  1  0.73193000  0.68406000  0.67371000  1.0
  P  P11  1  0.76808000  0.31595000  0.17371000  1.0
  P  P12  1  0.32194000  0.04607000  0.54331000  1.0
  P  P13  1  0.17806000  0.95393000  0.04331000  1.0
  P  P14  1  0.67806000  0.54607000  0.95669000  1.0
  P  P15  1  0.82195000  0.45393000  0.45669000  1.0
  H  H16  1  0.41190000  0.24527000  0.75523000  1.0
  H  H17  1  0.08810000  0.75472000  0.25524000  1.0
  H  H18  1  0.58811000  0.74528000  0.74476000  1.0
  H  H19  1  0.91189000  0.25472000  0.24477000  1.0
  H  H20  1  0.47470000  0.96201000  0.53890000  1.0
  H  H21  1  0.02530000  0.03799000  0.03890000  1.0
  H  H22  1  0.52529000  0.46201000  0.96111000  1.0
  H  H23  1  0.97471000  0.53799000  0.46110000  1.0
  H  H24  1  0.28971000  0.48169000  0.46804000  1.0
  H  H25  1  0.21030000  0.51831000  0.96804000  1.0
  H  H26  1  0.71029000  0.98170000  0.03196000  1.0
  H  H27  1  0.78971000  0.01830000  0.53196000  1.0
  H  H28  1  0.27071000  0.44538000  0.37732000  1.0
  H  H29  1  0.22930000  0.55462000  0.87732000  1.0
  H  H30  1  0.72928000  0.94537000  0.12268000  1.0
  H  H31  1  0.77071000  0.05463000  0.62269000  1.0
  H  H32  1  0.24134000  0.97532000  0.69517000  1.0
  H  H33  1  0.25867000  0.02468000  0.19517000  1.0
  H  H34  1  0.75866000  0.47532000  0.80483000  1.0
  H  H35  1  0.74134000  0.52468000  0.30483000  1.0
  H  H36  1  0.86303000  0.83487000  0.74038000  1.0
  H  H37  1  0.63697000  0.16513000  0.24037000  1.0
  H  H38  1  0.13697000  0.33486000  0.75963000  1.0
  H  H39  1  0.36303000  0.66514000  0.25963000  1.0
  H  H40  1  0.34487000  0.03054000  0.80464000  1.0
  H  H41  1  0.15513000  0.96946000  0.30464000  1.0
  H  H42  1  0.65513000  0.53055000  0.69536000  1.0
  H  H43  1  0.84487000  0.46946000  0.19536000  1.0
  H  H44  1  0.19640000  0.02790000  0.82952000  1.0
  H  H45  1  0.30361000  0.97210000  0.32952000  1.0
  H  H46  1  0.80360000  0.52790000  0.67048000  1.0
  H  H47  1  0.69640000  0.47210000  0.17048000  1.0
  H  H48  1  0.40587000  0.08448000  0.67585000  1.0
  H  H49  1  0.09413000  0.91551000  0.17585000  1.0
  H  H50  1  0.59413000  0.58449000  0.82415000  1.0
  H  H51  1  0.90588000  0.41551000  0.32414000  1.0
  H  H52  1  0.29958000  0.16751000  0.64545000  1.0
  H  H53  1  0.20042000  0.83249000  0.14545000  1.0
  H  H54  1  0.70042000  0.66751000  0.85455000  1.0
  H  H55  1  0.79958000  0.33249000  0.35455000  1.0
  H  H56  1  0.10203000  0.14791000  0.68185000  1.0
  H  H57  1  0.39798000  0.85209000  0.18185000  1.0
  H  H58  1  0.89798000  0.64791000  0.81815000  1.0
  H  H59  1  0.60203000  0.35209000  0.31815000  1.0
  H  H60  1  0.10092000  0.04952000  0.61547000  1.0
  H  H61  1  0.39908000  0.95048000  0.11547000  1.0
  H  H62  1  0.89907000  0.54952000  0.88453000  1.0
  H  H63  1  0.60093000  0.45048000  0.38453000  1.0
  H  H64  1  0.00805000  0.13695000  0.82111000  1.0
  H  H65  1  0.49195000  0.86306000  0.32111000  1.0
  H  H66  1  0.99195000  0.63694000  0.67889000  1.0
  H  H67  1  0.50806000  0.36306000  0.17889000  1.0
  H  H68  1  0.86141000  0.05579000  0.90763000  1.0
  H  H69  1  0.63858000  0.94421000  0.40763000  1.0
  H  H70  1  0.13858000  0.55578000  0.59237000  1.0
  H  H71  1  0.36142000  0.44421000  0.09237000  1.0
  H  H72  1  0.79363000  0.89662000  0.86231000  1.0
  H  H73  1  0.70636000  0.10339000  0.36232000  1.0
  H  H74  1  0.20636000  0.39661000  0.63769000  1.0
  H  H75  1  0.29364000  0.60339000  0.13769000  1.0
  H  H76  1  0.00175000  0.90621000  0.65459000  1.0
  H  H77  1  0.49825000  0.09379000  0.15459000  1.0
  H  H78  1  0.99825000  0.40621000  0.84541000  1.0
  H  H79  1  0.50175000  0.59379000  0.34541000  1.0
  C  C80  1  0.26115000  0.06423000  0.79233000  1.0
  C  C81  1  0.23886000  0.93577000  0.29232000  1.0
  C  C82  1  0.73886000  0.56423000  0.70768000  1.0
  C  C83  1  0.76115000  0.43577000  0.20768000  1.0
  C  C84  1  0.31941000  0.09392000  0.64855000  1.0
  C  C85  1  0.18059000  0.90608000  0.14855000  1.0
  C  C86  1  0.68059000  0.59392000  0.85145000  1.0
  C  C87  1  0.81941000  0.40608000  0.35145000  1.0
  C  C88  1  0.10944000  0.07316000  0.67900000  1.0
  C  C89  1  0.39057000  0.92685000  0.17900000  1.0
  C  C90  1  0.89057000  0.57315000  0.82100000  1.0
  C  C91  1  0.60944000  0.42685000  0.32100000  1.0
  C  C92  1  0.01985000  0.02775000  0.73243000  1.0
  C  C93  1  0.48015000  0.97226000  0.23242000  1.0
  C  C94  1  0.98015000  0.52774000  0.76758000  1.0
  C  C95  1  0.51986000  0.47226000  0.26758000  1.0
  C  C96  1  0.97701000  0.06886000  0.80395000  1.0
  C  C97  1  0.52299000  0.93114000  0.30395000  1.0
  C  C98  1  0.02299000  0.56886000  0.69605000  1.0
  C  C99  1  0.47701000  0.43114000  0.19605000  1.0
  C  C100  1  0.89496000  0.02375000  0.85235000  1.0
  C  C101  1  0.60504000  0.97625000  0.35235000  1.0
  C  C102  1  0.10504000  0.52375000  0.64765000  1.0
  C  C103  1  0.39496000  0.47626000  0.14765000  1.0
  C  C104  1  0.85528000  0.93831000  0.82789000  1.0
  C  C105  1  0.64472000  0.06169000  0.32789000  1.0
  C  C106  1  0.14472000  0.43831000  0.67211000  1.0
  C  C107  1  0.35528000  0.56169000  0.17211000  1.0
  C  C108  1  0.97538000  0.94246000  0.71036000  1.0
  C  C109  1  0.52462000  0.05754000  0.21036000  1.0
  C  C110  1  0.02461000  0.44246000  0.78965000  1.0
  C  C111  1  0.47539000  0.55754000  0.28964000  1.0
  C  C112  1  0.50081000  0.26493000  0.54643000  1.0
  C  C113  1  0.99918000  0.73507000  0.04643000  1.0
  C  C114  1  0.49918000  0.76493000  0.95356000  1.0
  C  C115  1  0.00082000  0.23506000  0.45357000  1.0
  C  C116  1  0.54581000  0.24110000  0.45913000  1.0
  C  C117  1  0.95419000  0.75891000  0.95913000  1.0
  C  C118  1  0.45419000  0.74110000  0.04086000  1.0
  C  C119  1  0.04581000  0.25889000  0.54087000  1.0
  C  C120  1  0.25670000  0.18275000  0.25098000  1.0
  C  C121  1  0.24329000  0.81725000  0.75098000  1.0
  C  C122  1  0.74329000  0.68275000  0.24902000  1.0
  C  C123  1  0.75671000  0.31725000  0.74902000  1.0
  C  C124  1  0.24927000  0.28732000  0.23663000  1.0
  C  C125  1  0.25073000  0.71268000  0.73663000  1.0
  C  C126  1  0.75072000  0.78732000  0.26336000  1.0
  C  C127  1  0.74927000  0.21268000  0.76337000  1.0
  C  C128  1  0.46527000  0.30257000  0.98753000  1.0
  C  C129  1  0.03472000  0.69744000  0.48753000  1.0
  C  C130  1  0.53472000  0.80256000  0.51248000  1.0
  C  C131  1  0.96528000  0.19743000  0.01247000  1.0
  C  C132  1  0.50860000  0.20732000  0.01666000  1.0
  C  C133  1  0.99139000  0.79269000  0.51665000  1.0
  C  C134  1  0.49140000  0.70731000  0.48335000  1.0
  C  C135  1  0.00860000  0.29268000  0.98334000  1.0
  N  N136  1  0.23293000  0.04823000  0.70374000  1.0
  N  N137  1  0.26707000  0.95177000  0.20374000  1.0
  N  N138  1  0.76706000  0.54823000  0.79626000  1.0
  N  N139  1  0.73294000  0.45177000  0.29626000  1.0
  N  N140  1  0.89553000  0.90113000  0.75791000  1.0
  N  N141  1  0.60447000  0.09887000  0.25790000  1.0
  N  N142  1  0.10447000  0.40112000  0.74210000  1.0
  N  N143  1  0.39552000  0.59888000  0.24210000  1.0
  O  O144  1  0.18156000  0.23878000  0.77704000  1.0
  O  O145  1  0.31845000  0.76122000  0.27704000  1.0
  O  O146  1  0.81845000  0.73879000  0.72295000  1.0
  O  O147  1  0.68155000  0.26122000  0.22295000  1.0
  O  O148  1  0.25508000  0.17828000  0.91760000  1.0
  O  O149  1  0.24493000  0.82171000  0.41760000  1.0
  O  O150  1  0.74493000  0.67828000  0.58240000  1.0
  O  O151  1  0.75508000  0.32172000  0.08240000  1.0
  O  O152  1  0.40003000  0.21759000  0.80908000  1.0
  O  O153  1  0.09998000  0.78240000  0.30909000  1.0
  O  O154  1  0.59998000  0.71760000  0.69091000  1.0
  O  O155  1  0.90003000  0.28240000  0.19092000  1.0
  O  O156  1  0.25432000  0.95746000  0.54413000  1.0
  O  O157  1  0.24568000  0.04254000  0.04413000  1.0
  O  O158  1  0.74568000  0.45746000  0.95587000  1.0
  O  O159  1  0.75432000  0.54254000  0.45587000  1.0
  O  O160  1  0.27902000  0.11982000  0.48628000  1.0
  O  O161  1  0.22098000  0.88017000  0.98629000  1.0
  O  O162  1  0.72099000  0.61982000  0.01371000  1.0
  O  O163  1  0.77903000  0.38017000  0.51371000  1.0
  O  O164  1  0.45691000  0.02882000  0.52667000  1.0
  O  O165  1  0.04309000  0.97118000  0.02667000  1.0
  O  O166  1  0.54309000  0.52882000  0.97333000  1.0
  O  O167  1  0.95692000  0.47118000  0.47333000  1.0
  O  O168  1  0.39443000  0.28678000  0.55243000  1.0
  O  O169  1  0.10556000  0.71321000  0.05243000  1.0
  O  O170  1  0.60557000  0.78678000  0.94756000  1.0
  O  O171  1  0.89443000  0.21321000  0.44757000  1.0
  O  O172  1  0.57428000  0.25966000  0.60425000  1.0
  O  O173  1  0.92572000  0.74033000  0.10425000  1.0
  O  O174  1  0.42573000  0.75966000  0.89574000  1.0
  O  O175  1  0.07427000  0.24034000  0.39575000  1.0
  O  O176  1  0.65187000  0.21850000  0.45301000  1.0
  O  O177  1  0.84813000  0.78151000  0.95301000  1.0
  O  O178  1  0.34813000  0.71849000  0.04698000  1.0
  O  O179  1  0.15187000  0.28150000  0.54698000  1.0
  O  O180  1  0.47348000  0.24678000  0.40065000  1.0
  O  O181  1  0.02651000  0.75324000  0.90065000  1.0
  O  O182  1  0.52652000  0.74677000  0.09934000  1.0
  O  O183  1  0.97348000  0.25322000  0.59935000  1.0
  O  O184  1  0.27754000  0.15324000  0.32139000  1.0
  O  O185  1  0.22246000  0.84676000  0.82139000  1.0
  O  O186  1  0.72246000  0.65324000  0.17861000  1.0
  O  O187  1  0.77754000  0.34676000  0.67861000  1.0
  O  O188  1  0.24232000  0.13325000  0.18686000  1.0
  O  O189  1  0.25768000  0.86675000  0.68685000  1.0
  O  O190  1  0.75768000  0.63325000  0.31315000  1.0
  O  O191  1  0.74232000  0.36675000  0.81314000  1.0
  O  O192  1  0.23648000  0.31272000  0.16320000  1.0
  O  O193  1  0.26351000  0.68729000  0.66320000  1.0
  O  O194  1  0.76351000  0.81272000  0.33680000  1.0
  O  O195  1  0.73648000  0.18729000  0.83680000  1.0
  O  O196  1  0.25908000  0.33702000  0.30009000  1.0
  O  O197  1  0.24091000  0.66298000  0.80009000  1.0
  O  O198  1  0.74090000  0.83702000  0.19991000  1.0
  O  O199  1  0.75909000  0.16298000  0.69991000  1.0
  O  O200  1  0.53996000  0.35179000  0.94949000  1.0
  O  O201  1  0.96003000  0.64822000  0.44948000  1.0
  O  O202  1  0.46003000  0.85178000  0.55052000  1.0
  O  O203  1  0.03996000  0.14822000  0.05052000  1.0
  O  O204  1  0.36331000  0.32594000  0.00589000  1.0
  O  O205  1  0.13668000  0.67407000  0.50590000  1.0
  O  O206  1  0.63668000  0.82593000  0.49411000  1.0
  O  O207  1  0.86331000  0.17406000  0.99411000  1.0
  O  O208  1  0.43678000  0.16217000  0.05998000  1.0
  O  O209  1  0.06321000  0.83784000  0.55999000  1.0
  O  O210  1  0.56322000  0.66217000  0.44002000  1.0
  O  O211  1  0.93678000  0.33783000  0.94001000  1.0
  O  O212  1  0.61064000  0.18376000  0.99783000  1.0
  O  O213  1  0.88936000  0.81625000  0.49782000  1.0
  O  O214  1  0.38936000  0.68376000  0.50218000  1.0
  O  O215  1  0.11064000  0.31624000  0.00217000  1.0
  O  O216  1  0.28991000  0.42739000  0.43342000  1.0
  O  O217  1  0.21009000  0.57260000  0.93342000  1.0
  O  O218  1  0.71008000  0.92740000  0.06658000  1.0
  O  O219  1  0.78991000  0.07261000  0.56658000  1.0
