# generated using pymatgen
data_LaH15(C8O3)3
_symmetry_space_group_name_H-M   'P 1'
_cell_length_a   7.82915000
_cell_length_b   9.44943000
_cell_length_c   13.74210000
_cell_angle_alpha   79.38570000
_cell_angle_beta   89.38150000
_cell_angle_gamma   84.78980000
_symmetry_Int_Tables_number   1
_chemical_formula_structural   LaH15(C8O3)3
_chemical_formula_sum   'La2 H30 C48 O18'
_cell_volume   995.11184345
_cell_formula_units_Z   2
loop_
 _symmetry_equiv_pos_site_id
 _symmetry_equiv_pos_as_xyz
  1  'x, y, z'
loop_
 _atom_site_type_symbol
 _atom_site_label
 _atom_site_symmetry_multiplicity
 _atom_site_fract_x
 _atom_site_fract_y
 _atom_site_fract_z
 _atom_site_occupancy
  La  La0  1  0.25819000  0.96916000  0.55170000  1.0
  La  La1  1  0.74181000  0.03085000  0.44830000  1.0
  H  H2  1  0.16362000  0.04275000  0.77524000  1.0
  H  H3  1  0.83638000  0.95725000  0.22476000  1.0
  H  H4  1  0.95121000  0.89325000  0.68872000  1.0
  H  H5  1  0.04879000  0.10675000  0.31128000  1.0
  H  H6  1  0.11637000  0.82354000  0.75985000  1.0
  H  H7  1  0.88363000  0.17647000  0.24015000  1.0
  H  H8  1  0.17115000  0.16364000  0.16154000  1.0
  H  H9  1  0.82885000  0.83635000  0.83847000  1.0
  H  H10  1  0.84792000  0.37420000  0.43560000  1.0
  H  H11  1  0.15209000  0.62580000  0.56440000  1.0
  H  H12  1  0.69430000  0.54223000  0.24211000  1.0
  H  H13  1  0.30570000  0.45776000  0.75788000  1.0
  H  H14  1  0.64877000  0.59505000  0.42584000  1.0
  H  H15  1  0.35124000  0.40496000  0.57415000  1.0
  H  H16  1  0.98620000  0.37443000  0.92175000  1.0
  H  H17  1  0.01379000  0.62557000  0.07825000  1.0
  H  H18  1  0.11304000  0.12882000  0.99163000  1.0
  H  H19  1  0.88696000  0.87119000  0.00837000  1.0
  H  H20  1  0.04745000  0.26433000  0.77545000  1.0
  H  H21  1  0.95254000  0.73567000  0.22455000  1.0
  H  H22  1  0.61840000  0.69035000  0.75539000  1.0
  H  H23  1  0.38159000  0.30965000  0.24461000  1.0
  H  H24  1  0.55555000  0.75591000  0.30206000  1.0
  H  H25  1  0.44446000  0.24408000  0.69794000  1.0
  H  H26  1  0.77153000  0.58854000  0.91258000  1.0
  H  H27  1  0.22846000  0.41146000  0.08742000  1.0
  H  H28  1  0.45895000  0.69254000  0.95571000  1.0
  H  H29  1  0.54104000  0.30746000  0.04428000  1.0
  H  H30  1  0.65458000  0.51613000  0.06755000  1.0
  H  H31  1  0.34541000  0.48386000  0.93244000  1.0
  C  C32  1  0.01075000  0.21660000  0.58666000  1.0
  C  C33  1  0.98925000  0.78341000  0.41334000  1.0
  C  C34  1  0.89774000  0.35070000  0.59096000  1.0
  C  C35  1  0.10226000  0.64930000  0.40904000  1.0
  C  C36  1  0.66734000  0.60049000  0.58071000  1.0
  C  C37  1  0.33267000  0.39951000  0.41929000  1.0
  C  C38  1  0.86959000  0.41275000  0.67836000  1.0
  C  C39  1  0.13041000  0.58725000  0.32163000  1.0
  C  C40  1  0.38288000  0.00241000  0.29778000  1.0
  C  C41  1  0.61712000  0.99758000  0.70223000  1.0
  C  C42  1  0.34168000  0.96996000  0.19790000  1.0
  C  C43  1  0.65833000  0.03003000  0.80210000  1.0
  C  C44  1  0.53158000  0.72358000  0.57180000  1.0
  C  C45  1  0.46842000  0.27642000  0.42820000  1.0
  C  C46  1  0.38970000  0.82591000  0.06498000  1.0
  C  C47  1  0.61030000  0.17409000  0.93502000  1.0
  C  C48  1  0.74807000  0.53804000  0.67315000  1.0
  C  C49  1  0.25193000  0.46196000  0.32685000  1.0
  C  C50  1  0.23092000  0.06832000  0.13621000  1.0
  C  C51  1  0.76908000  0.93168000  0.86380000  1.0
  C  C52  1  0.81981000  0.41857000  0.50222000  1.0
  C  C53  1  0.18018000  0.58144000  0.49778000  1.0
  C  C54  1  0.27430000  0.93073000  0.00367000  1.0
  C  C55  1  0.72570000  0.06927000  0.99633000  1.0
  C  C56  1  0.61180000  0.62327000  0.19307000  1.0
  C  C57  1  0.38820000  0.37672000  0.80692000  1.0
  C  C58  1  0.42195000  0.84579000  0.16440000  1.0
  C  C59  1  0.57806000  0.15421000  0.83560000  1.0
  C  C60  1  0.70777000  0.54416000  0.49644000  1.0
  C  C61  1  0.29224000  0.45584000  0.50356000  1.0
  C  C62  1  0.91940000  0.41957000  0.85214000  1.0
  C  C63  1  0.08059000  0.58043000  0.14786000  1.0
  C  C64  1  0.19904000  0.04950000  0.03953000  1.0
  C  C65  1  0.80096000  0.95050000  0.96048000  1.0
  C  C66  1  0.95317000  0.35655000  0.77029000  1.0
  C  C67  1  0.04683000  0.64345000  0.22971000  1.0
  C  C68  1  0.71470000  0.59878000  0.75925000  1.0
  C  C69  1  0.28530000  0.40122000  0.24075000  1.0
  C  C70  1  0.53185000  0.74046000  0.22699000  1.0
  C  C71  1  0.46816000  0.25953000  0.77301000  1.0
  C  C72  1  0.22561000  0.91755000  0.90185000  1.0
  C  C73  1  0.77439000  0.08244000  0.09815000  1.0
  C  C74  1  0.79910000  0.54109000  0.84697000  1.0
  C  C75  1  0.20089000  0.45891000  0.15303000  1.0
  C  C76  1  0.47908000  0.70637000  0.03147000  1.0
  C  C77  1  0.52091000  0.29363000  0.96852000  1.0
  C  C78  1  0.58788000  0.60811000  0.09395000  1.0
  C  C79  1  0.41211000  0.39188000  0.90604000  1.0
  O  O80  1  0.18858000  0.04752000  0.84490000  1.0
  O  O81  1  0.81143000  0.95249000  0.15510000  1.0
  O  O82  1  0.25887000  0.02033000  0.35735000  1.0
  O  O83  1  0.74114000  0.97966000  0.64265000  1.0
  O  O84  1  0.54601000  0.83539000  0.50249000  1.0
  O  O85  1  0.45400000  0.16461000  0.49751000  1.0
  O  O86  1  0.53869000  0.01394000  0.31549000  1.0
  O  O87  1  0.46131000  0.98606000  0.68451000  1.0
  O  O88  1  0.98383000  0.14745000  0.51560000  1.0
  O  O89  1  0.01617000  0.85255000  0.48440000  1.0
  O  O90  1  0.40200000  0.71612000  0.62715000  1.0
  O  O91  1  0.59800000  0.28389000  0.37285000  1.0
  O  O92  1  0.13435000  0.17029000  0.64653000  1.0
  O  O93  1  0.86566000  0.82972000  0.35347000  1.0
  O  O94  1  0.07386000  0.85655000  0.69033000  1.0
  O  O95  1  0.92614000  0.14346000  0.30968000  1.0
  O  O96  1  0.21417000  0.80204000  0.87272000  1.0
  O  O97  1  0.78582000  0.19798000  0.12729000  1.0
