# generated using pymatgen
data_AlH5C8SNO6
_symmetry_space_group_name_H-M   'P 1'
_cell_length_a   6.72091000
_cell_length_b   11.11310286
_cell_length_c   12.60272501
_cell_angle_alpha   76.44932726
_cell_angle_beta   76.93027490
_cell_angle_gamma   73.30863962
_symmetry_Int_Tables_number   1
_chemical_formula_structural   AlH5C8SNO6
_chemical_formula_sum   'Al2 H10 C16 S2 N2 O12'
_cell_volume   863.69379878
_cell_formula_units_Z   2
loop_
 _symmetry_equiv_pos_site_id
 _symmetry_equiv_pos_as_xyz
  1  'x, y, z'
loop_
 _atom_site_type_symbol
 _atom_site_label
 _atom_site_symmetry_multiplicity
 _atom_site_fract_x
 _atom_site_fract_y
 _atom_site_fract_z
 _atom_site_occupancy
  Al  Al0  1  0.50000000  0.50059000  0.49999000  1.0
  Al  Al1  1  0.99997000  0.50034000  0.50020000  1.0
  H  H2  1  0.26626000  0.36590000  0.61177000  1.0
  H  H3  1  0.73781000  0.63123000  0.38517000  1.0
  H  H4  1  0.38150000  0.89100000  0.47289000  1.0
  H  H5  1  0.61806000  0.10954000  0.52713000  1.0
  H  H6  1  0.23429000  0.22367000  0.46467000  1.0
  H  H7  1  0.76537000  0.77690000  0.53496000  1.0
  H  H8  1  0.92111000  0.42466000  0.12859000  1.0
  H  H9  1  0.75768000  0.44118000  0.25543000  1.0
  H  H10  1  0.07866000  0.57417000  0.87165000  1.0
  H  H11  1  0.24234000  0.55790000  0.74479000  1.0
  C  C12  1  0.66549000  0.48888000  0.69829000  1.0
  C  C13  1  0.86404000  0.27122000  0.49960000  1.0
  C  C14  1  0.33447000  0.51167000  0.30183000  1.0
  C  C15  1  0.13568000  0.72936000  0.50067000  1.0
  C  C16  1  0.93562000  0.13270000  0.49871000  1.0
  C  C17  1  0.06400000  0.86791000  0.50138000  1.0
  C  C18  1  0.15456000  0.06997000  0.48152000  1.0
  C  C19  1  0.84504000  0.93062000  0.51844000  1.0
  C  C20  1  0.21436000  0.93861000  0.48374000  1.0
  C  C21  1  0.78522000  0.06199000  0.51629000  1.0
  C  C22  1  0.60164000  0.46965000  0.12878000  1.0
  C  C23  1  0.39813000  0.52937000  0.87157000  1.0
  C  C24  1  0.39335000  0.50654000  0.18539000  1.0
  C  C25  1  0.60650000  0.49292000  0.81493000  1.0
  C  C26  1  0.39929000  0.52061000  0.98632000  1.0
  C  C27  1  0.60040000  0.47822000  0.01408000  1.0
  S  S28  1  0.20417000  0.55134000  0.09878000  1.0
  S  S29  1  0.79559000  0.44782000  0.90162000  1.0
  N  N30  1  0.77676000  0.42842000  0.17608000  1.0
  N  N31  1  0.22304000  0.57043000  0.82424000  1.0
  O  O32  1  0.51120000  0.50609000  0.64672000  1.0
  O  O33  1  0.01040000  0.33136000  0.48460000  1.0
  O  O34  1  0.13951000  0.53208000  0.34749000  1.0
  O  O35  1  0.33133000  0.67563000  0.48488000  1.0
  O  O36  1  0.48888000  0.49521000  0.35314000  1.0
  O  O37  1  0.98951000  0.66907000  0.51593000  1.0
  O  O38  1  0.86046000  0.46872000  0.65271000  1.0
  O  O39  1  0.66838000  0.32512000  0.51527000  1.0
  O  O40  1  0.25772000  0.43775000  0.55079000  1.0
  O  O41  1  0.74252000  0.56308000  0.44927000  1.0
  O  O42  1  0.30889000  0.13244000  0.46267000  1.0
  O  O43  1  0.69081000  0.86814000  0.53706000  1.0
