# generated using pymatgen
data_Al2H3C12S2Cl(O5F)2
_symmetry_space_group_name_H-M   'P 1'
_cell_length_a   6.65584000
_cell_length_b   8.81200000
_cell_length_c   12.64540000
_cell_angle_alpha   71.06760000
_cell_angle_beta   75.93860000
_cell_angle_gamma   75.61020000
_symmetry_Int_Tables_number   1
_chemical_formula_structural   Al2H3C12S2Cl(O5F)2
_chemical_formula_sum   'Al2 H3 C12 S2 Cl1 O10 F2'
_cell_volume   668.78629447
_cell_formula_units_Z   1
loop_
 _symmetry_equiv_pos_site_id
 _symmetry_equiv_pos_as_xyz
  1  'x, y, z'
loop_
 _atom_site_type_symbol
 _atom_site_label
 _atom_site_symmetry_multiplicity
 _atom_site_fract_x
 _atom_site_fract_y
 _atom_site_fract_z
 _atom_site_occupancy
  Al  Al0  1  0.50322000  0.50200000  0.49415000  1.0
  Al  Al1  1  0.00205000  0.49800000  0.49897000  1.0
  H  H2  1  0.72600000  0.70494000  0.41971000  1.0
  H  H3  1  0.24082000  0.36651000  0.63481000  1.0
  H  H4  1  0.68009000  0.61063000  0.12769000  1.0
  C  C5  1  0.32914000  0.51710000  0.29963000  1.0
  C  C6  1  0.16766000  0.78524000  0.48856000  1.0
  C  C7  1  0.67002000  0.47561000  0.69737000  1.0
  C  C8  1  0.83511000  0.22007000  0.50128000  1.0
  C  C9  1  0.90250000  0.04867000  0.49367000  1.0
  C  C10  1  0.09896000  0.95638000  0.49686000  1.0
  C  C11  1  0.42638000  0.42953000  0.89431000  1.0
  C  C12  1  0.56828000  0.55998000  0.10527000  1.0
  C  C13  1  0.59967000  0.48138000  0.81556000  1.0
  C  C14  1  0.39316000  0.51032000  0.18138000  1.0
  C  C15  1  0.57812000  0.53376000  0.99952000  1.0
  C  C16  1  0.41231000  0.46108000  0.99885000  1.0
  S  S17  1  0.74683000  0.56573000  0.87074000  1.0
  S  S18  1  0.24043000  0.43003000  0.12647000  1.0
  Cl  Cl19  1  0.25303000  0.33062000  0.87514000  1.0
  O  O20  1  0.46008000  0.55325000  0.34204000  1.0
  O  O21  1  0.03392000  0.72156000  0.46895000  1.0
  O  O22  1  0.85683000  0.50148000  0.65140000  1.0
  O  O23  1  0.65233000  0.29026000  0.48078000  1.0
  O  O24  1  0.54099000  0.44639000  0.64994000  1.0
  O  O25  1  0.96452000  0.27962000  0.52782000  1.0
  O  O26  1  0.14673000  0.48705000  0.35013000  1.0
  O  O27  1  0.35594000  0.71977000  0.50193000  1.0
  O  O28  1  0.75053000  0.58641000  0.44275000  1.0
  O  O29  1  0.25371000  0.42086000  0.55403000  1.0
  F  F30  1  0.74731000  0.98716000  0.48025000  1.0
  F  F31  1  0.25389000  0.01840000  0.50952000  1.0
