# generated using pymatgen
data_CuH13C19N3O5
_symmetry_space_group_name_H-M   'P 1'
_cell_length_a   8.38070000
_cell_length_b   10.19220000
_cell_length_c   11.56820000
_cell_angle_alpha   114.24800000
_cell_angle_beta   102.87900000
_cell_angle_gamma   98.39250000
_symmetry_Int_Tables_number   1
_chemical_formula_structural   CuH13C19N3O5
_chemical_formula_sum   'Cu2 H26 C38 N6 O10'
_cell_volume   846.35590677
_cell_formula_units_Z   2
loop_
 _symmetry_equiv_pos_site_id
 _symmetry_equiv_pos_as_xyz
  1  'x, y, z'
loop_
 _atom_site_type_symbol
 _atom_site_label
 _atom_site_symmetry_multiplicity
 _atom_site_fract_x
 _atom_site_fract_y
 _atom_site_fract_z
 _atom_site_occupancy
  Cu  Cu0  1  0.13942000  0.84985000  0.43423000  1.0
  Cu  Cu1  1  0.86058000  0.15017000  0.56577000  1.0
  H  H2  1  0.59959000  0.32547000  0.81577000  1.0
  H  H3  1  0.40042000  0.67454000  0.18423000  1.0
  H  H4  1  0.13063000  0.89408000  0.19183000  1.0
  H  H5  1  0.86936000  0.10592000  0.80817000  1.0
  H  H6  1  0.96194000  0.75773000  0.94608000  1.0
  H  H7  1  0.03807000  0.24227000  0.05391000  1.0
  H  H8  1  0.74522000  0.51791000  0.86082000  1.0
  H  H9  1  0.25479000  0.48210000  0.13917000  1.0
  H  H10  1  0.87745000  0.56912000  0.26275000  1.0
  H  H11  1  0.12255000  0.43088000  0.73724000  1.0
  H  H12  1  0.41679000  0.12969000  0.63193000  1.0
  H  H13  1  0.58325000  0.87029000  0.36807000  1.0
  H  H14  1  0.44053000  0.15731000  0.01825000  1.0
  H  H15  1  0.55947000  0.84269000  0.98175000  1.0
  H  H16  1  0.21845000  0.91214000  0.89928000  1.0
  H  H17  1  0.78157000  0.08785000  0.10071000  1.0
  H  H18  1  0.10392000  0.78775000  0.64922000  1.0
  H  H19  1  0.89612000  0.21225000  0.35077000  1.0
  H  H20  1  0.42625000  0.10098000  0.32685000  1.0
  H  H21  1  0.57374000  0.89904000  0.67314000  1.0
  H  H22  1  0.58021000  0.26095000  0.24794000  1.0
  H  H23  1  0.41977000  0.73908000  0.75208000  1.0
  H  H24  1  0.51468000  0.49884000  0.27789000  1.0
  H  H25  1  0.48528000  0.50118000  0.72213000  1.0
  H  H26  1  0.14680000  0.42333000  0.46655000  1.0
  H  H27  1  0.85317000  0.57665000  0.53345000  1.0
  C  C28  1  0.03376000  0.78862000  0.14835000  1.0
  C  C29  1  0.96624000  0.21138000  0.85164000  1.0
  C  C30  1  0.93992000  0.71273000  0.01357000  1.0
  C  C31  1  0.06010000  0.28728000  0.98642000  1.0
  C  C32  1  0.81856000  0.57841000  0.96612000  1.0
  C  C33  1  0.18145000  0.42160000  0.03387000  1.0
  C  C34  1  0.79561000  0.52246000  0.05483000  1.0
  C  C35  1  0.20440000  0.47755000  0.94518000  1.0
  C  C36  1  0.89298000  0.60692000  0.18960000  1.0
  C  C37  1  0.10703000  0.39309000  0.81040000  1.0
  C  C38  1  0.37398000  0.08588000  0.69441000  1.0
  C  C39  1  0.62604000  0.91410000  0.30558000  1.0
  C  C40  1  0.44774000  0.16237000  0.83415000  1.0
  C  C41  1  0.55229000  0.83761000  0.16584000  1.0
  C  C42  1  0.38828000  0.10078000  0.91024000  1.0
  C  C43  1  0.61175000  0.89922000  0.08976000  1.0
  C  C44  1  0.26322000  0.96553000  0.84364000  1.0
  C  C45  1  0.73680000  0.03445000  0.15636000  1.0
  C  C46  1  0.19819000  0.89530000  0.70530000  1.0
  C  C47  1  0.80184000  0.10469000  0.29470000  1.0
  C  C48  1  0.67575000  0.37672000  0.01750000  1.0
  C  C49  1  0.32425000  0.62328000  0.98251000  1.0
  C  C50  1  0.27706000  0.25155000  0.40052000  1.0
  C  C51  1  0.72292000  0.74847000  0.59949000  1.0
  C  C52  1  0.39712000  0.20484000  0.33668000  1.0
  C  C53  1  0.60286000  0.79516000  0.66332000  1.0
  C  C54  1  0.48213000  0.29331000  0.29257000  1.0
  C  C55  1  0.51786000  0.70670000  0.70744000  1.0
  C  C56  1  0.44507000  0.42745000  0.30907000  1.0
  C  C57  1  0.55491000  0.57255000  0.69094000  1.0
  C  C58  1  0.32101000  0.47324000  0.36825000  1.0
  C  C59  1  0.67896000  0.52675000  0.63174000  1.0
  C  C60  1  0.23865000  0.38564000  0.41572000  1.0
  C  C61  1  0.76133000  0.61437000  0.58428000  1.0
  C  C62  1  0.19540000  0.15849000  0.45508000  1.0
  C  C63  1  0.80459000  0.84151000  0.54493000  1.0
  C  C64  1  0.28223000  0.61662000  0.38085000  1.0
  C  C65  1  0.71772000  0.38337000  0.61914000  1.0
  N  N66  1  0.25198000  0.95695000  0.63287000  1.0
  N  N67  1  0.74806000  0.04303000  0.36712000  1.0
  N  N68  1  0.57340000  0.29674000  0.88707000  1.0
  N  N69  1  0.42661000  0.70326000  0.11293000  1.0
  N  N70  1  0.00854000  0.73693000  0.23485000  1.0
  N  N71  1  0.99147000  0.26308000  0.76516000  1.0
  O  O72  1  0.67248000  0.33433000  0.10350000  1.0
  O  O73  1  0.32753000  0.66568000  0.89651000  1.0
  O  O74  1  0.21153000  0.02398000  0.40759000  1.0
  O  O75  1  0.78845000  0.97602000  0.59242000  1.0
  O  O76  1  0.12205000  0.21418000  0.53968000  1.0
  O  O77  1  0.87797000  0.78582000  0.46034000  1.0
  O  O78  1  0.35923000  0.69103000  0.33527000  1.0
  O  O79  1  0.64073000  0.30897000  0.66474000  1.0
  O  O80  1  0.16827000  0.65623000  0.43591000  1.0
  O  O81  1  0.83167000  0.34373000  0.56407000  1.0
