# generated using pymatgen
data_H12PbC22(NO)4
_symmetry_space_group_name_H-M   'P 1'
_cell_length_a   7.34836000
_cell_length_b   12.06160000
_cell_length_c   12.54970000
_cell_angle_alpha   113.60100000
_cell_angle_beta   100.16100000
_cell_angle_gamma   91.82010000
_symmetry_Int_Tables_number   1
_chemical_formula_structural   H12PbC22(NO)4
_chemical_formula_sum   'H24 Pb2 C44 N8 O8'
_cell_volume   996.80651423
_cell_formula_units_Z   2
loop_
 _symmetry_equiv_pos_site_id
 _symmetry_equiv_pos_as_xyz
  1  'x, y, z'
loop_
 _atom_site_type_symbol
 _atom_site_label
 _atom_site_symmetry_multiplicity
 _atom_site_fract_x
 _atom_site_fract_y
 _atom_site_fract_z
 _atom_site_occupancy
  H  H0  1  0.74898000  0.17003000  0.18201000  1.0
  H  H1  1  0.25110000  0.82996000  0.81798000  1.0
  H  H2  1  0.80183000  0.04589000  0.97607000  1.0
  H  H3  1  0.19840000  0.95412000  0.02393000  1.0
  H  H4  1  0.82048000  0.15143000  0.84030000  1.0
  H  H5  1  0.17958000  0.84856000  0.15968000  1.0
  H  H6  1  0.64685000  0.73270000  0.37572000  1.0
  H  H7  1  0.35295000  0.26725000  0.62423000  1.0
  H  H8  1  0.66516000  0.85839000  0.25813000  1.0
  H  H9  1  0.33498000  0.14161000  0.74189000  1.0
  H  H10  1  0.72140000  0.75378000  0.04893000  1.0
  H  H11  1  0.27876000  0.24624000  0.95112000  1.0
  H  H12  1  0.82119000  0.33983000  0.62342000  1.0
  H  H13  1  0.17881000  0.66017000  0.37656000  1.0
  H  H14  1  0.80403000  0.56786000  0.70707000  1.0
  H  H15  1  0.19583000  0.43213000  0.29289000  1.0
  H  H16  1  0.55793000  0.09050000  0.38674000  1.0
  H  H17  1  0.44215000  0.90959000  0.61347000  1.0
  H  H18  1  0.40819000  0.89452000  0.37472000  1.0
  H  H19  1  0.59193000  0.10557000  0.62543000  1.0
  H  H20  1  0.07204000  0.87073000  0.37310000  1.0
  H  H21  1  0.92798000  0.12926000  0.62684000  1.0
  H  H22  1  0.88427000  0.04397000  0.38641000  1.0
  H  H23  1  0.11572000  0.95601000  0.61346000  1.0
  Pb  Pb24  1  0.71411000  0.44735000  0.38862000  1.0
  Pb  Pb25  1  0.28580000  0.55267000  0.61136000  1.0
  C  C26  1  0.75783000  0.21123000  0.11954000  1.0
  C  C27  1  0.24221000  0.78876000  0.88044000  1.0
  C  C28  1  0.78748000  0.14269000  0.00494000  1.0
  C  C29  1  0.21265000  0.85730000  0.99506000  1.0
  C  C30  1  0.79745000  0.20027000  0.92999000  1.0
  C  C31  1  0.20258000  0.79972000  0.06999000  1.0
  C  C32  1  0.77563000  0.32502000  0.96995000  1.0
  C  C33  1  0.22434000  0.67496000  0.03002000  1.0
  C  C34  1  0.74699000  0.38751000  0.08721000  1.0
  C  C35  1  0.25293000  0.61246000  0.91276000  1.0
  C  C36  1  0.72520000  0.51734000  0.13229000  1.0
  C  C37  1  0.27472000  0.48262000  0.86768000  1.0
  C  C38  1  0.67441000  0.69263000  0.28603000  1.0
  C  C39  1  0.32548000  0.30734000  0.71393000  1.0
  C  C40  1  0.68373000  0.76205000  0.21976000  1.0
  C  C41  1  0.31632000  0.23794000  0.78026000  1.0
  C  C42  1  0.71410000  0.70541000  0.10540000  1.0
  C  C43  1  0.28598000  0.29459000  0.89461000  1.0
  C  C44  1  0.73465000  0.58031000  0.05894000  1.0
  C  C45  1  0.26532000  0.41967000  0.94102000  1.0
  C  C46  1  0.76364000  0.51577000  0.93870000  1.0
  C  C47  1  0.23629000  0.48420000  0.06129000  1.0
  C  C48  1  0.78149000  0.38968000  0.89431000  1.0
  C  C49  1  0.21846000  0.61032000  0.10568000  1.0
  C  C50  1  0.80858000  0.39024000  0.71564000  1.0
  C  C51  1  0.19139000  0.60973000  0.28432000  1.0
  C  C52  1  0.79553000  0.51671000  0.76111000  1.0
  C  C53  1  0.20435000  0.48328000  0.23888000  1.0
  C  C54  1  0.40888000  0.28826000  0.40164000  1.0
  C  C55  1  0.59115000  0.71178000  0.59842000  1.0
  C  C56  1  0.30425000  0.17427000  0.39174000  1.0
  C  C57  1  0.69576000  0.82576000  0.60830000  1.0
  C  C58  1  0.40970000  0.07778000  0.38554000  1.0
  C  C59  1  0.59034000  0.92226000  0.61457000  1.0
  C  C60  1  0.32648000  0.96952000  0.37964000  1.0
  C  C61  1  0.67357000  0.03053000  0.62044000  1.0
  C  C62  1  0.13672000  0.95609000  0.37929000  1.0
  C  C63  1  0.86328000  0.04391000  0.62069000  1.0
  C  C64  1  0.03191000  0.05158000  0.38535000  1.0
  C  C65  1  0.96808000  0.94840000  0.61459000  1.0
  C  C66  1  0.11342000  0.16167000  0.39206000  1.0
  C  C67  1  0.88660000  0.83834000  0.60793000  1.0
  C  C68  1  0.99461000  0.26275000  0.40062000  1.0
  C  C69  1  0.00539000  0.73725000  0.59937000  1.0
  N  N70  1  0.73960000  0.32982000  0.15961000  1.0
  N  N71  1  0.26038000  0.67015000  0.84035000  1.0
  N  N72  1  0.69537000  0.57436000  0.24401000  1.0
  N  N73  1  0.30443000  0.42558000  0.75593000  1.0
  N  N74  1  0.77308000  0.57886000  0.87148000  1.0
  N  N75  1  0.22681000  0.42112000  0.12848000  1.0
  N  N76  1  0.80341000  0.32751000  0.78147000  1.0
  N  N77  1  0.19657000  0.67247000  0.21848000  1.0
  O  O78  1  0.43056000  0.29468000  0.30595000  1.0
  O  O79  1  0.56939000  0.70540000  0.69412000  1.0
  O  O80  1  0.48583000  0.36596000  0.50598000  1.0
  O  O81  1  0.51425000  0.63403000  0.49409000  1.0
  O  O82  1  0.06992000  0.36402000  0.40922000  1.0
  O  O83  1  0.93010000  0.63601000  0.59081000  1.0
  O  O84  1  0.82210000  0.24297000  0.39815000  1.0
  O  O85  1  0.17788000  0.75703000  0.60184000  1.0
