# generated using pymatgen
data_Cd2FeH14(C3O4)4
_symmetry_space_group_name_H-M   'P 1'
_cell_length_a   6.03738000
_cell_length_b   9.84533000
_cell_length_c   14.81600000
_cell_angle_alpha   90.00100000
_cell_angle_beta   90.00050000
_cell_angle_gamma   78.66100000
_symmetry_Int_Tables_number   1
_chemical_formula_structural   Cd2FeH14(C3O4)4
_chemical_formula_sum   'Cd4 Fe2 H28 C24 O32'
_cell_volume   863.47340375
_cell_formula_units_Z   2
loop_
 _symmetry_equiv_pos_site_id
 _symmetry_equiv_pos_as_xyz
  1  'x, y, z'
loop_
 _atom_site_type_symbol
 _atom_site_label
 _atom_site_symmetry_multiplicity
 _atom_site_fract_x
 _atom_site_fract_y
 _atom_site_fract_z
 _atom_site_occupancy
  Cd  Cd0  1  0.41204000  0.83436000  0.59757000  1.0
  Cd  Cd1  1  0.58797000  0.66564000  0.09758000  1.0
  Cd  Cd2  1  0.58796000  0.16564000  0.40242000  1.0
  Cd  Cd3  1  0.41204000  0.33436000  0.90243000  1.0
  Fe  Fe4  1  0.00000000  0.50000000  0.50000000  1.0
  Fe  Fe5  1  0.00000000  0.00000000  0.00000000  1.0
  H  H6  1  0.80851000  0.88068000  0.53286000  1.0
  H  H7  1  0.19149000  0.61932000  0.03287000  1.0
  H  H8  1  0.19149000  0.11932000  0.46714000  1.0
  H  H9  1  0.80851000  0.38068000  0.96714000  1.0
  H  H10  1  0.72055000  0.01546000  0.58633000  1.0
  H  H11  1  0.27945000  0.48454000  0.08632000  1.0
  H  H12  1  0.27944000  0.98454000  0.41367000  1.0
  H  H13  1  0.72056000  0.51545000  0.91368000  1.0
  H  H14  1  0.17269000  0.83675000  0.26946000  1.0
  H  H15  1  0.82730000  0.66325000  0.76946000  1.0
  H  H16  1  0.82730000  0.16325000  0.73054000  1.0
  H  H17  1  0.17270000  0.33675000  0.23054000  1.0
  H  H18  1  0.94069000  0.76707000  0.23475000  1.0
  H  H19  1  0.05931000  0.73293000  0.73475000  1.0
  H  H20  1  0.05929000  0.23293000  0.76525000  1.0
  H  H21  1  0.94070000  0.26708000  0.26525000  1.0
  H  H22  1  0.24200000  0.56278000  0.24504000  1.0
  H  H23  1  0.75799000  0.93722000  0.74504000  1.0
  H  H24  1  0.75799000  0.43722000  0.75496000  1.0
  H  H25  1  0.24201000  0.06278000  0.25496000  1.0
  H  H26  1  0.43896000  0.62692000  0.31111000  1.0
  H  H27  1  0.56103000  0.87307000  0.81111000  1.0
  H  H28  1  0.56103000  0.37308000  0.68889000  1.0
  H  H29  1  0.43897000  0.12693000  0.18889000  1.0
  H  H30  1  0.86823000  0.56856000  0.32407000  1.0
  H  H31  1  0.13176000  0.93145000  0.82407000  1.0
  H  H32  1  0.13177000  0.43144000  0.67593000  1.0
  H  H33  1  0.86824000  0.06855000  0.17593000  1.0
  C  C34  1  0.18087000  0.72725000  0.44931000  1.0
  C  C35  1  0.81911000  0.77274000  0.94931000  1.0
  C  C36  1  0.81911000  0.27275000  0.55069000  1.0
  C  C37  1  0.18089000  0.22726000  0.05069000  1.0
  C  C38  1  0.09392000  0.68254000  0.35944000  1.0
  C  C39  1  0.90606000  0.81747000  0.85945000  1.0
  C  C40  1  0.90607000  0.31747000  0.64056000  1.0
  C  C41  1  0.09394000  0.18253000  0.14055000  1.0
  C  C42  1  0.02035000  0.80362000  0.29436000  1.0
  C  C43  1  0.97967000  0.69639000  0.79436000  1.0
  C  C44  1  0.97964000  0.19639000  0.70564000  1.0
  C  C45  1  0.02033000  0.30362000  0.20564000  1.0
  C  C46  1  0.86283000  0.92927000  0.33149000  1.0
  C  C47  1  0.13716000  0.57073000  0.83149000  1.0
  C  C48  1  0.13717000  0.07073000  0.66851000  1.0
  C  C49  1  0.86284000  0.42927000  0.16851000  1.0
  C  C50  1  0.28855000  0.57978000  0.31525000  1.0
  C  C51  1  0.71145000  0.92023000  0.81525000  1.0
  C  C52  1  0.71145000  0.42023000  0.68475000  1.0
  C  C53  1  0.28855000  0.07977000  0.18475000  1.0
  C  C54  1  0.35893000  0.43975000  0.35985000  1.0
  C  C55  1  0.64107000  0.06025000  0.85985000  1.0
  C  C56  1  0.64106000  0.56025000  0.64015000  1.0
  C  C57  1  0.35894000  0.93975000  0.14015000  1.0
  O  O58  1  0.13963000  0.66451000  0.52075000  1.0
  O  O59  1  0.86037000  0.83549000  0.02076000  1.0
  O  O60  1  0.86037000  0.33549000  0.47925000  1.0
  O  O61  1  0.13963000  0.16451000  0.97924000  1.0
  O  O62  1  0.30446000  0.81859000  0.44999000  1.0
  O  O63  1  0.69556000  0.68142000  0.94999000  1.0
  O  O64  1  0.69553000  0.18141000  0.55001000  1.0
  O  O65  1  0.30445000  0.31858000  0.05001000  1.0
  O  O66  1  0.79354000  0.93179000  0.41254000  1.0
  O  O67  1  0.20647000  0.56821000  0.91253000  1.0
  O  O68  1  0.20645000  0.06822000  0.58746000  1.0
  O  O69  1  0.79355000  0.43179000  0.08747000  1.0
  O  O70  1  0.80427000  0.03515000  0.28026000  1.0
  O  O71  1  0.19572000  0.46485000  0.78025000  1.0
  O  O72  1  0.19572000  0.96485000  0.71975000  1.0
  O  O73  1  0.80428000  0.53515000  0.21975000  1.0
  O  O74  1  0.27715000  0.40631000  0.43429000  1.0
  O  O75  1  0.72285000  0.09369000  0.93429000  1.0
  O  O76  1  0.72286000  0.59369000  0.56571000  1.0
  O  O77  1  0.27715000  0.90631000  0.06571000  1.0
  O  O78  1  0.50722000  0.35314000  0.31663000  1.0
  O  O79  1  0.49279000  0.14685000  0.81663000  1.0
  O  O80  1  0.49278000  0.64686000  0.68337000  1.0
  O  O81  1  0.50722000  0.85315000  0.18337000  1.0
  O  O82  1  0.90810000  0.61495000  0.38113000  1.0
  O  O83  1  0.09190000  0.88505000  0.88112000  1.0
  O  O84  1  0.09189000  0.38505000  0.61887000  1.0
  O  O85  1  0.90809000  0.11495000  0.11888000  1.0
  O  O86  1  0.74578000  0.91271000  0.59241000  1.0
  O  O87  1  0.25422000  0.58729000  0.09241000  1.0
  O  O88  1  0.25422000  0.08729000  0.40760000  1.0
  O  O89  1  0.74578000  0.41271000  0.90760000  1.0
