# generated using pymatgen
data_AgH10C8(NO)3
_symmetry_space_group_name_H-M   'P 1'
_cell_length_a   5.01166000
_cell_length_b   13.58500000
_cell_length_c   14.03680000
_cell_angle_alpha   90.00050000
_cell_angle_beta   89.99920000
_cell_angle_gamma   89.99840000
_symmetry_Int_Tables_number   1
_chemical_formula_structural   AgH10C8(NO)3
_chemical_formula_sum   'Ag4 H40 C32 N12 O12'
_cell_volume   955.67308406
_cell_formula_units_Z   4
loop_
 _symmetry_equiv_pos_site_id
 _symmetry_equiv_pos_as_xyz
  1  'x, y, z'
loop_
 _atom_site_type_symbol
 _atom_site_label
 _atom_site_symmetry_multiplicity
 _atom_site_fract_x
 _atom_site_fract_y
 _atom_site_fract_z
 _atom_site_occupancy
  Ag  Ag0  1  0.70178000  0.25180000  0.88280000  1.0
  Ag  Ag1  1  0.20175000  0.24818000  0.11719000  1.0
  Ag  Ag2  1  0.29823000  0.75182000  0.61720000  1.0
  Ag  Ag3  1  0.79825000  0.74820000  0.38280000  1.0
  H  H4  1  0.24735000  0.13372000  0.74869000  1.0
  H  H5  1  0.74734000  0.36628000  0.25130000  1.0
  H  H6  1  0.75266000  0.63372000  0.75131000  1.0
  H  H7  1  0.25264000  0.86629000  0.24869000  1.0
  H  H8  1  0.58010000  0.86355000  0.84114000  1.0
  H  H9  1  0.08017000  0.63644000  0.15886000  1.0
  H  H10  1  0.41985000  0.36356000  0.65886000  1.0
  H  H11  1  0.91985000  0.13645000  0.34115000  1.0
  H  H12  1  0.01409000  0.08563000  0.94803000  1.0
  H  H13  1  0.51408000  0.41434000  0.05195000  1.0
  H  H14  1  0.98594000  0.58567000  0.55195000  1.0
  H  H15  1  0.48591000  0.91436000  0.44804000  1.0
  H  H16  1  0.01843000  0.95512000  0.94699000  1.0
  H  H17  1  0.51844000  0.54484000  0.05300000  1.0
  H  H18  1  0.98157000  0.45516000  0.55300000  1.0
  H  H19  1  0.48154000  0.04487000  0.44700000  1.0
  H  H20  1  0.95823000  0.01794000  0.10440000  1.0
  H  H21  1  0.45821000  0.48204000  0.89559000  1.0
  H  H22  1  0.04181000  0.51797000  0.39559000  1.0
  H  H23  1  0.54176000  0.98206000  0.60441000  1.0
  H  H24  1  0.38530000  0.76651000  0.11355000  1.0
  H  H25  1  0.88527000  0.73347000  0.88647000  1.0
  H  H26  1  0.61473000  0.26654000  0.38647000  1.0
  H  H27  1  0.11470000  0.23348000  0.61354000  1.0
  H  H28  1  0.63187000  0.74350000  0.20348000  1.0
  H  H29  1  0.13184000  0.75649000  0.79654000  1.0
  H  H30  1  0.36818000  0.24351000  0.29654000  1.0
  H  H31  1  0.86813000  0.25650000  0.70347000  1.0
  H  H32  1  0.66739000  0.69004000  0.08816000  1.0
  H  H33  1  0.16734000  0.80994000  0.91187000  1.0
  H  H34  1  0.33267000  0.19006000  0.41186000  1.0
  H  H35  1  0.83262000  0.30996000  0.58814000  1.0
  H  H36  1  0.43118000  0.92900000  0.08111000  1.0
  H  H37  1  0.93117000  0.57099000  0.91890000  1.0
  H  H38  1  0.56883000  0.42901000  0.41889000  1.0
  H  H39  1  0.06881000  0.07099000  0.58111000  1.0
  H  H40  1  0.24070000  0.94810000  0.72859000  1.0
  H  H41  1  0.74075000  0.55190000  0.27141000  1.0
  H  H42  1  0.75927000  0.44809000  0.77141000  1.0
  H  H43  1  0.25927000  0.05191000  0.22859000  1.0
  C  C44  1  0.62094000  0.10967000  0.08295000  1.0
  C  C45  1  0.12093000  0.39031000  0.91704000  1.0
  C  C46  1  0.37910000  0.60969000  0.41704000  1.0
  C  C47  1  0.87905000  0.89033000  0.58295000  1.0
  C  C48  1  0.37170000  0.08264000  0.78762000  1.0
  C  C49  1  0.87170000  0.41735000  0.21237000  1.0
  C  C50  1  0.62830000  0.58265000  0.71238000  1.0
  C  C51  1  0.12829000  0.91737000  0.28762000  1.0
  C  C52  1  0.67790000  0.01981000  0.88087000  1.0
  C  C53  1  0.17791000  0.48016000  0.11912000  1.0
  C  C54  1  0.32210000  0.51984000  0.61912000  1.0
  C  C55  1  0.82208000  0.98018000  0.38088000  1.0
  C  C56  1  0.55117000  0.94244000  0.83603000  1.0
  C  C57  1  0.05121000  0.55754000  0.16396000  1.0
  C  C58  1  0.44880000  0.44246000  0.66396000  1.0
  C  C59  1  0.94879000  0.05756000  0.33604000  1.0
  C  C60  1  0.88897000  0.01960000  0.95520000  1.0
  C  C61  1  0.38899000  0.48037000  0.04479000  1.0
  C  C62  1  0.11103000  0.51963000  0.54480000  1.0
  C  C63  1  0.61100000  0.98039000  0.45521000  1.0
  C  C64  1  0.78035000  0.01708000  0.05869000  1.0
  C  C65  1  0.28034000  0.48290000  0.94130000  1.0
  C  C66  1  0.21968000  0.51710000  0.44130000  1.0
  C  C67  1  0.71963000  0.98291000  0.55870000  1.0
  C  C68  1  0.76537000  0.84214000  0.09672000  1.0
  C  C69  1  0.26535000  0.65784000  0.90330000  1.0
  C  C70  1  0.23466000  0.34216000  0.40329000  1.0
  C  C71  1  0.73464000  0.15786000  0.59671000  1.0
  C  C72  1  0.59868000  0.75546000  0.12648000  1.0
  C  C73  1  0.09865000  0.74453000  0.87354000  1.0
  C  C74  1  0.40136000  0.25548000  0.37353000  1.0
  C  C75  1  0.90132000  0.24454000  0.62647000  1.0
  N  N76  1  0.63440000  0.92745000  0.07972000  1.0
  N  N77  1  0.13439000  0.57254000  0.92027000  1.0
  N  N78  1  0.36562000  0.42747000  0.42027000  1.0
  N  N79  1  0.86559000  0.07255000  0.57973000  1.0
  N  N80  1  0.35861000  0.98376000  0.77808000  1.0
  N  N81  1  0.85864000  0.51624000  0.22192000  1.0
  N  N82  1  0.64137000  0.48377000  0.72192000  1.0
  N  N83  1  0.14136000  0.01625000  0.27808000  1.0
  N  N84  1  0.56321000  0.10705000  0.84901000  1.0
  N  N85  1  0.06319000  0.39294000  0.15098000  1.0
  N  N86  1  0.43682000  0.60706000  0.65099000  1.0
  N  N87  1  0.93679000  0.89295000  0.34901000  1.0
  O  O88  1  0.38258000  0.09884000  0.11656000  1.0
  O  O89  1  0.88259000  0.40114000  0.88343000  1.0
  O  O90  1  0.61743000  0.59886000  0.38343000  1.0
  O  O91  1  0.11740000  0.90115000  0.61657000  1.0
  O  O92  1  0.72699000  0.19187000  0.06800000  1.0
  O  O93  1  0.22699000  0.30811000  0.93199000  1.0
  O  O94  1  0.27304000  0.69190000  0.43200000  1.0
  O  O95  1  0.77301000  0.80812000  0.56800000  1.0
  O  O96  1  0.01410000  0.83688000  0.09093000  1.0
  O  O97  1  0.51408000  0.66310000  0.90909000  1.0
  O  O98  1  0.98592000  0.33691000  0.40909000  1.0
  O  O99  1  0.48589000  0.16312000  0.59092000  1.0
