# generated using pymatgen
data_AgH15C30(NO)3
_symmetry_space_group_name_H-M   'P 1'
_cell_length_a   10.42260000
_cell_length_b   10.42490000
_cell_length_c   15.41776155
_cell_angle_alpha   94.95966323
_cell_angle_beta   108.06176913
_cell_angle_gamma   114.39200000
_symmetry_Int_Tables_number   1
_chemical_formula_structural   AgH15C30(NO)3
_chemical_formula_sum   'Ag2 H30 C60 N6 O6'
_cell_volume   1405.29063521
_cell_formula_units_Z   2
loop_
 _symmetry_equiv_pos_site_id
 _symmetry_equiv_pos_as_xyz
  1  'x, y, z'
loop_
 _atom_site_type_symbol
 _atom_site_label
 _atom_site_symmetry_multiplicity
 _atom_site_fract_x
 _atom_site_fract_y
 _atom_site_fract_z
 _atom_site_occupancy
  Ag  Ag0  1  0.15316000  0.61740000  0.29627000  1.0
  Ag  Ag1  1  0.17857000  0.14304000  0.79604000  1.0
  H  H2  1  0.57369000  0.40900000  0.52080000  1.0
  H  H3  1  0.58276000  0.19944000  0.58543000  1.0
  H  H4  1  0.09515000  0.95195000  0.44644000  1.0
  H  H5  1  0.08528000  0.15994000  0.38346000  1.0
  H  H6  1  0.27503000  0.65549000  0.52469000  1.0
  H  H7  1  0.85980000  0.50703000  0.57573000  1.0
  H  H8  1  0.13101000  0.96297000  0.60894000  1.0
  H  H9  1  0.95990000  0.14330000  0.55728000  1.0
  H  H10  1  0.70512000  0.93191000  0.48938000  1.0
  H  H11  1  0.52606000  0.18999000  0.33633000  1.0
  H  H12  1  0.78177000  0.40391000  0.40849000  1.0
  H  H13  1  0.89804000  0.57881000  0.72618000  1.0
  H  H14  1  0.69905000  0.40889000  0.77243000  1.0
  H  H15  1  0.40170000  0.58881000  0.64369000  1.0
  H  H16  1  0.60592000  0.76589000  0.60137000  1.0
  H  H17  1  0.61148000  0.94750000  0.02024000  1.0
  H  H18  1  0.88541000  0.00212000  0.08495000  1.0
  H  H19  1  0.99564000  0.35117000  0.94642000  1.0
  H  H20  1  0.72503000  0.29926000  0.88346000  1.0
  H  H21  1  0.36970000  0.24931000  0.02525000  1.0
  H  H22  1  0.56908000  0.71539000  0.07613000  1.0
  H  H23  1  0.14611000  0.47742000  0.10929000  1.0
  H  H24  1  0.91442000  0.59648000  0.05759000  1.0
  H  H25  1  0.05793000  0.78285000  0.98943000  1.0
  H  H26  1  0.64723000  0.80988000  0.83665000  1.0
  H  H27  1  0.50550000  0.62677000  0.90919000  1.0
  H  H28  1  0.64775000  0.82726000  0.22635000  1.0
  H  H29  1  0.86412000  0.07208000  0.27232000  1.0
  H  H30  1  0.55616000  0.24142000  0.14370000  1.0
  H  H31  1  0.33633000  0.99516000  0.10157000  1.0
  C  C32  1  0.32382000  0.41381000  0.40900000  1.0
  C  C33  1  0.32915000  0.29601000  0.44716000  1.0
  C  C34  1  0.46988000  0.30837000  0.50489000  1.0
  C  C35  1  0.47461000  0.19276000  0.54151000  1.0
  C  C36  1  0.34045000  0.06373000  0.52181000  1.0
  C  C37  1  0.19994000  0.05216000  0.46362000  1.0
  C  C38  1  0.19378000  0.16730000  0.42690000  1.0
  C  C39  1  0.35385000  0.93992000  0.55868000  1.0
  C  C40  1  0.21676000  0.82176000  0.56490000  1.0
  C  C41  1  0.19387000  0.67849000  0.54485000  1.0
  C  C42  1  0.06367000  0.56427000  0.54774000  1.0
  C  C43  1  0.96099000  0.59628000  0.57442000  1.0
  C  C44  1  0.98612000  0.73987000  0.59926000  1.0
  C  C45  1  0.11404000  0.85200000  0.59214000  1.0
  C  C46  1  0.04364000  0.41324000  0.53071000  1.0
  C  C47  1  0.88828000  0.28917000  0.48898000  1.0
  C  C48  1  0.86501000  0.15348000  0.50904000  1.0
  C  C49  1  0.72217000  0.03404000  0.47008000  1.0
  C  C50  1  0.59914000  0.04732000  0.40725000  1.0
  C  C51  1  0.62118000  0.18160000  0.38555000  1.0
  C  C52  1  0.76425000  0.30094000  0.42667000  1.0
  C  C53  1  0.45327000  0.92578000  0.36808000  1.0
  C  C54  1  0.87558000  0.77858000  0.62161000  1.0
  C  C55  1  0.76282000  0.67829000  0.65410000  1.0
  C  C56  1  0.78826000  0.57898000  0.70562000  1.0
  C  C57  1  0.67773000  0.48459000  0.73300000  1.0
  C  C58  1  0.53558000  0.48561000  0.70910000  1.0
  C  C59  1  0.51143000  0.58926000  0.66173000  1.0
  C  C60  1  0.62409000  0.68489000  0.63647000  1.0
  C  C61  1  0.41976000  0.38503000  0.73249000  1.0
  C  C62  1  0.49593000  0.08654000  0.90882000  1.0
  C  C63  1  0.65169000  0.11870000  0.94678000  1.0
  C  C64  1  0.69649000  0.03524000  0.00439000  1.0
  C  C65  1  0.84853000  0.06658000  0.04108000  1.0
  C  C66  1  0.95828000  0.18103000  0.02160000  1.0
  C  C67  1  0.91221000  0.26367000  0.96343000  1.0
  C  C68  1  0.76056000  0.23366000  0.92664000  1.0
  C  C69  1  0.11885000  0.20442000  0.05889000  1.0
  C  C70  1  0.24341000  0.34772000  0.06528000  1.0
  C  C71  1  0.36675000  0.35056000  0.04531000  1.0
  C  C72  1  0.48383000  0.48362000  0.04815000  1.0
  C  C73  1  0.47846000  0.61293000  0.07480000  1.0
  C  C74  1  0.35967000  0.61266000  0.09968000  1.0
  C  C75  1  0.24034000  0.47762000  0.09252000  1.0
  C  C76  1  0.61793000  0.48667000  0.03116000  1.0
  C  C77  1  0.70047000  0.60023000  0.98942000  1.0
  C  C78  1  0.85615000  0.64325000  0.00936000  1.0
  C  C79  1  0.93661000  0.74689000  0.97023000  1.0
  C  C80  1  0.86070000  0.80736000  0.90749000  1.0
  C  C81  1  0.70480000  0.76394000  0.88591000  1.0
  C  C82  1  0.62657000  0.66212000  0.92714000  1.0
  C  C83  1  0.94299000  0.91376000  0.86810000  1.0
  C  C84  1  0.34348000  0.74559000  0.12218000  1.0
  C  C85  1  0.47638000  0.89075000  0.15445000  1.0
  C  C86  1  0.62714000  0.91653000  0.20582000  1.0
  C  C87  1  0.74907000  0.05425000  0.23301000  1.0
  C  C88  1  0.72444000  0.17260000  0.20908000  1.0
  C  C89  1  0.57346000  0.14964000  0.16182000  1.0
  C  C90  1  0.45235000  0.01192000  0.13676000  1.0
  C  C91  1  0.84859000  0.31160000  0.23236000  1.0
  N  N92  1  0.32036000  0.50969000  0.37601000  1.0
  N  N93  1  0.33314000  0.82432000  0.33733000  1.0
  N  N94  1  0.32439000  0.30067000  0.75244000  1.0
  N  N95  1  0.36717000  0.05742000  0.87599000  1.0
  N  N96  1  0.01307000  0.00253000  0.83672000  1.0
  N  N97  1  0.95296000  0.42690000  0.25234000  1.0
  O  O98  1  0.47585000  0.93420000  0.58128000  1.0
  O  O99  1  0.15774000  0.39205000  0.55319000  1.0
  O  O100  1  0.87601000  0.89597000  0.60831000  1.0
  O  O101  1  0.14699000  0.10503000  0.08168000  1.0
  O  O102  1  0.66167000  0.39512000  0.05372000  1.0
  O  O103  1  0.21296000  0.73203000  0.10930000  1.0
