# generated using pymatgen
data_CdH18C28(N2O3)2
_symmetry_space_group_name_H-M   'P 1'
_cell_length_a   9.47082000
_cell_length_b   11.03970000
_cell_length_c   12.62900000
_cell_angle_alpha   68.00600000
_cell_angle_beta   79.94710000
_cell_angle_gamma   77.83430000
_symmetry_Int_Tables_number   1
_chemical_formula_structural   CdH18C28(N2O3)2
_chemical_formula_sum   'Cd2 H36 C56 N8 O12'
_cell_volume   1190.15275012
_cell_formula_units_Z   2
loop_
 _symmetry_equiv_pos_site_id
 _symmetry_equiv_pos_as_xyz
  1  'x, y, z'
loop_
 _atom_site_type_symbol
 _atom_site_label
 _atom_site_symmetry_multiplicity
 _atom_site_fract_x
 _atom_site_fract_y
 _atom_site_fract_z
 _atom_site_occupancy
  Cd  Cd0  1  0.54287000  0.91378000  0.66011000  1.0
  Cd  Cd1  1  0.45713000  0.08622000  0.33990000  1.0
  H  H2  1  0.58034000  0.44221000  0.62450000  1.0
  H  H3  1  0.41965000  0.55779000  0.37550000  1.0
  H  H4  1  0.43608000  0.31547000  0.57323000  1.0
  H  H5  1  0.56392000  0.68453000  0.42677000  1.0
  H  H6  1  0.19575000  0.61879000  0.78336000  1.0
  H  H7  1  0.80425000  0.38121000  0.21664000  1.0
  H  H8  1  0.04909000  0.48007000  0.74266000  1.0
  H  H9  1  0.95091000  0.51992000  0.25734000  1.0
  H  H10  1  0.25891000  0.32506000  0.47156000  1.0
  H  H11  1  0.74109000  0.67494000  0.52844000  1.0
  H  H12  1  0.10936000  0.23898000  0.52096000  1.0
  H  H13  1  0.89064000  0.76102000  0.47904000  1.0
  H  H14  1  0.69671000  0.16146000  0.47933000  1.0
  H  H15  1  0.30328000  0.83854000  0.52067000  1.0
  H  H16  1  0.83795000  0.32723000  0.48227000  1.0
  H  H17  1  0.16204000  0.67277000  0.51773000  1.0
  H  H18  1  0.89481000  0.31866000  0.67352000  1.0
  H  H19  1  0.10519000  0.68134000  0.32647000  1.0
  H  H20  1  0.04119000  0.35348000  0.96030000  1.0
  H  H21  1  0.95882000  0.64653000  0.03970000  1.0
  H  H22  1  0.17788000  0.41041000  0.08200000  1.0
  H  H23  1  0.82212000  0.58959000  0.91800000  1.0
  H  H24  1  0.01759000  0.10437000  0.38029000  1.0
  H  H25  1  0.98241000  0.89563000  0.61971000  1.0
  H  H26  1  0.87752000  0.05083000  0.26068000  1.0
  H  H27  1  0.12248000  0.94917000  0.73932000  1.0
  H  H28  1  0.65475000  0.82656000  0.15567000  1.0
  H  H29  1  0.34525000  0.17344000  0.84433000  1.0
  H  H30  1  0.51107000  0.67785000  0.12577000  1.0
  H  H31  1  0.48894000  0.32215000  0.87423000  1.0
  H  H32  1  0.46688000  0.71408000  0.92487000  1.0
  H  H33  1  0.53312000  0.28592000  0.07513000  1.0
  H  H34  1  0.78778000  0.99157000  0.15433000  1.0
  H  H35  1  0.21222000  0.00843000  0.84567000  1.0
  H  H36  1  0.26498000  0.33808000  0.27198000  1.0
  H  H37  1  0.73502000  0.66191000  0.72803000  1.0
  C  C38  1  0.48752000  0.62663000  0.72104000  1.0
  C  C39  1  0.51248000  0.37337000  0.27896000  1.0
  C  C40  1  0.39772000  0.53967000  0.70566000  1.0
  C  C41  1  0.60228000  0.46033000  0.29434000  1.0
  C  C42  1  0.46369000  0.45156000  0.64924000  1.0
  C  C43  1  0.53631000  0.54843000  0.35077000  1.0
  C  C44  1  0.38171000  0.37940000  0.62089000  1.0
  C  C45  1  0.61828000  0.62060000  0.37911000  1.0
  C  C46  1  0.24760000  0.55018000  0.73935000  1.0
  C  C47  1  0.75239000  0.44982000  0.26065000  1.0
  C  C48  1  0.16542000  0.47447000  0.71601000  1.0
  C  C49  1  0.83457000  0.52553000  0.28399000  1.0
  C  C50  1  0.23172000  0.39178000  0.65353000  1.0
  C  C51  1  0.76828000  0.60822000  0.34647000  1.0
  C  C52  1  0.20148000  0.26081000  0.54878000  1.0
  C  C53  1  0.79853000  0.73919000  0.45121000  1.0
  C  C54  1  0.30151000  0.13130000  0.60135000  1.0
  C  C55  1  0.69849000  0.86870000  0.39865000  1.0
  C  C56  1  0.72319000  0.16055000  0.56047000  1.0
  C  C57  1  0.27680000  0.83945000  0.43953000  1.0
  C  C58  1  0.80245000  0.25343000  0.56283000  1.0
  C  C59  1  0.19755000  0.74657000  0.43717000  1.0
  C  C60  1  0.83241000  0.24949000  0.66763000  1.0
  C  C61  1  0.16758000  0.75051000  0.33237000  1.0
  C  C62  1  0.78441000  0.15189000  0.76942000  1.0
  C  C63  1  0.21559000  0.84811000  0.23058000  1.0
  C  C64  1  0.81370000  0.13712000  0.88134000  1.0
  C  C65  1  0.18630000  0.86287000  0.11866000  1.0
  C  C66  1  0.95271000  0.19610000  0.10047000  1.0
  C  C67  1  0.04729000  0.80390000  0.89953000  1.0
  C  C68  1  0.03511000  0.29999000  0.05265000  1.0
  C  C69  1  0.96490000  0.70001000  0.94735000  1.0
  C  C70  1  0.11231000  0.33132000  0.12055000  1.0
  C  C71  1  0.88769000  0.66867000  0.87945000  1.0
  C  C72  1  0.11089000  0.25670000  0.23860000  1.0
  C  C73  1  0.88911000  0.74330000  0.76140000  1.0
  C  C74  1  0.02159000  0.15856000  0.28804000  1.0
  C  C75  1  0.97841000  0.84144000  0.71196000  1.0
  C  C76  1  0.94428000  0.12853000  0.22006000  1.0
  C  C77  1  0.05571000  0.87147000  0.77994000  1.0
  C  C78  1  0.88418000  0.15569000  0.02717000  1.0
  C  C79  1  0.11583000  0.84431000  0.97283000  1.0
  C  C80  1  0.76577000  0.03459000  0.97826000  1.0
  C  C81  1  0.23423000  0.96541000  0.02173000  1.0
  C  C82  1  0.68520000  0.94205000  0.97369000  1.0
  C  C83  1  0.31480000  0.05795000  0.02631000  1.0
  C  C84  1  0.63335000  0.83936000  0.06973000  1.0
  C  C85  1  0.36665000  0.16064000  0.93027000  1.0
  C  C86  1  0.55404000  0.75704000  0.05354000  1.0
  C  C87  1  0.44597000  0.24296000  0.94646000  1.0
  C  C88  1  0.52846000  0.77708000  0.94156000  1.0
  C  C89  1  0.47154000  0.22292000  0.05844000  1.0
  C  C90  1  0.65342000  0.95666000  0.86276000  1.0
  C  C91  1  0.34658000  0.04334000  0.13724000  1.0
  C  C92  1  0.70421000  0.06099000  0.76032000  1.0
  C  C93  1  0.29579000  0.93901000  0.23968000  1.0
  N  N94  1  0.57641000  0.87362000  0.85024000  1.0
  N  N95  1  0.42359000  0.12638000  0.14976000  1.0
  N  N96  1  0.67580000  0.06826000  0.65621000  1.0
  N  N97  1  0.32419000  0.93174000  0.34379000  1.0
  N  N98  1  0.81181000  0.04788000  0.06961000  1.0
  N  N99  1  0.18819000  0.95212000  0.93039000  1.0
  N  N100  1  0.88704000  0.21130000  0.91268000  1.0
  N  N101  1  0.11297000  0.78870000  0.08732000  1.0
  O  O102  1  0.61738000  0.57905000  0.74381000  1.0
  O  O103  1  0.38261000  0.42095000  0.25620000  1.0
  O  O104  1  0.42446000  0.74632000  0.70556000  1.0
  O  O105  1  0.57554000  0.25368000  0.29444000  1.0
  O  O106  1  0.14116000  0.32851000  0.62668000  1.0
  O  O107  1  0.85884000  0.67149000  0.37332000  1.0
  O  O108  1  0.37850000  0.07644000  0.53213000  1.0
  O  O109  1  0.62151000  0.92357000  0.46787000  1.0
  O  O110  1  0.30835000  0.08181000  0.70801000  1.0
  O  O111  1  0.69166000  0.91819000  0.29199000  1.0
  O  O112  1  0.19336000  0.27109000  0.30915000  1.0
  O  O113  1  0.80664000  0.72890000  0.69085000  1.0
