# generated using pymatgen
data_ZnH14C20NO5
_symmetry_space_group_name_H-M   'P 1'
_cell_length_a   9.57888000
_cell_length_b   10.99920000
_cell_length_c   16.07350000
_cell_angle_alpha   90.30390000
_cell_angle_beta   90.23970000
_cell_angle_gamma   90.98060000
_symmetry_Int_Tables_number   1
_chemical_formula_structural   ZnH14C20NO5
_chemical_formula_sum   'Zn2 H28 C40 N2 O10'
_cell_volume   1693.21692235
_cell_formula_units_Z   2
loop_
 _symmetry_equiv_pos_site_id
 _symmetry_equiv_pos_as_xyz
  1  'x, y, z'
loop_
 _atom_site_type_symbol
 _atom_site_label
 _atom_site_symmetry_multiplicity
 _atom_site_fract_x
 _atom_site_fract_y
 _atom_site_fract_z
 _atom_site_occupancy
  Zn  Zn0  1  0.64381000  0.49882000  0.49867000  1.0
  Zn  Zn1  1  0.35954000  0.49396000  0.49941000  1.0
  H  H2  1  0.65121000  0.66750000  0.92530000  1.0
  H  H3  1  0.39310000  0.34293000  0.93279000  1.0
  H  H4  1  0.27669000  0.87941000  0.46636000  1.0
  H  H5  1  0.71814000  0.88461000  0.51290000  1.0
  H  H6  1  0.27562000  0.10805000  0.47388000  1.0
  H  H7  1  0.71790000  0.11333000  0.51798000  1.0
  H  H8  1  0.13295000  0.40435000  0.61143000  1.0
  H  H9  1  0.86471000  0.40949000  0.61164000  1.0
  H  H10  1  0.54734000  0.81130000  0.97752000  1.0
  H  H11  1  0.55443000  0.01464000  0.04197000  1.0
  H  H12  1  0.64204000  0.04407000  0.18574000  1.0
  H  H13  1  0.39037000  0.68340000  0.94122000  1.0
  H  H14  1  0.73196000  0.86563000  0.26478000  1.0
  H  H15  1  0.72770000  0.66103000  0.19979000  1.0
  H  H16  1  0.42335000  0.72266000  0.17707000  1.0
  H  H17  1  0.27266000  0.87613000  0.23834000  1.0
  H  H18  1  0.02819000  0.90160000  0.18617000  1.0
  H  H19  1  0.93934000  0.76865000  0.07133000  1.0
  H  H20  1  0.09091000  0.61235000  0.00990000  1.0
  H  H21  1  0.69023000  0.34524000  0.13607000  1.0
  H  H22  1  0.30579000  0.30535000  0.07306000  1.0
  H  H23  1  0.87082000  0.58937000  0.38555000  1.0
  H  H24  1  0.13904000  0.58710000  0.38623000  1.0
  H  H25  1  0.28374000  0.47676000  0.04717000  1.0
  H  H26  1  0.71643000  0.54489000  0.07816000  1.0
  H  H27  1  0.28122000  0.55813000  0.91514000  1.0
  H  H28  1  0.72687000  0.52357000  0.93766000  1.0
  H  H29  1  0.57644000  0.32924000  0.92008000  1.0
  C  C30  1  0.49767000  0.73321000  0.48953000  1.0
  C  C31  1  0.62188000  0.06111000  0.50693000  1.0
  C  C32  1  0.49650000  0.12342000  0.49705000  1.0
  C  C33  1  0.49748000  0.86923000  0.48956000  1.0
  C  C34  1  0.07283000  0.44540000  0.56152000  1.0
  C  C35  1  0.92764000  0.44770000  0.56152000  1.0
  C  C36  1  0.50251000  0.48738000  0.33568000  1.0
  C  C37  1  0.93105000  0.54926000  0.43577000  1.0
  C  C38  1  0.07628000  0.54765000  0.43602000  1.0
  C  C39  1  0.49588000  0.25923000  0.50229000  1.0
  C  C40  1  0.50773000  0.50848000  0.66236000  1.0
  C  C41  1  0.49518000  0.38370000  0.94966000  1.0
  C  C42  1  0.62658000  0.59125000  0.05036000  1.0
  C  C43  1  0.35288000  0.55754000  0.04437000  1.0
  C  C44  1  0.37459000  0.58541000  0.95089000  1.0
  C  C45  1  0.63635000  0.57836000  0.95450000  1.0
  C  C46  1  0.50678000  0.51352000  0.75223000  1.0
  C  C47  1  0.49534000  0.51469000  0.08136000  1.0
  C  C48  1  0.50292000  0.51660000  0.91812000  1.0
  C  C49  1  0.63502000  0.71990000  0.08440000  1.0
  C  C50  1  0.58870000  0.82140000  0.04051000  1.0
  C  C51  1  0.59221000  0.93698000  0.07670000  1.0
  C  C52  1  0.51936000  0.38130000  0.04455000  1.0
  C  C53  1  0.64224000  0.95367000  0.15768000  1.0
  C  C54  1  0.69157000  0.85386000  0.20164000  1.0
  C  C55  1  0.68897000  0.73850000  0.16500000  1.0
  C  C56  1  0.26979000  0.65597000  0.08793000  1.0
  C  C57  1  0.31792000  0.73104000  0.15289000  1.0
  C  C58  1  0.23147000  0.81843000  0.18822000  1.0
  C  C59  1  0.09547000  0.83298000  0.15912000  1.0
  C  C60  1  0.04567000  0.75843000  0.09444000  1.0
  C  C61  1  0.13177000  0.67084000  0.05984000  1.0
  C  C62  1  0.66666667  0.33978000  0.06826000  1.0
  C  C63  1  0.50597000  0.51607000  0.82783000  1.0
  C  C64  1  0.41915000  0.28916000  0.08400000  1.0
  C  C65  1  0.49394000  0.50473000  0.17114000  1.0
  C  C66  1  0.49846000  0.49111000  0.24601000  1.0
  C  C67  1  0.37250000  0.93170000  0.47796000  1.0
  C  C68  1  0.62223000  0.93477000  0.50369000  1.0
  C  C69  1  0.37186000  0.05803000  0.48216000  1.0
  N  N70  1  0.85858000  0.49936000  0.49853000  1.0
  N  N71  1  0.14519000  0.49540000  0.49884000  1.0
  O  O72  1  0.61533000  0.68214000  0.49860000  1.0
  O  O73  1  0.45664000  0.20030000  0.12262000  1.0
  O  O74  1  0.38037000  0.67775000  0.48163000  1.0
  O  O75  1  0.62229000  0.50093000  0.36965000  1.0
  O  O76  1  0.38595000  0.47252000  0.37219000  1.0
  O  O77  1  0.61365000  0.31466000  0.49737000  1.0
  O  O78  1  0.37811000  0.30989000  0.51108000  1.0
  O  O79  1  0.62616000  0.49777000  0.62754000  1.0
  O  O80  1  0.38961000  0.51521000  0.62586000  1.0
  O  O81  1  0.75159000  0.30190000  0.01870000  1.0
