# generated using pymatgen
data_ErH11C16(NO7)2
_symmetry_space_group_name_H-M   'P 1'
_cell_length_a   9.11495000
_cell_length_b   9.98948000
_cell_length_c   12.49788253
_cell_angle_alpha   95.72124370
_cell_angle_beta   108.86762521
_cell_angle_gamma   111.54000000
_symmetry_Int_Tables_number   1
_chemical_formula_structural   ErH11C16(NO7)2
_chemical_formula_sum   'Er2 H22 C32 N4 O28'
_cell_volume   970.29768714
_cell_formula_units_Z   2
loop_
 _symmetry_equiv_pos_site_id
 _symmetry_equiv_pos_as_xyz
  1  'x, y, z'
loop_
 _atom_site_type_symbol
 _atom_site_label
 _atom_site_symmetry_multiplicity
 _atom_site_fract_x
 _atom_site_fract_y
 _atom_site_fract_z
 _atom_site_occupancy
  Er  Er0  1  0.26463000  0.02910000  0.46765000  1.0
  Er  Er1  1  0.73538000  0.97091000  0.53235000  1.0
  H  H2  1  0.35977000  0.27992000  0.24683000  1.0
  H  H3  1  0.64022000  0.72006000  0.75317000  1.0
  H  H4  1  0.29371000  0.08924000  0.88192000  1.0
  H  H5  1  0.70627000  0.91075000  0.11807000  1.0
  H  H6  1  0.66646000  0.47905000  0.15635000  1.0
  H  H7  1  0.33352000  0.52093000  0.84365000  1.0
  H  H8  1  0.70622000  0.41759000  0.82223000  1.0
  H  H9  1  0.29379000  0.58241000  0.17779000  1.0
  H  H10  1  0.63397000  0.49585000  0.45074000  1.0
  H  H11  1  0.36603000  0.50416000  0.54925000  1.0
  H  H12  1  0.77234000  0.17128000  0.30637000  1.0
  H  H13  1  0.22768000  0.82873000  0.69363000  1.0
  H  H14  1  0.07322000  0.64037000  0.35857000  1.0
  H  H15  1  0.92679000  0.35964000  0.64143000  1.0
  H  H16  1  0.32088000  0.82166000  0.31383000  1.0
  H  H17  1  0.67912000  0.17834000  0.68617000  1.0
  H  H18  1  0.13622000  0.81946000  0.23734000  1.0
  H  H19  1  0.86378000  0.18055000  0.76266000  1.0
  H  H20  1  0.92280000  0.97826000  0.30686000  1.0
  H  H21  1  0.07720000  0.02174000  0.69314000  1.0
  H  H22  1  0.04711000  0.09144000  0.26224000  1.0
  H  H23  1  0.95289000  0.90856000  0.73776000  1.0
  C  C24  1  0.41501000  0.16290000  0.71270000  1.0
  C  C25  1  0.58499000  0.83711000  0.28730000  1.0
  C  C26  1  0.48986000  0.24523000  0.83768000  1.0
  C  C27  1  0.51013000  0.75477000  0.16233000  1.0
  C  C28  1  0.40803000  0.19373000  0.91243000  1.0
  C  C29  1  0.59195000  0.80626000  0.08757000  1.0
  C  C30  1  0.47070000  0.27690000  0.02706000  1.0
  C  C31  1  0.52929000  0.72308000  0.97293000  1.0
  C  C32  1  0.61778000  0.41114000  0.06831000  1.0
  C  C33  1  0.38221000  0.58886000  0.93170000  1.0
  C  C34  1  0.70296000  0.45567000  0.99437000  1.0
  C  C35  1  0.29704000  0.54432000  0.00564000  1.0
  C  C36  1  0.64105000  0.37615000  0.87929000  1.0
  C  C37  1  0.35894000  0.62385000  0.12072000  1.0
  C  C38  1  0.38240000  0.21560000  0.10522000  1.0
  C  C39  1  0.61757000  0.78439000  0.89476000  1.0
  C  C40  1  0.89428000  0.74300000  0.45542000  1.0
  C  C41  1  0.10573000  0.25701000  0.54458000  1.0
  C  C42  1  0.85671000  0.58406000  0.40914000  1.0
  C  C43  1  0.14329000  0.41596000  0.59087000  1.0
  C  C44  1  0.71710000  0.46880000  0.41531000  1.0
  C  C45  1  0.28290000  0.53120000  0.58468000  1.0
  C  C46  1  0.68848000  0.32071000  0.38084000  1.0
  C  C47  1  0.31152000  0.67929000  0.61916000  1.0
  C  C48  1  0.79251000  0.28589000  0.33286000  1.0
  C  C49  1  0.20750000  0.71412000  0.66714000  1.0
  C  C50  1  0.92707000  0.40276000  0.32372000  1.0
  C  C51  1  0.07295000  0.59725000  0.67628000  1.0
  C  C52  1  0.96403000  0.55134000  0.36335000  1.0
  C  C53  1  0.03598000  0.44866000  0.63665000  1.0
  C  C54  1  0.55016000  0.20253000  0.40179000  1.0
  C  C55  1  0.44986000  0.79748000  0.59821000  1.0
  N  N56  1  0.86324000  0.59185000  0.03886000  1.0
  N  N57  1  0.13674000  0.40813000  0.96114000  1.0
  N  N58  1  0.04133000  0.36806000  0.27774000  1.0
  N  N59  1  0.95868000  0.63195000  0.72227000  1.0
  O  O60  1  0.50052000  0.20064000  0.64880000  1.0
  O  O61  1  0.49948000  0.79936000  0.35120000  1.0
  O  O62  1  0.26467000  0.05715000  0.66884000  1.0
  O  O63  1  0.73533000  0.94286000  0.33116000  1.0
  O  O64  1  0.31263000  0.08243000  0.09739000  1.0
  O  O65  1  0.68731000  0.91756000  0.90259000  1.0
  O  O66  1  0.39260000  0.32348000  0.18488000  1.0
  O  O67  1  0.60738000  0.67651000  0.81512000  1.0
  O  O68  1  0.90485000  0.67087000  0.13730000  1.0
  O  O69  1  0.09515000  0.32913000  0.86271000  1.0
  O  O70  1  0.94908000  0.62089000  0.97856000  1.0
  O  O71  1  0.05091000  0.37911000  0.02145000  1.0
  O  O72  1  0.03040000  0.84332000  0.45734000  1.0
  O  O73  1  0.96959000  0.15668000  0.54266000  1.0
  O  O74  1  0.78835000  0.76601000  0.49077000  1.0
  O  O75  1  0.21163000  0.23398000  0.50921000  1.0
  O  O76  1  0.40613000  0.20900000  0.37845000  1.0
  O  O77  1  0.59388000  0.79099000  0.62154000  1.0
  O  O78  1  0.58007000  0.10189000  0.44660000  1.0
  O  O79  1  0.41996000  0.89812000  0.55340000  1.0
  O  O80  1  0.98567000  0.24025000  0.21632000  1.0
  O  O81  1  0.01437000  0.75977000  0.78370000  1.0
  O  O82  1  0.18696000  0.46664000  0.30369000  1.0
  O  O83  1  0.81307000  0.53339000  0.69632000  1.0
  O  O84  1  0.23316000  0.85885000  0.31306000  1.0
  O  O85  1  0.76685000  0.14116000  0.68694000  1.0
  O  O86  1  0.03341000  0.00623000  0.29711000  1.0
  O  O87  1  0.96659000  0.99376000  0.70289000  1.0
