# generated using pymatgen
data_Al2H6C24(S2O5)3
_symmetry_space_group_name_H-M   'P 1'
_cell_length_a   3.96272000
_cell_length_b   20.15270000
_cell_length_c   20.15270000
_cell_angle_alpha   60.00000000
_cell_angle_beta   89.99990000
_cell_angle_gamma   90.00000000
_symmetry_Int_Tables_number   1
_chemical_formula_structural   Al2H6C24(S2O5)3
_chemical_formula_sum   'Al2 H6 C24 S6 O15'
_cell_volume   1393.76802916
_cell_formula_units_Z   1
loop_
 _symmetry_equiv_pos_site_id
 _symmetry_equiv_pos_as_xyz
  1  'x, y, z'
loop_
 _atom_site_type_symbol
 _atom_site_label
 _atom_site_symmetry_multiplicity
 _atom_site_fract_x
 _atom_site_fract_y
 _atom_site_fract_z
 _atom_site_occupancy
  Al  Al0  1  0.00317000  1.00000000  0.50000000  1.0
  Al  Al1  1  0.00296000  0.66666000  0.16667000  1.0
  H  H2  1  0.47240000  0.43657000  0.38563000  1.0
  H  H3  1  0.47238000  0.88562000  0.17780000  1.0
  H  H4  1  0.47239000  0.67780000  0.93658000  1.0
  H  H5  1  0.49868000  0.26825000  0.21552000  1.0
  H  H6  1  0.49868000  0.71553000  0.51623000  1.0
  H  H7  1  0.49868000  0.01624000  0.76824000  1.0
  C  C8  1  0.50234000  0.94363000  0.61763000  1.0
  C  C9  1  0.50234000  0.11762000  0.43874000  1.0
  C  C10  1  0.50234000  0.93873000  0.44364000  1.0
  C  C11  1  0.50233000  0.54904000  0.22551000  1.0
  C  C12  1  0.50233000  0.72550000  0.22545000  1.0
  C  C13  1  0.50233000  0.72545000  0.04905000  1.0
  C  C14  1  0.49064000  0.25109000  0.31810000  1.0
  C  C15  1  0.48485000  0.41589000  0.34511000  1.0
  C  C16  1  0.49771000  0.20236000  0.39672000  1.0
  C  C17  1  0.49818000  0.46441000  0.26690000  1.0
  C  C18  1  0.50388000  0.33821000  0.36399000  1.0
  C  C19  1  0.50787000  0.32899000  0.29937000  1.0
  C  C20  1  0.49064000  0.81810000  0.43081000  1.0
  C  C21  1  0.48482000  0.84510000  0.23900000  1.0
  C  C22  1  0.49770000  0.89672000  0.40092000  1.0
  C  C23  1  0.49817000  0.76689000  0.26869000  1.0
  C  C24  1  0.50386000  0.86399000  0.29779000  1.0
  C  C25  1  0.50787000  0.79937000  0.37164000  1.0
  C  C26  1  0.49065000  0.93081000  0.75109000  1.0
  C  C27  1  0.48484000  0.73900000  0.91590000  1.0
  C  C28  1  0.49771000  0.90092000  0.70236000  1.0
  C  C29  1  0.49817000  0.76869000  0.96442000  1.0
  C  C30  1  0.50388000  0.79779000  0.83822000  1.0
  C  C31  1  0.50788000  0.87164000  0.82899000  1.0
  S  S32  1  0.51662000  0.25116000  0.44751000  1.0
  S  S33  1  0.52650000  0.41611000  0.21564000  1.0
  S  S34  1  0.51660000  0.94750000  0.30133000  1.0
  S  S35  1  0.52650000  0.71564000  0.36825000  1.0
  S  S36  1  0.51662000  0.80132000  0.75117000  1.0
  S  S37  1  0.52650000  0.86825000  0.91611000  1.0
  O  O38  1  0.73816000  0.98767000  0.42729000  1.0
  O  O39  1  0.73816000  0.92729000  0.58504000  1.0
  O  O40  1  0.73816000  0.08504000  0.48767000  1.0
  O  O41  1  0.26963000  0.92417000  0.49267000  1.0
  O  O42  1  0.26963000  0.08316000  0.42417000  1.0
  O  O43  1  0.26963000  0.99267000  0.58316000  1.0
  O  O44  1  0.73774000  0.74087000  0.08255000  1.0
  O  O45  1  0.73773000  0.58255000  0.17658000  1.0
  O  O46  1  0.73773000  0.67658000  0.24087000  1.0
  O  O47  1  0.27030000  0.67579000  0.08285000  1.0
  O  O48  1  0.27029000  0.74136000  0.17579000  1.0
  O  O49  1  0.27029000  0.58285000  0.24136000  1.0
  O  O50  1  0.48024000  0.22498000  0.26734000  1.0
  O  O51  1  0.48025000  0.76734000  0.50768000  1.0
  O  O52  1  0.48024000  0.00768000  0.72498000  1.0
