# generated using pymatgen
data_CuH13C20(N3O2)2
_symmetry_space_group_name_H-M   'P 1'
_cell_length_a   9.89526000
_cell_length_b   10.13989839
_cell_length_c   10.76550000
_cell_angle_alpha   103.27506968
_cell_angle_beta   100.11610000
_cell_angle_gamma   118.79999307
_symmetry_Int_Tables_number   1
_chemical_formula_structural   CuH13C20(N3O2)2
_chemical_formula_sum   'Cu2 H26 C40 N12 O8'
_cell_volume   867.82960420
_cell_formula_units_Z   2
loop_
 _symmetry_equiv_pos_site_id
 _symmetry_equiv_pos_as_xyz
  1  'x, y, z'
loop_
 _atom_site_type_symbol
 _atom_site_label
 _atom_site_symmetry_multiplicity
 _atom_site_fract_x
 _atom_site_fract_y
 _atom_site_fract_z
 _atom_site_occupancy
  Cu  Cu0  1  0.86520000  0.95653000  0.28116000  1.0
  Cu  Cu1  1  0.13470000  0.04317000  0.71897000  1.0
  H  H2  1  0.11028000  0.88482000  0.15444000  1.0
  H  H3  1  0.88956000  0.11499000  0.84559000  1.0
  H  H4  1  0.60770000  0.60371000  0.09164000  1.0
  H  H5  1  0.39212000  0.39589000  0.90827000  1.0
  H  H6  1  0.66914000  0.44265000  0.88589000  1.0
  H  H7  1  0.33075000  0.55716000  0.11397000  1.0
  H  H8  1  0.46689000  0.83483000  0.13900000  1.0
  H  H9  1  0.53289000  0.16475000  0.86106000  1.0
  H  H10  1  0.80869000  0.93201000  0.93530000  1.0
  H  H11  1  0.19149000  0.06822000  0.06519000  1.0
  H  H12  1  0.50028000  0.76825000  0.74389000  1.0
  H  H13  1  0.50011000  0.23241000  0.25637000  1.0
  H  H14  1  0.08757000  0.25999000  0.55605000  1.0
  H  H15  1  0.91183000  0.73878000  0.44496000  1.0
  H  H16  1  0.59442000  0.04016000  0.31876000  1.0
  H  H17  1  0.40630000  0.96116000  0.68016000  1.0
  H  H18  1  0.67519000  0.29895000  0.53844000  1.0
  H  H19  1  0.32571000  0.70276000  0.46030000  1.0
  H  H20  1  0.24077000  0.82147000  0.04803000  1.0
  H  H21  1  0.75910000  0.17840000  0.95195000  1.0
  H  H22  1  0.23902000  0.53076000  0.68597000  1.0
  H  H23  1  0.76105000  0.46951000  0.31393000  1.0
  H  H24  1  0.78245000  0.40918000  0.75309000  1.0
  H  H25  1  0.21757000  0.59080000  0.24672000  1.0
  H  H26  1  0.33221000  0.41654000  0.26318000  1.0
  H  H27  1  0.66770000  0.58328000  0.73692000  1.0
  C  C28  1  0.98212000  0.78851000  0.10501000  1.0
  C  C29  1  0.01771000  0.21129000  0.89498000  1.0
  C  C30  1  0.72092000  0.63764000  0.07152000  1.0
  C  C31  1  0.27890000  0.36207000  0.92839000  1.0
  C  C32  1  0.75007000  0.55715000  0.97024000  1.0
  C  C33  1  0.24982000  0.44266000  0.02965000  1.0
  C  C34  1  0.52053000  0.84902000  0.05964000  1.0
  C  C35  1  0.47938000  0.15083000  0.94051000  1.0
  C  C36  1  0.69142000  0.89127000  0.95004000  1.0
  C  C37  1  0.30868000  0.10888000  0.05030000  1.0
  C  C38  1  0.53885000  0.80658000  0.85318000  1.0
  C  C39  1  0.46132000  0.19376000  0.14706000  1.0
  C  C40  1  0.96688000  0.23868000  0.51730000  1.0
  C  C41  1  0.03294000  0.76078000  0.48316000  1.0
  C  C42  1  0.71045000  0.12697000  0.39874000  1.0
  C  C43  1  0.29000000  0.87372000  0.60070000  1.0
  C  C44  1  0.74857000  0.25473000  0.50731000  1.0
  C  C45  1  0.25196000  0.74619000  0.49196000  1.0
  C  C46  1  0.00222000  0.62012000  0.90974000  1.0
  C  C47  1  0.99769000  0.37986000  0.09019000  1.0
  C  C48  1  0.17249000  0.71848000  0.95316000  1.0
  C  C49  1  0.82743000  0.28145000  0.04680000  1.0
  C  C50  1  0.25618000  0.68491000  0.87247000  1.0
  C  C51  1  0.74385000  0.31519000  0.12753000  1.0
  C  C52  1  0.17256000  0.55662000  0.74775000  1.0
  C  C53  1  0.82750000  0.44357000  0.25219000  1.0
  C  C54  1  0.00182000  0.45943000  0.70664000  1.0
  C  C55  1  0.99827000  0.54070000  0.29330000  1.0
  C  C56  1  0.91542000  0.48898000  0.78689000  1.0
  C  C57  1  0.08459000  0.51107000  0.21301000  1.0
  C  C58  1  0.58798000  0.72522000  0.35842000  1.0
  C  C59  1  0.41200000  0.27459000  0.64166000  1.0
  C  C60  1  0.54201000  0.61177000  0.43488000  1.0
  C  C61  1  0.45789000  0.38804000  0.56520000  1.0
  C  C62  1  0.63792000  0.65954000  0.56931000  1.0
  C  C63  1  0.36195000  0.34028000  0.43080000  1.0
  C  C64  1  0.77660000  0.83417000  0.64706000  1.0
  C  C65  1  0.22320000  0.16564000  0.35307000  1.0
  C  C66  1  0.40498000  0.45364000  0.36775000  1.0
  C  C67  1  0.59490000  0.54616000  0.63235000  1.0
  N  N68  1  0.86571000  0.78153000  0.15377000  1.0
  N  N69  1  0.13408000  0.21817000  0.84621000  1.0
  N  N70  1  0.91671000  0.65389000  0.99185000  1.0
  N  N71  1  0.08317000  0.34599000  0.00808000  1.0
  N  N72  1  0.67850000  0.91734000  0.07827000  1.0
  N  N73  1  0.32143000  0.08252000  0.92201000  1.0
  N  N74  1  0.42953000  0.77944000  0.92413000  1.0
  N  N75  1  0.57052000  0.22070000  0.07600000  1.0
  N  N76  1  0.84706000  0.11883000  0.40604000  1.0
  N  N77  1  0.15298000  0.88098000  0.59414000  1.0
  N  N78  1  0.91191000  0.32555000  0.58219000  1.0
  N  N79  1  0.08821000  0.67457000  0.41774000  1.0
  O  O80  1  0.73684000  0.78980000  0.35999000  1.0
  O  O81  1  0.26314000  0.20992000  0.64013000  1.0
  O  O82  1  0.48065000  0.74114000  0.29540000  1.0
  O  O83  1  0.51939000  0.25874000  0.70469000  1.0
  O  O84  1  0.74469000  0.93999000  0.65085000  1.0
  O  O85  1  0.25499000  0.05976000  0.34933000  1.0
  O  O86  1  0.91538000  0.85491000  0.70483000  1.0
  O  O87  1  0.08446000  0.14495000  0.29526000  1.0
