# generated using pymatgen
data_Hf3H5C30N9O16
_symmetry_space_group_name_H-M   'P 1'
_cell_length_a   16.38160000
_cell_length_b   16.38570000
_cell_length_c   16.47030000
_cell_angle_alpha   84.78920000
_cell_angle_beta   89.56240000
_cell_angle_gamma   89.67860000
_symmetry_Int_Tables_number   1
_chemical_formula_structural   Hf3H5C30N9O16
_chemical_formula_sum   'Hf6 H10 C60 N18 O32'
_cell_volume   4402.57070034
_cell_formula_units_Z   2
loop_
 _symmetry_equiv_pos_site_id
 _symmetry_equiv_pos_as_xyz
  1  'x, y, z'
loop_
 _atom_site_type_symbol
 _atom_site_label
 _atom_site_symmetry_multiplicity
 _atom_site_fract_x
 _atom_site_fract_y
 _atom_site_fract_z
 _atom_site_occupancy
  Hf  Hf0  1  0.96552000  0.80005000  0.15879000  1.0
  Hf  Hf1  1  0.84750000  0.75561000  0.99192000  1.0
  Hf  Hf2  1  0.99084000  0.00134000  0.07158000  1.0
  Hf  Hf3  1  0.79391000  0.92042000  0.10328000  1.0
  Hf  Hf4  1  0.04345000  0.83697000  0.95951000  1.0
  Hf  Hf5  1  0.87199000  0.95790000  0.90495000  1.0
  H  H6  1  0.80041000  0.75263000  0.15735000  1.0
  H  H7  1  0.11236000  0.87970000  0.10446000  1.0
  H  H8  1  0.84264000  0.07256000  0.02077000  1.0
  H  H9  1  0.92294000  0.81334000  0.84168000  1.0
  H  H10  1  0.93234000  0.47468000  0.51715000  1.0
  H  H11  1  0.91707000  0.28606000  0.54605000  1.0
  H  H12  1  0.32616000  0.36715000  0.02882000  1.0
  H  H13  1  0.51327000  0.39300000  0.02479000  1.0
  H  H14  1  0.40677000  0.88643000  0.62323000  1.0
  H  H15  1  0.43253000  0.87894000  0.43764000  1.0
  C  C16  1  0.20087000  0.93576000  0.45210000  1.0
  C  C17  1  0.30547000  0.91079000  0.54028000  1.0
  C  C18  1  0.17879000  0.94092000  0.58696000  1.0
  C  C19  1  0.63456000  0.82873000  0.61383000  1.0
  C  C20  1  0.66193000  0.82862000  0.47931000  1.0
  C  C21  1  0.53294000  0.85495000  0.52235000  1.0
  C  C22  1  0.49310000  0.16835000  0.96502000  1.0
  C  C23  1  0.40704000  0.26934000  0.99743000  1.0
  C  C24  1  0.35726000  0.14590000  0.96887000  1.0
  C  C25  1  0.34173000  0.58786000  0.09016000  1.0
  C  C26  1  0.43068000  0.49002000  0.05595000  1.0
  C  C27  1  0.47640000  0.61605000  0.08118000  1.0
  C  C28  1  0.98130000  0.47862000  0.74764000  1.0
  C  C29  1  0.95223000  0.41094000  0.63726000  1.0
  C  C30  1  0.97410000  0.34054000  0.76048000  1.0
  C  C31  1  0.86572000  0.27579000  0.31845000  1.0
  C  C32  1  0.89720000  0.34748000  0.42545000  1.0
  C  C33  1  0.87766000  0.41341000  0.29972000  1.0
  C  C34  1  0.07020000  0.92913000  0.24469000  1.0
  C  C35  1  0.89118000  0.62363000  0.14772000  1.0
  C  C36  1  0.81427000  0.83684000  0.28307000  1.0
  C  C37  1  0.13142000  0.71626000  0.09267000  1.0
  C  C38  1  0.76000000  0.83095000  0.82410000  1.0
  C  C39  1  0.95617000  0.13027000  0.91132000  1.0
  C  C40  1  0.67047000  0.77043000  0.06785000  1.0
  C  C41  1  0.98049000  0.66983000  0.88737000  1.0
  C  C42  1  0.16359000  0.99158000  0.98599000  1.0
  C  C43  1  0.86096000  0.08173000  0.18368000  1.0
  C  C44  1  0.70081000  0.03382000  0.96772000  1.0
  C  C45  1  0.02719000  0.92988000  0.78333000  1.0
  C  C46  1  0.85455000  0.20106000  0.28178000  1.0
  C  C47  1  0.85209000  0.14329000  0.24048000  1.0
  C  C48  1  0.88069000  0.54552000  0.19488000  1.0
  C  C49  1  0.87788000  0.48622000  0.24480000  1.0
  C  C50  1  0.97514000  0.26609000  0.81293000  1.0
  C  C51  1  0.97167000  0.20617000  0.86202000  1.0
  C  C52  1  0.98980000  0.55157000  0.78796000  1.0
  C  C53  1  0.99090000  0.60715000  0.83209000  1.0
  C  C54  1  0.93309000  0.41392000  0.55023000  1.0
  C  C55  1  0.91648000  0.34646000  0.51223000  1.0
  C  C56  1  0.26145000  0.61947000  0.10120000  1.0
  C  C57  1  0.19844000  0.65885000  0.10322000  1.0
  C  C58  1  0.59543000  0.72456000  0.07997000  1.0
  C  C59  1  0.54123000  0.67397000  0.08285000  1.0
  C  C60  1  0.23631000  0.03991000  0.96886000  1.0
  C  C61  1  0.29085000  0.09013000  0.96553000  1.0
  C  C62  1  0.57219000  0.13290000  0.95665000  1.0
  C  C63  1  0.63313000  0.09023000  0.95595000  1.0
  C  C64  1  0.39049000  0.35204000  0.02086000  1.0
  C  C65  1  0.44881000  0.40743000  0.03287000  1.0
  C  C66  1  0.66683000  0.82260000  0.69441000  1.0
  C  C67  1  0.70515000  0.82234000  0.75735000  1.0
  C  C68  1  0.72008000  0.82372000  0.41470000  1.0
  C  C69  1  0.77004000  0.82494000  0.35961000  1.0
  C  C70  1  0.07344000  0.94654000  0.70856000  1.0
  C  C71  1  0.12276000  0.94787000  0.65294000  1.0
  C  C72  1  0.12381000  0.93887000  0.31211000  1.0
  C  C73  1  0.16511000  0.93964000  0.37305000  1.0
  C  C74  1  0.39083000  0.88994000  0.55882000  1.0
  C  C75  1  0.44774000  0.87531000  0.50221000  1.0
  N  N76  1  0.28006000  0.91617000  0.46200000  1.0
  N  N77  1  0.25714000  0.92200000  0.60525000  1.0
  N  N78  1  0.14716000  0.95038000  0.51169000  1.0
  N  N79  1  0.69093000  0.81745000  0.55557000  1.0
  N  N80  1  0.58386000  0.84665000  0.45868000  1.0
  N  N81  1  0.55548000  0.84710000  0.60153000  1.0
  N  N82  1  0.48511000  0.24522000  0.98614000  1.0
  N  N83  1  0.34078000  0.22181000  0.99027000  1.0
  N  N84  1  0.43176000  0.11602000  0.95363000  1.0
  N  N85  1  0.35219000  0.51105000  0.06989000  1.0
  N  N86  1  0.49522000  0.54038000  0.06030000  1.0
  N  N87  1  0.40128000  0.64316000  0.09832000  1.0
  N  N88  1  0.96402000  0.48391000  0.66757000  1.0
  N  N89  1  0.95575000  0.33733000  0.68143000  1.0
  N  N90  1  0.98897000  0.40906000  0.79717000  1.0
  N  N91  1  0.88271000  0.27347000  0.39838000  1.0
  N  N92  1  0.89608000  0.41951000  0.37842000  1.0
  N  N93  1  0.86082000  0.34363000  0.26601000  1.0
  O  O94  1  0.05855000  0.98949000  0.19214000  1.0
  O  O95  1  0.85858000  0.63742000  0.07814000  1.0
  O  O96  1  0.88372000  0.80428000  0.27364000  1.0
  O  O97  1  0.08271000  0.72540000  0.15133000  1.0
  O  O98  1  0.13061000  0.75482000  0.02132000  1.0
  O  O99  1  0.77376000  0.88144000  0.22920000  1.0
  O  O100  1  0.93375000  0.67378000  0.18512000  1.0
  O  O101  1  0.03955000  0.85721000  0.24535000  1.0
  O  O102  1  0.96029000  0.77767000  0.03788000  1.0
  O  O103  1  0.91640000  0.91437000  0.13105000  1.0
  O  O104  1  0.83433000  0.78850000  0.12140000  1.0
  O  O105  1  0.05673000  0.87909000  0.08478000  1.0
  O  O106  1  0.77282000  0.77001000  0.87562000  1.0
  O  O107  1  0.98817000  0.11676000  0.98121000  1.0
  O  O108  1  0.68006000  0.83833000  0.09780000  1.0
  O  O109  1  0.03839000  0.71910000  0.89663000  1.0
  O  O110  1  0.15419000  0.92332000  0.95665000  1.0
  O  O111  1  0.80233000  0.03370000  0.17327000  1.0
  O  O112  1  0.75039000  0.02550000  0.90952000  1.0
  O  O113  1  0.95732000  0.96164000  0.79260000  1.0
  O  O114  1  0.70333000  0.99741000  0.03997000  1.0
  O  O115  1  0.06496000  0.87993000  0.83471000  1.0
  O  O116  1  0.72302000  0.73301000  0.02627000  1.0
  O  O117  1  0.93062000  0.08419000  0.14744000  1.0
  O  O118  1  0.11405000  0.02571000  0.03339000  1.0
  O  O119  1  0.90976000  0.66929000  0.92132000  1.0
  O  O120  1  0.79267000  0.90205000  0.82196000  1.0
  O  O121  1  0.90781000  0.08291000  0.87689000  1.0
  O  O122  1  0.98143000  0.94562000  0.96520000  1.0
  O  O123  1  0.81786000  0.87800000  0.99230000  1.0
  O  O124  1  0.86312000  0.01672000  0.02378000  1.0
  O  O125  1  0.92164000  0.83087000  0.89637000  1.0
