# generated using pymatgen
data_CsH3C3SN2O3
_symmetry_space_group_name_H-M   'P 1'
_cell_length_a   8.13141000
_cell_length_b   8.89759000
_cell_length_c   9.76418000
_cell_angle_alpha   91.47900000
_cell_angle_beta   90.00000000
_cell_angle_gamma   89.99990000
_symmetry_Int_Tables_number   1
_chemical_formula_structural   CsH3C3SN2O3
_chemical_formula_sum   'Cs4 H12 C12 S4 N8 O12'
_cell_volume   706.20260900
_cell_formula_units_Z   4
loop_
 _symmetry_equiv_pos_site_id
 _symmetry_equiv_pos_as_xyz
  1  'x, y, z'
loop_
 _atom_site_type_symbol
 _atom_site_label
 _atom_site_symmetry_multiplicity
 _atom_site_fract_x
 _atom_site_fract_y
 _atom_site_fract_z
 _atom_site_occupancy
  Cs  Cs0  1  0.16849000  0.90795000  0.31347000  1.0
  Cs  Cs1  1  0.66849000  0.09205000  0.18653000  1.0
  Cs  Cs2  1  0.83151000  0.09205000  0.68653000  1.0
  Cs  Cs3  1  0.33151000  0.90795000  0.81347000  1.0
  H  H4  1  0.98260000  0.34212000  0.28695000  1.0
  H  H5  1  0.48260000  0.65789000  0.21305000  1.0
  H  H6  1  0.01740000  0.65788000  0.71305000  1.0
  H  H7  1  0.51740000  0.34212000  0.78695000  1.0
  H  H8  1  0.93903000  0.62432000  0.25024000  1.0
  H  H9  1  0.43903000  0.37569000  0.24976000  1.0
  H  H10  1  0.06097000  0.37568000  0.74976000  1.0
  H  H11  1  0.56097000  0.62431000  0.75024000  1.0
  H  H12  1  0.62501000  0.44827000  0.56666000  1.0
  H  H13  1  0.12501000  0.55173000  0.93334000  1.0
  H  H14  1  0.37499000  0.55173000  0.43334000  1.0
  H  H15  1  0.87499000  0.44827000  0.06666000  1.0
  C  C16  1  0.87826000  0.55965000  0.32808000  1.0
  C  C17  1  0.37826000  0.44035000  0.17192000  1.0
  C  C18  1  0.12174000  0.44035000  0.67192000  1.0
  C  C19  1  0.62174000  0.55965000  0.82808000  1.0
  C  C20  1  0.75509000  0.60055000  0.42086000  1.0
  C  C21  1  0.25510000  0.39945000  0.07914000  1.0
  C  C22  1  0.24491000  0.39945000  0.57914000  1.0
  C  C23  1  0.74491000  0.60055000  0.92086000  1.0
  C  C24  1  0.71570000  0.46634000  0.48768000  1.0
  C  C25  1  0.21570000  0.53366000  0.01233000  1.0
  C  C26  1  0.28430000  0.53366000  0.51232000  1.0
  C  C27  1  0.78430000  0.46634000  0.98767000  1.0
  S  S28  1  0.66981000  0.78087000  0.44409000  1.0
  S  S29  1  0.16981000  0.21913000  0.05591000  1.0
  S  S30  1  0.33019000  0.21914000  0.55591000  1.0
  S  S31  1  0.83018000  0.78087000  0.94409000  1.0
  N  N32  1  0.80794000  0.35142000  0.44061000  1.0
  N  N33  1  0.30794000  0.64858000  0.05939000  1.0
  N  N34  1  0.19206000  0.64858000  0.55939000  1.0
  N  N35  1  0.69207000  0.35142000  0.94061000  1.0
  N  N36  1  0.90641000  0.41204000  0.34476000  1.0
  N  N37  1  0.40642000  0.58796000  0.15524000  1.0
  N  N38  1  0.09359000  0.58796000  0.65524000  1.0
  N  N39  1  0.59359000  0.41204000  0.84476000  1.0
  O  O40  1  0.54179000  0.79520000  0.33660000  1.0
  O  O41  1  0.04180000  0.20479000  0.16340000  1.0
  O  O42  1  0.45821000  0.20480000  0.66340000  1.0
  O  O43  1  0.95820000  0.79521000  0.83660000  1.0
  O  O44  1  0.80526000  0.88776000  0.42349000  1.0
  O  O45  1  0.30526000  0.11224000  0.07651000  1.0
  O  O46  1  0.19474000  0.11224000  0.57651000  1.0
  O  O47  1  0.69474000  0.88776000  0.92349000  1.0
  O  O48  1  0.60080000  0.78770000  0.58251000  1.0
  O  O49  1  0.10081000  0.21231000  0.91749000  1.0
  O  O50  1  0.39919000  0.21230000  0.41749000  1.0
  O  O51  1  0.89919000  0.78769000  0.08251000  1.0
