# generated using pymatgen
data_Co2H24C27(NO2)4
_symmetry_space_group_name_H-M   'P 1'
_cell_length_a   10.98740000
_cell_length_b   18.25460000
_cell_length_c   18.74630000
_cell_angle_alpha   107.35100000
_cell_angle_beta   90.00000000
_cell_angle_gamma   90.00000000
_symmetry_Int_Tables_number   1
_chemical_formula_structural   Co2H24C27(NO2)4
_chemical_formula_sum   'Co8 H96 C108 N16 O32'
_cell_volume   3588.86238645
_cell_formula_units_Z   4
loop_
 _symmetry_equiv_pos_site_id
 _symmetry_equiv_pos_as_xyz
  1  'x, y, z'
loop_
 _atom_site_type_symbol
 _atom_site_label
 _atom_site_symmetry_multiplicity
 _atom_site_fract_x
 _atom_site_fract_y
 _atom_site_fract_z
 _atom_site_occupancy
  Co  Co0  1  0.69856000  0.80445000  0.53854000  1.0
  Co  Co1  1  0.19856000  0.69555000  0.96146000  1.0
  Co  Co2  1  0.30145000  0.19555000  0.46146000  1.0
  Co  Co3  1  0.80145000  0.30446000  0.03854000  1.0
  Co  Co4  1  0.69948000  0.72526000  0.61443000  1.0
  Co  Co5  1  0.19948000  0.77474000  0.88557000  1.0
  Co  Co6  1  0.30051000  0.27474000  0.38557000  1.0
  Co  Co7  1  0.80052000  0.22526000  0.11443000  1.0
  H  H8  1  0.08368000  0.80586000  0.47759000  1.0
  H  H9  1  0.58367000  0.69414000  0.02241000  1.0
  H  H10  1  0.91633000  0.19414000  0.52241000  1.0
  H  H11  1  0.41632000  0.30586000  0.97759000  1.0
  H  H12  1  0.08693000  0.73022000  0.67391000  1.0
  H  H13  1  0.58694000  0.76977000  0.82609000  1.0
  H  H14  1  0.91306000  0.26977000  0.32609000  1.0
  H  H15  1  0.41307000  0.23023000  0.17391000  1.0
  H  H16  1  0.31251000  0.79589000  0.47133000  1.0
  H  H17  1  0.81251000  0.70411000  0.02868000  1.0
  H  H18  1  0.68749000  0.20411000  0.52868000  1.0
  H  H19  1  0.18749000  0.29589000  0.97132000  1.0
  H  H20  1  0.31229000  0.72015000  0.66753000  1.0
  H  H21  1  0.81230000  0.77985000  0.83248000  1.0
  H  H22  1  0.68770000  0.27984000  0.33248000  1.0
  H  H23  1  0.18771000  0.22016000  0.16753000  1.0
  H  H24  1  0.69071000  0.88796000  0.84369000  1.0
  H  H25  1  0.19071000  0.61204000  0.65631000  1.0
  H  H26  1  0.30929000  0.11204000  0.15631000  1.0
  H  H27  1  0.80929000  0.38795000  0.34369000  1.0
  H  H28  1  0.72602000  0.00170000  0.95586000  1.0
  H  H29  1  0.22602000  0.49829000  0.54414000  1.0
  H  H30  1  0.27398000  0.99829000  0.04414000  1.0
  H  H31  1  0.77398000  0.50170000  0.45586000  1.0
  H  H32  1  0.78757000  0.14259000  0.81247000  1.0
  H  H33  1  0.28757000  0.35741000  0.68753000  1.0
  H  H34  1  0.21243000  0.85741000  0.18753000  1.0
  H  H35  1  0.71243000  0.64259000  0.31248000  1.0
  H  H36  1  0.75491000  0.02800000  0.69981000  1.0
  H  H37  1  0.25491000  0.47199000  0.80019000  1.0
  H  H38  1  0.24509000  0.97200000  0.30019000  1.0
  H  H39  1  0.74508000  0.52800000  0.19981000  1.0
  H  H40  1  0.65020000  0.07057000  0.47609000  1.0
  H  H41  1  0.15019000  0.42943000  0.02391000  1.0
  H  H42  1  0.34982000  0.92942000  0.52391000  1.0
  H  H43  1  0.84981000  0.57058000  0.97609000  1.0
  H  H44  1  0.75143000  0.98657000  0.56416000  1.0
  H  H45  1  0.25142000  0.51343000  0.93584000  1.0
  H  H46  1  0.24858000  0.01343000  0.43584000  1.0
  H  H47  1  0.74858000  0.48657000  0.06416000  1.0
  H  H48  1  0.48704000  0.02839000  0.36987000  1.0
  H  H49  1  0.98703000  0.47161000  0.13013000  1.0
  H  H50  1  0.51297000  0.97161000  0.63013000  1.0
  H  H51  1  0.01296000  0.52839000  0.86987000  1.0
  H  H52  1  0.47256000  0.92958000  0.32247000  1.0
  H  H53  1  0.97255000  0.57042000  0.17753000  1.0
  H  H54  1  0.52745000  0.07042000  0.67752000  1.0
  H  H55  1  0.02744000  0.42958000  0.82247000  1.0
  H  H56  1  0.67597000  0.92931000  0.26065000  1.0
  H  H57  1  0.17596000  0.57069000  0.23935000  1.0
  H  H58  1  0.32405000  0.07069000  0.73935000  1.0
  H  H59  1  0.82403000  0.42931000  0.76065000  1.0
  H  H60  1  0.57052000  0.99419000  0.24147000  1.0
  H  H61  1  0.07051000  0.50582000  0.25853000  1.0
  H  H62  1  0.42949000  0.00582000  0.75853000  1.0
  H  H63  1  0.92948000  0.49419000  0.74147000  1.0
  H  H64  1  0.66681000  0.09894000  0.35330000  1.0
  H  H65  1  0.16680000  0.40106000  0.14670000  1.0
  H  H66  1  0.33319000  0.90106000  0.64670000  1.0
  H  H67  1  0.83319000  0.59894000  0.85330000  1.0
  H  H68  1  0.78664000  0.03424000  0.35057000  1.0
  H  H69  1  0.28663000  0.46577000  0.14943000  1.0
  H  H70  1  0.21337000  0.96577000  0.64943000  1.0
  H  H71  1  0.71336000  0.53424000  0.85057000  1.0
  H  H72  1  0.00258000  0.12235000  0.16813000  1.0
  H  H73  1  0.50257000  0.37765000  0.33186000  1.0
  H  H74  1  0.99743000  0.87765000  0.83187000  1.0
  H  H75  1  0.49742000  0.62235000  0.66814000  1.0
  H  H76  1  0.96221000  0.03965000  0.26907000  1.0
  H  H77  1  0.46220000  0.46036000  0.23093000  1.0
  H  H78  1  0.03780000  0.96036000  0.73093000  1.0
  H  H79  1  0.53779000  0.53964000  0.76907000  1.0
  H  H80  1  0.55406000  0.14577000  0.27848000  1.0
  H  H81  1  0.05406000  0.35423000  0.22152000  1.0
  H  H82  1  0.44594000  0.85423000  0.72152000  1.0
  H  H83  1  0.94594000  0.64577000  0.77848000  1.0
  H  H84  1  0.54144000  0.09062000  0.18316000  1.0
  H  H85  1  0.04144000  0.40938000  0.31683000  1.0
  H  H86  1  0.45856000  0.90938000  0.81683000  1.0
  H  H87  1  0.95856000  0.59062000  0.68317000  1.0
  H  H88  1  0.57772000  0.18918000  0.20629000  1.0
  H  H89  1  0.07771000  0.31083000  0.29372000  1.0
  H  H90  1  0.42229000  0.81082000  0.79372000  1.0
  H  H91  1  0.92228000  0.68918000  0.70629000  1.0
  H  H92  1  0.61005000  0.80218000  0.30724000  1.0
  H  H93  1  0.11004000  0.69783000  0.19276000  1.0
  H  H94  1  0.38995000  0.19782000  0.69276000  1.0
  H  H95  1  0.88995000  0.30218000  0.80724000  1.0
  H  H96  1  0.46838000  0.81762000  0.35492000  1.0
  H  H97  1  0.96837000  0.68238000  0.14508000  1.0
  H  H98  1  0.53162000  0.18237000  0.64508000  1.0
  H  H99  1  0.03162000  0.31762000  0.85491000  1.0
  H  H100  1  0.58594000  0.76552000  0.38417000  1.0
  H  H101  1  0.08594000  0.73448000  0.11582000  1.0
  H  H102  1  0.41406000  0.23448000  0.61582000  1.0
  H  H103  1  0.91406000  0.26552000  0.88417000  1.0
  C  C104  1  0.70195000  0.88310000  0.69833000  1.0
  C  C105  1  0.20195000  0.61689000  0.80168000  1.0
  C  C106  1  0.29805000  0.11690000  0.30167000  1.0
  C  C107  1  0.79805000  0.38310000  0.19833000  1.0
  C  C108  1  0.93642000  0.77214000  0.57813000  1.0
  C  C109  1  0.43642000  0.72785000  0.92188000  1.0
  C  C110  1  0.06358000  0.22786000  0.42187000  1.0
  C  C111  1  0.56358000  0.27215000  0.07812000  1.0
  C  C112  1  0.07188000  0.76809000  0.57556000  1.0
  C  C113  1  0.57189000  0.73190000  0.92445000  1.0
  C  C114  1  0.92812000  0.23190000  0.42445000  1.0
  C  C115  1  0.42812000  0.26810000  0.07555000  1.0
  C  C116  1  0.13535000  0.78705000  0.51855000  1.0
  C  C117  1  0.63534000  0.71295000  0.98146000  1.0
  C  C118  1  0.86466000  0.21295000  0.48146000  1.0
  C  C119  1  0.36465000  0.28705000  0.01855000  1.0
  C  C120  1  0.13590000  0.74356000  0.62893000  1.0
  C  C121  1  0.63590000  0.75644000  0.87108000  1.0
  C  C122  1  0.86410000  0.25644000  0.37108000  1.0
  C  C123  1  0.36410000  0.24356000  0.12892000  1.0
  C  C124  1  0.46114000  0.75783000  0.56952000  1.0
  C  C125  1  0.96114000  0.74216000  0.93049000  1.0
  C  C126  1  0.53886000  0.24217000  0.43048000  1.0
  C  C127  1  0.03886000  0.25784000  0.06952000  1.0
  C  C128  1  0.32565000  0.75765000  0.56910000  1.0
  C  C129  1  0.82565000  0.74235000  0.93092000  1.0
  C  C130  1  0.67435000  0.24234000  0.43091000  1.0
  C  C131  1  0.17435000  0.25766000  0.06909000  1.0
  C  C132  1  0.26150000  0.78164000  0.51525000  1.0
  C  C133  1  0.76150000  0.71836000  0.98476000  1.0
  C  C134  1  0.73850000  0.21836000  0.48476000  1.0
  C  C135  1  0.23850000  0.28165000  0.01524000  1.0
  C  C136  1  0.26200000  0.73812000  0.62560000  1.0
  C  C137  1  0.76200000  0.76188000  0.87441000  1.0
  C  C138  1  0.73800000  0.26188000  0.37441000  1.0
  C  C139  1  0.23800000  0.23812000  0.12559000  1.0
  C  C140  1  0.72056000  0.95121000  0.76514000  1.0
  C  C141  1  0.22055000  0.54879000  0.73487000  1.0
  C  C142  1  0.27944000  0.04879000  0.23487000  1.0
  C  C143  1  0.77944000  0.45120000  0.26513000  1.0
  C  C144  1  0.71236000  0.94374000  0.83727000  1.0
  C  C145  1  0.21235000  0.55626000  0.66274000  1.0
  C  C146  1  0.28765000  0.05626000  0.16273000  1.0
  C  C147  1  0.78765000  0.44374000  0.33726000  1.0
  C  C148  1  0.73164000  0.00683000  0.89953000  1.0
  C  C149  1  0.23163000  0.49317000  0.60047000  1.0
  C  C150  1  0.26836000  0.99317000  0.10047000  1.0
  C  C151  1  0.76836000  0.50682000  0.39953000  1.0
  C  C152  1  0.75883000  0.07855000  0.89046000  1.0
  C  C153  1  0.25882000  0.42145000  0.60954000  1.0
  C  C154  1  0.24118000  0.92145000  0.10954000  1.0
  C  C155  1  0.74117000  0.57854000  0.39047000  1.0
  C  C156  1  0.77854000  0.14621000  0.95749000  1.0
  C  C157  1  0.27854000  0.35380000  0.54250000  1.0
  C  C158  1  0.22146000  0.85379000  0.04251000  1.0
  C  C159  1  0.72146000  0.64620000  0.45749000  1.0
  C  C160  1  0.76660000  0.08634000  0.81839000  1.0
  C  C161  1  0.26660000  0.41365000  0.68161000  1.0
  C  C162  1  0.23341000  0.91366000  0.18161000  1.0
  C  C163  1  0.73340000  0.58634000  0.31839000  1.0
  C  C164  1  0.74798000  0.02305000  0.75617000  1.0
  C  C165  1  0.24797000  0.47694000  0.74383000  1.0
  C  C166  1  0.25203000  0.97695000  0.24383000  1.0
  C  C167  1  0.75202000  0.52305000  0.25617000  1.0
  C  C168  1  0.61558000  0.88530000  0.41628000  1.0
  C  C169  1  0.11557000  0.61470000  0.08372000  1.0
  C  C170  1  0.38443000  0.11470000  0.58371000  1.0
  C  C171  1  0.88442000  0.38530000  0.91628000  1.0
  C  C172  1  0.65394000  0.00948000  0.46902000  1.0
  C  C173  1  0.15393000  0.49052000  0.03098000  1.0
  C  C174  1  0.34607000  0.99052000  0.53098000  1.0
  C  C175  1  0.84607000  0.50948000  0.96902000  1.0
  C  C176  1  0.70248000  0.96743000  0.51171000  1.0
  C  C177  1  0.20248000  0.53258000  0.98829000  1.0
  C  C178  1  0.29752000  0.03257000  0.48828000  1.0
  C  C179  1  0.79752000  0.46743000  0.01171000  1.0
  C  C180  1  0.53895000  0.97509000  0.34662000  1.0
  C  C181  1  0.03894000  0.52491000  0.15337000  1.0
  C  C182  1  0.46106000  0.02491000  0.65337000  1.0
  C  C183  1  0.96105000  0.47509000  0.84662000  1.0
  C  C184  1  0.62648000  0.98326000  0.28584000  1.0
  C  C185  1  0.12646000  0.51674000  0.21415000  1.0
  C  C186  1  0.37354000  0.01674000  0.71415000  1.0
  C  C187  1  0.87352000  0.48327000  0.78584000  1.0
  C  C188  1  0.71584000  0.04959000  0.31634000  1.0
  C  C189  1  0.21584000  0.45041000  0.18366000  1.0
  C  C190  1  0.28416000  0.95041000  0.68366000  1.0
  C  C191  1  0.78415000  0.54959000  0.81634000  1.0
  C  C192  1  0.72473000  0.12007000  0.22021000  1.0
  C  C193  1  0.22473000  0.37993000  0.27978000  1.0
  C  C194  1  0.27527000  0.87993000  0.77978000  1.0
  C  C195  1  0.77527000  0.62007000  0.72022000  1.0
  C  C196  1  0.91897000  0.11207000  0.19423000  1.0
  C  C197  1  0.41896000  0.38793000  0.30577000  1.0
  C  C198  1  0.08104000  0.88793000  0.80577000  1.0
  C  C199  1  0.58103000  0.61207000  0.69423000  1.0
  C  C200  1  0.90037000  0.07073000  0.24354000  1.0
  C  C201  1  0.40036000  0.42928000  0.25646000  1.0
  C  C202  1  0.09964000  0.92928000  0.75647000  1.0
  C  C203  1  0.59964000  0.57073000  0.74354000  1.0
  C  C204  1  0.59267000  0.13725000  0.22264000  1.0
  C  C205  1  0.09266000  0.36275000  0.27736000  1.0
  C  C206  1  0.40734000  0.86275000  0.77736000  1.0
  C  C207  1  0.90734000  0.63725000  0.72264000  1.0
  C  C208  1  0.56729000  0.81390000  0.36265000  1.0
  C  C209  1  0.06729000  0.68610000  0.13734000  1.0
  C  C210  1  0.43271000  0.18610000  0.63734000  1.0
  C  C211  1  0.93271000  0.31391000  0.86265000  1.0
  N  N212  1  0.67782000  0.89056000  0.47888000  1.0
  N  N213  1  0.17782000  0.60944000  0.02112000  1.0
  N  N214  1  0.32218000  0.10944000  0.52111000  1.0
  N  N215  1  0.82218000  0.39056000  0.97888000  1.0
  N  N216  1  0.59961000  0.95687000  0.40848000  1.0
  N  N217  1  0.09960000  0.54313000  0.09152000  1.0
  N  N218  1  0.40040000  0.04313000  0.59152000  1.0
  N  N219  1  0.90040000  0.45687000  0.90847000  1.0
  N  N220  1  0.77704000  0.07582000  0.25945000  1.0
  N  N221  1  0.27703000  0.42418000  0.24055000  1.0
  N  N222  1  0.22297000  0.92418000  0.74055000  1.0
  N  N223  1  0.72296000  0.57582000  0.75945000  1.0
  N  N224  1  0.80963000  0.14282000  0.18030000  1.0
  N  N225  1  0.30963000  0.35718000  0.31970000  1.0
  N  N226  1  0.19037000  0.85718000  0.81970000  1.0
  N  N227  1  0.69037000  0.64282000  0.68030000  1.0
  O  O228  1  0.69570000  0.89465000  0.63444000  1.0
  O  O229  1  0.19570000  0.60535000  0.86557000  1.0
  O  O230  1  0.30431000  0.10536000  0.36556000  1.0
  O  O231  1  0.80430000  0.39465000  0.13444000  1.0
  O  O232  1  0.69367000  0.81698000  0.70795000  1.0
  O  O233  1  0.19367000  0.68301000  0.79205000  1.0
  O  O234  1  0.30632000  0.18302000  0.29204000  1.0
  O  O235  1  0.80632000  0.31698000  0.20795000  1.0
  O  O236  1  0.88167000  0.73617000  0.61758000  1.0
  O  O237  1  0.38167000  0.76382000  0.88243000  1.0
  O  O238  1  0.11832000  0.26383000  0.38243000  1.0
  O  O239  1  0.61833000  0.23618000  0.11757000  1.0
  O  O240  1  0.88177000  0.80969000  0.54021000  1.0
  O  O241  1  0.38177000  0.69031000  0.95979000  1.0
  O  O242  1  0.11824000  0.19031000  0.45979000  1.0
  O  O243  1  0.61823000  0.30969000  0.04021000  1.0
  O  O244  1  0.51643000  0.72044000  0.60727000  1.0
  O  O245  1  0.01643000  0.77955000  0.89274000  1.0
  O  O246  1  0.48357000  0.27956000  0.39273000  1.0
  O  O247  1  0.98357000  0.22045000  0.10726000  1.0
  O  O248  1  0.51505000  0.79829000  0.53399000  1.0
  O  O249  1  0.01505000  0.70171000  0.96601000  1.0
  O  O250  1  0.48494000  0.20171000  0.46601000  1.0
  O  O251  1  0.98495000  0.29830000  0.03399000  1.0
  O  O252  1  0.78888000  0.21229000  0.94746000  1.0
  O  O253  1  0.28888000  0.28771000  0.55253000  1.0
  O  O254  1  0.21112000  0.78770000  0.05254000  1.0
  O  O255  1  0.71111000  0.71229000  0.44746000  1.0
  O  O256  1  0.78313000  0.13488000  0.02119000  1.0
  O  O257  1  0.28313000  0.36513000  0.47881000  1.0
  O  O258  1  0.21687000  0.86513000  0.97881000  1.0
  O  O259  1  0.71687000  0.63487000  0.52119000  1.0
