# generated using pymatgen
data_ZnH15C25N7O4
_symmetry_space_group_name_H-M   'P 1'
_cell_length_a   9.22025000
_cell_length_b   10.18010000
_cell_length_c   14.82600000
_cell_angle_alpha   95.69630000
_cell_angle_beta   92.11530000
_cell_angle_gamma   99.94680000
_symmetry_Int_Tables_number   1
_chemical_formula_structural   ZnH15C25N7O4
_chemical_formula_sum   'Zn2 H30 C50 N14 O8'
_cell_volume   1361.85137162
_cell_formula_units_Z   2
loop_
 _symmetry_equiv_pos_site_id
 _symmetry_equiv_pos_as_xyz
  1  'x, y, z'
loop_
 _atom_site_type_symbol
 _atom_site_label
 _atom_site_symmetry_multiplicity
 _atom_site_fract_x
 _atom_site_fract_y
 _atom_site_fract_z
 _atom_site_occupancy
  Zn  Zn0  1  0.36151000  0.12748000  0.46955000  1.0
  Zn  Zn1  1  0.63849000  0.87252000  0.53045000  1.0
  H  H2  1  0.91163000  0.86637000  0.68336000  1.0
  H  H3  1  0.08837000  0.13363000  0.31664000  1.0
  H  H4  1  0.78011000  0.74960000  0.77509000  1.0
  H  H5  1  0.21989000  0.25040000  0.22491000  1.0
  H  H6  1  0.87628000  0.09878000  0.97048000  1.0
  H  H7  1  0.12372000  0.90122000  0.02952000  1.0
  H  H8  1  0.53437000  0.75972000  0.00290000  1.0
  H  H9  1  0.46563000  0.24028000  0.99710000  1.0
  H  H10  1  0.29711000  0.31871000  0.80269000  1.0
  H  H11  1  0.70289000  0.68129000  0.19731000  1.0
  H  H12  1  0.40507000  0.30392000  0.64982000  1.0
  H  H13  1  0.59492000  0.69608000  0.35018000  1.0
  H  H14  1  0.11777000  0.95355000  0.55388000  1.0
  H  H15  1  0.88223000  0.04645000  0.44612000  1.0
  H  H16  1  0.37879000  0.94827000  0.29230000  1.0
  H  H17  1  0.62121000  0.05173000  0.70770000  1.0
  H  H18  1  0.59313000  0.32806000  0.39765000  1.0
  H  H19  1  0.40688000  0.67194000  0.60236000  1.0
  H  H20  1  0.75977000  0.35284000  0.26808000  1.0
  H  H21  1  0.24023000  0.64716000  0.73192000  1.0
  H  H22  1  0.14705000  0.45273000  0.64196000  1.0
  H  H23  1  0.85295000  0.54727000  0.35804000  1.0
  H  H24  1  0.61469000  0.40516000  0.54947000  1.0
  H  H25  1  0.38531000  0.59484000  0.45053000  1.0
  H  H26  1  0.99008000  0.22665000  0.61632000  1.0
  H  H27  1  0.00992000  0.77335000  0.38368000  1.0
  H  H28  1  0.03567000  0.65666000  0.62095000  1.0
  H  H29  1  0.96433000  0.34334000  0.37905000  1.0
  H  H30  1  0.81078000  0.18695000  0.09881000  1.0
  H  H31  1  0.18922000  0.81305000  0.90119000  1.0
  C  C32  1  0.75959000  0.80541000  0.83882000  1.0
  C  C33  1  0.24041000  0.19459000  0.16118000  1.0
  C  C34  1  0.84244000  0.93357000  0.86673000  1.0
  C  C35  1  0.15756000  0.06643000  0.13327000  1.0
  C  C36  1  0.81129000  0.99974000  0.94911000  1.0
  C  C37  1  0.18871000  0.00026000  0.05089000  1.0
  C  C38  1  0.69921000  0.93767000  0.99940000  1.0
  C  C39  1  0.30079000  0.06233000  0.00060000  1.0
  C  C40  1  0.62286000  0.80949000  0.96467000  1.0
  C  C41  1  0.37714000  0.19051000  0.03533000  1.0
  C  C42  1  0.95646000  0.99786000  0.81183000  1.0
  C  C43  1  0.04354000  0.00214000  0.18817000  1.0
  C  C44  1  0.09032000  0.03054000  0.69402000  1.0
  C  C45  1  0.90967000  0.96946000  0.30598000  1.0
  C  C46  1  0.13634000  0.13473000  0.76569000  1.0
  C  C47  1  0.86366000  0.86527000  0.23431000  1.0
  C  C48  1  0.25354000  0.23667000  0.75072000  1.0
  C  C49  1  0.74646000  0.76333000  0.24928000  1.0
  C  C50  1  0.31362000  0.22858000  0.66615000  1.0
  C  C51  1  0.68638000  0.77142000  0.33385000  1.0
  C  C52  1  0.15399000  0.03001000  0.61064000  1.0
  C  C53  1  0.84601000  0.96999000  0.38936000  1.0
  C  C54  1  0.55092000  0.03808000  0.20904000  1.0
  C  C55  1  0.44908000  0.96192000  0.79096000  1.0
  C  C56  1  0.46398000  0.03397000  0.28409000  1.0
  C  C57  1  0.53602000  0.96604000  0.71591000  1.0
  C  C58  1  0.58689000  0.24797000  0.34245000  1.0
  C  C59  1  0.41312000  0.75203000  0.65756000  1.0
  C  C60  1  0.67908000  0.26182000  0.27065000  1.0
  C  C61  1  0.32092000  0.73818000  0.72935000  1.0
  C  C62  1  0.66025000  0.15338000  0.20352000  1.0
  C  C63  1  0.33975000  0.84662000  0.79648000  1.0
  C  C64  1  0.69723000  0.16483000  0.56528000  1.0
  C  C65  1  0.30277000  0.83517000  0.43472000  1.0
  C  C66  1  0.79252000  0.30117000  0.58261000  1.0
  C  C67  1  0.20748000  0.69883000  0.41739000  1.0
  C  C68  1  0.02985000  0.44331000  0.62361000  1.0
  C  C69  1  0.97015000  0.55669000  0.37639000  1.0
  C  C70  1  0.75284000  0.66229000  0.56663000  1.0
  C  C71  1  0.24716000  0.33772000  0.43337000  1.0
  C  C72  1  0.81848000  0.54277000  0.58499000  1.0
  C  C73  1  0.18152000  0.45723000  0.41501000  1.0
  C  C74  1  0.73092000  0.41513000  0.57076000  1.0
  C  C75  1  0.26908000  0.58487000  0.42924000  1.0
  C  C76  1  0.94265000  0.31589000  0.60873000  1.0
  C  C77  1  0.05735000  0.68411000  0.39127000  1.0
  C  C78  1  0.96815000  0.55670000  0.61219000  1.0
  C  C79  1  0.03185000  0.44330000  0.38781000  1.0
  C  C80  1  0.65751000  0.00014000  0.08485000  1.0
  C  C81  1  0.34249000  0.99986000  0.91515000  1.0
  N  N82  1  0.65219000  0.74434000  0.88660000  1.0
  N  N83  1  0.34782000  0.25566000  0.11340000  1.0
  N  N84  1  0.97737000  0.94462000  0.72577000  1.0
  N  N85  1  0.02263000  0.05538000  0.27423000  1.0
  N  N86  1  0.05075000  0.11203000  0.83881000  1.0
  N  N87  1  0.94925000  0.88797000  0.16119000  1.0
  N  N88  1  0.26478000  0.12929000  0.59785000  1.0
  N  N89  1  0.73521000  0.87071000  0.40215000  1.0
  N  N90  1  0.55128000  0.94538000  0.13438000  1.0
  N  N91  1  0.44872000  0.05462000  0.86562000  1.0
  N  N92  1  0.48335000  0.13736000  0.34943000  1.0
  N  N93  1  0.51665000  0.86264000  0.65057000  1.0
  N  N94  1  0.72620000  0.12657000  0.12394000  1.0
  N  N95  1  0.27380000  0.87343000  0.87606000  1.0
  O  O96  1  0.75939000  0.06256000  0.57214000  1.0
  O  O97  1  0.24061000  0.93744000  0.42786000  1.0
  O  O98  1  0.56132000  0.15805000  0.54661000  1.0
  O  O99  1  0.43868000  0.84195000  0.45339000  1.0
  O  O100  1  0.63025000  0.64667000  0.52195000  1.0
  O  O101  1  0.36976000  0.35333000  0.47805000  1.0
  O  O102  1  0.82355000  0.78048000  0.59503000  1.0
  O  O103  1  0.17645000  0.21953000  0.40497000  1.0
