# generated using pymatgen
data_Zn2CdH18(C9O4)3
_symmetry_space_group_name_H-M   'P 1'
_cell_length_a   7.35044000
_cell_length_b   18.46000000
_cell_length_c   23.48670000
_cell_angle_alpha   90.00060000
_cell_angle_beta   90.00050000
_cell_angle_gamma   89.99880000
_symmetry_Int_Tables_number   1
_chemical_formula_structural   Zn2CdH18(C9O4)3
_chemical_formula_sum   'Zn8 Cd4 H72 C108 O48'
_cell_volume   3186.88971008
_cell_formula_units_Z   4
loop_
 _symmetry_equiv_pos_site_id
 _symmetry_equiv_pos_as_xyz
  1  'x, y, z'
loop_
 _atom_site_type_symbol
 _atom_site_label
 _atom_site_symmetry_multiplicity
 _atom_site_fract_x
 _atom_site_fract_y
 _atom_site_fract_z
 _atom_site_occupancy
  Zn  Zn0  1  0.83687000  0.55785000  0.91979000  1.0
  Zn  Zn1  1  0.66312000  0.05785000  0.08021000  1.0
  Zn  Zn2  1  0.16314000  0.44215000  0.41979000  1.0
  Zn  Zn3  1  0.33689000  0.94215000  0.58021000  1.0
  Zn  Zn4  1  0.16312000  0.44215000  0.08021000  1.0
  Zn  Zn5  1  0.33688000  0.94214000  0.91979000  1.0
  Zn  Zn6  1  0.83686000  0.55786000  0.58021000  1.0
  Zn  Zn7  1  0.66312000  0.05786000  0.41979000  1.0
  Cd  Cd8  1  0.50000000  0.50000000  0.00000000  1.0
  Cd  Cd9  1  0.99999000  0.00000000  0.00000000  1.0
  Cd  Cd10  1  0.50001000  0.50000000  0.50000000  1.0
  Cd  Cd11  1  0.99999000  0.00000000  0.50000000  1.0
  H  H12  1  0.74708000  0.30407000  0.02426000  1.0
  H  H13  1  0.00526000  0.34843000  0.86376000  1.0
  H  H14  1  0.90609000  0.12794000  0.91459000  1.0
  H  H15  1  0.93145000  0.19087000  0.79796000  1.0
  H  H16  1  0.12221000  0.24922000  0.80536000  1.0
  H  H17  1  0.12798000  0.15968000  0.83333000  1.0
  H  H18  1  0.19903000  0.45966000  0.84208000  1.0
  H  H19  1  0.91034000  0.44025000  0.78789000  1.0
  H  H20  1  0.75293000  0.80406000  0.97574000  1.0
  H  H21  1  0.49475000  0.84843000  0.13625000  1.0
  H  H22  1  0.59389000  0.62794000  0.08541000  1.0
  H  H23  1  0.56854000  0.69088000  0.20205000  1.0
  H  H24  1  0.37778000  0.74923000  0.19464000  1.0
  H  H25  1  0.37201000  0.65969000  0.16667000  1.0
  H  H26  1  0.30096000  0.95965000  0.15792000  1.0
  H  H27  1  0.58965000  0.94024000  0.21211000  1.0
  H  H28  1  0.25292000  0.69593000  0.52426000  1.0
  H  H29  1  0.99474000  0.65157000  0.36375000  1.0
  H  H30  1  0.09389000  0.87206000  0.41460000  1.0
  H  H31  1  0.06855000  0.80912000  0.29795000  1.0
  H  H32  1  0.87779000  0.75077000  0.30535000  1.0
  H  H33  1  0.87202000  0.84031000  0.33333333  1.0
  H  H34  1  0.80100000  0.54034000  0.34208000  1.0
  H  H35  1  0.08966000  0.55976000  0.28788000  1.0
  H  H36  1  0.24708000  0.19593000  0.47573000  1.0
  H  H37  1  0.50526000  0.15157000  0.63624000  1.0
  H  H38  1  0.40611000  0.37206000  0.58540000  1.0
  H  H39  1  0.43144000  0.30912000  0.70204000  1.0
  H  H40  1  0.62221000  0.25077000  0.69464000  1.0
  H  H41  1  0.62798000  0.34031000  0.66666667  1.0
  H  H42  1  0.69904000  0.04034000  0.65792000  1.0
  H  H43  1  0.41034000  0.05975000  0.71211000  1.0
  H  H44  1  0.50760000  0.86384000  0.25000000  1.0
  H  H45  1  0.25292000  0.69593000  0.97573000  1.0
  H  H46  1  0.99476000  0.65157000  0.13624000  1.0
  H  H47  1  0.09390000  0.87206000  0.08540000  1.0
  H  H48  1  0.06856000  0.80912000  0.20204000  1.0
  H  H49  1  0.87780000  0.75078000  0.19464000  1.0
  H  H50  1  0.87203000  0.84032000  0.16666000  1.0
  H  H51  1  0.80094000  0.54035000  0.15792000  1.0
  H  H52  1  0.08965000  0.55976000  0.21211000  1.0
  H  H53  1  0.99238000  0.36385000  0.75000000  1.0
  H  H54  1  0.24708000  0.19593000  0.02427000  1.0
  H  H55  1  0.50524000  0.15157000  0.86376000  1.0
  H  H56  1  0.40610000  0.37206000  0.91460000  1.0
  H  H57  1  0.43143000  0.30912000  0.79795000  1.0
  H  H58  1  0.62219000  0.25077000  0.80536000  1.0
  H  H59  1  0.62796000  0.34031000  0.83333000  1.0
  H  H60  1  0.69903000  0.04033000  0.84208000  1.0
  H  H61  1  0.41034000  0.05975000  0.78788000  1.0
  H  H62  1  0.74709000  0.30408000  0.47574000  1.0
  H  H63  1  0.00527000  0.34843000  0.63625000  1.0
  H  H64  1  0.90611000  0.12795000  0.58540000  1.0
  H  H65  1  0.93144000  0.19088000  0.70204000  1.0
  H  H66  1  0.12221000  0.24922000  0.69465000  1.0
  H  H67  1  0.12798000  0.15969000  0.66666667  1.0
  H  H68  1  0.19902000  0.45966000  0.65792000  1.0
  H  H69  1  0.91033000  0.44025000  0.71212000  1.0
  H  H70  1  0.00761000  0.63616000  0.24999000  1.0
  H  H71  1  0.75292000  0.80407000  0.52427000  1.0
  H  H72  1  0.49474000  0.84844000  0.36376000  1.0
  H  H73  1  0.59389000  0.62795000  0.41460000  1.0
  H  H74  1  0.56855000  0.69089000  0.29796000  1.0
  H  H75  1  0.37779000  0.74924000  0.30536000  1.0
  H  H76  1  0.37201000  0.65970000  0.33333333  1.0
  H  H77  1  0.30097000  0.95965000  0.34208000  1.0
  H  H78  1  0.58965000  0.94024000  0.28788000  1.0
  H  H79  1  0.49239000  0.13615000  0.75000000  1.0
  H  H80  1  0.65765000  0.54436000  0.75000000  1.0
  H  H81  1  0.84234000  0.04436000  0.25000000  1.0
  H  H82  1  0.34235000  0.45564000  0.25000000  1.0
  H  H83  1  0.15768000  0.95564000  0.75000000  1.0
  C  C84  1  0.80866000  0.28459000  0.98503000  1.0
  C  C85  1  0.87511000  0.33396000  0.94477000  1.0
  C  C86  1  0.95417000  0.30884000  0.89425000  1.0
  C  C87  1  0.85077000  0.41313000  0.95542000  1.0
  C  C88  1  0.75093000  0.15631000  0.01487000  1.0
  C  C89  1  0.82256000  0.21050000  0.97425000  1.0
  C  C90  1  0.89982000  0.18599000  0.92298000  1.0
  C  C91  1  0.96544000  0.23471000  0.88237000  1.0
  C  C92  1  0.04147000  0.20745000  0.82694000  1.0
  C  C93  1  0.53655000  0.51807000  0.85603000  1.0
  C  C94  1  0.43885000  0.50249000  0.80148000  1.0
  C  C95  1  0.26505000  0.47111000  0.80138000  1.0
  C  C96  1  0.69134000  0.78459000  0.01498000  1.0
  C  C97  1  0.62489000  0.83396000  0.05523000  1.0
  C  C98  1  0.54584000  0.80884000  0.10576000  1.0
  C  C99  1  0.64922000  0.91312000  0.04458000  1.0
  C  C100  1  0.74906000  0.65631000  0.98514000  1.0
  C  C101  1  0.67744000  0.71049000  0.02576000  1.0
  C  C102  1  0.60017000  0.68599000  0.07703000  1.0
  C  C103  1  0.53456000  0.73471000  0.11763000  1.0
  C  C104  1  0.45852000  0.70746000  0.17306000  1.0
  C  C105  1  0.96344000  0.01807000  0.14397000  1.0
  C  C106  1  0.06114000  0.00249000  0.19852000  1.0
  C  C107  1  0.23494000  0.97110000  0.19862000  1.0
  C  C108  1  0.19133000  0.71540000  0.48503000  1.0
  C  C109  1  0.12488000  0.66604000  0.44477000  1.0
  C  C110  1  0.04583000  0.69116000  0.39424000  1.0
  C  C111  1  0.14922000  0.58687000  0.45541000  1.0
  C  C112  1  0.24906000  0.84369000  0.51487000  1.0
  C  C113  1  0.17743000  0.78950000  0.47425000  1.0
  C  C114  1  0.10017000  0.81400000  0.42298000  1.0
  C  C115  1  0.03456000  0.76529000  0.38237000  1.0
  C  C116  1  0.95852000  0.79254000  0.32694000  1.0
  C  C117  1  0.46349000  0.48192000  0.35603000  1.0
  C  C118  1  0.56117000  0.49750000  0.30148000  1.0
  C  C119  1  0.73497000  0.52889000  0.30138000  1.0
  C  C120  1  0.30867000  0.21540000  0.51497000  1.0
  C  C121  1  0.37512000  0.16604000  0.55522000  1.0
  C  C122  1  0.45417000  0.19116000  0.60575000  1.0
  C  C123  1  0.35078000  0.08687000  0.54458000  1.0
  C  C124  1  0.25095000  0.34369000  0.48513000  1.0
  C  C125  1  0.32257000  0.28950000  0.52575000  1.0
  C  C126  1  0.39983000  0.31400000  0.57702000  1.0
  C  C127  1  0.46544000  0.26529000  0.61763000  1.0
  C  C128  1  0.54148000  0.29254000  0.67306000  1.0
  C  C129  1  0.03657000  0.98193000  0.64397000  1.0
  C  C130  1  0.93887000  0.99750000  0.69852000  1.0
  C  C131  1  0.76506000  0.02889000  0.69862000  1.0
  C  C132  1  0.19134000  0.71540000  0.01497000  1.0
  C  C133  1  0.12489000  0.66604000  0.05523000  1.0
  C  C134  1  0.04585000  0.69116000  0.10575000  1.0
  C  C135  1  0.14922000  0.58687000  0.04458000  1.0
  C  C136  1  0.24906000  0.84369000  0.98513000  1.0
  C  C137  1  0.17744000  0.78950000  0.02575000  1.0
  C  C138  1  0.10018000  0.81401000  0.07702000  1.0
  C  C139  1  0.03457000  0.76529000  0.11763000  1.0
  C  C140  1  0.95853000  0.79255000  0.17305000  1.0
  C  C141  1  0.46343000  0.48193000  0.14398000  1.0
  C  C142  1  0.56114000  0.49751000  0.19852000  1.0
  C  C143  1  0.73493000  0.52890000  0.19862000  1.0
  C  C144  1  0.30867000  0.21540000  0.98503000  1.0
  C  C145  1  0.37511000  0.16604000  0.94477000  1.0
  C  C146  1  0.45415000  0.19116000  0.89425000  1.0
  C  C147  1  0.35077000  0.08687000  0.95542000  1.0
  C  C148  1  0.25095000  0.34369000  0.01487000  1.0
  C  C149  1  0.32257000  0.28950000  0.97425000  1.0
  C  C150  1  0.39982000  0.31400000  0.92298000  1.0
  C  C151  1  0.46543000  0.26529000  0.88237000  1.0
  C  C152  1  0.54147000  0.29254000  0.82694000  1.0
  C  C153  1  0.03656000  0.98192000  0.85603000  1.0
  C  C154  1  0.93886000  0.99750000  0.80148000  1.0
  C  C155  1  0.76505000  0.02888000  0.80138000  1.0
  C  C156  1  0.80868000  0.28460000  0.51497000  1.0
  C  C157  1  0.87513000  0.33396000  0.55523000  1.0
  C  C158  1  0.95418000  0.30884000  0.60576000  1.0
  C  C159  1  0.85079000  0.41313000  0.54459000  1.0
  C  C160  1  0.75094000  0.15632000  0.48513000  1.0
  C  C161  1  0.82257000  0.21050000  0.52575000  1.0
  C  C162  1  0.89983000  0.18600000  0.57702000  1.0
  C  C163  1  0.96545000  0.23471000  0.61763000  1.0
  C  C164  1  0.04148000  0.20746000  0.67306000  1.0
  C  C165  1  0.53654000  0.51807000  0.64397000  1.0
  C  C166  1  0.43885000  0.50249000  0.69852000  1.0
  C  C167  1  0.26505000  0.47111000  0.69862000  1.0
  C  C168  1  0.69133000  0.78460000  0.48503000  1.0
  C  C169  1  0.62488000  0.83397000  0.44478000  1.0
  C  C170  1  0.54583000  0.80885000  0.39425000  1.0
  C  C171  1  0.64921000  0.91313000  0.45542000  1.0
  C  C172  1  0.74907000  0.65631000  0.51487000  1.0
  C  C173  1  0.67744000  0.71050000  0.47425000  1.0
  C  C174  1  0.60017000  0.68600000  0.42298000  1.0
  C  C175  1  0.53456000  0.73471000  0.38238000  1.0
  C  C176  1  0.45852000  0.70746000  0.32695000  1.0
  C  C177  1  0.96344000  0.01807000  0.35603000  1.0
  C  C178  1  0.06114000  0.00249000  0.30148000  1.0
  C  C179  1  0.23494000  0.97110000  0.30138000  1.0
  C  C180  1  0.52436000  0.51892000  0.75000000  1.0
  C  C181  1  0.17544000  0.45584000  0.75000000  1.0
  C  C182  1  0.98705000  0.42353000  0.75000000  1.0
  C  C183  1  0.97563000  0.01892000  0.25000000  1.0
  C  C184  1  0.32455000  0.95583000  0.25000000  1.0
  C  C185  1  0.51293000  0.92352000  0.25000000  1.0
  C  C186  1  0.47564000  0.48108000  0.25000000  1.0
  C  C187  1  0.82456000  0.54416000  0.25000000  1.0
  C  C188  1  0.01294000  0.57648000  0.24999000  1.0
  C  C189  1  0.02438000  0.98107000  0.75000000  1.0
  C  C190  1  0.67544000  0.04415000  0.75000000  1.0
  C  C191  1  0.48706000  0.07646000  0.75000000  1.0
  O  O192  1  0.75605000  0.43152000  0.99804000  1.0
  O  O193  1  0.92547000  0.45766000  0.91982000  1.0
  O  O194  1  0.78260000  0.08822000  0.00439000  1.0
  O  O195  1  0.65558000  0.17123000  0.05846000  1.0
  O  O196  1  0.47202000  0.49290000  0.90201000  1.0
  O  O197  1  0.68396000  0.55543000  0.85172000  1.0
  O  O198  1  0.74394000  0.93151000  0.00196000  1.0
  O  O199  1  0.57452000  0.95766000  0.08018000  1.0
  O  O200  1  0.71738000  0.58822000  0.99561000  1.0
  O  O201  1  0.84442000  0.67122000  0.94155000  1.0
  O  O202  1  0.02797000  0.99290000  0.09799000  1.0
  O  O203  1  0.81602000  0.05543000  0.14828000  1.0
  O  O204  1  0.24394000  0.56848000  0.49803000  1.0
  O  O205  1  0.07454000  0.54234000  0.41982000  1.0
  O  O206  1  0.21735000  0.91178000  0.50440000  1.0
  O  O207  1  0.34443000  0.82877000  0.55845000  1.0
  O  O208  1  0.52803000  0.50710000  0.40201000  1.0
  O  O209  1  0.31608000  0.44457000  0.35173000  1.0
  O  O210  1  0.25606000  0.06848000  0.50196000  1.0
  O  O211  1  0.42549000  0.04234000  0.58017000  1.0
  O  O212  1  0.28266000  0.41178000  0.49560000  1.0
  O  O213  1  0.15557000  0.32878000  0.44154000  1.0
  O  O214  1  0.97203000  0.00711000  0.59799000  1.0
  O  O215  1  0.18399000  0.94458000  0.64828000  1.0
  O  O216  1  0.24394000  0.56848000  0.00196000  1.0
  O  O217  1  0.07453000  0.54235000  0.08017000  1.0
  O  O218  1  0.21735000  0.91178000  0.99560000  1.0
  O  O219  1  0.34444000  0.82878000  0.94155000  1.0
  O  O220  1  0.52794000  0.50711000  0.09799000  1.0
  O  O221  1  0.31601000  0.44458000  0.14828000  1.0
  O  O222  1  0.25605000  0.06848000  0.99804000  1.0
  O  O223  1  0.42547000  0.04234000  0.91982000  1.0
  O  O224  1  0.28265000  0.41178000  0.00440000  1.0
  O  O225  1  0.15558000  0.32878000  0.05846000  1.0
  O  O226  1  0.97202000  0.00709000  0.90201000  1.0
  O  O227  1  0.18398000  0.94457000  0.85172000  1.0
  O  O228  1  0.75608000  0.43152000  0.50197000  1.0
  O  O229  1  0.92548000  0.45766000  0.58019000  1.0
  O  O230  1  0.78264000  0.08823000  0.49560000  1.0
  O  O231  1  0.65557000  0.17123000  0.44155000  1.0
  O  O232  1  0.47202000  0.49289000  0.59799000  1.0
  O  O233  1  0.68395000  0.55543000  0.64828000  1.0
  O  O234  1  0.74393000  0.93152000  0.49804000  1.0
  O  O235  1  0.57452000  0.95766000  0.41982000  1.0
  O  O236  1  0.71736000  0.58822000  0.50440000  1.0
  O  O237  1  0.84445000  0.67123000  0.55845000  1.0
  O  O238  1  0.02798000  0.99289000  0.40201000  1.0
  O  O239  1  0.81604000  0.05543000  0.35172000  1.0
