# generated using pymatgen
data_ZnH24C28(NO)4
_symmetry_space_group_name_H-M   'P 1'
_cell_length_a   10.71600000
_cell_length_b   11.64370569
_cell_length_c   13.61270452
_cell_angle_alpha   76.22467157
_cell_angle_beta   66.84146252
_cell_angle_gamma   62.61138728
_symmetry_Int_Tables_number   1
_chemical_formula_structural   ZnH24C28(NO)4
_chemical_formula_sum   'Zn2 H48 C56 N8 O8'
_cell_volume   1383.18771714
_cell_formula_units_Z   2
loop_
 _symmetry_equiv_pos_site_id
 _symmetry_equiv_pos_as_xyz
  1  'x, y, z'
loop_
 _atom_site_type_symbol
 _atom_site_label
 _atom_site_symmetry_multiplicity
 _atom_site_fract_x
 _atom_site_fract_y
 _atom_site_fract_z
 _atom_site_occupancy
  Zn  Zn0  1  0.30879000  0.75001000  0.25004000  1.0
  Zn  Zn1  1  0.69121000  0.24999000  0.74996000  1.0
  H  H2  1  0.19090000  0.84254000  0.07393000  1.0
  H  H3  1  0.10732000  0.65731000  0.42604000  1.0
  H  H4  1  0.80910000  0.15746000  0.92607000  1.0
  H  H5  1  0.89269000  0.34269000  0.57396000  1.0
  H  H6  1  0.14126000  0.77652000  0.99633000  1.0
  H  H7  1  0.91416000  0.72331000  0.50360000  1.0
  H  H8  1  0.85874000  0.22348000  0.00367000  1.0
  H  H9  1  0.08584000  0.27669000  0.49640000  1.0
  H  H10  1  0.32421000  0.76944000  0.95394000  1.0
  H  H11  1  0.04754000  0.73041000  0.54610000  1.0
  H  H12  1  0.67579000  0.23056000  0.04606000  1.0
  H  H13  1  0.95245000  0.26959000  0.45391000  1.0
  H  H14  1  0.37240000  0.45811000  0.36520000  1.0
  H  H15  1  0.19569000  0.04184000  0.13500000  1.0
  H  H16  1  0.62760000  0.54189000  0.63480000  1.0
  H  H17  1  0.80431000  0.95816000  0.86500000  1.0
  H  H18  1  0.43891000  0.22093000  0.38043000  1.0
  H  H19  1  0.04048000  0.27905000  0.11986000  1.0
  H  H20  1  0.56108000  0.77907000  0.61958000  1.0
  H  H21  1  0.95952000  0.72095000  0.88014000  1.0
  H  H22  1  0.43868000  0.11752000  0.24084000  1.0
  H  H23  1  0.79721000  0.38243000  0.25930000  1.0
  H  H24  1  0.56132000  0.88248000  0.75916000  1.0
  H  H25  1  0.20279000  0.61757000  0.74070000  1.0
  H  H26  1  0.37915000  0.24750000  0.07829000  1.0
  H  H27  1  0.70501000  0.25241000  0.42173000  1.0
  H  H28  1  0.62085000  0.75250000  0.92171000  1.0
  H  H29  1  0.29499000  0.74759000  0.57827000  1.0
  H  H30  1  0.37837000  0.41716000  0.92378000  1.0
  H  H31  1  0.71950000  0.08274000  0.57627000  1.0
  H  H32  1  0.62163000  0.58284000  0.07622000  1.0
  H  H33  1  0.28050000  0.91726000  0.42373000  1.0
  H  H34  1  0.29734000  0.58620000  0.89968000  1.0
  H  H35  1  0.78332000  0.91371000  0.60037000  1.0
  H  H36  1  0.70266000  0.41380000  0.10032000  1.0
  H  H37  1  0.21668000  0.08629000  0.39963000  1.0
  H  H38  1  0.01671000  0.62587000  0.11430000  1.0
  H  H39  1  0.75675000  0.87401000  0.38578000  1.0
  H  H40  1  0.98329000  0.37413000  0.88570000  1.0
  H  H41  1  0.24325000  0.12599000  0.61422000  1.0
  H  H42  1  0.22466000  0.37759000  0.85493000  1.0
  H  H43  1  0.45729000  0.12247000  0.64501000  1.0
  H  H44  1  0.77534000  0.62241000  0.14507000  1.0
  H  H45  1  0.54271000  0.87753000  0.35499000  1.0
  H  H46  1  0.59154000  0.01855000  0.05374000  1.0
  H  H47  1  0.66384000  0.48131000  0.44663000  1.0
  H  H48  1  0.40845000  0.98145000  0.94627000  1.0
  H  H49  1  0.33615000  0.51869000  0.55337000  1.0
  C  C50  1  0.23043000  0.76330000  0.02445000  1.0
  C  C51  1  0.01820000  0.73654000  0.47554000  1.0
  C  C52  1  0.76957000  0.23670000  0.97555000  1.0
  C  C53  1  0.98180000  0.26346000  0.52446000  1.0
  C  C54  1  0.27769000  0.63699000  0.08715000  1.0
  C  C55  1  0.00178000  0.86288000  0.41287000  1.0
  C  C56  1  0.72231000  0.36301000  0.91285000  1.0
  C  C57  1  0.99822000  0.13712000  0.58713000  1.0
  C  C58  1  0.33928000  0.48585000  0.21239000  1.0
  C  C59  1  0.03748000  0.01409000  0.28770000  1.0
  C  C60  1  0.66072000  0.51415000  0.78761000  1.0
  C  C61  1  0.96253000  0.98591000  0.71229000  1.0
  C  C62  1  0.37365000  0.41292000  0.30329000  1.0
  C  C63  1  0.08995000  0.08703000  0.19690000  1.0
  C  C64  1  0.62635000  0.58708000  0.69671000  1.0
  C  C65  1  0.91005000  0.91297000  0.80310000  1.0
  C  C66  1  0.40994000  0.28052000  0.31114000  1.0
  C  C67  1  0.00179000  0.21944000  0.18908000  1.0
  C  C68  1  0.59006000  0.71948000  0.68886000  1.0
  C  C69  1  0.99821000  0.78056000  0.81092000  1.0
  C  C70  1  0.41090000  0.22135000  0.23153000  1.0
  C  C71  1  0.86391000  0.27861000  0.26861000  1.0
  C  C72  1  0.58909000  0.77866000  0.76847000  1.0
  C  C73  1  0.13609000  0.72139000  0.73139000  1.0
  C  C74  1  0.37666000  0.29307000  0.14058000  1.0
  C  C75  1  0.81038000  0.20685000  0.35948000  1.0
  C  C76  1  0.62334000  0.70693000  0.85942000  1.0
  C  C77  1  0.18962000  0.79315000  0.64052000  1.0
  C  C78  1  0.34200000  0.42528000  0.13270000  1.0
  C  C79  1  0.89999000  0.07462000  0.36737000  1.0
  C  C80  1  0.65800000  0.57472000  0.86730000  1.0
  C  C81  1  0.10000000  0.92538000  0.63263000  1.0
  C  C82  1  0.28589000  0.50605000  0.95915000  1.0
  C  C83  1  0.75119000  0.99386000  0.54090000  1.0
  C  C84  1  0.71411000  0.49395000  0.04085000  1.0
  C  C85  1  0.24881000  0.00614000  0.45910000  1.0
  C  C86  1  0.13815000  0.50114000  0.98250000  1.0
  C  C87  1  0.62186000  0.99881000  0.51753000  1.0
  C  C88  1  0.86185000  0.49886000  0.01750000  1.0
  C  C89  1  0.37814000  0.00119000  0.48247000  1.0
  C  C90  1  0.01049000  0.57036000  0.06342000  1.0
  C  C91  1  0.64419000  0.92959000  0.43664000  1.0
  C  C92  1  0.98951000  0.42964000  0.93658000  1.0
  C  C93  1  0.35580000  0.07041000  0.56336000  1.0
  C  C94  1  0.12645000  0.43009000  0.91928000  1.0
  C  C95  1  0.47589000  0.06994000  0.58067000  1.0
  C  C96  1  0.87355000  0.56991000  0.08072000  1.0
  C  C97  1  0.52411000  0.93006000  0.41933000  1.0
  C  C98  1  0.46099000  0.90219000  0.13670000  1.0
  C  C99  1  0.50030000  0.59787000  0.36329000  1.0
  C  C100  1  0.53902000  0.09781000  0.86330000  1.0
  C  C101  1  0.49970000  0.40213000  0.63671000  1.0
  C  C102  1  0.52055000  0.98162000  0.04391000  1.0
  C  C103  1  0.54617000  0.51833000  0.45620000  1.0
  C  C104  1  0.47945000  0.01838000  0.95609000  1.0
  C  C105  1  0.45383000  0.48167000  0.54380000  1.0
  N  N106  1  0.29907000  0.61764000  0.18151000  1.0
  N  N107  1  0.09813000  0.88227000  0.31855000  1.0
  N  N108  1  0.70093000  0.38236000  0.81849000  1.0
  N  N109  1  0.90187000  0.11773000  0.68145000  1.0
  N  N110  1  0.30446000  0.52315000  0.05445000  1.0
  N  N111  1  0.88206000  0.97674000  0.44559000  1.0
  N  N112  1  0.69554000  0.47685000  0.94555000  1.0
  N  N113  1  0.11794000  0.02326000  0.55441000  1.0
  O  O114  1  0.41457000  0.82723000  0.11724000  1.0
  O  O115  1  0.35951000  0.67287000  0.38264000  1.0
  O  O116  1  0.58543000  0.17277000  0.88276000  1.0
  O  O117  1  0.64049000  0.32713000  0.61736000  1.0
  O  O118  1  0.45140000  0.91643000  0.22794000  1.0
  O  O119  1  0.59631000  0.58362000  0.27215000  1.0
  O  O120  1  0.54860000  0.08357000  0.77206000  1.0
  O  O121  1  0.40369000  0.41638000  0.72785000  1.0
