# generated using pymatgen
data_Li2H3C8NO4
_symmetry_space_group_name_H-M   'P 1'
_cell_length_a   5.19923000
_cell_length_b   9.25481000
_cell_length_c   9.40804415
_cell_angle_alpha   71.62566913
_cell_angle_beta   74.01773097
_cell_angle_gamma   83.92960000
_symmetry_Int_Tables_number   1
_chemical_formula_structural   Li2H3C8NO4
_chemical_formula_sum   'Li4 H6 C16 N2 O8'
_cell_volume   412.92046706
_cell_formula_units_Z   2
loop_
 _symmetry_equiv_pos_site_id
 _symmetry_equiv_pos_as_xyz
  1  'x, y, z'
loop_
 _atom_site_type_symbol
 _atom_site_label
 _atom_site_symmetry_multiplicity
 _atom_site_fract_x
 _atom_site_fract_y
 _atom_site_fract_z
 _atom_site_occupancy
  Li  Li0  1  0.42770000  0.88790000  0.86346000  1.0
  Li  Li1  1  0.57230000  0.11210000  0.13654000  1.0
  Li  Li2  1  0.82578000  0.87654000  0.03431000  1.0
  Li  Li3  1  0.17422000  0.12346000  0.96569000  1.0
  H  H4  1  0.38520000  0.38288000  0.23916000  1.0
  H  H5  1  0.61480000  0.61712000  0.76084000  1.0
  H  H6  1  0.71074000  0.10971000  0.53874000  1.0
  H  H7  1  0.28926000  0.89029000  0.46126000  1.0
  H  H8  1  0.14870000  0.34815000  0.72263000  1.0
  H  H9  1  0.85130000  0.65185000  0.27737000  1.0
  C  C10  1  0.28328000  0.37739000  0.47828000  1.0
  C  C11  1  0.71672000  0.62261000  0.52172000  1.0
  C  C12  1  0.25107000  0.33608000  0.35339000  1.0
  C  C13  1  0.74892000  0.66392000  0.64661000  1.0
  C  C14  1  0.04706000  0.23794000  0.37531000  1.0
  C  C15  1  0.95293000  0.76206000  0.62470000  1.0
  C  C16  1  0.87543000  0.18171000  0.52275000  1.0
  C  C17  1  0.12457000  0.81829000  0.47725000  1.0
  C  C18  1  0.91590000  0.21677000  0.64954000  1.0
  C  C19  1  0.08410000  0.78323000  0.35046000  1.0
  C  C20  1  0.11869000  0.31486000  0.62738000  1.0
  C  C21  1  0.88130000  0.68514000  0.37262000  1.0
  C  C22  1  0.01013000  0.19181000  0.24295000  1.0
  C  C23  1  0.98987000  0.80819000  0.75705000  1.0
  C  C24  1  0.73807000  0.14945000  0.80713000  1.0
  C  C25  1  0.26193000  0.85055000  0.19287000  1.0
  N  N26  1  0.48590000  0.48338000  0.44228000  1.0
  N  N27  1  0.51410000  0.51662000  0.55771000  1.0
  O  O28  1  0.78263000  0.14914000  0.25186000  1.0
  O  O29  1  0.21737000  0.85086000  0.74814000  1.0
  O  O30  1  0.21661000  0.19594000  0.12813000  1.0
  O  O31  1  0.78339000  0.80406000  0.87187000  1.0
  O  O32  1  0.82949000  0.13013000  0.92599000  1.0
  O  O33  1  0.17051000  0.86987000  0.07401000  1.0
  O  O34  1  0.50444000  0.11111000  0.81779000  1.0
  O  O35  1  0.49556000  0.88888000  0.18221000  1.0
