# generated using pymatgen
data_PrH20C33I3(NO3)2
_symmetry_space_group_name_H-M   'P 1'
_cell_length_a   11.64970000
_cell_length_b   13.15850000
_cell_length_c   13.23630000
_cell_angle_alpha   115.58100000
_cell_angle_beta   90.76040000
_cell_angle_gamma   114.85200000
_symmetry_Int_Tables_number   1
_chemical_formula_structural   PrH20C33I3(NO3)2
_chemical_formula_sum   'Pr2 H40 C66 I6 N4 O12'
_cell_volume   1612.96229709
_cell_formula_units_Z   2
loop_
 _symmetry_equiv_pos_site_id
 _symmetry_equiv_pos_as_xyz
  1  'x, y, z'
loop_
 _atom_site_type_symbol
 _atom_site_label
 _atom_site_symmetry_multiplicity
 _atom_site_fract_x
 _atom_site_fract_y
 _atom_site_fract_z
 _atom_site_occupancy
  Pr  Pr0  1  0.89103000  0.94091000  0.84310000  1.0
  Pr  Pr1  1  0.10897000  0.05909000  0.15690000  1.0
  H  H2  1  0.62259000  0.57218000  0.46826000  1.0
  H  H3  1  0.37741000  0.42782000  0.53175000  1.0
  H  H4  1  0.44950000  0.43872000  0.28157000  1.0
  H  H5  1  0.55051000  0.56129000  0.71843000  1.0
  H  H6  1  0.31016000  0.52298000  0.24391000  1.0
  H  H7  1  0.68984000  0.47703000  0.75608000  1.0
  H  H8  1  0.33341000  0.73268000  0.39176000  1.0
  H  H9  1  0.66659000  0.26732000  0.60824000  1.0
  H  H10  1  0.61463000  0.06177000  0.04193000  1.0
  H  H11  1  0.38537000  0.93823000  0.95807000  1.0
  H  H12  1  0.48297000  0.17061000  0.13685000  1.0
  H  H13  1  0.51703000  0.82939000  0.86315000  1.0
  H  H14  1  0.59152000  0.37758000  0.31811000  1.0
  H  H15  1  0.40847000  0.62242000  0.68189000  1.0
  H  H16  1  0.82742000  0.47792000  0.40210000  1.0
  H  H17  1  0.17257000  0.52209000  0.59790000  1.0
  H  H18  1  0.88762000  0.62328000  0.96536000  1.0
  H  H19  1  0.11238000  0.37672000  0.03464000  1.0
  H  H20  1  0.81833000  0.48613000  0.05950000  1.0
  H  H21  1  0.18167000  0.51387000  0.94049000  1.0
  H  H22  1  0.64376000  0.48349000  0.16658000  1.0
  H  H23  1  0.35625000  0.51651000  0.83342000  1.0
  H  H24  1  0.54246000  0.62052000  0.18272000  1.0
  H  H25  1  0.45755000  0.37948000  0.81728000  1.0
  H  H26  1  0.11918000  0.89946000  0.68312000  1.0
  H  H27  1  0.88082000  0.10053000  0.31688000  1.0
  H  H28  1  0.25654000  0.96466000  0.55658000  1.0
  H  H29  1  0.74346000  0.03533000  0.44342000  1.0
  H  H30  1  0.24825000  0.13034000  0.51408000  1.0
  H  H31  1  0.75175000  0.86965000  0.48591000  1.0
  H  H32  1  0.15188000  0.27154000  0.53406000  1.0
  H  H33  1  0.84812000  0.72845000  0.46594000  1.0
  H  H34  1  0.00727000  0.36461000  0.62247000  1.0
  H  H35  1  0.99272000  0.63539000  0.37752000  1.0
  H  H36  1  0.85882000  0.38304000  0.75317000  1.0
  H  H37  1  0.14118000  0.61696000  0.24683000  1.0
  H  H38  1  0.72807000  0.30304000  0.87784000  1.0
  H  H39  1  0.27193000  0.69696000  0.12216000  1.0
  H  H40  1  0.75391000  0.13939000  0.91121000  1.0
  H  H41  1  0.24608000  0.86060000  0.08879000  1.0
  C  C42  1  0.67511000  0.79167000  0.64371000  1.0
  C  C43  1  0.32489000  0.20833000  0.35629000  1.0
  C  C44  1  0.56960000  0.72148000  0.53608000  1.0
  C  C45  1  0.43040000  0.27853000  0.46392000  1.0
  C  C46  1  0.55641000  0.60423000  0.44996000  1.0
  C  C47  1  0.44359000  0.39577000  0.55004000  1.0
  C  C48  1  0.46261000  0.53151000  0.34664000  1.0
  C  C49  1  0.53739000  0.46849000  0.65336000  1.0
  C  C50  1  0.38241000  0.57831000  0.32568000  1.0
  C  C51  1  0.61759000  0.42169000  0.67432000  1.0
  C  C52  1  0.39468000  0.69530000  0.40868000  1.0
  C  C53  1  0.60532000  0.30470000  0.59132000  1.0
  C  C54  1  0.48619000  0.76580000  0.51436000  1.0
  C  C55  1  0.51381000  0.23421000  0.48564000  1.0
  C  C56  1  0.85810000  0.12662000  0.11113000  1.0
  C  C57  1  0.14190000  0.87338000  0.88888000  1.0
  C  C58  1  0.79191000  0.20501000  0.16973000  1.0
  C  C59  1  0.20809000  0.79500000  0.83028000  1.0
  C  C60  1  0.65918000  0.15321000  0.12119000  1.0
  C  C61  1  0.34082000  0.84680000  0.87881000  1.0
  C  C62  1  0.58664000  0.21389000  0.17303000  1.0
  C  C63  1  0.41335000  0.78612000  0.82698000  1.0
  C  C64  1  0.64764000  0.33028000  0.27499000  1.0
  C  C65  1  0.35236000  0.66973000  0.72502000  1.0
  C  C66  1  0.78021000  0.38629000  0.32321000  1.0
  C  C67  1  0.21979000  0.61372000  0.67679000  1.0
  C  C68  1  0.85208000  0.32388000  0.27102000  1.0
  C  C69  1  0.14792000  0.67613000  0.72898000  1.0
  C  C70  1  0.80000000  0.77890000  0.96102000  1.0
  C  C71  1  0.20000000  0.22109000  0.03898000  1.0
  C  C72  1  0.75248000  0.69707000  0.01828000  1.0
  C  C73  1  0.24752000  0.30292000  0.98172000  1.0
  C  C74  1  0.81016000  0.62034000  0.01135000  1.0
  C  C75  1  0.18985000  0.37966000  0.98865000  1.0
  C  C76  1  0.77134000  0.54374000  0.06414000  1.0
  C  C77  1  0.22867000  0.45626000  0.93586000  1.0
  C  C78  1  0.67421000  0.54298000  0.12491000  1.0
  C  C79  1  0.32580000  0.45702000  0.87509000  1.0
  C  C80  1  0.61659000  0.61947000  0.13363000  1.0
  C  C81  1  0.38341000  0.38053000  0.86637000  1.0
  C  C82  1  0.65589000  0.69589000  0.08035000  1.0
  C  C83  1  0.34411000  0.30411000  0.91964000  1.0
  C  C84  1  0.11877000  0.97196000  0.66381000  1.0
  C  C85  1  0.88123000  0.02803000  0.33619000  1.0
  C  C86  1  0.19532000  0.00860000  0.59232000  1.0
  C  C87  1  0.80468000  0.99140000  0.40768000  1.0
  C  C88  1  0.19078000  0.09951000  0.56913000  1.0
  C  C89  1  0.80922000  0.90049000  0.43087000  1.0
  C  C90  1  0.10992000  0.15388000  0.61746000  1.0
  C  C91  1  0.89008000  0.84611000  0.38254000  1.0
  C  C92  1  0.09828000  0.24590000  0.59373000  1.0
  C  C93  1  0.90172000  0.75410000  0.40627000  1.0
  C  C94  1  0.01864000  0.29599000  0.64143000  1.0
  C  C95  1  0.98136000  0.70401000  0.35857000  1.0
  C  C96  1  0.94597000  0.25857000  0.71655000  1.0
  C  C97  1  0.05403000  0.74143000  0.28345000  1.0
  C  C98  1  0.86461000  0.31027000  0.76899000  1.0
  C  C99  1  0.13539000  0.68973000  0.23101000  1.0
  C  C100  1  0.79448000  0.26797000  0.83854000  1.0
  C  C101  1  0.20552000  0.73203000  0.16146000  1.0
  C  C102  1  0.80769000  0.17550000  0.85699000  1.0
  C  C103  1  0.19230000  0.82449000  0.14301000  1.0
  C  C104  1  0.95404000  0.16604000  0.74090000  1.0
  C  C105  1  0.04596000  0.83396000  0.25910000  1.0
  C  C106  1  0.03719000  0.11213000  0.68986000  1.0
  C  C107  1  0.96280000  0.88786000  0.31014000  1.0
  I  I108  1  0.49243000  0.94098000  0.63000000  1.0
  I  I109  1  0.50758000  0.05903000  0.37000000  1.0
  I  I110  1  0.05505000  0.42339000  0.34494000  1.0
  I  I111  1  0.94494000  0.57662000  0.65506000  1.0
  I  I112  1  0.57152000  0.81597000  0.10200000  1.0
  I  I113  1  0.42848000  0.18402000  0.89799000  1.0
  N  N114  1  0.04230000  0.02187000  0.71196000  1.0
  N  N115  1  0.95770000  0.97813000  0.28804000  1.0
  N  N116  1  0.88568000  0.12669000  0.81096000  1.0
  N  N117  1  0.11432000  0.87331000  0.18904000  1.0
  O  O118  1  0.77506000  0.77307000  0.63551000  1.0
  O  O119  1  0.22493000  0.22693000  0.36449000  1.0
  O  O120  1  0.66443000  0.86745000  0.73868000  1.0
  O  O121  1  0.33557000  0.13255000  0.26133000  1.0
  O  O122  1  0.81333000  0.05158000  0.00312000  1.0
  O  O123  1  0.18667000  0.94842000  0.99688000  1.0
  O  O124  1  0.95132000  0.13811000  0.17344000  1.0
  O  O125  1  0.04867000  0.86190000  0.82657000  1.0
  O  O126  1  0.91274000  0.87750000  0.00864000  1.0
  O  O127  1  0.08726000  0.12250000  0.99136000  1.0
  O  O128  1  0.73230000  0.74813000  0.86747000  1.0
  O  O129  1  0.26770000  0.25186000  0.13252000  1.0
