# generated using pymatgen
data_CdH10C13SN3Cl2
_symmetry_space_group_name_H-M   'P 1'
_cell_length_a   8.95485000
_cell_length_b   10.47110000
_cell_length_c   10.68460000
_cell_angle_alpha   66.73690000
_cell_angle_beta   87.71800000
_cell_angle_gamma   85.37280000
_symmetry_Int_Tables_number   1
_chemical_formula_structural   CdH10C13SN3Cl2
_chemical_formula_sum   'Cd2 H20 C26 S2 N6 Cl4'
_cell_volume   917.37910545
_cell_formula_units_Z   2
loop_
 _symmetry_equiv_pos_site_id
 _symmetry_equiv_pos_as_xyz
  1  'x, y, z'
loop_
 _atom_site_type_symbol
 _atom_site_label
 _atom_site_symmetry_multiplicity
 _atom_site_fract_x
 _atom_site_fract_y
 _atom_site_fract_z
 _atom_site_occupancy
  Cd  Cd0  1  0.94761000  0.83102000  0.49212000  1.0
  Cd  Cd1  1  0.05237000  0.16897000  0.50788000  1.0
  H  H2  1  0.25680000  0.11064000  0.87228000  1.0
  H  H3  1  0.74319000  0.88936000  0.12772000  1.0
  H  H4  1  0.10882000  0.33386000  0.84820000  1.0
  H  H5  1  0.89122000  0.66616000  0.15181000  1.0
  H  H6  1  0.92046000  0.33871000  0.01966000  1.0
  H  H7  1  0.07966000  0.66134000  0.98042000  1.0
  H  H8  1  0.88101000  0.13150000  0.23401000  1.0
  H  H9  1  0.11911000  0.86851000  0.76607000  1.0
  H  H10  1  0.10991000  0.57697000  0.30748000  1.0
  H  H11  1  0.89007000  0.42301000  0.69248000  1.0
  H  H12  1  0.18553000  0.62840000  0.42908000  1.0
  H  H13  1  0.81443000  0.37158000  0.57091000  1.0
  H  H14  1  0.36136000  0.80533000  0.38739000  1.0
  H  H15  1  0.63861000  0.19469000  0.61259000  1.0
  H  H16  1  0.57461000  0.89059000  0.46202000  1.0
  H  H17  1  0.42539000  0.10943000  0.53795000  1.0
  H  H18  1  0.87526000  0.60108000  0.39436000  1.0
  H  H19  1  0.12471000  0.39891000  0.60563000  1.0
  H  H20  1  0.67844000  0.50395000  0.31304000  1.0
  H  H21  1  0.32152000  0.49605000  0.68693000  1.0
  C  C22  1  0.14811000  0.99378000  0.06705000  1.0
  C  C23  1  0.85189000  0.00621000  0.93296000  1.0
  C  C24  1  0.17354000  0.11523000  0.94785000  1.0
  C  C25  1  0.82647000  0.88475000  0.05217000  1.0
  C  C26  1  0.09230000  0.23716000  0.93563000  1.0
  C  C27  1  0.90775000  0.76285000  0.06440000  1.0
  C  C28  1  0.98361000  0.24027000  0.03495000  1.0
  C  C29  1  0.01648000  0.75975000  0.96512000  1.0
  C  C30  1  0.96020000  0.12360000  0.15678000  1.0
  C  C31  1  0.03989000  0.87640000  0.84328000  1.0
  C  C32  1  0.04165000  0.00131000  0.17082000  1.0
  C  C33  1  0.95838000  0.99869000  0.82919000  1.0
  C  C34  1  0.15002000  0.79381000  0.23514000  1.0
  C  C35  1  0.84995000  0.20618000  0.76484000  1.0
  C  C36  1  0.19148000  0.64509000  0.32061000  1.0
  C  C37  1  0.80847000  0.35490000  0.67938000  1.0
  C  C38  1  0.50009000  0.64678000  0.34035000  1.0
  C  C39  1  0.49988000  0.35324000  0.65963000  1.0
  C  C40  1  0.47272000  0.75617000  0.38496000  1.0
  C  C41  1  0.52726000  0.24384000  0.61501000  1.0
  C  C42  1  0.59252000  0.80472000  0.42829000  1.0
  C  C43  1  0.40747000  0.19529000  0.57168000  1.0
  C  C44  1  0.76008000  0.64530000  0.38945000  1.0
  C  C45  1  0.23989000  0.35469000  0.61052000  1.0
  C  C46  1  0.64891000  0.59065000  0.34365000  1.0
  C  C47  1  0.35107000  0.40936000  0.65632000  1.0
  S  S48  1  0.36692000  0.57163000  0.28233000  1.0
  S  S49  1  0.63307000  0.42835000  0.71766000  1.0
  N  N50  1  0.05064000  0.86932000  0.27799000  1.0
  N  N51  1  0.94936000  0.13068000  0.72201000  1.0
  N  N52  1  0.21369000  0.86493000  0.10599000  1.0
  N  N53  1  0.78628000  0.13505000  0.89399000  1.0
  N  N54  1  0.73472000  0.75149000  0.43038000  1.0
  N  N55  1  0.26527000  0.24851000  0.56959000  1.0
  Cl  Cl56  1  0.02514000  0.61368000  0.68821000  1.0
  Cl  Cl57  1  0.97479000  0.38630000  0.31180000  1.0
  Cl  Cl58  1  0.20329000  0.95618000  0.50441000  1.0
  Cl  Cl59  1  0.79668000  0.04380000  0.49562000  1.0
