# generated using pymatgen
data_CdH12(C2N)10
_symmetry_space_group_name_H-M   'P 1'
_cell_length_a   7.82360000
_cell_length_b   9.36397000
_cell_length_c   14.25580000
_cell_angle_alpha   98.20340000
_cell_angle_beta   105.65500000
_cell_angle_gamma   102.68500000
_symmetry_Int_Tables_number   1
_chemical_formula_structural   CdH12(C2N)10
_chemical_formula_sum   'Cd2 H24 C40 N20'
_cell_volume   958.15419671
_cell_formula_units_Z   2
loop_
 _symmetry_equiv_pos_site_id
 _symmetry_equiv_pos_as_xyz
  1  'x, y, z'
loop_
 _atom_site_type_symbol
 _atom_site_label
 _atom_site_symmetry_multiplicity
 _atom_site_fract_x
 _atom_site_fract_y
 _atom_site_fract_z
 _atom_site_occupancy
  Cd  Cd0  1  0.99908000  0.48713000  0.23945000  1.0
  Cd  Cd1  1  0.00092000  0.51288000  0.76054000  1.0
  H  H2  1  0.72261000  0.29171000  0.02992000  1.0
  H  H3  1  0.27738000  0.70828000  0.97008000  1.0
  H  H4  1  0.82570000  0.71998000  0.00601000  1.0
  H  H5  1  0.17429000  0.28002000  0.99399000  1.0
  H  H6  1  0.06219000  0.15197000  0.25504000  1.0
  H  H7  1  0.93782000  0.84803000  0.74496000  1.0
  H  H8  1  0.04548000  0.65962000  0.46017000  1.0
  H  H9  1  0.95451000  0.34037000  0.53983000  1.0
  H  H10  1  0.54781000  0.10617000  0.86299000  1.0
  H  H11  1  0.45218000  0.89383000  0.13702000  1.0
  H  H12  1  0.40702000  0.29672000  0.66938000  1.0
  H  H13  1  0.59296000  0.70329000  0.33061000  1.0
  H  H14  1  0.11153000  0.83352000  0.62757000  1.0
  H  H15  1  0.88845000  0.16649000  0.37244000  1.0
  H  H16  1  0.18648000  0.83788000  0.23218000  1.0
  H  H17  1  0.81352000  0.16212000  0.76782000  1.0
  H  H18  1  0.62328000  0.66170000  0.82997000  1.0
  H  H19  1  0.37673000  0.33830000  0.17003000  1.0
  H  H20  1  0.24838000  0.09217000  0.73457000  1.0
  H  H21  1  0.75162000  0.90784000  0.26543000  1.0
  H  H22  1  0.42022000  0.25177000  0.49561000  1.0
  H  H23  1  0.57975000  0.74824000  0.50438000  1.0
  H  H24  1  0.48295000  0.85203000  0.75865000  1.0
  H  H25  1  0.51705000  0.14796000  0.24135000  1.0
  C  C26  1  0.61847000  0.58066000  0.12880000  1.0
  C  C27  1  0.38153000  0.41933000  0.87119000  1.0
  C  C28  1  0.70019000  0.42873000  0.37508000  1.0
  C  C29  1  0.29985000  0.57127000  0.62492000  1.0
  C  C30  1  0.80608000  0.94810000  0.03417000  1.0
  C  C31  1  0.19393000  0.05190000  0.96583000  1.0
  C  C32  1  0.40108000  0.42503000  0.36904000  1.0
  C  C33  1  0.59893000  0.57497000  0.63094000  1.0
  C  C34  1  0.32796000  0.59444000  0.13192000  1.0
  C  C35  1  0.67205000  0.40558000  0.86808000  1.0
  C  C36  1  0.26922000  0.01813000  0.46165000  1.0
  C  C37  1  0.73076000  0.98188000  0.53835000  1.0
  C  C38  1  0.72797000  0.05826000  0.99235000  1.0
  C  C39  1  0.27202000  0.94174000  0.00766000  1.0
  C  C40  1  0.18438000  0.89901000  0.50071000  1.0
  C  C41  1  0.81564000  0.10098000  0.49930000  1.0
  C  C42  1  0.77866000  0.20176000  0.05488000  1.0
  C  C43  1  0.22135000  0.79824000  0.94512000  1.0
  C  C44  1  0.76416000  0.80309000  0.97436000  1.0
  C  C45  1  0.23582000  0.19690000  0.02564000  1.0
  C  C46  1  0.96361000  0.12139000  0.17993000  1.0
  C  C47  1  0.03643000  0.87861000  0.82007000  1.0
  C  C48  1  0.10917000  0.75704000  0.43528000  1.0
  C  C49  1  0.89082000  0.24296000  0.56472000  1.0
  C  C50  1  0.60890000  0.02165000  0.89277000  1.0
  C  C51  1  0.39112000  0.97835000  0.10723000  1.0
  C  C52  1  0.34384000  0.18566000  0.62101000  1.0
  C  C53  1  0.65615000  0.81435000  0.37898000  1.0
  C  C54  1  0.17780000  0.92630000  0.59986000  1.0
  C  C55  1  0.82218000  0.07370000  0.40013000  1.0
  C  C56  1  0.19108000  0.85782000  0.31023000  1.0
  C  C57  1  0.80889000  0.14218000  0.68976000  1.0
  C  C58  1  0.65053000  0.77175000  0.87696000  1.0
  C  C59  1  0.34948000  0.22826000  0.12304000  1.0
  C  C60  1  0.25543000  0.06865000  0.65880000  1.0
  C  C61  1  0.74456000  0.93135000  0.34120000  1.0
  C  C62  1  0.35170000  0.16217000  0.52463000  1.0
  C  C63  1  0.64830000  0.83783000  0.47536000  1.0
  C  C64  1  0.57182000  0.88019000  0.83575000  1.0
  C  C65  1  0.42820000  0.11981000  0.16425000  1.0
  N  N66  1  0.11199000  0.73582000  0.34177000  1.0
  N  N67  1  0.88801000  0.26418000  0.65824000  1.0
  N  N68  1  0.89605000  0.23404000  0.14647000  1.0
  N  N69  1  0.10394000  0.76596000  0.85353000  1.0
  N  N70  1  0.92242000  0.98242000  0.13002000  1.0
  N  N71  1  0.07758000  0.01758000  0.86999000  1.0
  N  N72  1  0.74656000  0.53231000  0.13178000  1.0
  N  N73  1  0.25345000  0.46768000  0.86822000  1.0
  N  N74  1  0.24333000  0.41801000  0.33670000  1.0
  N  N75  1  0.75670000  0.58200000  0.66329000  1.0
  N  N76  1  0.17730000  0.56235000  0.13787000  1.0
  N  N77  1  0.82270000  0.43767000  0.86213000  1.0
  N  N78  1  0.83068000  0.42610000  0.34894000  1.0
  N  N79  1  0.16935000  0.57389000  0.65107000  1.0
  N  N80  1  0.57046000  0.43200000  0.41428000  1.0
  N  N81  1  0.42955000  0.56800000  0.58570000  1.0
  N  N82  1  0.48894000  0.64682000  0.12335000  1.0
  N  N83  1  0.51106000  0.35318000  0.87666000  1.0
  N  N84  1  0.26957000  0.99442000  0.36472000  1.0
  N  N85  1  0.73043000  0.00557000  0.63528000  1.0
