# generated using pymatgen
data_LaH7C12N2O7
_symmetry_space_group_name_H-M   'P 1'
_cell_length_a   6.90710000
_cell_length_b   10.29410000
_cell_length_c   10.29420000
_cell_angle_alpha   62.15200000
_cell_angle_beta   72.10690000
_cell_angle_gamma   72.10690000
_symmetry_Int_Tables_number   1
_chemical_formula_structural   LaH7C12N2O7
_chemical_formula_sum   'La2 H14 C24 N4 O14'
_cell_volume   604.10194530
_cell_formula_units_Z   2
loop_
 _symmetry_equiv_pos_site_id
 _symmetry_equiv_pos_as_xyz
  1  'x, y, z'
loop_
 _atom_site_type_symbol
 _atom_site_label
 _atom_site_symmetry_multiplicity
 _atom_site_fract_x
 _atom_site_fract_y
 _atom_site_fract_z
 _atom_site_occupancy
  La  La0  1  0.25174000  0.00363000  0.49814000  1.0
  La  La1  1  0.75175000  0.49814000  0.00363000  1.0
  H  H2  1  0.74720000  0.18138000  0.00288000  1.0
  H  H3  1  0.24720000  0.00288000  0.18138000  1.0
  H  H4  1  0.68468000  0.00261000  0.27574000  1.0
  H  H5  1  0.18468000  0.27574000  0.00261000  1.0
  H  H6  1  0.75265000  0.94720000  0.43060000  1.0
  H  H7  1  0.25265000  0.43060000  0.94720000  1.0
  H  H8  1  0.74255000  0.56088000  0.40791000  1.0
  H  H9  1  0.24255000  0.40791000  0.56088000  1.0
  H  H10  1  0.67109000  0.55463000  0.66442000  1.0
  H  H11  1  0.17109000  0.66442000  0.55463000  1.0
  H  H12  1  0.85768000  0.78933000  0.21514000  1.0
  H  H13  1  0.35768000  0.21514000  0.78933000  1.0
  H  H14  1  0.12530000  0.61709000  0.10661000  1.0
  H  H15  1  0.62529000  0.10661000  0.61709000  1.0
  C  C16  1  0.90029000  0.32987000  0.47925000  1.0
  C  C17  1  0.40029000  0.47925000  0.32987000  1.0
  C  C18  1  0.79247000  0.45943000  0.50180000  1.0
  C  C19  1  0.29247000  0.50180000  0.45943000  1.0
  C  C20  1  0.75301000  0.45536000  0.64339000  1.0
  C  C21  1  0.25301000  0.64339000  0.45536000  1.0
  C  C22  1  0.81632000  0.32112000  0.76381000  1.0
  C  C23  1  0.31632000  0.76381000  0.32112000  1.0
  C  C24  1  0.91430000  0.19021000  0.73421000  1.0
  C  C25  1  0.41430000  0.73421000  0.19021000  1.0
  C  C26  1  0.95277000  0.32805000  0.32743000  1.0
  C  C27  1  0.45277000  0.32743000  0.32804000  1.0
  C  C28  1  0.97132000  0.03631000  0.84937000  1.0
  C  C29  1  0.47132000  0.84937000  0.03632000  1.0
  C  C30  1  0.87922000  0.98247000  0.00596000  1.0
  C  C31  1  0.37922000  0.00596000  0.98247000  1.0
  C  C32  1  0.93336000  0.82961000  0.09740000  1.0
  C  C33  1  0.43335000  0.09740000  0.82961000  1.0
  C  C34  1  0.07886000  0.73530000  0.03819000  1.0
  C  C35  1  0.57885000  0.03819000  0.73530000  1.0
  C  C36  1  0.16829000  0.79531000  0.88605000  1.0
  C  C37  1  0.66829000  0.88605000  0.79530000  1.0
  C  C38  1  0.33840000  0.70131000  0.81770000  1.0
  C  C39  1  0.83840000  0.81769000  0.70131000  1.0
  N  N40  1  0.95922000  0.20089000  0.59272000  1.0
  N  N41  1  0.45922000  0.59272000  0.20089000  1.0
  N  N42  1  0.11180000  0.93981000  0.79513000  1.0
  N  N43  1  0.61180000  0.79513000  0.93981000  1.0
  O  O44  1  0.05614000  0.20760000  0.31344000  1.0
  O  O45  1  0.55614000  0.31344000  0.20760000  1.0
  O  O46  1  0.88925000  0.44746000  0.22017000  1.0
  O  O47  1  0.38924000  0.22017000  0.44746000  1.0
  O  O48  1  0.39933000  0.75766000  0.67621000  1.0
  O  O49  1  0.89933000  0.67622000  0.75766000  1.0
  O  O50  1  0.41810000  0.57130000  0.90519000  1.0
  O  O51  1  0.91810000  0.90519000  0.57130000  1.0
  O  O52  1  0.78666000  0.31911000  0.89786000  1.0
  O  O53  1  0.28667000  0.89786000  0.31911000  1.0
  O  O54  1  0.73656000  0.06677000  0.07101000  1.0
  O  O55  1  0.23656000  0.07101000  0.06677000  1.0
  O  O56  1  0.64703000  0.94593000  0.38529000  1.0
  O  O57  1  0.14703000  0.38529000  0.94593000  1.0
