# generated using pymatgen
data_AgH6C10SN4(OF)3
_symmetry_space_group_name_H-M   'P 1'
_cell_length_a   7.96957000
_cell_length_b   7.96963000
_cell_length_c   21.21390000
_cell_angle_alpha   86.00420000
_cell_angle_beta   86.00360000
_cell_angle_gamma   74.79680000
_symmetry_Int_Tables_number   1
_chemical_formula_structural   AgH6C10SN4(OF)3
_chemical_formula_sum   'Ag4 H24 C40 S4 N16 O12 F12'
_cell_volume   1295.22224840
_cell_formula_units_Z   4
loop_
 _symmetry_equiv_pos_site_id
 _symmetry_equiv_pos_as_xyz
  1  'x, y, z'
loop_
 _atom_site_type_symbol
 _atom_site_label
 _atom_site_symmetry_multiplicity
 _atom_site_fract_x
 _atom_site_fract_y
 _atom_site_fract_z
 _atom_site_occupancy
  Ag  Ag0  1  0.49324000  0.30952000  0.55344000  1.0
  Ag  Ag1  1  0.69046000  0.50676000  0.94655000  1.0
  Ag  Ag2  1  0.50676000  0.69045000  0.44656000  1.0
  Ag  Ag3  1  0.30953000  0.49322000  0.05344000  1.0
  H  H4  1  0.95086000  0.88061000  0.69490000  1.0
  H  H5  1  0.11939000  0.04913000  0.80510000  1.0
  H  H6  1  0.04915000  0.11938000  0.30510000  1.0
  H  H7  1  0.88062000  0.95087000  0.19490000  1.0
  H  H8  1  0.36020000  0.26128000  0.70506000  1.0
  H  H9  1  0.73872000  0.63979000  0.79493000  1.0
  H  H10  1  0.63982000  0.73871000  0.29495000  1.0
  H  H11  1  0.26128000  0.36019000  0.20506000  1.0
  H  H12  1  0.48865000  0.07801000  0.80041000  1.0
  H  H13  1  0.92199000  0.51133000  0.69959000  1.0
  H  H14  1  0.51138000  0.92197000  0.19960000  1.0
  H  H15  1  0.07801000  0.48864000  0.30040000  1.0
  H  H16  1  0.20997000  0.07484000  0.56759000  1.0
  H  H17  1  0.92516000  0.79002000  0.93241000  1.0
  H  H18  1  0.79002000  0.92517000  0.43241000  1.0
  H  H19  1  0.07484000  0.20998000  0.06759000  1.0
  H  H20  1  0.13839000  0.60962000  0.57365000  1.0
  H  H21  1  0.39037000  0.86160000  0.92635000  1.0
  H  H22  1  0.86160000  0.39038000  0.42635000  1.0
  H  H23  1  0.60963000  0.13841000  0.07365000  1.0
  H  H24  1  0.81155000  0.65383000  0.57954000  1.0
  H  H25  1  0.34616000  0.18845000  0.92047000  1.0
  H  H26  1  0.18845000  0.34617000  0.42046000  1.0
  H  H27  1  0.65384000  0.81156000  0.07954000  1.0
  C  C28  1  0.81792000  0.96361000  0.69783000  1.0
  C  C29  1  0.03639000  0.18207000  0.80217000  1.0
  C  C30  1  0.18210000  0.03638000  0.30217000  1.0
  C  C31  1  0.96362000  0.81792000  0.19783000  1.0
  C  C32  1  0.74346000  0.06172000  0.64513000  1.0
  C  C33  1  0.93828000  0.25653000  0.85487000  1.0
  C  C34  1  0.25654000  0.93828000  0.35488000  1.0
  C  C35  1  0.06173000  0.74346000  0.14513000  1.0
  C  C36  1  0.49198000  0.17615000  0.70292000  1.0
  C  C37  1  0.82385000  0.50801000  0.79708000  1.0
  C  C38  1  0.50804000  0.82384000  0.29708000  1.0
  C  C39  1  0.17615000  0.49197000  0.20292000  1.0
  C  C40  1  0.56456000  0.07468000  0.75552000  1.0
  C  C41  1  0.92532000  0.43542000  0.74448000  1.0
  C  C42  1  0.43545000  0.92530000  0.24448000  1.0
  C  C43  1  0.07469000  0.56456000  0.25552000  1.0
  C  C44  1  0.94107000  0.23278000  0.57353000  1.0
  C  C45  1  0.76722000  0.05892000  0.92647000  1.0
  C  C46  1  0.05892000  0.76723000  0.42647000  1.0
  C  C47  1  0.23278000  0.94108000  0.07353000  1.0
  C  C48  1  0.12172000  0.20430000  0.57081000  1.0
  C  C49  1  0.79570000  0.87828000  0.92920000  1.0
  C  C50  1  0.87828000  0.79571000  0.42920000  1.0
  C  C51  1  0.20429000  0.12172000  0.07080000  1.0
  C  C52  1  0.08063000  0.50013000  0.57459000  1.0
  C  C53  1  0.49987000  0.91937000  0.92541000  1.0
  C  C54  1  0.91937000  0.49988000  0.42541000  1.0
  C  C55  1  0.50013000  0.08064000  0.07459000  1.0
  C  C56  1  0.90028000  0.52408000  0.57761000  1.0
  C  C57  1  0.47592000  0.09972000  0.92239000  1.0
  C  C58  1  0.09972000  0.47593000  0.42239000  1.0
  C  C59  1  0.52408000  0.90029000  0.07761000  1.0
  C  C60  1  0.59558000  0.27496000  0.34320000  1.0
  C  C61  1  0.72504000  0.40442000  0.15680000  1.0
  C  C62  1  0.40441000  0.72505000  0.65680000  1.0
  C  C63  1  0.27495000  0.59559000  0.84320000  1.0
  C  C64  1  0.54209000  0.25241000  0.41489000  1.0
  C  C65  1  0.74759000  0.45791000  0.08510000  1.0
  C  C66  1  0.45791000  0.74762000  0.58511000  1.0
  C  C67  1  0.25241000  0.54210000  0.91490000  1.0
  S  S68  1  0.84968000  0.04794000  0.56639000  1.0
  S  S69  1  0.95205000  0.15033000  0.93361000  1.0
  S  S70  1  0.15032000  0.95206000  0.43361000  1.0
  S  S71  1  0.04795000  0.84968000  0.06639000  1.0
  N  N72  1  0.72648000  0.96957000  0.75361000  1.0
  N  N73  1  0.03043000  0.27351000  0.74639000  1.0
  N  N74  1  0.27355000  0.03042000  0.24640000  1.0
  N  N75  1  0.96958000  0.72647000  0.25360000  1.0
  N  N76  1  0.58273000  0.16700000  0.64716000  1.0
  N  N77  1  0.83300000  0.41726000  0.85284000  1.0
  N  N78  1  0.41727000  0.83300000  0.35285000  1.0
  N  N79  1  0.16701000  0.58273000  0.14716000  1.0
  N  N80  1  0.19062000  0.34076000  0.57141000  1.0
  N  N81  1  0.65923000  0.80938000  0.92859000  1.0
  N  N82  1  0.80937000  0.65924000  0.42859000  1.0
  N  N83  1  0.34076000  0.19063000  0.07141000  1.0
  N  N84  1  0.82975000  0.38877000  0.57682000  1.0
  N  N85  1  0.61122000  0.17025000  0.92318000  1.0
  N  N86  1  0.17025000  0.61124000  0.42318000  1.0
  N  N87  1  0.38877000  0.82976000  0.07682000  1.0
  O  O88  1  0.00294000  0.89172000  0.56747000  1.0
  O  O89  1  0.10828000  0.99706000  0.93254000  1.0
  O  O90  1  0.99707000  0.10829000  0.43254000  1.0
  O  O91  1  0.89172000  0.00294000  0.06747000  1.0
  O  O92  1  0.59042000  0.34947000  0.45116000  1.0
  O  O93  1  0.65054000  0.40959000  0.04884000  1.0
  O  O94  1  0.40957000  0.65054000  0.54884000  1.0
  O  O95  1  0.34947000  0.59041000  0.95116000  1.0
  O  O96  1  0.45620000  0.14351000  0.42805000  1.0
  O  O97  1  0.85651000  0.54379000  0.07195000  1.0
  O  O98  1  0.54377000  0.85651000  0.57195000  1.0
  O  O99  1  0.14348000  0.45623000  0.92805000  1.0
  F  F100  1  0.69246000  0.12125000  0.31996000  1.0
  F  F101  1  0.87875000  0.30753000  0.18003000  1.0
  F  F102  1  0.30753000  0.87877000  0.68003000  1.0
  F  F103  1  0.12124000  0.69248000  0.81997000  1.0
  F  F104  1  0.44978000  0.32819000  0.30870000  1.0
  F  F105  1  0.67180000  0.55020000  0.19131000  1.0
  F  F106  1  0.55020000  0.67181000  0.69131000  1.0
  F  F107  1  0.32818000  0.44980000  0.80869000  1.0
  F  F108  1  0.69028000  0.39386000  0.32946000  1.0
  F  F109  1  0.60615000  0.30971000  0.17053000  1.0
  F  F110  1  0.30970000  0.60617000  0.67054000  1.0
  F  F111  1  0.39385000  0.69029000  0.82946000  1.0
