# generated using pymatgen
data_NiH30C27(N2O3)2
_symmetry_space_group_name_H-M   'P 1'
_cell_length_a   9.78977000
_cell_length_b   10.23560000
_cell_length_c   27.40940000
_cell_angle_alpha   89.95800000
_cell_angle_beta   89.97880000
_cell_angle_gamma   77.77000000
_symmetry_Int_Tables_number   1
_chemical_formula_structural   NiH30C27(N2O3)2
_chemical_formula_sum   'Ni4 H120 C108 N16 O24'
_cell_volume   2684.20305226
_cell_formula_units_Z   4
loop_
 _symmetry_equiv_pos_site_id
 _symmetry_equiv_pos_as_xyz
  1  'x, y, z'
loop_
 _atom_site_type_symbol
 _atom_site_label
 _atom_site_symmetry_multiplicity
 _atom_site_fract_x
 _atom_site_fract_y
 _atom_site_fract_z
 _atom_site_occupancy
  Ni  Ni0  1  0.37934000  0.35224000  0.47586000  1.0
  Ni  Ni1  1  0.11930000  0.64796000  0.97622000  1.0
  Ni  Ni2  1  0.62069000  0.64774000  0.52414000  1.0
  Ni  Ni3  1  0.88067000  0.35207000  0.02378000  1.0
  H  H4  1  0.74191000  0.31290000  0.63977000  1.0
  H  H5  1  0.75802000  0.68755000  0.14000000  1.0
  H  H6  1  0.25786000  0.68730000  0.36015000  1.0
  H  H7  1  0.24238000  0.31209000  0.85987000  1.0
  H  H8  1  0.59641000  0.23727000  0.63055000  1.0
  H  H9  1  0.90360000  0.76303000  0.13066000  1.0
  H  H10  1  0.40341000  0.76282000  0.36939000  1.0
  H  H11  1  0.09670000  0.23684000  0.86927000  1.0
  H  H12  1  0.37313000  0.43976000  0.99802000  1.0
  H  H13  1  0.12594000  0.56052000  0.49796000  1.0
  H  H14  1  0.62664000  0.56023000  0.00202000  1.0
  H  H15  1  0.87418000  0.43948000  0.50206000  1.0
  H  H16  1  0.57430000  0.11344000  0.55021000  1.0
  H  H17  1  0.92568000  0.88678000  0.05024000  1.0
  H  H18  1  0.42563000  0.88644000  0.44979000  1.0
  H  H19  1  0.07447000  0.11344000  0.94975000  1.0
  H  H20  1  0.70593000  0.10017000  0.50600000  1.0
  H  H21  1  0.79413000  0.89992000  0.00607000  1.0
  H  H22  1  0.29398000  0.89966000  0.49398000  1.0
  H  H23  1  0.20603000  0.10035000  0.99391000  1.0
  H  H24  1  0.69403000  0.49034000  0.11487000  1.0
  H  H25  1  0.80634000  0.51014000  0.61497000  1.0
  H  H26  1  0.30580000  0.50927000  0.88515000  1.0
  H  H27  1  0.19372000  0.49008000  0.38503000  1.0
  H  H28  1  0.53947000  0.38130000  0.06830000  1.0
  H  H29  1  0.96065000  0.61911000  0.56851000  1.0
  H  H30  1  0.46028000  0.61858000  0.93176000  1.0
  H  H31  1  0.03949000  0.38095000  0.43153000  1.0
  H  H32  1  0.86635000  0.36722000  0.29716000  1.0
  H  H33  1  0.63380000  0.63280000  0.79724000  1.0
  H  H34  1  0.13366000  0.63274000  0.70284000  1.0
  H  H35  1  0.36609000  0.36735000  0.20278000  1.0
  H  H36  1  0.91133000  0.20643000  0.51835000  1.0
  H  H37  1  0.58874000  0.79397000  0.01850000  1.0
  H  H38  1  0.08856000  0.79354000  0.48160000  1.0
  H  H39  1  0.41152000  0.20598000  0.98142000  1.0
  H  H40  1  0.93018000  0.29379000  0.57282000  1.0
  H  H41  1  0.56964000  0.70671000  0.07302000  1.0
  H  H42  1  0.06961000  0.70635000  0.42710000  1.0
  H  H43  1  0.43073000  0.29308000  0.92688000  1.0
  H  H44  1  0.63025000  0.98475000  0.63277000  1.0
  H  H45  1  0.86977000  0.01578000  0.13268000  1.0
  H  H46  1  0.36975000  0.01530000  0.36726000  1.0
  H  H47  1  0.13022000  0.98409000  0.86738000  1.0
  H  H48  1  0.79947000  0.88398000  0.64083000  1.0
  H  H49  1  0.70053000  0.11653000  0.14072000  1.0
  H  H50  1  0.20058000  0.11619000  0.35922000  1.0
  H  H51  1  0.29939000  0.88315000  0.85937000  1.0
  H  H52  1  0.14341000  0.76837000  0.06962000  1.0
  H  H53  1  0.35582000  0.23128000  0.56930000  1.0
  H  H54  1  0.85664000  0.23179000  0.93039000  1.0
  H  H55  1  0.64413000  0.76863000  0.43071000  1.0
  H  H56  1  0.55336000  0.09946000  0.43886000  1.0
  H  H57  1  0.94627000  0.90076000  0.93886000  1.0
  H  H58  1  0.44653000  0.90052000  0.56110000  1.0
  H  H59  1  0.05392000  0.09930000  0.06109000  1.0
  H  H60  1  0.68324000  0.45008000  0.33754000  1.0
  H  H61  1  0.81676000  0.55006000  0.83767000  1.0
  H  H62  1  0.31684000  0.54990000  0.66248000  1.0
  H  H63  1  0.18305000  0.45001000  0.16236000  1.0
  H  H64  1  0.29124000  0.71786000  0.14531000  1.0
  H  H65  1  0.20889000  0.28177000  0.64520000  1.0
  H  H66  1  0.70877000  0.28227000  0.85471000  1.0
  H  H67  1  0.79106000  0.71816000  0.35481000  1.0
  H  H68  1  0.71063000  0.03102000  0.36636000  1.0
  H  H69  1  0.78951000  0.96913000  0.86620000  1.0
  H  H70  1  0.28922000  0.96897000  0.63359000  1.0
  H  H71  1  0.21072000  0.03093000  0.13373000  1.0
  H  H72  1  0.98211000  0.86409000  0.57672000  1.0
  H  H73  1  0.51797000  0.13637000  0.07665000  1.0
  H  H74  1  0.01791000  0.13603000  0.42333000  1.0
  H  H75  1  0.48202000  0.86343000  0.92342000  1.0
  H  H76  1  0.94451000  0.95007000  0.52047000  1.0
  H  H77  1  0.55554000  0.05029000  0.02045000  1.0
  H  H78  1  0.05551000  0.04992000  0.47956000  1.0
  H  H79  1  0.44450000  0.94974000  0.97958000  1.0
  H  H80  1  0.77242000  0.09929000  0.68648000  1.0
  H  H81  1  0.72760000  0.90128000  0.18651000  1.0
  H  H82  1  0.22743000  0.90099000  0.31350000  1.0
  H  H83  1  0.27256000  0.09823000  0.81347000  1.0
  H  H84  1  0.97538000  0.15409000  0.22831000  1.0
  H  H85  1  0.52483000  0.84590000  0.72829000  1.0
  H  H86  1  0.02460000  0.84589000  0.77169000  1.0
  H  H87  1  0.47511000  0.15414000  0.27169000  1.0
  H  H88  1  0.00432000  0.31989000  0.23096000  1.0
  H  H89  1  0.49585000  0.68011000  0.73106000  1.0
  H  H90  1  0.99564000  0.68011000  0.76904000  1.0
  H  H91  1  0.50414000  0.31993000  0.26895000  1.0
  H  H92  1  0.70325000  0.48535000  0.22331000  1.0
  H  H93  1  0.79678000  0.51452000  0.72342000  1.0
  H  H94  1  0.29672000  0.51458000  0.77670000  1.0
  H  H95  1  0.20320000  0.48553000  0.27659000  1.0
  H  H96  1  0.84118000  0.50564000  0.18389000  1.0
  H  H97  1  0.65896000  0.49433000  0.68398000  1.0
  H  H98  1  0.15875000  0.49435000  0.81612000  1.0
  H  H99  1  0.34104000  0.50570000  0.31603000  1.0
  H  H100  1  0.52727000  0.50046000  0.40912000  1.0
  H  H101  1  0.97221000  0.49973000  0.90940000  1.0
  H  H102  1  0.47287000  0.49952000  0.59092000  1.0
  H  H103  1  0.02754000  0.50035000  0.09067000  1.0
  H  H104  1  0.08666000  0.06778000  0.57383000  1.0
  H  H105  1  0.41338000  0.93274000  0.07394000  1.0
  H  H106  1  0.91324000  0.93241000  0.42617000  1.0
  H  H107  1  0.58681000  0.06695000  0.92603000  1.0
  H  H108  1  0.86737000  0.26750000  0.15565000  1.0
  H  H109  1  0.63276000  0.73245000  0.65568000  1.0
  H  H110  1  0.13262000  0.73249000  0.84434000  1.0
  H  H111  1  0.36719000  0.26758000  0.34432000  1.0
  H  H112  1  0.73263000  0.24674000  0.19565000  1.0
  H  H113  1  0.76756000  0.75318000  0.69559000  1.0
  H  H114  1  0.26737000  0.75320000  0.80434000  1.0
  H  H115  1  0.23240000  0.24688000  0.30440000  1.0
  H  H116  1  0.00794000  0.99311000  0.65452000  1.0
  H  H117  1  0.49205000  0.00723000  0.15459000  1.0
  H  H118  1  0.99199000  0.00725000  0.34550000  1.0
  H  H119  1  0.50807000  0.99219000  0.84543000  1.0
  H  H120  1  0.98443000  0.16894000  0.65285000  1.0
  H  H121  1  0.51569000  0.83143000  0.15295000  1.0
  H  H122  1  0.01537000  0.83143000  0.34711000  1.0
  H  H123  1  0.48458000  0.16799000  0.84696000  1.0
  C  C124  1  0.70940000  0.22618000  0.62367000  1.0
  C  C125  1  0.79061000  0.77417000  0.12380000  1.0
  C  C126  1  0.29044000  0.77392000  0.37627000  1.0
  C  C127  1  0.20968000  0.22562000  0.87612000  1.0
  C  C128  1  0.78819000  0.19246000  0.29907000  1.0
  C  C129  1  0.71195000  0.80760000  0.79905000  1.0
  C  C130  1  0.21171000  0.80754000  0.70091000  1.0
  C  C131  1  0.28811000  0.19246000  0.20093000  1.0
  C  C132  1  0.51739000  0.51363000  0.15705000  1.0
  C  C133  1  0.98288000  0.48623000  0.65715000  1.0
  C  C134  1  0.48251000  0.48645000  0.84299000  1.0
  C  C135  1  0.01715000  0.51376000  0.34287000  1.0
  C  C136  1  0.42795000  0.54601000  0.11243000  1.0
  C  C137  1  0.07218000  0.45396000  0.61248000  1.0
  C  C138  1  0.57195000  0.45401000  0.88761000  1.0
  C  C139  1  0.92788000  0.54602000  0.38755000  1.0
  C  C140  1  0.76660000  0.97273000  0.56909000  1.0
  C  C141  1  0.73350000  0.02761000  0.06903000  1.0
  C  C142  1  0.23341000  0.02726000  0.43093000  1.0
  C  C143  1  0.26653000  0.97238000  0.93103000  1.0
  C  C144  1  0.36075000  0.49933000  0.03116000  1.0
  C  C145  1  0.13858000  0.50082000  0.53110000  1.0
  C  C146  1  0.63909000  0.50069000  0.96888000  1.0
  C  C147  1  0.86151000  0.49919000  0.46893000  1.0
  C  C148  1  0.68738000  0.10327000  0.54560000  1.0
  C  C149  1  0.81261000  0.89684000  0.04568000  1.0
  C  C150  1  0.31254000  0.89657000  0.45438000  1.0
  C  C151  1  0.18755000  0.10335000  0.95431000  1.0
  C  C152  1  0.73575000  0.22387000  0.56787000  1.0
  C  C153  1  0.76421000  0.77643000  0.06803000  1.0
  C  C154  1  0.26409000  0.77611000  0.43207000  1.0
  C  C155  1  0.23607000  0.22356000  0.93188000  1.0
  C  C156  1  0.70911000  0.23434000  0.34557000  1.0
  C  C157  1  0.79093000  0.76580000  0.84558000  1.0
  C  C158  1  0.29084000  0.76564000  0.65442000  1.0
  C  C159  1  0.20910000  0.23428000  0.15441000  1.0
  C  C160  1  0.65131000  0.35644000  0.54781000  1.0
  C  C161  1  0.84811000  0.64389000  0.04777000  1.0
  C  C162  1  0.34849000  0.64349000  0.45210000  1.0
  C  C163  1  0.15231000  0.35624000  0.95204000  1.0
  C  C164  1  0.45142000  0.46696000  0.07052000  1.0
  C  C165  1  0.04849000  0.53325000  0.57060000  1.0
  C  C166  1  0.54841000  0.53301000  0.92953000  1.0
  C  C167  1  0.95161000  0.46676000  0.42943000  1.0
  C  C168  1  0.89319000  0.20789000  0.55806000  1.0
  C  C169  1  0.60673000  0.79256000  0.05822000  1.0
  C  C170  1  0.10665000  0.79217000  0.44189000  1.0
  C  C171  1  0.39355000  0.20733000  0.94171000  1.0
  C  C172  1  0.74202000  0.97773000  0.62477000  1.0
  C  C173  1  0.75803000  0.02277000  0.12470000  1.0
  C  C174  1  0.25797000  0.02237000  0.37525000  1.0
  C  C175  1  0.24199000  0.97702000  0.87535000  1.0
  C  C176  1  0.23071000  0.68279000  0.07167000  1.0
  C  C177  1  0.26864000  0.31696000  0.57143000  1.0
  C  C178  1  0.76926000  0.31732000  0.92835000  1.0
  C  C179  1  0.73136000  0.68299000  0.42859000  1.0
  C  C180  1  0.58400000  0.17327000  0.41489000  1.0
  C  C181  1  0.91572000  0.82695000  0.91490000  1.0
  C  C182  1  0.41594000  0.82670000  0.58509000  1.0
  C  C183  1  0.08438000  0.17311000  0.08506000  1.0
  C  C184  1  0.71932000  0.85081000  0.54870000  1.0
  C  C185  1  0.78180000  0.14856000  0.04812000  1.0
  C  C186  1  0.28087000  0.14896000  0.45143000  1.0
  C  C187  1  0.21789000  0.85179000  0.95211000  1.0
  C  C188  1  0.65839000  0.36783000  0.35865000  1.0
  C  C189  1  0.84150000  0.63230000  0.85876000  1.0
  C  C190  1  0.34164000  0.63214000  0.64136000  1.0
  C  C191  1  0.15840000  0.36777000  0.14126000  1.0
  C  C192  1  0.31361000  0.65481000  0.11302000  1.0
  C  C193  1  0.18629000  0.34497000  0.61293000  1.0
  C  C194  1  0.68635000  0.34527000  0.88700000  1.0
  C  C195  1  0.81371000  0.65498000  0.38709000  1.0
  C  C196  1  0.67238000  0.13609000  0.37531000  1.0
  C  C197  1  0.82763000  0.86408000  0.87525000  1.0
  C  C198  1  0.32754000  0.86388000  0.62466000  1.0
  C  C199  1  0.17249000  0.13600000  0.12471000  1.0
  C  C200  1  0.92479000  0.95751000  0.55997000  1.0
  C  C201  1  0.57530000  0.04292000  0.05994000  1.0
  C  C202  1  0.07520000  0.04253000  0.44006000  1.0
  C  C203  1  0.42475000  0.95696000  0.94010000  1.0
  C  C204  1  0.79127000  0.09705000  0.64684000  1.0
  C  C205  1  0.70874000  0.90344000  0.14689000  1.0
  C  C206  1  0.20861000  0.90313000  0.35314000  1.0
  C  C207  1  0.29141000  0.09622000  0.85310000  1.0
  C  C208  1  0.92380000  0.25985000  0.23200000  1.0
  C  C209  1  0.57641000  0.74014000  0.73203000  1.0
  C  C210  1  0.07618000  0.74013000  0.76799000  1.0
  C  C211  1  0.42356000  0.25992000  0.26797000  1.0
  C  C212  1  0.75704000  0.45063000  0.18908000  1.0
  C  C213  1  0.74310000  0.54930000  0.68916000  1.0
  C  C214  1  0.24291000  0.54933000  0.81093000  1.0
  C  C215  1  0.25688000  0.45075000  0.31085000  1.0
  C  C216  1  0.56873000  0.39774000  0.39831000  1.0
  C  C217  1  0.93082000  0.60244000  0.89851000  1.0
  C  C218  1  0.43134000  0.60225000  0.60170000  1.0
  C  C219  1  0.06905000  0.39762000  0.10151000  1.0
  C  C220  1  0.97421000  0.07805000  0.58143000  1.0
  C  C221  1  0.52582000  0.92240000  0.08152000  1.0
  C  C222  1  0.02569000  0.92205000  0.41856000  1.0
  C  C223  1  0.47437000  0.07736000  0.91845000  1.0
  C  C224  1  0.81785000  0.30025000  0.19077000  1.0
  C  C225  1  0.68232000  0.69969000  0.69080000  1.0
  C  C226  1  0.18213000  0.69972000  0.80922000  1.0
  C  C227  1  0.31764000  0.30036000  0.30920000  1.0
  C  C228  1  0.94817000  0.08367000  0.63677000  1.0
  C  C229  1  0.55187000  0.91676000  0.13685000  1.0
  C  C230  1  0.05170000  0.91661000  0.36323000  1.0
  C  C231  1  0.44831000  0.08278000  0.86312000  1.0
  N  N232  1  0.25311000  0.60556000  0.03121000  1.0
  N  N233  1  0.24589000  0.39432000  0.53098000  1.0
  N  N234  1  0.74681000  0.39451000  0.96882000  1.0
  N  N235  1  0.75415000  0.60565000  0.46905000  1.0
  N  N236  1  0.52805000  0.30276000  0.42546000  1.0
  N  N237  1  0.97130000  0.69746000  0.92561000  1.0
  N  N238  1  0.47198000  0.69721000  0.57454000  1.0
  N  N239  1  0.02865000  0.30260000  0.07438000  1.0
  N  N240  1  0.65621000  0.48703000  0.14970000  1.0
  N  N241  1  0.84404000  0.51290000  0.64981000  1.0
  N  N242  1  0.34369000  0.51296000  0.85033000  1.0
  N  N243  1  0.15597000  0.48713000  0.35020000  1.0
  N  N244  1  0.85826000  0.28069000  0.27980000  1.0
  N  N245  1  0.64198000  0.71931000  0.77982000  1.0
  N  N246  1  0.14171000  0.71929000  0.72020000  1.0
  N  N247  1  0.35800000  0.28079000  0.22017000  1.0
  O  O248  1  0.63236000  0.86181000  0.51349000  1.0
  O  O249  1  0.86785000  0.13583000  0.01270000  1.0
  O  O250  1  0.36775000  0.13758000  0.48665000  1.0
  O  O251  1  0.13199000  0.86510000  0.98755000  1.0
  O  O252  1  0.53360000  0.35898000  0.52918000  1.0
  O  O253  1  0.96505000  0.64181000  0.02847000  1.0
  O  O254  1  0.46616000  0.64079000  0.47074000  1.0
  O  O255  1  0.03526000  0.35870000  0.97133000  1.0
  O  O256  1  0.70168000  0.46191000  0.55480000  1.0
  O  O257  1  0.79803000  0.53858000  0.05501000  1.0
  O  O258  1  0.29805000  0.53807000  0.44507000  1.0
  O  O259  1  0.20252000  0.46145000  0.94476000  1.0
  O  O260  1  0.76494000  0.73760000  0.56910000  1.0
  O  O261  1  0.73780000  0.26252000  0.06833000  1.0
  O  O262  1  0.23543000  0.26232000  0.43107000  1.0
  O  O263  1  0.26148000  0.73756000  0.93198000  1.0
  O  O264  1  0.46016000  0.51283000  0.19794000  1.0
  O  O265  1  0.04012000  0.48686000  0.69802000  1.0
  O  O266  1  0.53976000  0.48744000  0.80211000  1.0
  O  O267  1  0.95986000  0.51309000  0.30200000  1.0
  O  O268  1  0.78259000  0.08373000  0.27983000  1.0
  O  O269  1  0.71751000  0.91633000  0.77974000  1.0
  O  O270  1  0.21726000  0.91631000  0.72013000  1.0
  O  O271  1  0.28266000  0.08366000  0.22021000  1.0
