# generated using pymatgen
data_GdAgH12C14N2O11
_symmetry_space_group_name_H-M   'P 1'
_cell_length_a   7.31035000
_cell_length_b   13.89840000
_cell_length_c   19.28020000
_cell_angle_alpha   77.06700000
_cell_angle_beta   89.99970000
_cell_angle_gamma   89.99990000
_symmetry_Int_Tables_number   1
_chemical_formula_structural   GdAgH12C14N2O11
_chemical_formula_sum   'Gd4 Ag4 H48 C56 N8 O44'
_cell_volume   1909.21737670
_cell_formula_units_Z   4
loop_
 _symmetry_equiv_pos_site_id
 _symmetry_equiv_pos_as_xyz
  1  'x, y, z'
loop_
 _atom_site_type_symbol
 _atom_site_label
 _atom_site_symmetry_multiplicity
 _atom_site_fract_x
 _atom_site_fract_y
 _atom_site_fract_z
 _atom_site_occupancy
  Gd  Gd0  1  0.56337000  0.20087000  0.14333000  1.0
  Gd  Gd1  1  0.06337000  0.29911000  0.35670000  1.0
  Gd  Gd2  1  0.43663000  0.79912000  0.85667000  1.0
  Gd  Gd3  1  0.93662000  0.70089000  0.64330000  1.0
  Ag  Ag4  1  0.05423000  0.12655000  0.97929000  1.0
  Ag  Ag5  1  0.55422000  0.37342000  0.52072000  1.0
  Ag  Ag6  1  0.94575000  0.87345000  0.02072000  1.0
  Ag  Ag7  1  0.44578000  0.62658000  0.47928000  1.0
  H  H8  1  0.68540000  0.40188000  0.86495000  1.0
  H  H9  1  0.18537000  0.09812000  0.63508000  1.0
  H  H10  1  0.31461000  0.59811000  0.13505000  1.0
  H  H11  1  0.81463000  0.90188000  0.36491000  1.0
  H  H12  1  0.40155000  0.50751000  0.84980000  1.0
  H  H13  1  0.90151000  0.99252000  0.65021000  1.0
  H  H14  1  0.59846000  0.49250000  0.15021000  1.0
  H  H15  1  0.09851000  0.00748000  0.34977000  1.0
  H  H16  1  0.17713000  0.48569000  0.95224000  1.0
  H  H17  1  0.67711000  0.01432000  0.54778000  1.0
  H  H18  1  0.82288000  0.51433000  0.04777000  1.0
  H  H19  1  0.32290000  0.98567000  0.45220000  1.0
  H  H20  1  0.40283000  0.83822000  0.08227000  1.0
  H  H21  1  0.90283000  0.66176000  0.41773000  1.0
  H  H22  1  0.59716000  0.16176000  0.91773000  1.0
  H  H23  1  0.09719000  0.33825000  0.58226000  1.0
  H  H24  1  0.68412000  0.74505000  0.13675000  1.0
  H  H25  1  0.18413000  0.75495000  0.36326000  1.0
  H  H26  1  0.31587000  0.25496000  0.86326000  1.0
  H  H27  1  0.81588000  0.24507000  0.63673000  1.0
  H  H28  1  0.92583000  0.83835000  0.18949000  1.0
  H  H29  1  0.42584000  0.66162000  0.31053000  1.0
  H  H30  1  0.07417000  0.16164000  0.81053000  1.0
  H  H31  1  0.57417000  0.33838000  0.68947000  1.0
  H  H32  1  0.78525000  0.34541000  0.19048000  1.0
  H  H33  1  0.28527000  0.15458000  0.30954000  1.0
  H  H34  1  0.21474000  0.65459000  0.80952000  1.0
  H  H35  1  0.71473000  0.84542000  0.69046000  1.0
  H  H36  1  0.88640000  0.35458000  0.11720000  1.0
  H  H37  1  0.38643000  0.14541000  0.38282000  1.0
  H  H38  1  0.11358000  0.64542000  0.88279000  1.0
  H  H39  1  0.61359000  0.85460000  0.61717000  1.0
  H  H40  1  0.64476000  0.22961000  0.29418000  1.0
  H  H41  1  0.14475000  0.27040000  0.20583000  1.0
  H  H42  1  0.35524000  0.77041000  0.70581000  1.0
  H  H43  1  0.85525000  0.72960000  0.79417000  1.0
  H  H44  1  0.47578000  0.30261000  0.26581000  1.0
  H  H45  1  0.97578000  0.19738000  0.23421000  1.0
  H  H46  1  0.52422000  0.69740000  0.73419000  1.0
  H  H47  1  0.02422000  0.80261000  0.76579000  1.0
  H  H48  1  0.42869000  0.03526000  0.26673000  1.0
  H  H49  1  0.92867000  0.46472000  0.23329000  1.0
  H  H50  1  0.57129000  0.96474000  0.73327000  1.0
  H  H51  1  0.07133000  0.53529000  0.76671000  1.0
  H  H52  1  0.23918000  0.05699000  0.22572000  1.0
  H  H53  1  0.73916000  0.44299000  0.27429000  1.0
  H  H54  1  0.76080000  0.94300000  0.77428000  1.0
  H  H55  1  0.26083000  0.55702000  0.72571000  1.0
  C  C56  1  0.77355000  0.25992000  0.98709000  1.0
  C  C57  1  0.27355000  0.24006000  0.51293000  1.0
  C  C58  1  0.22644000  0.74007000  0.01291000  1.0
  C  C59  1  0.72642000  0.75996000  0.48706000  1.0
  C  C60  1  0.61710000  0.33160000  0.97293000  1.0
  C  C61  1  0.11710000  0.16840000  0.52708000  1.0
  C  C62  1  0.38291000  0.66841000  0.02707000  1.0
  C  C63  1  0.88288000  0.83160000  0.47291000  1.0
  C  C64  1  0.58652000  0.39731000  0.90777000  1.0
  C  C65  1  0.08649000  0.10269000  0.59225000  1.0
  C  C66  1  0.41350000  0.60269000  0.09222000  1.0
  C  C67  1  0.91351000  0.89733000  0.40774000  1.0
  C  C68  1  0.42796000  0.45470000  0.89966000  1.0
  C  C69  1  0.92791000  0.04530000  0.60036000  1.0
  C  C70  1  0.57207000  0.54531000  0.10035000  1.0
  C  C71  1  0.07209000  0.95468000  0.39962000  1.0
  C  C72  1  0.30430000  0.44397000  0.95607000  1.0
  C  C73  1  0.80428000  0.05604000  0.54394000  1.0
  C  C74  1  0.69570000  0.55604000  0.04393000  1.0
  C  C75  1  0.19573000  0.94395000  0.45606000  1.0
  C  C76  1  0.34738000  0.37752000  0.01971000  1.0
  C  C77  1  0.84741000  0.12246000  0.48031000  1.0
  C  C78  1  0.65262000  0.62248000  0.98029000  1.0
  C  C79  1  0.15258000  0.87755000  0.51968000  1.0
  C  C80  1  0.22504000  0.35971000  0.08422000  1.0
  C  C81  1  0.72505000  0.14028000  0.41580000  1.0
  C  C82  1  0.77498000  0.64029000  0.91579000  1.0
  C  C83  1  0.27494000  0.85972000  0.58419000  1.0
  C  C84  1  0.34391000  0.03902000  0.06904000  1.0
  C  C85  1  0.84388000  0.46095000  0.43097000  1.0
  C  C86  1  0.65609000  0.96097000  0.93096000  1.0
  C  C87  1  0.15610000  0.53904000  0.56903000  1.0
  C  C88  1  0.49464000  0.97372000  0.10620000  1.0
  C  C89  1  0.99465000  0.52627000  0.39380000  1.0
  C  C90  1  0.50537000  0.02627000  0.89380000  1.0
  C  C91  1  0.00536000  0.47374000  0.60620000  1.0
  C  C92  1  0.51062000  0.87366000  0.10626000  1.0
  C  C93  1  0.01064000  0.62633000  0.39375000  1.0
  C  C94  1  0.48938000  0.12634000  0.89375000  1.0
  C  C95  1  0.98937000  0.37367000  0.60626000  1.0
  C  C96  1  0.66676000  0.82309000  0.13636000  1.0
  C  C97  1  0.16676000  0.67691000  0.36365000  1.0
  C  C98  1  0.33323000  0.17692000  0.86364000  1.0
  C  C99  1  0.83324000  0.32310000  0.63635000  1.0
  C  C100  1  0.80050000  0.87380000  0.16608000  1.0
  C  C101  1  0.30051000  0.62619000  0.33394000  1.0
  C  C102  1  0.19952000  0.12620000  0.83394000  1.0
  C  C103  1  0.69952000  0.37381000  0.66606000  1.0
  C  C104  1  0.76838000  0.97281000  0.16693000  1.0
  C  C105  1  0.26837000  0.52717000  0.33309000  1.0
  C  C106  1  0.23161000  0.02718000  0.83308000  1.0
  C  C107  1  0.73162000  0.47283000  0.66692000  1.0
  C  C108  1  0.89791000  0.03442000  0.19997000  1.0
  C  C109  1  0.39793000  0.46555000  0.30003000  1.0
  C  C110  1  0.10208000  0.96557000  0.80003000  1.0
  C  C111  1  0.60208000  0.53445000  0.69997000  1.0
  N  N112  1  0.50057000  0.32344000  0.02759000  1.0
  N  N113  1  0.00057000  0.17655000  0.47243000  1.0
  N  N114  1  0.49943000  0.67657000  0.97242000  1.0
  N  N115  1  0.99943000  0.82345000  0.52756000  1.0
  N  N116  1  0.61861000  0.02083000  0.13770000  1.0
  N  N117  1  0.11858000  0.47914000  0.36231000  1.0
  N  N118  1  0.38140000  0.97915000  0.86230000  1.0
  N  N119  1  0.88142000  0.52086000  0.63769000  1.0
  O  O120  1  0.77939000  0.20183000  0.04833000  1.0
  O  O121  1  0.27938000  0.29814000  0.45170000  1.0
  O  O122  1  0.22061000  0.79816000  0.95167000  1.0
  O  O123  1  0.72062000  0.70186000  0.54829000  1.0
  O  O124  1  0.88440000  0.25783000  0.93657000  1.0
  O  O125  1  0.38442000  0.24215000  0.56344000  1.0
  O  O126  1  0.11560000  0.74216000  0.06343000  1.0
  O  O127  1  0.61558000  0.75787000  0.43654000  1.0
  O  O128  1  0.28945000  0.30024000  0.13999000  1.0
  O  O129  1  0.78948000  0.19973000  0.36000000  1.0
  O  O130  1  0.71056000  0.69975000  0.86000000  1.0
  O  O131  1  0.21052000  0.80026000  0.63998000  1.0
  O  O132  1  0.07310000  0.40238000  0.07931000  1.0
  O  O133  1  0.57311000  0.09762000  0.42071000  1.0
  O  O134  1  0.92691000  0.59763000  0.92070000  1.0
  O  O135  1  0.42688000  0.90238000  0.57927000  1.0
  O  O136  1  0.34492000  0.12845000  0.07442000  1.0
  O  O137  1  0.84494000  0.37152000  0.42560000  1.0
  O  O138  1  0.65508000  0.87153000  0.92559000  1.0
  O  O139  1  0.15505000  0.62848000  0.57440000  1.0
  O  O140  1  0.22989000  0.00241000  0.03220000  1.0
  O  O141  1  0.72984000  0.49758000  0.46780000  1.0
  O  O142  1  0.77010000  0.99759000  0.96781000  1.0
  O  O143  1  0.27015000  0.50242000  0.53220000  1.0
  O  O144  1  0.83314000  0.11740000  0.20746000  1.0
  O  O145  1  0.33313000  0.38258000  0.29255000  1.0
  O  O146  1  0.16686000  0.88259000  0.79255000  1.0
  O  O147  1  0.66685000  0.61744000  0.70743000  1.0
  O  O148  1  0.05475000  0.00012000  0.21731000  1.0
  O  O149  1  0.55473000  0.49986000  0.28269000  1.0
  O  O150  1  0.94525000  0.99988000  0.78270000  1.0
  O  O151  1  0.44524000  0.50013000  0.71732000  1.0
  O  O152  1  0.76648000  0.33597000  0.14188000  1.0
  O  O153  1  0.26650000  0.16400000  0.35815000  1.0
  O  O154  1  0.23350000  0.66403000  0.85812000  1.0
  O  O155  1  0.73350000  0.83600000  0.64184000  1.0
  O  O156  1  0.56075000  0.25329000  0.25268000  1.0
  O  O157  1  0.06077000  0.24669000  0.24734000  1.0
  O  O158  1  0.43925000  0.74671000  0.74732000  1.0
  O  O159  1  0.93923000  0.75331000  0.75266000  1.0
  O  O160  1  0.36075000  0.08737000  0.23509000  1.0
  O  O161  1  0.86074000  0.41261000  0.26493000  1.0
  O  O162  1  0.63923000  0.91263000  0.76491000  1.0
  O  O163  1  0.13925000  0.58739000  0.73507000  1.0
