# generated using pymatgen
data_Cd2H28C30N4O9
_symmetry_space_group_name_H-M   'P 1'
_cell_length_a   14.49230000
_cell_length_b   15.44460000
_cell_length_c   17.53210000
_cell_angle_alpha   90.00000000
_cell_angle_beta   90.00000000
_cell_angle_gamma   90.00000000
_symmetry_Int_Tables_number   1
_chemical_formula_structural   Cd2H28C30N4O9
_chemical_formula_sum   'Cd8 H112 C120 N16 O36'
_cell_volume   3924.17096178
_cell_formula_units_Z   4
loop_
 _symmetry_equiv_pos_site_id
 _symmetry_equiv_pos_as_xyz
  1  'x, y, z'
loop_
 _atom_site_type_symbol
 _atom_site_label
 _atom_site_symmetry_multiplicity
 _atom_site_fract_x
 _atom_site_fract_y
 _atom_site_fract_z
 _atom_site_occupancy
  Cd  Cd0  1  0.87584000  0.77102000  0.95516000  1.0
  Cd  Cd1  1  0.12416000  0.27102000  0.04484000  1.0
  Cd  Cd2  1  0.37584000  0.77102000  0.54484000  1.0
  Cd  Cd3  1  0.62416000  0.27102000  0.45516000  1.0
  Cd  Cd4  1  0.92479000  0.22189000  0.41580000  1.0
  Cd  Cd5  1  0.07521000  0.72189000  0.58420000  1.0
  Cd  Cd6  1  0.42479000  0.22189000  0.08420000  1.0
  Cd  Cd7  1  0.57521000  0.72189000  0.91580000  1.0
  H  H8  1  0.88534000  0.35804000  0.53256000  1.0
  H  H9  1  0.11466000  0.85804000  0.46744000  1.0
  H  H10  1  0.38534000  0.35804000  0.96744000  1.0
  H  H11  1  0.61466000  0.85804000  0.03256000  1.0
  H  H12  1  0.98911000  0.32065000  0.54097000  1.0
  H  H13  1  0.01089000  0.82065000  0.45903000  1.0
  H  H14  1  0.48911000  0.32065000  0.95903000  1.0
  H  H15  1  0.51089000  0.82065000  0.04097000  1.0
  H  H16  1  0.11941000  0.63164000  0.82082000  1.0
  H  H17  1  0.88059000  0.13164000  0.17918000  1.0
  H  H18  1  0.61941000  0.63164000  0.67918000  1.0
  H  H19  1  0.38059000  0.13164000  0.32082000  1.0
  H  H20  1  0.11629000  0.56716000  0.98553000  1.0
  H  H21  1  0.88371000  0.06716000  0.01447000  1.0
  H  H22  1  0.61629000  0.56716000  0.51447000  1.0
  H  H23  1  0.38371000  0.06716000  0.48553000  1.0
  H  H24  1  0.05633000  0.52143000  0.90747000  1.0
  H  H25  1  0.94367000  0.02143000  0.09253000  1.0
  H  H26  1  0.55633000  0.52143000  0.59253000  1.0
  H  H27  1  0.44367000  0.02143000  0.40747000  1.0
  H  H28  1  0.20456000  0.48696000  0.84341000  1.0
  H  H29  1  0.79544000  0.98696000  0.15659000  1.0
  H  H30  1  0.70456000  0.48696000  0.65659000  1.0
  H  H31  1  0.29544000  0.98696000  0.34341000  1.0
  H  H32  1  0.35394000  0.51052000  0.90738000  1.0
  H  H33  1  0.64606000  0.01052000  0.09262000  1.0
  H  H34  1  0.85394000  0.51052000  0.59262000  1.0
  H  H35  1  0.14606000  0.01052000  0.40738000  1.0
  H  H36  1  0.29814000  0.56214000  0.98527000  1.0
  H  H37  1  0.70186000  0.06214000  0.01473000  1.0
  H  H38  1  0.79814000  0.56214000  0.51473000  1.0
  H  H39  1  0.20186000  0.06214000  0.48527000  1.0
  H  H40  1  0.29636000  0.62366000  0.81961000  1.0
  H  H41  1  0.70364000  0.12366000  0.18039000  1.0
  H  H42  1  0.79636000  0.62366000  0.68039000  1.0
  H  H43  1  0.20364000  0.12366000  0.31961000  1.0
  H  H44  1  0.21401000  0.70977000  0.96210000  1.0
  H  H45  1  0.78599000  0.20977000  0.03790000  1.0
  H  H46  1  0.71401000  0.70977000  0.53790000  1.0
  H  H47  1  0.28599000  0.20977000  0.46210000  1.0
  H  H48  1  0.21413000  0.75419000  0.86960000  1.0
  H  H49  1  0.78587000  0.25419000  0.13040000  1.0
  H  H50  1  0.71413000  0.75419000  0.63040000  1.0
  H  H51  1  0.28588000  0.25419000  0.36960000  1.0
  H  H52  1  0.80736000  0.62200000  0.83775000  1.0
  H  H53  1  0.19264000  0.12200000  0.16225000  1.0
  H  H54  1  0.30736000  0.62200000  0.66225000  1.0
  H  H55  1  0.69264000  0.12200000  0.33775000  1.0
  H  H56  1  0.89534000  0.75313000  0.14042000  1.0
  H  H57  1  0.10466000  0.25313000  0.85958000  1.0
  H  H58  1  0.39534000  0.75313000  0.35958000  1.0
  H  H59  1  0.60466000  0.25313000  0.64042000  1.0
  H  H60  1  0.90222000  0.64016000  0.24273000  1.0
  H  H61  1  0.09778000  0.14016000  0.75727000  1.0
  H  H62  1  0.40222000  0.64015000  0.25727000  1.0
  H  H63  1  0.59778000  0.14016000  0.74273000  1.0
  H  H64  1  0.85775000  0.44802000  0.06658000  1.0
  H  H65  1  0.14225000  0.94802000  0.93342000  1.0
  H  H66  1  0.35775000  0.44802000  0.43342000  1.0
  H  H67  1  0.64225000  0.94802000  0.56658000  1.0
  H  H68  1  0.85722000  0.56906000  0.97231000  1.0
  H  H69  1  0.14278000  0.06906000  0.02770000  1.0
  H  H70  1  0.35722000  0.56906000  0.52769000  1.0
  H  H71  1  0.64278000  0.06906000  0.47230000  1.0
  H  H72  1  0.94769000  0.25453000  0.24594000  1.0
  H  H73  1  0.05231000  0.75453000  0.75406000  1.0
  H  H74  1  0.44769000  0.25453000  0.25406000  1.0
  H  H75  1  0.55231000  0.75453000  0.74594000  1.0
  H  H76  1  0.93129000  0.36443000  0.14334000  1.0
  H  H77  1  0.06871000  0.86443000  0.85666000  1.0
  H  H78  1  0.43129000  0.36443000  0.35666000  1.0
  H  H79  1  0.56871000  0.86443000  0.64334000  1.0
  H  H80  1  0.83283000  0.54301000  0.31657000  1.0
  H  H81  1  0.16717000  0.04301000  0.68343000  1.0
  H  H82  1  0.33283000  0.54301000  0.18343000  1.0
  H  H83  1  0.66717000  0.04301000  0.81657000  1.0
  H  H84  1  0.84896000  0.42287000  0.41036000  1.0
  H  H85  1  0.15104000  0.92287000  0.58964000  1.0
  H  H86  1  0.34896000  0.42287000  0.08964000  1.0
  H  H87  1  0.65104000  0.92287000  0.91036000  1.0
  H  H88  1  0.88721000  0.97374000  0.91146000  1.0
  H  H89  1  0.11279000  0.47374000  0.08854000  1.0
  H  H90  1  0.38721000  0.97374000  0.58854000  1.0
  H  H91  1  0.61279000  0.47374000  0.41146000  1.0
  H  H92  1  0.89866000  0.07282000  0.79896000  1.0
  H  H93  1  0.10134000  0.57282000  0.20104000  1.0
  H  H94  1  0.39866000  0.07282000  0.70104000  1.0
  H  H95  1  0.60134000  0.57282000  0.29896000  1.0
  H  H96  1  0.85018000  0.84934000  0.65518000  1.0
  H  H97  1  0.14982000  0.34934000  0.34482000  1.0
  H  H98  1  0.35018000  0.84934000  0.84482000  1.0
  H  H99  1  0.64982000  0.34934000  0.15518000  1.0
  H  H100  1  0.84235000  0.76056000  0.77354000  1.0
  H  H101  1  0.15765000  0.26056000  0.22646000  1.0
  H  H102  1  0.34235000  0.76056000  0.72646000  1.0
  H  H103  1  0.65765000  0.26056000  0.27354000  1.0
  H  H104  1  0.83474000  0.22731000  0.58218000  1.0
  H  H105  1  0.16526000  0.72731000  0.41782000  1.0
  H  H106  1  0.33474000  0.22730000  0.91782000  1.0
  H  H107  1  0.66526000  0.72731000  0.08218000  1.0
  H  H108  1  0.81852000  0.13778000  0.69972000  1.0
  H  H109  1  0.18148000  0.63778000  0.30028000  1.0
  H  H110  1  0.31852000  0.13778000  0.80028000  1.0
  H  H111  1  0.68148000  0.63778000  0.19972000  1.0
  H  H112  1  0.94752000  0.92689000  0.57603000  1.0
  H  H113  1  0.05248000  0.42689000  0.42397000  1.0
  H  H114  1  0.44752000  0.92689000  0.92397000  1.0
  H  H115  1  0.55248000  0.42689000  0.07603000  1.0
  H  H116  1  0.96365000  0.02710000  0.46620000  1.0
  H  H117  1  0.03635000  0.52710000  0.53380000  1.0
  H  H118  1  0.46365000  0.02710000  0.03380000  1.0
  H  H119  1  0.53635000  0.52710000  0.96620000  1.0
  C  C120  1  0.12284000  0.64424000  0.88279000  1.0
  C  C121  1  0.87716000  0.14424000  0.11720000  1.0
  C  C122  1  0.62284000  0.64424000  0.61720000  1.0
  C  C123  1  0.37716000  0.14424000  0.38280000  1.0
  C  C124  1  0.11958000  0.55587000  0.92334000  1.0
  C  C125  1  0.88042000  0.05587000  0.07666000  1.0
  C  C126  1  0.61958000  0.55587000  0.57666000  1.0
  C  C127  1  0.38042000  0.05587000  0.42334000  1.0
  C  C128  1  0.20461000  0.50068000  0.90538000  1.0
  C  C129  1  0.79539000  0.00068000  0.09462000  1.0
  C  C130  1  0.70461000  0.50068000  0.59462000  1.0
  C  C131  1  0.29539000  0.00068000  0.40538000  1.0
  C  C132  1  0.29379000  0.54985000  0.92332000  1.0
  C  C133  1  0.70621000  0.04985000  0.07668000  1.0
  C  C134  1  0.79379000  0.54985000  0.57668000  1.0
  C  C135  1  0.20621000  0.04985000  0.42332000  1.0
  C  C136  1  0.29641000  0.63746000  0.88129000  1.0
  C  C137  1  0.70359000  0.13746000  0.11871000  1.0
  C  C138  1  0.79641000  0.63746000  0.61871000  1.0
  C  C139  1  0.20359000  0.13746000  0.38129000  1.0
  C  C140  1  0.21211000  0.69260000  0.90124000  1.0
  C  C141  1  0.78788000  0.19260000  0.09876000  1.0
  C  C142  1  0.71212000  0.69260000  0.59876000  1.0
  C  C143  1  0.28789000  0.19260000  0.40124000  1.0
  C  C144  1  0.03591000  0.69437000  0.90410000  1.0
  C  C145  1  0.96409000  0.19437000  0.09590000  1.0
  C  C146  1  0.53591000  0.69437000  0.59590000  1.0
  C  C147  1  0.46409000  0.19437000  0.40410000  1.0
  C  C148  1  0.20097000  0.41197000  0.94460000  1.0
  C  C149  1  0.79903000  0.91197000  0.05540000  1.0
  C  C150  1  0.70097000  0.41197000  0.55540000  1.0
  C  C151  1  0.29903000  0.91197000  0.44460000  1.0
  C  C152  1  0.38791000  0.68151000  0.89979000  1.0
  C  C153  1  0.61209000  0.18151000  0.10021000  1.0
  C  C154  1  0.88791000  0.68151000  0.60021000  1.0
  C  C155  1  0.11209000  0.18151000  0.39979000  1.0
  C  C156  1  0.73995000  0.64755000  0.85762000  1.0
  C  C157  1  0.26005000  0.14755000  0.14238000  1.0
  C  C158  1  0.23995000  0.64755000  0.64238000  1.0
  C  C159  1  0.76005000  0.14755000  0.35761000  1.0
  C  C160  1  0.88715000  0.68449000  0.12716000  1.0
  C  C161  1  0.11285000  0.18449000  0.87283000  1.0
  C  C162  1  0.38715000  0.68449000  0.37283000  1.0
  C  C163  1  0.61285000  0.18449000  0.62717000  1.0
  C  C164  1  0.88992000  0.62136000  0.18369000  1.0
  C  C165  1  0.11008000  0.12136000  0.81631000  1.0
  C  C166  1  0.38992000  0.62136000  0.31631000  1.0
  C  C167  1  0.61008000  0.12136000  0.68369000  1.0
  C  C168  1  0.87871000  0.53398000  0.16353000  1.0
  C  C169  1  0.12129000  0.03398000  0.83647000  1.0
  C  C170  1  0.37871000  0.53398000  0.33647000  1.0
  C  C171  1  0.62129000  0.03398000  0.66353000  1.0
  C  C172  1  0.86638000  0.51458000  0.08600000  1.0
  C  C173  1  0.13362000  0.01458000  0.91400000  1.0
  C  C174  1  0.36638000  0.51458000  0.41400000  1.0
  C  C175  1  0.63362000  0.01458000  0.58600000  1.0
  C  C176  1  0.86513000  0.58162000  0.03314000  1.0
  C  C177  1  0.13487000  0.08162000  0.96686000  1.0
  C  C178  1  0.36514000  0.58162000  0.46686000  1.0
  C  C179  1  0.63486000  0.08162000  0.53314000  1.0
  C  C180  1  0.92109000  0.31919000  0.25822000  1.0
  C  C181  1  0.07891000  0.81919000  0.74178000  1.0
  C  C182  1  0.42109000  0.31919000  0.24178000  1.0
  C  C183  1  0.57891000  0.81919000  0.75822000  1.0
  C  C184  1  0.91225000  0.38152000  0.20158000  1.0
  C  C185  1  0.08775000  0.88152000  0.79842000  1.0
  C  C186  1  0.41225000  0.38152000  0.29842000  1.0
  C  C187  1  0.58775000  0.88152000  0.70158000  1.0
  C  C188  1  0.88235000  0.46485000  0.22143000  1.0
  C  C189  1  0.11765000  0.96485000  0.77857000  1.0
  C  C190  1  0.38235000  0.46485000  0.27857000  1.0
  C  C191  1  0.61765000  0.96485000  0.72143000  1.0
  C  C192  1  0.85866000  0.48026000  0.29786000  1.0
  C  C193  1  0.14134000  0.98026000  0.70214000  1.0
  C  C194  1  0.35866000  0.48026000  0.20214000  1.0
  C  C195  1  0.64134000  0.98026000  0.79786000  1.0
  C  C196  1  0.86732000  0.41370000  0.35063000  1.0
  C  C197  1  0.13268000  0.91370000  0.64937000  1.0
  C  C198  1  0.36732000  0.41370000  0.14937000  1.0
  C  C199  1  0.63268000  0.91370000  0.85063000  1.0
  C  C200  1  0.87798000  0.94980000  0.85336000  1.0
  C  C201  1  0.12202000  0.44980000  0.14665000  1.0
  C  C202  1  0.37798000  0.94980000  0.64664000  1.0
  C  C203  1  0.62202000  0.44980000  0.35336000  1.0
  C  C204  1  0.88386000  0.00429000  0.79049000  1.0
  C  C205  1  0.11614000  0.50429000  0.20951000  1.0
  C  C206  1  0.38386000  0.00429000  0.70951000  1.0
  C  C207  1  0.61614000  0.50429000  0.29049000  1.0
  C  C208  1  0.87439000  0.96939000  0.71696000  1.0
  C  C209  1  0.12561000  0.46939000  0.28304000  1.0
  C  C210  1  0.37439000  0.96939000  0.78304000  1.0
  C  C211  1  0.62561000  0.46939000  0.21696000  1.0
  C  C212  1  0.85819000  0.88018000  0.71070000  1.0
  C  C213  1  0.14181000  0.38018000  0.28930000  1.0
  C  C214  1  0.35820000  0.88018000  0.78930000  1.0
  C  C215  1  0.64181000  0.38018000  0.21070000  1.0
  C  C216  1  0.85278000  0.83039000  0.77666000  1.0
  C  C217  1  0.14722000  0.33039000  0.22334000  1.0
  C  C218  1  0.35278000  0.83039000  0.72334000  1.0
  C  C219  1  0.64722000  0.33039000  0.27666000  1.0
  C  C220  1  0.86152000  0.16122000  0.58450000  1.0
  C  C221  1  0.13848000  0.66123000  0.41550000  1.0
  C  C222  1  0.36152000  0.16122000  0.91550000  1.0
  C  C223  1  0.63848000  0.66123000  0.08450000  1.0
  C  C224  1  0.85207000  0.11067000  0.64953000  1.0
  C  C225  1  0.14793000  0.61067000  0.35047000  1.0
  C  C226  1  0.35207000  0.11067000  0.85047000  1.0
  C  C227  1  0.64793000  0.61067000  0.14953000  1.0
  C  C228  1  0.88274000  0.02454000  0.64867000  1.0
  C  C229  1  0.11726000  0.52454000  0.35133000  1.0
  C  C230  1  0.38274000  0.02454000  0.85133000  1.0
  C  C231  1  0.61726000  0.52454000  0.14867000  1.0
  C  C232  1  0.92188000  0.99298000  0.58095000  1.0
  C  C233  1  0.07812000  0.49298000  0.41905000  1.0
  C  C234  1  0.42188000  0.99298000  0.91905000  1.0
  C  C235  1  0.57812000  0.49298000  0.08095000  1.0
  C  C236  1  0.93139000  0.04870000  0.51912000  1.0
  C  C237  1  0.06861000  0.54870000  0.48088000  1.0
  C  C238  1  0.43139000  0.04870000  0.98088000  1.0
  C  C239  1  0.56861000  0.54870000  0.01913000  1.0
  N  N240  1  0.87471000  0.66509000  0.05326000  1.0
  N  N241  1  0.12529000  0.16509000  0.94674000  1.0
  N  N242  1  0.37471000  0.66509000  0.44674000  1.0
  N  N243  1  0.62529000  0.16509000  0.55326000  1.0
  N  N244  1  0.89950000  0.33515000  0.33141000  1.0
  N  N245  1  0.10050000  0.83515000  0.66859000  1.0
  N  N246  1  0.39950000  0.33515000  0.16859000  1.0
  N  N247  1  0.60050000  0.83515000  0.83141000  1.0
  N  N248  1  0.86256000  0.86435000  0.84673000  1.0
  N  N249  1  0.13744000  0.36435000  0.15328000  1.0
  N  N250  1  0.36256000  0.86435000  0.65327000  1.0
  N  N251  1  0.63744000  0.36435000  0.34673000  1.0
  N  N252  1  0.90221000  0.13127000  0.52080000  1.0
  N  N253  1  0.09779000  0.63127000  0.47920000  1.0
  N  N254  1  0.40221000  0.13127000  0.97920000  1.0
  N  N255  1  0.59779000  0.63127000  0.02080000  1.0
  O  O256  1  0.95834000  0.66393000  0.88211000  1.0
  O  O257  1  0.04166000  0.16393000  0.11789000  1.0
  O  O258  1  0.45834000  0.66393000  0.61789000  1.0
  O  O259  1  0.54166000  0.16393000  0.38211000  1.0
  O  O260  1  0.04223000  0.76327000  0.94424000  1.0
  O  O261  1  0.95777000  0.26327000  0.05576000  1.0
  O  O262  1  0.54223000  0.76327000  0.55576000  1.0
  O  O263  1  0.45777000  0.26327000  0.44424000  1.0
  O  O264  1  0.12162000  0.38760000  0.96870000  1.0
  O  O265  1  0.87838000  0.88760000  0.03130000  1.0
  O  O266  1  0.62162000  0.38760000  0.53130000  1.0
  O  O267  1  0.37838000  0.88760000  0.46870000  1.0
  O  O268  1  0.27319000  0.36617000  0.95134000  1.0
  O  O269  1  0.72681000  0.86617000  0.04866000  1.0
  O  O270  1  0.77319000  0.36617000  0.54866000  1.0
  O  O271  1  0.22681000  0.86617000  0.45134000  1.0
  O  O272  1  0.45332000  0.66944000  0.85107000  1.0
  O  O273  1  0.54668000  0.16944000  0.14893000  1.0
  O  O274  1  0.95332000  0.66944000  0.64893000  1.0
  O  O275  1  0.04668000  0.16944000  0.35107000  1.0
  O  O276  1  0.39835000  0.72379000  0.96103000  1.0
  O  O277  1  0.60165000  0.22379000  0.03897000  1.0
  O  O278  1  0.89835000  0.72379000  0.53897000  1.0
  O  O279  1  0.10165000  0.22379000  0.46103000  1.0
  O  O280  1  0.74263000  0.70686000  0.90965000  1.0
  O  O281  1  0.25737000  0.20686000  0.09035000  1.0
  O  O282  1  0.24263000  0.70686000  0.59035000  1.0
  O  O283  1  0.75737000  0.20686000  0.40965000  1.0
  O  O284  1  0.66617000  0.61934000  0.83004000  1.0
  O  O285  1  0.33383000  0.11934000  0.16996000  1.0
  O  O286  1  0.16617000  0.61934000  0.66996000  1.0
  O  O287  1  0.83383000  0.11934000  0.33003000  1.0
  O  O288  1  0.94417000  0.34375000  0.50521000  1.0
  O  O289  1  0.05583000  0.84374000  0.49479000  1.0
  O  O290  1  0.44417000  0.34375000  0.99479000  1.0
  O  O291  1  0.55583000  0.84374000  0.00521000  1.0
