# generated using pymatgen
data_ZnH12C17N2O5
_symmetry_space_group_name_H-M   'P 1'
_cell_length_a   9.84228000
_cell_length_b   11.18577856
_cell_length_c   15.61780000
_cell_angle_alpha   90.00071691
_cell_angle_beta   90.00070000
_cell_angle_gamma   64.61475775
_symmetry_Int_Tables_number   1
_chemical_formula_structural   ZnH12C17N2O5
_chemical_formula_sum   'Zn4 H48 C68 N8 O20'
_cell_volume   1553.40202562
_cell_formula_units_Z   4
loop_
 _symmetry_equiv_pos_site_id
 _symmetry_equiv_pos_as_xyz
  1  'x, y, z'
loop_
 _atom_site_type_symbol
 _atom_site_label
 _atom_site_symmetry_multiplicity
 _atom_site_fract_x
 _atom_site_fract_y
 _atom_site_fract_z
 _atom_site_occupancy
  Zn  Zn0  1  0.02049000  0.72881000  0.32442000  1.0
  Zn  Zn1  1  0.02049000  0.22881000  0.17558000  1.0
  Zn  Zn2  1  0.97951000  0.27118000  0.67558000  1.0
  Zn  Zn3  1  0.97949000  0.77120000  0.82442000  1.0
  H  H4  1  0.69460000  0.74505000  0.29876000  1.0
  H  H5  1  0.69462000  0.24504000  0.20123000  1.0
  H  H6  1  0.30539000  0.25494000  0.70124000  1.0
  H  H7  1  0.30539000  0.75495000  0.79876000  1.0
  H  H8  1  0.48653000  0.75751000  0.39586000  1.0
  H  H9  1  0.48654000  0.25749000  0.10413000  1.0
  H  H10  1  0.51347000  0.24249000  0.60415000  1.0
  H  H11  1  0.51346000  0.74250000  0.89586000  1.0
  H  H12  1  0.53879000  0.72391000  0.55481000  1.0
  H  H13  1  0.53882000  0.22388000  0.94518000  1.0
  H  H14  1  0.46120000  0.27610000  0.44519000  1.0
  H  H15  1  0.46118000  0.77612000  0.05482000  1.0
  H  H16  1  0.79767000  0.66498000  0.60719000  1.0
  H  H17  1  0.79771000  0.16494000  0.89281000  1.0
  H  H18  1  0.20231000  0.33504000  0.39282000  1.0
  H  H19  1  0.20230000  0.83506000  0.10719000  1.0
  H  H20  1  0.97901000  0.39447000  0.36006000  1.0
  H  H21  1  0.97902000  0.89447000  0.13995000  1.0
  H  H22  1  0.02098000  0.60553000  0.63995000  1.0
  H  H23  1  0.02099000  0.10553000  0.86005000  1.0
  H  H24  1  0.72057000  0.43666000  0.32680000  1.0
  H  H25  1  0.72056000  0.93665000  0.17321000  1.0
  H  H26  1  0.27942000  0.56335000  0.67321000  1.0
  H  H27  1  0.27944000  0.06335000  0.82680000  1.0
  H  H28  1  0.55770000  0.40914000  0.44396000  1.0
  H  H29  1  0.55770000  0.90913000  0.05604000  1.0
  H  H30  1  0.44229000  0.59088000  0.55605000  1.0
  H  H31  1  0.44230000  0.09087000  0.94396000  1.0
  H  H32  1  0.67166000  0.33992000  0.59082000  1.0
  H  H33  1  0.67165000  0.83992000  0.90918000  1.0
  H  H34  1  0.32834000  0.66009000  0.40919000  1.0
  H  H35  1  0.32835000  0.16008000  0.09082000  1.0
  H  H36  1  0.32697000  0.47937000  0.11476000  1.0
  H  H37  1  0.32696000  0.97938000  0.38524000  1.0
  H  H38  1  0.67303000  0.52063000  0.88525000  1.0
  H  H39  1  0.67303000  0.02063000  0.61475000  1.0
  H  H40  1  0.37723000  0.45953000  0.95768000  1.0
  H  H41  1  0.37723000  0.95953000  0.54232000  1.0
  H  H42  1  0.62278000  0.54046000  0.04232000  1.0
  H  H43  1  0.62277000  0.04047000  0.45768000  1.0
  H  H44  1  0.77514000  0.18468000  0.73528000  1.0
  H  H45  1  0.77513000  0.68468000  0.76472000  1.0
  H  H46  1  0.22486000  0.81532000  0.26472000  1.0
  H  H47  1  0.22486000  0.31532000  0.23528000  1.0
  H  H48  1  0.70478000  0.33977000  0.76425000  1.0
  H  H49  1  0.70476000  0.83977000  0.73575000  1.0
  H  H50  1  0.29523000  0.66022000  0.23575000  1.0
  H  H51  1  0.29523000  0.16022000  0.26425000  1.0
  C  C52  1  0.71078000  0.73277000  0.36778000  1.0
  C  C53  1  0.71080000  0.23275000  0.13221000  1.0
  C  C54  1  0.28922000  0.26723000  0.63222000  1.0
  C  C55  1  0.28920000  0.76725000  0.86778000  1.0
  C  C56  1  0.59640000  0.73779000  0.42222000  1.0
  C  C57  1  0.59643000  0.23776000  0.07777000  1.0
  C  C58  1  0.40359000  0.26222000  0.57779000  1.0
  C  C59  1  0.40358000  0.76223000  0.92223000  1.0
  C  C60  1  0.62650000  0.71669000  0.50969000  1.0
  C  C61  1  0.62653000  0.21666000  0.99029000  1.0
  C  C62  1  0.37349000  0.28332000  0.49031000  1.0
  C  C63  1  0.37347000  0.78334000  0.00970000  1.0
  C  C64  1  0.77057000  0.68682000  0.53974000  1.0
  C  C65  1  0.77060000  0.18679000  0.96025000  1.0
  C  C66  1  0.22943000  0.31319000  0.46026000  1.0
  C  C67  1  0.22941000  0.81321000  0.03975000  1.0
  C  C68  1  0.87950000  0.68463000  0.48141000  1.0
  C  C69  1  0.87951000  0.18462000  0.01858000  1.0
  C  C70  1  0.12050000  0.31537000  0.51859000  1.0
  C  C71  1  0.12049000  0.81538000  0.98142000  1.0
  C  C72  1  0.03482000  0.65706000  0.50683000  1.0
  C  C73  1  0.03484000  0.15706000  0.99317000  1.0
  C  C74  1  0.96517000  0.34294000  0.49318000  1.0
  C  C75  1  0.96516000  0.84295000  0.00683000  1.0
  C  C76  1  0.91016000  0.38188000  0.41049000  1.0
  C  C77  1  0.91014000  0.88188000  0.08951000  1.0
  C  C78  1  0.08984000  0.61812000  0.58951000  1.0
  C  C79  1  0.08985000  0.11813000  0.91048000  1.0
  C  C80  1  0.76265000  0.40566000  0.39145000  1.0
  C  C81  1  0.76264000  0.90565000  0.10855000  1.0
  C  C82  1  0.23734000  0.59435000  0.60855000  1.0
  C  C83  1  0.23736000  0.09435000  0.89145000  1.0
  C  C84  1  0.67387000  0.39049000  0.45595000  1.0
  C  C85  1  0.67385000  0.89050000  0.04405000  1.0
  C  C86  1  0.32612000  0.60952000  0.54406000  1.0
  C  C87  1  0.32614000  0.10951000  0.95595000  1.0
  C  C88  1  0.73503000  0.35251000  0.53728000  1.0
  C  C89  1  0.73502000  0.85252000  0.96272000  1.0
  C  C90  1  0.26496000  0.64750000  0.46272000  1.0
  C  C91  1  0.26498000  0.14748000  0.03728000  1.0
  C  C92  1  0.08412000  0.53842000  0.19652000  1.0
  C  C93  1  0.08410000  0.03843000  0.30348000  1.0
  C  C94  1  0.91589000  0.46157000  0.80348000  1.0
  C  C95  1  0.91589000  0.96157000  0.69652000  1.0
  C  C96  1  0.10089000  0.50275000  0.10273000  1.0
  C  C97  1  0.10088000  0.00276000  0.39726000  1.0
  C  C98  1  0.89912000  0.49725000  0.89727000  1.0
  C  C99  1  0.89911000  0.99725000  0.60273000  1.0
  C  C100  1  0.24040000  0.48162000  0.07036000  1.0
  C  C101  1  0.24039000  0.98163000  0.42964000  1.0
  C  C102  1  0.75961000  0.51838000  0.92964000  1.0
  C  C103  1  0.75961000  0.01838000  0.57035000  1.0
  C  C104  1  0.26894000  0.47033000  0.98226000  1.0
  C  C105  1  0.26894000  0.97033000  0.51774000  1.0
  C  C106  1  0.73107000  0.52967000  0.01774000  1.0
  C  C107  1  0.73106000  0.02967000  0.48226000  1.0
  C  C108  1  0.15882000  0.47945000  0.92429000  1.0
  C  C109  1  0.15884000  0.97944000  0.57571000  1.0
  C  C110  1  0.84118000  0.52055000  0.07571000  1.0
  C  C111  1  0.84117000  0.02055000  0.42429000  1.0
  C  C112  1  0.19715000  0.48703000  0.83155000  1.0
  C  C113  1  0.19717000  0.98701000  0.66845000  1.0
  C  C114  1  0.80285000  0.51297000  0.16846000  1.0
  C  C115  1  0.80284000  0.01298000  0.33154000  1.0
  C  C116  1  0.01506000  0.49375000  0.95424000  1.0
  C  C117  1  0.01506000  0.99375000  0.54576000  1.0
  C  C118  1  0.98495000  0.50625000  0.04576000  1.0
  C  C119  1  0.98494000  0.00625000  0.45424000  1.0
  N  N120  1  0.84759000  0.70915000  0.39746000  1.0
  N  N121  1  0.84761000  0.20913000  0.10254000  1.0
  N  N122  1  0.15241000  0.29085000  0.60255000  1.0
  N  N123  1  0.15239000  0.79087000  0.89746000  1.0
  N  N124  1  0.12261000  0.67102000  0.44439000  1.0
  N  N125  1  0.12263000  0.17101000  0.05562000  1.0
  N  N126  1  0.87739000  0.32898000  0.55561000  1.0
  N  N127  1  0.87737000  0.82899000  0.94439000  1.0
  O  O128  1  0.98284000  0.65342000  0.21485000  1.0
  O  O129  1  0.98282000  0.15342000  0.28514000  1.0
  O  O130  1  0.01717000  0.34658000  0.78515000  1.0
  O  O131  1  0.01716000  0.84658000  0.71485000  1.0
  O  O132  1  0.18119000  0.46428000  0.24986000  1.0
  O  O133  1  0.18117000  0.96429000  0.25014000  1.0
  O  O134  1  0.81881000  0.53572000  0.75015000  1.0
  O  O135  1  0.81881000  0.03572000  0.74985000  1.0
  O  O136  1  0.32196000  0.40800000  0.80332000  1.0
  O  O137  1  0.32197000  0.90797000  0.69667000  1.0
  O  O138  1  0.67804000  0.59201000  0.19668000  1.0
  O  O139  1  0.67805000  0.09202000  0.30332000  1.0
  O  O140  1  0.09683000  0.58319000  0.78762000  1.0
  O  O141  1  0.09687000  0.08316000  0.71238000  1.0
  O  O142  1  0.90317000  0.41681000  0.21238000  1.0
  O  O143  1  0.90315000  0.91682000  0.28762000  1.0
  O  O144  1  0.76544000  0.27737000  0.72103000  1.0
  O  O145  1  0.76542000  0.77738000  0.77897000  1.0
  O  O146  1  0.23457000  0.72262000  0.27897000  1.0
  O  O147  1  0.23457000  0.22262000  0.22103000  1.0
