# generated using pymatgen
data_HgH8C6(SN3)2
_symmetry_space_group_name_H-M   'P 1'
_cell_length_a   8.41966000
_cell_length_b   10.06200000
_cell_length_c   12.92330000
_cell_angle_alpha   89.99980000
_cell_angle_beta   90.00010000
_cell_angle_gamma   90.00000000
_symmetry_Int_Tables_number   1
_chemical_formula_structural   HgH8C6(SN3)2
_chemical_formula_sum   'Hg4 H32 C24 S8 N24'
_cell_volume   1094.84412788
_cell_formula_units_Z   4
loop_
 _symmetry_equiv_pos_site_id
 _symmetry_equiv_pos_as_xyz
  1  'x, y, z'
loop_
 _atom_site_type_symbol
 _atom_site_label
 _atom_site_symmetry_multiplicity
 _atom_site_fract_x
 _atom_site_fract_y
 _atom_site_fract_z
 _atom_site_occupancy
  Hg  Hg0  1  0.75000000  0.56994000  0.50000000  1.0
  Hg  Hg1  1  0.25000000  0.93006000  0.00000000  1.0
  Hg  Hg2  1  0.25000000  0.43007000  0.50000000  1.0
  Hg  Hg3  1  0.75000000  0.06994000  0.00000000  1.0
  H  H4  1  0.85840000  0.00478000  0.41389000  1.0
  H  H5  1  0.14160000  0.49522000  0.91389000  1.0
  H  H6  1  0.35840000  0.49522000  0.08611000  1.0
  H  H7  1  0.64160000  0.00478000  0.58611000  1.0
  H  H8  1  0.14160000  0.99522000  0.58611000  1.0
  H  H9  1  0.85840000  0.50478000  0.08611000  1.0
  H  H10  1  0.64160000  0.50478000  0.91389000  1.0
  H  H11  1  0.35840000  0.99522000  0.41389000  1.0
  H  H12  1  0.63700000  0.11027000  0.30710000  1.0
  H  H13  1  0.36300000  0.38973000  0.80710000  1.0
  H  H14  1  0.13700000  0.38973000  0.19290000  1.0
  H  H15  1  0.86299000  0.11027000  0.69290000  1.0
  H  H16  1  0.36300000  0.88973000  0.69290000  1.0
  H  H17  1  0.63700000  0.61026000  0.19290000  1.0
  H  H18  1  0.86300000  0.61027000  0.80710000  1.0
  H  H19  1  0.13700000  0.88973000  0.30710000  1.0
  H  H20  1  0.67771000  0.26954000  0.25084000  1.0
  H  H21  1  0.32229000  0.23046000  0.75084000  1.0
  H  H22  1  0.17771000  0.23046000  0.24916000  1.0
  H  H23  1  0.82229000  0.26954000  0.74916000  1.0
  H  H24  1  0.32229000  0.73046000  0.74916000  1.0
  H  H25  1  0.67771000  0.76954000  0.24916000  1.0
  H  H26  1  0.82229000  0.76954000  0.75084000  1.0
  H  H27  1  0.17771000  0.73046000  0.25084000  1.0
  H  H28  1  0.58559000  0.26035000  0.37496000  1.0
  H  H29  1  0.41441000  0.23965000  0.87496000  1.0
  H  H30  1  0.08559000  0.23966000  0.12504000  1.0
  H  H31  1  0.91441000  0.26035000  0.62504000  1.0
  H  H32  1  0.41441000  0.73966000  0.62504000  1.0
  H  H33  1  0.58559000  0.76035000  0.12504000  1.0
  H  H34  1  0.91441000  0.76035000  0.87496000  1.0
  H  H35  1  0.08559000  0.73965000  0.37496000  1.0
  C  C36  1  0.92673000  0.31964000  0.38601000  1.0
  C  C37  1  0.07327000  0.18036000  0.88601000  1.0
  C  C38  1  0.42672000  0.18036000  0.11399000  1.0
  C  C39  1  0.57327000  0.31964000  0.61399000  1.0
  C  C40  1  0.07327000  0.68036000  0.61399000  1.0
  C  C41  1  0.92673000  0.81964000  0.11398000  1.0
  C  C42  1  0.57327000  0.81964000  0.88601000  1.0
  C  C43  1  0.42673000  0.68036000  0.38602000  1.0
  C  C44  1  0.90712000  0.10460000  0.41077000  1.0
  C  C45  1  0.09288000  0.39539000  0.91077000  1.0
  C  C46  1  0.40712000  0.39540000  0.08923000  1.0
  C  C47  1  0.59288000  0.10460000  0.58923000  1.0
  C  C48  1  0.09288000  0.89540000  0.58923000  1.0
  C  C49  1  0.90712000  0.60460000  0.08923000  1.0
  C  C50  1  0.59288000  0.60460000  0.91077000  1.0
  C  C51  1  0.40712000  0.89540000  0.41077000  1.0
  C  C52  1  0.67211000  0.21302000  0.32323000  1.0
  C  C53  1  0.32789000  0.28698000  0.82323000  1.0
  C  C54  1  0.17211000  0.28698000  0.17677000  1.0
  C  C55  1  0.82789000  0.21302000  0.67677000  1.0
  C  C56  1  0.32790000  0.78698000  0.67677000  1.0
  C  C57  1  0.67211000  0.71302000  0.17677000  1.0
  C  C58  1  0.82789000  0.71302000  0.82323000  1.0
  C  C59  1  0.17211000  0.78698000  0.32323000  1.0
  S  S60  1  0.88953000  0.47980000  0.34538000  1.0
  S  S61  1  0.11047000  0.02020000  0.84538000  1.0
  S  S62  1  0.38953000  0.02020000  0.15462000  1.0
  S  S63  1  0.61047000  0.47980000  0.65462000  1.0
  S  S64  1  0.11047000  0.52020000  0.65462000  1.0
  S  S65  1  0.88953000  0.97980000  0.15461000  1.0
  S  S66  1  0.61047000  0.97980000  0.84538000  1.0
  S  S67  1  0.38953000  0.52020000  0.34539000  1.0
  N  N68  1  0.05856000  0.27533000  0.43265000  1.0
  N  N69  1  0.94144000  0.22467000  0.93265000  1.0
  N  N70  1  0.55856000  0.22467000  0.06735000  1.0
  N  N71  1  0.44144000  0.27533000  0.56735000  1.0
  N  N72  1  0.94144000  0.72467000  0.56735000  1.0
  N  N73  1  0.05856000  0.77533000  0.06735000  1.0
  N  N74  1  0.44144000  0.77533000  0.93265000  1.0
  N  N75  1  0.55856000  0.72467000  0.43265000  1.0
  N  N76  1  0.04655000  0.14078000  0.44848000  1.0
  N  N77  1  0.95345000  0.35921000  0.94848000  1.0
  N  N78  1  0.54655000  0.35922000  0.05152000  1.0
  N  N79  1  0.45345000  0.14079000  0.55152000  1.0
  N  N80  1  0.95345000  0.85921000  0.55152000  1.0
  N  N81  1  0.04655000  0.64078000  0.05152000  1.0
  N  N82  1  0.45345000  0.64078000  0.94848000  1.0
  N  N83  1  0.54655000  0.85922000  0.44848000  1.0
  N  N84  1  0.82856000  0.21173000  0.37094000  1.0
  N  N85  1  0.17144000  0.28826000  0.87093000  1.0
  N  N86  1  0.32856000  0.28826000  0.12906000  1.0
  N  N87  1  0.67144000  0.21174000  0.62906000  1.0
  N  N88  1  0.17144000  0.78826000  0.62907000  1.0
  N  N89  1  0.82856000  0.71174000  0.12906000  1.0
  N  N90  1  0.67144000  0.71174000  0.87093000  1.0
  N  N91  1  0.32856000  0.78826000  0.37094000  1.0
