# generated using pymatgen
data_Cd3H22C24(N2O9)2
_symmetry_space_group_name_H-M   'P 1'
_cell_length_a   6.32913000
_cell_length_b   9.67173000
_cell_length_c   12.56760000
_cell_angle_alpha   104.10900000
_cell_angle_beta   98.11310000
_cell_angle_gamma   97.76180000
_symmetry_Int_Tables_number   1
_chemical_formula_structural   Cd3H22C24(N2O9)2
_chemical_formula_sum   'Cd3 H22 C24 N4 O18'
_cell_volume   727.03854613
_cell_formula_units_Z   1
loop_
 _symmetry_equiv_pos_site_id
 _symmetry_equiv_pos_as_xyz
  1  'x, y, z'
loop_
 _atom_site_type_symbol
 _atom_site_label
 _atom_site_symmetry_multiplicity
 _atom_site_fract_x
 _atom_site_fract_y
 _atom_site_fract_z
 _atom_site_occupancy
  Cd  Cd0  1  0.49171000  0.94760000  0.17277000  1.0
  Cd  Cd1  1  0.50829000  0.05240000  0.82723000  1.0
  Cd  Cd2  1  0.50000000  0.50000000  0.50000000  1.0
  H  H3  1  0.05194000  0.60383000  0.33327000  1.0
  H  H4  1  0.94806000  0.39617000  0.66666667  1.0
  H  H5  1  0.22124000  0.34114000  0.97301000  1.0
  H  H6  1  0.77875000  0.65886000  0.02699000  1.0
  H  H7  1  0.50032000  0.53607000  0.10555000  1.0
  H  H8  1  0.49968000  0.46393000  0.89445000  1.0
  H  H9  1  0.77759000  0.40534000  0.20277000  1.0
  H  H10  1  0.22241000  0.59467000  0.79724000  1.0
  H  H11  1  0.35098000  0.21666000  0.22105000  1.0
  H  H12  1  0.64902000  0.78334000  0.77895000  1.0
  H  H13  1  0.47608000  0.20654000  0.11414000  1.0
  H  H14  1  0.52392000  0.79346000  0.88586000  1.0
  H  H15  1  0.91977000  0.92310000  0.10972000  1.0
  H  H16  1  0.08023000  0.07690000  0.89028000  1.0
  H  H17  1  0.94207000  0.03493000  0.22329000  1.0
  H  H18  1  0.05793000  0.96507000  0.77671000  1.0
  H  H19  1  0.77408000  0.30244000  0.40579000  1.0
  H  H20  1  0.22592000  0.69756000  0.59421000  1.0
  H  H21  1  0.91061000  0.41996000  0.51004000  1.0
  H  H22  1  0.08939000  0.58004000  0.48996000  1.0
  H  H23  1  0.84773000  0.05073000  0.58935000  1.0
  H  H24  1  0.15227000  0.94927000  0.41065000  1.0
  C  C25  1  0.81518000  0.24738000  0.99642000  1.0
  C  C26  1  0.18482000  0.75263000  0.00358000  1.0
  C  C27  1  0.45527000  0.69399000  0.31320000  1.0
  C  C28  1  0.54473000  0.30601000  0.68680000  1.0
  C  C29  1  0.73578000  0.05623000  0.43538000  1.0
  C  C30  1  0.26422000  0.94377000  0.56462000  1.0
  C  C31  1  0.29522000  0.58132000  0.22896000  1.0
  C  C32  1  0.70478000  0.41868000  0.77104000  1.0
  C  C33  1  0.09056000  0.54355000  0.25537000  1.0
  C  C34  1  0.90943000  0.45645000  0.74463000  1.0
  C  C35  1  0.98234000  0.36034000  0.07937000  1.0
  C  C36  1  0.01766000  0.63966000  0.92063000  1.0
  C  C37  1  0.18621000  0.39840000  0.05271000  1.0
  C  C38  1  0.81379000  0.60160000  0.94729000  1.0
  C  C39  1  0.34178000  0.50814000  0.12664000  1.0
  C  C40  1  0.65822000  0.49185000  0.87336000  1.0
  C  C41  1  0.64999000  0.90139000  0.40980000  1.0
  C  C42  1  0.35001000  0.09861000  0.59020000  1.0
  C  C43  1  0.65085000  0.80505000  0.47699000  1.0
  C  C44  1  0.34914000  0.19495000  0.52301000  1.0
  C  C45  1  0.74090000  0.82443000  0.59591000  1.0
  C  C46  1  0.25910000  0.17557000  0.40409000  1.0
  C  C47  1  0.93558000  0.43399000  0.18144000  1.0
  C  C48  1  0.06442000  0.56601000  0.81856000  1.0
  N  N49  1  0.52847000  0.82885000  0.30677000  1.0
  N  N50  1  0.47153000  0.17115000  0.69323000  1.0
  N  N51  1  0.52863000  0.67602000  0.41450000  1.0
  N  N52  1  0.47136000  0.32398000  0.58551000  1.0
  O  O53  1  0.38125000  0.15257000  0.15262000  1.0
  O  O54  1  0.61875000  0.84743000  0.84738000  1.0
  O  O55  1  0.81308000  0.41016000  0.44004000  1.0
  O  O56  1  0.18692000  0.58983000  0.55996000  1.0
  O  O57  1  0.84403000  0.99753000  0.15011000  1.0
  O  O58  1  0.15597000  0.00248000  0.84989000  1.0
  O  O59  1  0.87065000  0.17370000  0.90916000  1.0
  O  O60  1  0.12935000  0.82631000  0.09084000  1.0
  O  O61  1  0.61708000  0.23018000  0.00978000  1.0
  O  O62  1  0.38292000  0.76982000  0.99022000  1.0
  O  O63  1  0.84344000  0.12356000  0.53595000  1.0
  O  O64  1  0.15657000  0.87644000  0.46405000  1.0
  O  O65  1  0.70263000  0.12342000  0.36242000  1.0
  O  O66  1  0.29737000  0.87658000  0.63758000  1.0
  O  O67  1  0.84360000  0.95079000  0.65305000  1.0
  O  O68  1  0.15640000  0.04921000  0.34695000  1.0
  O  O69  1  0.70879000  0.71789000  0.63757000  1.0
  O  O70  1  0.29121000  0.28211000  0.36243000  1.0
