# generated using pymatgen
data_Al2H9C24S2Cl(O5F)2
_symmetry_space_group_name_H-M   'P 1'
_cell_length_a   6.65498000
_cell_length_b   12.66304273
_cell_length_c   17.71770000
_cell_angle_alpha   90.70113927
_cell_angle_beta   100.65690000
_cell_angle_gamma   104.11699067
_symmetry_Int_Tables_number   1
_chemical_formula_structural   Al2H9C24S2Cl(O5F)2
_chemical_formula_sum   'Al2 H9 C24 S2 Cl1 O10 F2'
_cell_volume   1420.46585454
_cell_formula_units_Z   1
loop_
 _symmetry_equiv_pos_site_id
 _symmetry_equiv_pos_as_xyz
  1  'x, y, z'
loop_
 _atom_site_type_symbol
 _atom_site_label
 _atom_site_symmetry_multiplicity
 _atom_site_fract_x
 _atom_site_fract_y
 _atom_site_fract_z
 _atom_site_occupancy
  Al  Al0  1  0.00404000  0.50679000  0.50052000  1.0
  Al  Al1  1  0.50292000  0.50369000  0.50017000  1.0
  H  H2  1  0.34137000  0.60937000  0.57680000  1.0
  H  H3  1  0.67491000  0.38380000  0.44222000  1.0
  H  H4  1  0.84769000  0.56761000  0.26957000  1.0
  H  H5  1  0.77077000  0.55377000  0.12559000  1.0
  H  H6  1  0.43928000  0.48546000  0.27049000  1.0
  H  H7  1  0.55648000  0.50906000  0.73180000  1.0
  H  H8  1  0.15274000  0.43360000  0.73000000  1.0
  H  H9  1  0.22315000  0.43542000  0.87370000  1.0
  H  H10  1  0.23562000  0.85791000  0.55259000  1.0
  C  C11  1  0.83937000  0.70046000  0.50604000  1.0
  C  C12  1  0.81954000  0.48269000  0.63728000  1.0
  C  C13  1  0.16306000  0.30929000  0.49306000  1.0
  C  C14  1  0.18427000  0.52448000  0.36413000  1.0
  C  C15  1  0.14623000  0.52658000  0.27863000  1.0
  C  C16  1  0.95958000  0.54735000  0.23763000  1.0
  C  C17  1  0.91716000  0.53993000  0.15778000  1.0
  C  C18  1  0.06020000  0.51116000  0.11631000  1.0
  C  C19  1  0.24892000  0.49418000  0.15947000  1.0
  C  C20  1  0.29392000  0.50126000  0.23891000  1.0
  C  C21  1  0.01555000  0.49760000  0.03541000  1.0
  C  C22  1  0.97490000  0.48454000  0.96542000  1.0
  C  C23  1  0.93172000  0.47464000  0.88441000  1.0
  C  C24  1  0.74326000  0.49280000  0.84195000  1.0
  C  C25  1  0.70175000  0.49231000  0.76261000  1.0
  C  C26  1  0.85277000  0.47276000  0.72219000  1.0
  C  C27  1  0.03847000  0.44996000  0.76241000  1.0
  C  C28  1  0.07724000  0.45054000  0.84212000  1.0
  C  C29  1  0.89652000  0.12014000  0.46814000  1.0
  C  C30  1  0.09919000  0.88803000  0.52846000  1.0
  C  C31  1  0.09514000  0.19019000  0.49410000  1.0
  C  C32  1  0.90003000  0.81980000  0.50384000  1.0
  C  C33  1  0.09695000  0.99792000  0.51699000  1.0
  C  C34  1  0.89645000  0.01039000  0.48214000  1.0
  S  S35  1  0.28206000  0.12131000  0.53382000  1.0
  S  S36  1  0.70923000  0.88771000  0.46591000  1.0
  Cl  Cl37  1  0.67644000  0.15535000  0.42075000  1.0
  O  O38  1  0.98840000  0.65256000  0.52246000  1.0
  O  O39  1  0.64983000  0.50718000  0.60521000  1.0
  O  O40  1  0.36212000  0.35209000  0.50740000  1.0
  O  O41  1  0.04277000  0.54348000  0.39813000  1.0
  O  O42  1  0.01951000  0.36069000  0.47837000  1.0
  O  O43  1  0.35311000  0.49976000  0.39658000  1.0
  O  O44  1  0.64219000  0.65433000  0.49161000  1.0
  O  O45  1  0.96595000  0.46965000  0.60353000  1.0
  O  O46  1  0.29354000  0.54949000  0.53809000  1.0
  O  O47  1  0.71414000  0.45882000  0.46309000  1.0
  F  F48  1  0.39045000  0.46790000  0.12076000  1.0
  F  F49  1  0.59882000  0.51427000  0.88130000  1.0
