# generated using pymatgen
data_CuHgH11C15N3Cl4
_symmetry_space_group_name_H-M   'P 1'
_cell_length_a   7.27247000
_cell_length_b   9.08250000
_cell_length_c   13.31200000
_cell_angle_alpha   84.29360000
_cell_angle_beta   82.82120000
_cell_angle_gamma   86.25620000
_symmetry_Int_Tables_number   1
_chemical_formula_structural   CuHgH11C15N3Cl4
_chemical_formula_sum   'Cu2 Hg2 H22 C30 N6 Cl8'
_cell_volume   866.82543967
_cell_formula_units_Z   2
loop_
 _symmetry_equiv_pos_site_id
 _symmetry_equiv_pos_as_xyz
  1  'x, y, z'
loop_
 _atom_site_type_symbol
 _atom_site_label
 _atom_site_symmetry_multiplicity
 _atom_site_fract_x
 _atom_site_fract_y
 _atom_site_fract_z
 _atom_site_occupancy
  Cu  Cu0  1  0.61087000  0.23541000  0.20814000  1.0
  Cu  Cu1  1  0.38913000  0.76459000  0.79185000  1.0
  Hg  Hg2  1  0.06256000  0.11104000  0.33119000  1.0
  Hg  Hg3  1  0.93744000  0.88896000  0.66881000  1.0
  H  H4  1  0.48947000  0.07486000  0.41755000  1.0
  H  H5  1  0.51054000  0.92514000  0.58245000  1.0
  H  H6  1  0.29308000  0.14861000  0.57630000  1.0
  H  H7  1  0.70692000  0.85138000  0.42369000  1.0
  H  H8  1  0.18042000  0.41655000  0.58303000  1.0
  H  H9  1  0.81957000  0.58344000  0.41697000  1.0
  H  H10  1  0.27237000  0.59764000  0.43587000  1.0
  H  H11  1  0.72762000  0.40236000  0.56413000  1.0
  H  H12  1  0.40156000  0.74648000  0.30212000  1.0
  H  H13  1  0.59844000  0.25352000  0.69788000  1.0
  H  H14  1  0.52797000  0.87192000  0.13695000  1.0
  H  H15  1  0.47203000  0.12808000  0.86305000  1.0
  H  H16  1  0.69403000  0.72418000  0.00070000  1.0
  H  H17  1  0.30598000  0.27583000  0.99930000  1.0
  H  H18  1  0.83295000  0.56323000  0.89471000  1.0
  H  H19  1  0.16705000  0.43677000  0.10529000  1.0
  H  H20  1  0.97705000  0.36428000  0.79086000  1.0
  H  H21  1  0.02296000  0.63573000  0.20914000  1.0
  H  H22  1  0.96031000  0.09814000  0.86398000  1.0
  H  H23  1  0.03969000  0.90187000  0.13602000  1.0
  H  H24  1  0.80628000  0.04447000  0.04261000  1.0
  H  H25  1  0.19372000  0.95553000  0.95739000  1.0
  C  C26  1  0.43928000  0.18908000  0.42589000  1.0
  C  C27  1  0.56071000  0.81092000  0.57410000  1.0
  C  C28  1  0.33059000  0.23133000  0.51331000  1.0
  C  C29  1  0.66941000  0.76866000  0.48668000  1.0
  C  C30  1  0.26875000  0.37929000  0.51704000  1.0
  C  C31  1  0.73125000  0.62070000  0.48296000  1.0
  C  C32  1  0.31981000  0.48141000  0.43465000  1.0
  C  C33  1  0.68019000  0.51858000  0.56535000  1.0
  C  C34  1  0.42947000  0.43202000  0.34976000  1.0
  C  C35  1  0.57053000  0.56798000  0.65024000  1.0
  C  C36  1  0.49261000  0.52701000  0.25765000  1.0
  C  C37  1  0.50739000  0.47299000  0.74235000  1.0
  C  C38  1  0.47326000  0.68147000  0.24301000  1.0
  C  C39  1  0.52674000  0.31853000  0.75699000  1.0
  C  C40  1  0.54591000  0.75169000  0.14974000  1.0
  C  C41  1  0.45410000  0.24831000  0.85027000  1.0
  C  C42  1  0.63860000  0.66925000  0.07391000  1.0
  C  C43  1  0.36140000  0.33075000  0.92609000  1.0
  C  C44  1  0.65396000  0.51507000  0.09331000  1.0
  C  C45  1  0.34605000  0.48493000  0.90669000  1.0
  C  C46  1  0.74614000  0.40871000  0.02434000  1.0
  C  C47  1  0.25387000  0.59129000  0.97566000  1.0
  C  C48  1  0.83114000  0.44759000  0.92613000  1.0
  C  C49  1  0.16887000  0.55241000  0.07388000  1.0
  C  C50  1  0.91123000  0.33556000  0.86785000  1.0
  C  C51  1  0.08877000  0.66444000  0.13215000  1.0
  C  C52  1  0.90277000  0.18829000  0.90829000  1.0
  C  C53  1  0.09723000  0.81171000  0.09171000  1.0
  C  C54  1  0.81701000  0.15735000  0.00701000  1.0
  C  C55  1  0.18299000  0.84265000  0.99299000  1.0
  N  N56  1  0.48590000  0.28662000  0.34616000  1.0
  N  N57  1  0.51410000  0.71338000  0.65383000  1.0
  N  N58  1  0.57957000  0.44989000  0.18276000  1.0
  N  N59  1  0.42043000  0.55011000  0.81724000  1.0
  N  N60  1  0.74224000  0.26460000  0.06388000  1.0
  N  N61  1  0.25776000  0.73541000  0.93612000  1.0
  Cl  Cl62  1  0.75432000  0.01310000  0.25464000  1.0
  Cl  Cl63  1  0.24568000  0.98690000  0.74536000  1.0
  Cl  Cl64  1  0.31782000  0.12734000  0.16153000  1.0
  Cl  Cl65  1  0.68218000  0.87265000  0.83847000  1.0
  Cl  Cl66  1  0.95695000  0.36761000  0.31201000  1.0
  Cl  Cl67  1  0.04305000  0.63239000  0.68799000  1.0
  Cl  Cl68  1  0.15497000  0.87891000  0.41881000  1.0
  Cl  Cl69  1  0.84503000  0.12108000  0.58119000  1.0
