# generated using pymatgen
data_H14PbC16Cl2O5
_symmetry_space_group_name_H-M   'P 1'
_cell_length_a   7.23348000
_cell_length_b   9.75820000
_cell_length_c   12.72520000
_cell_angle_alpha   85.49340000
_cell_angle_beta   83.95930000
_cell_angle_gamma   72.11900000
_symmetry_Int_Tables_number   1
_chemical_formula_structural   H14PbC16Cl2O5
_chemical_formula_sum   'H28 Pb2 C32 Cl4 O10'
_cell_volume   849.06769326
_cell_formula_units_Z   2
loop_
 _symmetry_equiv_pos_site_id
 _symmetry_equiv_pos_as_xyz
  1  'x, y, z'
loop_
 _atom_site_type_symbol
 _atom_site_label
 _atom_site_symmetry_multiplicity
 _atom_site_fract_x
 _atom_site_fract_y
 _atom_site_fract_z
 _atom_site_occupancy
  H  H0  1  0.61619000  0.08589000  0.93456000  1.0
  H  H1  1  0.38380000  0.91413000  0.06542000  1.0
  H  H2  1  0.31270000  0.14522000  0.84668000  1.0
  H  H3  1  0.68728000  0.85478000  0.15331000  1.0
  H  H4  1  0.64846000  0.03627000  0.54696000  1.0
  H  H5  1  0.35157000  0.96376000  0.45303000  1.0
  H  H6  1  0.95338000  0.98021000  0.63591000  1.0
  H  H7  1  0.04663000  0.01981000  0.36410000  1.0
  H  H8  1  0.96551000  0.03842000  0.92318000  1.0
  H  H9  1  0.03449000  0.96158000  0.07682000  1.0
  H  H10  1  0.10286000  0.02962000  0.80001000  1.0
  H  H11  1  0.89714000  0.97037000  0.20000000  1.0
  H  H12  1  0.34998000  0.26079000  0.30997000  1.0
  H  H13  1  0.65003000  0.73921000  0.69001000  1.0
  H  H14  1  0.66805000  0.16040000  0.38684000  1.0
  H  H15  1  0.33196000  0.83959000  0.61314000  1.0
  H  H16  1  0.71009000  0.58957000  0.40107000  1.0
  H  H17  1  0.28993000  0.41044000  0.59892000  1.0
  H  H18  1  0.39338000  0.68941000  0.32151000  1.0
  H  H19  1  0.60660000  0.31060000  0.67851000  1.0
  H  H20  1  0.06625000  0.47512000  0.27777000  1.0
  H  H21  1  0.93375000  0.52487000  0.72222000  1.0
  H  H22  1  0.07995000  0.65069000  0.28935000  1.0
  H  H23  1  0.92001000  0.34933000  0.71066000  1.0
  H  H24  1  0.24250000  0.24895000  0.08410000  1.0
  H  H25  1  0.75749000  0.75105000  0.91590000  1.0
  H  H26  1  0.46888000  0.23939000  0.07253000  1.0
  H  H27  1  0.53110000  0.76061000  0.92748000  1.0
  Pb  Pb28  1  0.26700000  0.50705000  0.90875000  1.0
  Pb  Pb29  1  0.73302000  0.49292000  0.09125000  1.0
  C  C30  1  0.80744000  0.02803000  0.79197000  1.0
  C  C31  1  0.19257000  0.97198000  0.20803000  1.0
  C  C32  1  0.62546000  0.07393000  0.84961000  1.0
  C  C33  1  0.37455000  0.92606000  0.15038000  1.0
  C  C34  1  0.45245000  0.10728000  0.80025000  1.0
  C  C35  1  0.54755000  0.89271000  0.19974000  1.0
  C  C36  1  0.46370000  0.09247000  0.69149000  1.0
  C  C37  1  0.53631000  0.90754000  0.30850000  1.0
  C  C38  1  0.64276000  0.04642000  0.63184000  1.0
  C  C39  1  0.35726000  0.95356000  0.36816000  1.0
  C  C40  1  0.81347000  0.01564000  0.68259000  1.0
  C  C41  1  0.18654000  0.98438000  0.31741000  1.0
  C  C42  1  0.99248000  0.98863000  0.84624000  1.0
  C  C43  1  0.00752000  0.01135000  0.15376000  1.0
  C  C44  1  0.08653000  0.82614000  0.86546000  1.0
  C  C45  1  0.91346000  0.17383000  0.13454000  1.0
  C  C46  1  0.34963000  0.48249000  0.30987000  1.0
  C  C47  1  0.65037000  0.51751000  0.69013000  1.0
  C  C48  1  0.42832000  0.33363000  0.32941000  1.0
  C  C49  1  0.57169000  0.66636000  0.67060000  1.0
  C  C50  1  0.60699000  0.27638000  0.37310000  1.0
  C  C51  1  0.39303000  0.72362000  0.62692000  1.0
  C  C52  1  0.70719000  0.36929000  0.39811000  1.0
  C  C53  1  0.29281000  0.63073000  0.60188000  1.0
  C  C54  1  0.63197000  0.51812000  0.37950000  1.0
  C  C55  1  0.36799000  0.48191000  0.62052000  1.0
  C  C56  1  0.45372000  0.57329000  0.33533000  1.0
  C  C57  1  0.54626000  0.42671000  0.66467000  1.0
  C  C58  1  0.16126000  0.54421000  0.25920000  1.0
  C  C59  1  0.83871000  0.45579000  0.74082000  1.0
  C  C60  1  0.18645000  0.56393000  0.13917000  1.0
  C  C61  1  0.81357000  0.43607000  0.86084000  1.0
  Cl  Cl62  1  0.25038000  0.13663000  0.62677000  1.0
  Cl  Cl63  1  0.74964000  0.86334000  0.37322000  1.0
  Cl  Cl64  1  0.92824000  0.30098000  0.45400000  1.0
  Cl  Cl65  1  0.07175000  0.69902000  0.54601000  1.0
  O  O66  1  0.25879000  0.78270000  0.89470000  1.0
  O  O67  1  0.74119000  0.21728000  0.10530000  1.0
  O  O68  1  0.98932000  0.74047000  0.85143000  1.0
  O  O69  1  0.01064000  0.25953000  0.14857000  1.0
  O  O70  1  0.35316000  0.55623000  0.09198000  1.0
  O  O71  1  0.64687000  0.44377000  0.90804000  1.0
  O  O72  1  0.03836000  0.58656000  0.08656000  1.0
  O  O73  1  0.96168000  0.41343000  0.91345000  1.0
  O  O74  1  0.35217000  0.26014000  0.03382000  1.0
  O  O75  1  0.64782000  0.73986000  0.96618000  1.0
