# generated using pymatgen
data_ZnH15C16I(N3O2)2
_symmetry_space_group_name_H-M   'P 1'
_cell_length_a   7.80662000
_cell_length_b   17.07700000
_cell_length_c   17.28180000
_cell_angle_alpha   90.00010000
_cell_angle_beta   91.13030000
_cell_angle_gamma   90.00010000
_symmetry_Int_Tables_number   1
_chemical_formula_structural   ZnH15C16I(N3O2)2
_chemical_formula_sum   'Zn4 H60 C64 I4 N24 O16'
_cell_volume   2303.45153933
_cell_formula_units_Z   4
loop_
 _symmetry_equiv_pos_site_id
 _symmetry_equiv_pos_as_xyz
  1  'x, y, z'
loop_
 _atom_site_type_symbol
 _atom_site_label
 _atom_site_symmetry_multiplicity
 _atom_site_fract_x
 _atom_site_fract_y
 _atom_site_fract_z
 _atom_site_occupancy
  Zn  Zn0  1  0.59793000  0.30960000  0.71821000  1.0
  Zn  Zn1  1  0.90207000  0.80961000  0.78179000  1.0
  Zn  Zn2  1  0.40207000  0.69040000  0.28179000  1.0
  Zn  Zn3  1  0.09794000  0.19039000  0.21821000  1.0
  H  H4  1  0.49510000  0.08561000  0.11951000  1.0
  H  H5  1  0.00490000  0.58561000  0.38049000  1.0
  H  H6  1  0.50490000  0.91439000  0.88050000  1.0
  H  H7  1  0.99509000  0.41439000  0.61951000  1.0
  H  H8  1  0.36348000  0.17585000  0.89160000  1.0
  H  H9  1  0.13652000  0.67585000  0.60840000  1.0
  H  H10  1  0.63653000  0.82414000  0.10840000  1.0
  H  H11  1  0.86348000  0.32415000  0.39160000  1.0
  H  H12  1  0.84476000  0.23560000  0.99978000  1.0
  H  H13  1  0.65524000  0.73560000  0.50022000  1.0
  H  H14  1  0.15524000  0.76440000  0.00022000  1.0
  H  H15  1  0.34475000  0.26440000  0.49978000  1.0
  H  H16  1  0.68628000  0.22661000  0.55280000  1.0
  H  H17  1  0.81372000  0.72660000  0.94720000  1.0
  H  H18  1  0.31372000  0.77339000  0.44720000  1.0
  H  H19  1  0.18628000  0.27339000  0.05280000  1.0
  H  H20  1  0.96950000  0.22775000  0.76191000  1.0
  H  H21  1  0.53050000  0.72775000  0.73809000  1.0
  H  H22  1  0.03050000  0.77225000  0.23809000  1.0
  H  H23  1  0.46951000  0.27225000  0.26191000  1.0
  H  H24  1  0.24291000  0.13273000  0.61758000  1.0
  H  H25  1  0.25709000  0.63273000  0.88241000  1.0
  H  H26  1  0.75709000  0.86727000  0.38242000  1.0
  H  H27  1  0.74291000  0.36727000  0.11759000  1.0
  H  H28  1  0.11072000  0.05687000  0.65450000  1.0
  H  H29  1  0.38928000  0.55687000  0.84550000  1.0
  H  H30  1  0.88928000  0.94313000  0.34550000  1.0
  H  H31  1  0.61072000  0.44313000  0.15450000  1.0
  H  H32  1  0.29309000  0.18631000  0.74925000  1.0
  H  H33  1  0.20691000  0.68631000  0.75075000  1.0
  H  H34  1  0.70691000  0.81369000  0.25075000  1.0
  H  H35  1  0.79309000  0.31369000  0.24925000  1.0
  H  H36  1  0.14013000  0.12124000  0.78821000  1.0
  H  H37  1  0.35988000  0.62124000  0.71178000  1.0
  H  H38  1  0.85988000  0.87876000  0.21179000  1.0
  H  H39  1  0.64012000  0.37876000  0.28821000  1.0
  H  H40  1  0.31970000  0.00679000  0.76263000  1.0
  H  H41  1  0.18030000  0.50679000  0.73737000  1.0
  H  H42  1  0.68030000  0.99321000  0.23737000  1.0
  H  H43  1  0.81970000  0.49321000  0.26263000  1.0
  H  H44  1  0.43591000  0.07782000  0.81599000  1.0
  H  H45  1  0.06409000  0.57782000  0.68401000  1.0
  H  H46  1  0.56409000  0.92217000  0.18401000  1.0
  H  H47  1  0.93591000  0.42218000  0.31599000  1.0
  H  H48  1  0.56841000  0.12528000  0.69073000  1.0
  H  H49  1  0.93159000  0.62528000  0.80927000  1.0
  H  H50  1  0.43159000  0.87472000  0.30927000  1.0
  H  H51  1  0.06841000  0.37472000  0.19073000  1.0
  H  H52  1  0.47384000  0.04304000  0.64306000  1.0
  H  H53  1  0.02615000  0.54304000  0.85694000  1.0
  H  H54  1  0.52615000  0.95696000  0.35694000  1.0
  H  H55  1  0.97385000  0.45696000  0.14306000  1.0
  H  H56  1  0.58928000  0.89940000  0.69405000  1.0
  H  H57  1  0.91072000  0.39940000  0.80594000  1.0
  H  H58  1  0.41072000  0.10060000  0.30595000  1.0
  H  H59  1  0.08929000  0.60060000  0.19405000  1.0
  H  H60  1  0.00880000  0.99207000  0.81961000  1.0
  H  H61  1  0.49119000  0.49207000  0.68039000  1.0
  H  H62  1  0.99120000  0.00793000  0.18039000  1.0
  H  H63  1  0.50880000  0.50793000  0.31961000  1.0
  C  C64  1  0.65759000  0.25202000  0.86571000  1.0
  C  C65  1  0.84241000  0.75202000  0.63429000  1.0
  C  C66  1  0.34242000  0.74798000  0.13429000  1.0
  C  C67  1  0.15758000  0.24798000  0.36571000  1.0
  C  C68  1  0.79811000  0.15863000  0.13673000  1.0
  C  C69  1  0.70190000  0.65863000  0.36326000  1.0
  C  C70  1  0.20190000  0.84138000  0.86327000  1.0
  C  C71  1  0.29810000  0.34137000  0.63673000  1.0
  C  C72  1  0.67926000  0.16185000  0.06725000  1.0
  C  C73  1  0.82074000  0.66184000  0.43275000  1.0
  C  C74  1  0.32074000  0.83815000  0.93275000  1.0
  C  C75  1  0.17926000  0.33815000  0.56725000  1.0
  C  C76  1  0.52438000  0.12020000  0.06856000  1.0
  C  C77  1  0.97562000  0.62020000  0.43144000  1.0
  C  C78  1  0.47562000  0.87980000  0.93144000  1.0
  C  C79  1  0.02438000  0.37980000  0.56856000  1.0
  C  C80  1  0.41236000  0.12537000  0.00502000  1.0
  C  C81  1  0.08764000  0.62536000  0.49498000  1.0
  C  C82  1  0.58764000  0.87463000  0.99498000  1.0
  C  C83  1  0.91237000  0.37464000  0.50502000  1.0
  C  C84  1  0.45279000  0.16955000  0.94021000  1.0
  C  C85  1  0.04721000  0.66955000  0.55979000  1.0
  C  C86  1  0.54722000  0.83045000  0.05979000  1.0
  C  C87  1  0.95279000  0.33046000  0.44021000  1.0
  C  C88  1  0.61091000  0.20796000  0.93763000  1.0
  C  C89  1  0.88909000  0.70796000  0.56237000  1.0
  C  C90  1  0.38910000  0.79204000  0.06237000  1.0
  C  C91  1  0.11090000  0.29204000  0.43763000  1.0
  C  C92  1  0.72289000  0.20481000  0.00154000  1.0
  C  C93  1  0.77711000  0.70481000  0.49846000  1.0
  C  C94  1  0.27711000  0.79519000  0.99846000  1.0
  C  C95  1  0.22288000  0.29519000  0.50154000  1.0
  C  C96  1  0.78508000  0.21367000  0.59590000  1.0
  C  C97  1  0.71492000  0.71367000  0.90410000  1.0
  C  C98  1  0.21492000  0.78633000  0.40410000  1.0
  C  C99  1  0.28508000  0.28633000  0.09590000  1.0
  C  C100  1  0.92854000  0.21603000  0.70272000  1.0
  C  C101  1  0.57145000  0.71603000  0.79728000  1.0
  C  C102  1  0.07145000  0.78397000  0.29728000  1.0
  C  C103  1  0.42855000  0.28397000  0.20273000  1.0
  C  C104  1  0.15390000  0.11759000  0.66373000  1.0
  C  C105  1  0.34611000  0.61759000  0.83627000  1.0
  C  C106  1  0.84610000  0.88241000  0.33627000  1.0
  C  C107  1  0.65389000  0.38241000  0.16373000  1.0
  C  C108  1  0.23757000  0.12734000  0.74344000  1.0
  C  C109  1  0.26243000  0.62734000  0.75655000  1.0
  C  C110  1  0.76243000  0.87266000  0.25655000  1.0
  C  C111  1  0.73757000  0.37266000  0.24345000  1.0
  C  C112  1  0.37596000  0.06574000  0.75917000  1.0
  C  C113  1  0.12404000  0.56574000  0.74082000  1.0
  C  C114  1  0.62404000  0.93426000  0.24083000  1.0
  C  C115  1  0.87596000  0.43426000  0.25917000  1.0
  C  C116  1  0.51767000  0.06614000  0.69938000  1.0
  C  C117  1  0.98232000  0.56614000  0.80062000  1.0
  C  C118  1  0.48233000  0.93386000  0.30062000  1.0
  C  C119  1  0.01768000  0.43386000  0.19938000  1.0
  C  C120  1  0.67635000  0.93962000  0.72344000  1.0
  C  C121  1  0.82365000  0.43962000  0.77656000  1.0
  C  C122  1  0.32365000  0.06038000  0.27656000  1.0
  C  C123  1  0.17635000  0.56038000  0.22344000  1.0
  C  C124  1  0.88898000  0.98860000  0.78699000  1.0
  C  C125  1  0.61102000  0.48859000  0.71300000  1.0
  C  C126  1  0.11102000  0.01140000  0.21301000  1.0
  C  C127  1  0.38898000  0.51141000  0.28700000  1.0
  I  I128  1  0.17039000  0.06974000  0.00486000  1.0
  I  I129  1  0.32960000  0.56974000  0.49514000  1.0
  I  I130  1  0.82961000  0.93026000  0.99514000  1.0
  I  I131  1  0.67040000  0.43026000  0.50486000  1.0
  N  N132  1  0.78850000  0.24642000  0.66820000  1.0
  N  N133  1  0.71150000  0.74642000  0.83180000  1.0
  N  N134  1  0.21150000  0.75358000  0.33180000  1.0
  N  N135  1  0.28850000  0.25358000  0.16820000  1.0
  N  N136  1  0.91412000  0.16504000  0.58426000  1.0
  N  N137  1  0.58588000  0.66504000  0.91574000  1.0
  N  N138  1  0.08588000  0.83496000  0.41575000  1.0
  N  N139  1  0.41412000  0.33496000  0.08426000  1.0
  N  N140  1  0.00397000  0.16763000  0.65273000  1.0
  N  N141  1  0.49603000  0.66763000  0.84727000  1.0
  N  N142  1  0.99603000  0.83237000  0.34727000  1.0
  N  N143  1  0.50397000  0.33237000  0.15273000  1.0
  N  N144  1  0.66136000  0.01779000  0.72583000  1.0
  N  N145  1  0.83864000  0.51779000  0.77416000  1.0
  N  N146  1  0.33864000  0.98220000  0.27417000  1.0
  N  N147  1  0.16136000  0.48221000  0.22584000  1.0
  N  N148  1  0.79526000  0.05014000  0.76649000  1.0
  N  N149  1  0.70474000  0.55014000  0.73350000  1.0
  N  N150  1  0.20474000  0.94986000  0.23350000  1.0
  N  N151  1  0.29526000  0.44986000  0.26650000  1.0
  N  N152  1  0.82046000  0.91929000  0.76170000  1.0
  N  N153  1  0.67954000  0.41929000  0.73830000  1.0
  N  N154  1  0.17954000  0.08071000  0.23830000  1.0
  N  N155  1  0.32046000  0.58071000  0.26170000  1.0
  O  O156  1  0.53678000  0.25434000  0.81280000  1.0
  O  O157  1  0.96322000  0.75435000  0.68720000  1.0
  O  O158  1  0.46322000  0.74566000  0.18720000  1.0
  O  O159  1  0.03678000  0.24566000  0.31280000  1.0
  O  O160  1  0.80300000  0.28207000  0.85965000  1.0
  O  O161  1  0.69699000  0.78208000  0.64035000  1.0
  O  O162  1  0.19700000  0.71792000  0.14034000  1.0
  O  O163  1  0.30300000  0.21793000  0.35966000  1.0
  O  O164  1  0.92559000  0.20775000  0.13540000  1.0
  O  O165  1  0.57441000  0.70775000  0.36461000  1.0
  O  O166  1  0.07441000  0.79225000  0.86460000  1.0
  O  O167  1  0.42559000  0.29225000  0.63539000  1.0
  O  O168  1  0.77263000  0.11113000  0.19041000  1.0
  O  O169  1  0.72740000  0.61113000  0.30959000  1.0
  O  O170  1  0.22739000  0.88887000  0.80959000  1.0
  O  O171  1  0.27259000  0.38887000  0.69041000  1.0
