# generated using pymatgen
data_H12PbC12(BrN)2
_symmetry_space_group_name_H-M   'P 1'
_cell_length_a   4.29266000
_cell_length_b   8.69506000
_cell_length_c   9.85428000
_cell_angle_alpha   75.10940000
_cell_angle_beta   82.34280000
_cell_angle_gamma   81.95190000
_symmetry_Int_Tables_number   1
_chemical_formula_structural   H12PbC12(BrN)2
_chemical_formula_sum   'H12 Pb1 C12 Br2 N2'
_cell_volume   350.13466089
_cell_formula_units_Z   1
loop_
 _symmetry_equiv_pos_site_id
 _symmetry_equiv_pos_as_xyz
  1  'x, y, z'
loop_
 _atom_site_type_symbol
 _atom_site_label
 _atom_site_symmetry_multiplicity
 _atom_site_fract_x
 _atom_site_fract_y
 _atom_site_fract_z
 _atom_site_occupancy
  H  H0  1  0.69108000  0.86039000  0.54270000  1.0
  H  H1  1  0.30894000  0.13958000  0.45732000  1.0
  H  H2  1  0.76574000  0.00324000  0.72363000  1.0
  H  H3  1  0.23402000  0.99681000  0.27638000  1.0
  H  H4  1  0.25798000  0.65238000  0.03278000  1.0
  H  H5  1  0.74191000  0.34761000  0.96723000  1.0
  H  H6  1  0.19744000  0.52576000  0.83713000  1.0
  H  H7  1  0.80258000  0.47420000  0.16288000  1.0
  H  H8  1  0.48225000  0.84070000  0.11296000  1.0
  H  H9  1  0.51766000  0.15927000  0.88706000  1.0
  H  H10  1  0.83051000  0.90823000  0.01351000  1.0
  H  H11  1  0.16941000  0.09174000  0.98651000  1.0
  Pb  Pb12  1  0.50029000  0.50005000  0.49992000  1.0
  C  C13  1  0.59392000  0.81966000  0.65249000  1.0
  C  C14  1  0.40606000  0.18032000  0.34754000  1.0
  C  C15  1  0.63680000  0.89786000  0.75409000  1.0
  C  C16  1  0.36307000  0.10215000  0.24593000  1.0
  C  C17  1  0.51971000  0.83794000  0.89503000  1.0
  C  C18  1  0.48020000  0.16205000  0.10499000  1.0
  C  C19  1  0.35572000  0.70282000  0.92493000  1.0
  C  C20  1  0.64423000  0.29716000  0.07508000  1.0
  C  C21  1  0.32175000  0.63215000  0.81675000  1.0
  C  C22  1  0.67826000  0.36782000  0.18326000  1.0
  C  C23  1  0.57410000  0.91249000  0.01034000  1.0
  C  C24  1  0.42582000  0.08749000  0.98968000  1.0
  Br  Br25  1  0.99561000  0.70033000  0.32117000  1.0
  Br  Br26  1  0.00490000  0.29989000  0.67870000  1.0
  N  N27  1  0.44050000  0.68821000  0.68259000  1.0
  N  N28  1  0.55955000  0.31175000  0.31743000  1.0
