# generated using pymatgen
data_KH6C9Cl4O3
_symmetry_space_group_name_H-M   'P 1'
_cell_length_a   7.48006000
_cell_length_b   10.44360000
_cell_length_c   16.86470000
_cell_angle_alpha   90.00000000
_cell_angle_beta   90.00000000
_cell_angle_gamma   103.66800000
_symmetry_Int_Tables_number   1
_chemical_formula_structural   KH6C9Cl4O3
_chemical_formula_sum   'K4 H24 C36 Cl16 O12'
_cell_volume   1280.14083376
_cell_formula_units_Z   4
loop_
 _symmetry_equiv_pos_site_id
 _symmetry_equiv_pos_as_xyz
  1  'x, y, z'
loop_
 _atom_site_type_symbol
 _atom_site_label
 _atom_site_symmetry_multiplicity
 _atom_site_fract_x
 _atom_site_fract_y
 _atom_site_fract_z
 _atom_site_occupancy
  K  K0  1  0.56580000  0.19108000  0.76528000  1.0
  K  K1  1  0.93421000  0.80892000  0.26528000  1.0
  K  K2  1  0.43421000  0.80891000  0.23472000  1.0
  K  K3  1  0.06580000  0.19109000  0.73472000  1.0
  H  H4  1  0.79071000  0.65368000  0.68368000  1.0
  H  H5  1  0.70928000  0.34632000  0.18368000  1.0
  H  H6  1  0.20928000  0.34632000  0.31633000  1.0
  H  H7  1  0.29071000  0.65368000  0.81633000  1.0
  H  H8  1  0.76781000  0.58256000  0.58908000  1.0
  H  H9  1  0.73219000  0.41744000  0.08908000  1.0
  H  H10  1  0.23219000  0.41744000  0.41092000  1.0
  H  H11  1  0.26781000  0.58255000  0.91092000  1.0
  H  H12  1  0.62514000  0.50122000  0.66905000  1.0
  H  H13  1  0.87486000  0.49878000  0.16905000  1.0
  H  H14  1  0.37485000  0.49878000  0.33095000  1.0
  H  H15  1  0.12514000  0.50121000  0.83095000  1.0
  H  H16  1  0.14726000  0.63985000  0.64968000  1.0
  H  H17  1  0.35274000  0.36015000  0.14968000  1.0
  H  H18  1  0.85274000  0.36015000  0.35032000  1.0
  H  H19  1  0.64726000  0.63985000  0.85032000  1.0
  H  H20  1  0.08288000  0.52586000  0.57324000  1.0
  H  H21  1  0.41711000  0.47414000  0.07324000  1.0
  H  H22  1  0.91711000  0.47414000  0.42676000  1.0
  H  H23  1  0.58289000  0.52586000  0.92676000  1.0
  H  H24  1  0.19168000  0.47887000  0.66013000  1.0
  H  H25  1  0.30832000  0.52113000  0.16013000  1.0
  H  H26  1  0.80832000  0.52112000  0.33987000  1.0
  H  H27  1  0.69168000  0.47887000  0.83987000  1.0
  C  C28  1  0.78178000  0.96787000  0.08578000  1.0
  C  C29  1  0.71822000  0.03213000  0.58578000  1.0
  C  C30  1  0.21823000  0.03213000  0.91421000  1.0
  C  C31  1  0.28177000  0.96787000  0.41421000  1.0
  C  C32  1  0.68368000  0.90855000  0.01490000  1.0
  C  C33  1  0.81632000  0.09145000  0.51490000  1.0
  C  C34  1  0.31631000  0.09144000  0.98510000  1.0
  C  C35  1  0.18369000  0.90856000  0.48510000  1.0
  C  C36  1  0.70714000  0.96987000  0.94229000  1.0
  C  C37  1  0.79286000  0.03013000  0.44230000  1.0
  C  C38  1  0.29285000  0.03011000  0.05770000  1.0
  C  C39  1  0.20715000  0.96989000  0.55770000  1.0
  C  C40  1  0.83103000  0.09959000  0.93068000  1.0
  C  C41  1  0.66898000  0.90041000  0.43068000  1.0
  C  C42  1  0.16898000  0.90040000  0.06932000  1.0
  C  C43  1  0.33103000  0.09960000  0.56932000  1.0
  C  C44  1  0.91937000  0.16236000  0.00225000  1.0
  C  C45  1  0.58063000  0.83764000  0.50225000  1.0
  C  C46  1  0.08063000  0.83764000  0.99775000  1.0
  C  C47  1  0.41937000  0.16236000  0.49775000  1.0
  C  C48  1  0.89688000  0.10009000  0.07502000  1.0
  C  C49  1  0.60312000  0.89991000  0.57502000  1.0
  C  C50  1  0.10311000  0.89991000  0.92498000  1.0
  C  C51  1  0.39688000  0.10009000  0.42497000  1.0
  C  C52  1  0.90730000  0.48684000  0.67490000  1.0
  C  C53  1  0.59270000  0.51316000  0.17490000  1.0
  C  C54  1  0.09270000  0.51316000  0.32511000  1.0
  C  C55  1  0.40730000  0.48683000  0.82510000  1.0
  C  C56  1  0.76242000  0.55824000  0.65251000  1.0
  C  C57  1  0.73758000  0.44176000  0.15251000  1.0
  C  C58  1  0.23757000  0.44176000  0.34749000  1.0
  C  C59  1  0.26242000  0.55824000  0.84749000  1.0
  C  C60  1  0.09417000  0.53400000  0.63814000  1.0
  C  C61  1  0.40583000  0.46600000  0.13814000  1.0
  C  C62  1  0.90582000  0.46600000  0.36186000  1.0
  C  C63  1  0.59418000  0.53400000  0.86186000  1.0
  Cl  Cl64  1  0.52818000  0.76040000  0.02842000  1.0
  Cl  Cl65  1  0.97183000  0.23959000  0.52841000  1.0
  Cl  Cl66  1  0.47183000  0.23959000  0.97158000  1.0
  Cl  Cl67  1  0.02817000  0.76041000  0.47158000  1.0
  Cl  Cl68  1  0.58474000  0.90229000  0.86034000  1.0
  Cl  Cl69  1  0.91526000  0.09771000  0.36034000  1.0
  Cl  Cl70  1  0.41526000  0.09770000  0.13966000  1.0
  Cl  Cl71  1  0.08474000  0.90230000  0.63966000  1.0
  Cl  Cl72  1  0.03804000  0.32363000  0.99230000  1.0
  Cl  Cl73  1  0.46196000  0.67637000  0.49230000  1.0
  Cl  Cl74  1  0.96196000  0.67636000  0.00770000  1.0
  Cl  Cl75  1  0.53803000  0.32364000  0.50770000  1.0
  Cl  Cl76  1  0.98961000  0.17936000  0.16006000  1.0
  Cl  Cl77  1  0.51040000  0.82063000  0.66006000  1.0
  Cl  Cl78  1  0.01039000  0.82063000  0.83993000  1.0
  Cl  Cl79  1  0.48960000  0.17937000  0.33993000  1.0
  O  O80  1  0.75841000  0.91138000  0.15235000  1.0
  O  O81  1  0.74159000  0.08862000  0.65235000  1.0
  O  O82  1  0.24158000  0.08861000  0.84765000  1.0
  O  O83  1  0.25842000  0.91140000  0.34765000  1.0
  O  O84  1  0.85016000  0.15634000  0.86413000  1.0
  O  O85  1  0.64984000  0.84366000  0.36414000  1.0
  O  O86  1  0.14984000  0.84366000  0.13586000  1.0
  O  O87  1  0.35017000  0.15634000  0.63586000  1.0
  O  O88  1  0.87496000  0.39462000  0.72287000  1.0
  O  O89  1  0.62504000  0.60538000  0.22287000  1.0
  O  O90  1  0.12504000  0.60539000  0.27714000  1.0
  O  O91  1  0.37496000  0.39462000  0.77713000  1.0
