# generated using pymatgen
data_BaH4C7NO5
_symmetry_space_group_name_H-M   'P 1'
_cell_length_a   9.84500000
_cell_length_b   13.31320000
_cell_length_c   14.68623730
_cell_angle_alpha   64.08744364
_cell_angle_beta   70.42136405
_cell_angle_gamma   89.99180000
_symmetry_Int_Tables_number   1
_chemical_formula_structural   BaH4C7NO5
_chemical_formula_sum   'Ba8 H32 C56 N8 O40'
_cell_volume   1606.78241150
_cell_formula_units_Z   8
loop_
 _symmetry_equiv_pos_site_id
 _symmetry_equiv_pos_as_xyz
  1  'x, y, z'
loop_
 _atom_site_type_symbol
 _atom_site_label
 _atom_site_symmetry_multiplicity
 _atom_site_fract_x
 _atom_site_fract_y
 _atom_site_fract_z
 _atom_site_occupancy
  Ba  Ba0  1  0.96220000  0.08521000  0.33633000  1.0
  Ba  Ba1  1  0.29858000  0.41481000  0.66379000  1.0
  Ba  Ba2  1  0.03780000  0.91479000  0.66368000  1.0
  Ba  Ba3  1  0.70143000  0.58519000  0.33620000  1.0
  Ba  Ba4  1  0.17278000  0.39220000  0.04033000  1.0
  Ba  Ba5  1  0.21299000  0.10779000  0.95966000  1.0
  Ba  Ba6  1  0.82722000  0.60780000  0.95967000  1.0
  Ba  Ba7  1  0.78701000  0.89221000  0.04034000  1.0
  H  H8  1  0.51844000  0.12653000  0.70444000  1.0
  H  H9  1  0.22320000  0.37390000  0.29551000  1.0
  H  H10  1  0.48156000  0.87347000  0.29556000  1.0
  H  H11  1  0.77680000  0.62610000  0.70449000  1.0
  H  H12  1  0.32798000  0.15496000  0.47259000  1.0
  H  H13  1  0.80085000  0.34503000  0.52745000  1.0
  H  H14  1  0.67202000  0.84505000  0.52741000  1.0
  H  H15  1  0.19915000  0.65498000  0.47255000  1.0
  H  H16  1  0.35905000  0.16984000  0.32840000  1.0
  H  H17  1  0.68766000  0.32983000  0.67177000  1.0
  H  H18  1  0.64095000  0.83016000  0.67160000  1.0
  H  H19  1  0.31234000  0.67017000  0.32823000  1.0
  H  H20  1  0.64784000  0.13860000  0.05298000  1.0
  H  H21  1  0.70085000  0.36120000  0.94719000  1.0
  H  H22  1  0.35216000  0.86140000  0.94702000  1.0
  H  H23  1  0.29914000  0.63880000  0.05281000  1.0
  H  H24  1  0.44268000  0.50756000  0.09613000  1.0
  H  H25  1  0.53876000  0.99248000  0.90395000  1.0
  H  H26  1  0.55733000  0.49244000  0.90386000  1.0
  H  H27  1  0.46123000  0.00752000  0.09606000  1.0
  H  H28  1  0.41055000  0.37520000  0.16299000  1.0
  H  H29  1  0.57329000  0.12485000  0.83702000  1.0
  H  H30  1  0.58945000  0.62480000  0.83701000  1.0
  H  H31  1  0.42671000  0.87515000  0.16298000  1.0
  H  H32  1  0.38184000  0.57918000  0.78334000  1.0
  H  H33  1  0.16525000  0.92065000  0.21659000  1.0
  H  H34  1  0.61816000  0.42082000  0.21666000  1.0
  H  H35  1  0.83476000  0.07934000  0.78341000  1.0
  H  H36  1  0.22658000  0.59972000  0.79101000  1.0
  H  H37  1  0.01756000  0.90029000  0.20898000  1.0
  H  H38  1  0.77342000  0.40028000  0.20899000  1.0
  H  H39  1  0.98244000  0.09972000  0.79102000  1.0
  C  C40  1  0.65677000  0.11961000  0.55866000  1.0
  C  C41  1  0.21567000  0.38070000  0.44136000  1.0
  C  C42  1  0.34322000  0.88039000  0.44135000  1.0
  C  C43  1  0.78433000  0.61930000  0.55864000  1.0
  C  C44  1  0.52686000  0.13262000  0.62637000  1.0
  C  C45  1  0.15356000  0.36773000  0.37360000  1.0
  C  C46  1  0.47313000  0.86738000  0.37364000  1.0
  C  C47  1  0.84644000  0.63227000  0.62640000  1.0
  C  C48  1  0.40557000  0.14315000  0.59624000  1.0
  C  C49  1  0.00215000  0.35706000  0.40374000  1.0
  C  C50  1  0.59443000  0.85686000  0.40376000  1.0
  C  C51  1  0.99785000  0.64295000  0.59626000  1.0
  C  C52  1  0.42233000  0.14758000  0.49642000  1.0
  C  C53  1  0.91903000  0.35250000  0.50358000  1.0
  C  C54  1  0.57767000  0.85242000  0.50358000  1.0
  C  C55  1  0.08098000  0.64750000  0.49641000  1.0
  C  C56  1  0.55921000  0.14187000  0.42929000  1.0
  C  C57  1  0.98875000  0.35817000  0.57075000  1.0
  C  C58  1  0.44079000  0.85813000  0.57071000  1.0
  C  C59  1  0.01125000  0.64183000  0.42925000  1.0
  C  C60  1  0.58139000  0.14795000  0.32176000  1.0
  C  C61  1  0.90337000  0.35195000  0.67833000  1.0
  C  C62  1  0.41861000  0.85205000  0.67824000  1.0
  C  C63  1  0.09664000  0.64805000  0.32166000  1.0
  C  C64  1  0.46641000  0.15947000  0.28357000  1.0
  C  C65  1  0.75018000  0.34028000  0.71657000  1.0
  C  C66  1  0.53360000  0.84053000  0.71643000  1.0
  C  C67  1  0.24982000  0.65972000  0.28343000  1.0
  C  C68  1  0.48721000  0.15463000  0.18704000  1.0
  C  C69  1  0.67440000  0.34510000  0.81309000  1.0
  C  C70  1  0.51279000  0.84537000  0.81296000  1.0
  C  C71  1  0.32561000  0.65489000  0.18690000  1.0
  C  C72  1  0.62555000  0.14286000  0.12873000  1.0
  C  C73  1  0.75436000  0.35695000  0.87143000  1.0
  C  C74  1  0.37445000  0.85714000  0.87127000  1.0
  C  C75  1  0.24564000  0.64305000  0.12857000  1.0
  C  C76  1  0.73652000  0.13770000  0.16905000  1.0
  C  C77  1  0.90567000  0.36227000  0.83103000  1.0
  C  C78  1  0.26348000  0.86230000  0.83095000  1.0
  C  C79  1  0.09433000  0.63773000  0.16897000  1.0
  C  C80  1  0.88848000  0.12692000  0.10705000  1.0
  C  C81  1  0.99559000  0.37311000  0.89304000  1.0
  C  C82  1  0.11151000  0.87308000  0.89296000  1.0
  C  C83  1  0.00441000  0.62689000  0.10696000  1.0
  C  C84  1  0.36077000  0.15793000  0.14958000  1.0
  C  C85  1  0.51047000  0.34178000  0.85042000  1.0
  C  C86  1  0.63924000  0.84207000  0.85041000  1.0
  C  C87  1  0.48953000  0.65822000  0.14958000  1.0
  C  C88  1  0.25810000  0.14206000  0.67387000  1.0
  C  C89  1  0.93240000  0.35805000  0.32611000  1.0
  C  C90  1  0.74190000  0.85794000  0.32613000  1.0
  C  C91  1  0.06760000  0.64195000  0.67389000  1.0
  C  C92  1  0.78237000  0.09096000  0.59848000  1.0
  C  C93  1  0.38100000  0.40934000  0.40161000  1.0
  C  C94  1  0.21763000  0.90903000  0.40152000  1.0
  C  C95  1  0.61900000  0.59066000  0.59839000  1.0
  N  N96  1  0.67363000  0.12455000  0.46209000  1.0
  N  N97  1  0.13593000  0.37559000  0.53797000  1.0
  N  N98  1  0.32637000  0.87545000  0.53791000  1.0
  N  N99  1  0.86407000  0.62441000  0.46203000  1.0
  N  N100  1  0.71517000  0.13881000  0.26378000  1.0
  N  N101  1  0.97910000  0.36124000  0.73629000  1.0
  N  N102  1  0.28482000  0.86119000  0.73623000  1.0
  N  N103  1  0.02090000  0.63876000  0.26371000  1.0
  O  O104  1  0.99694000  0.16608000  0.11821000  1.0
  O  O105  1  0.11536000  0.33412000  0.88179000  1.0
  O  O106  1  0.00305000  0.83392000  0.88180000  1.0
  O  O107  1  0.88464000  0.66588000  0.11821000  1.0
  O  O108  1  0.89949000  0.07920000  0.04726000  1.0
  O  O109  1  0.94668000  0.42069000  0.95294000  1.0
  O  O110  1  0.10050000  0.92079000  0.95275000  1.0
  O  O111  1  0.05331000  0.57931000  0.04707000  1.0
  O  O112  1  0.37400000  0.12360000  0.07944000  1.0
  O  O113  1  0.45342000  0.37626000  0.92043000  1.0
  O  O114  1  0.62600000  0.87641000  0.92056000  1.0
  O  O115  1  0.54658000  0.62374000  0.07957000  1.0
  O  O116  1  0.25025000  0.19517000  0.19120000  1.0
  O  O117  1  0.44170000  0.30441000  0.80881000  1.0
  O  O118  1  0.74977000  0.80484000  0.80879000  1.0
  O  O119  1  0.55830000  0.69559000  0.19119000  1.0
  O  O120  1  0.14586000  0.09862000  0.67142000  1.0
  O  O121  1  0.81772000  0.40149000  0.32843000  1.0
  O  O122  1  0.85414000  0.90138000  0.32858000  1.0
  O  O123  1  0.18229000  0.59852000  0.67156000  1.0
  O  O124  1  0.25671000  0.18306000  0.73792000  1.0
  O  O125  1  0.99516000  0.31697000  0.26215000  1.0
  O  O126  1  0.74330000  0.81694000  0.26208000  1.0
  O  O127  1  0.00484000  0.68304000  0.73785000  1.0
  O  O128  1  0.76817000  0.09438000  0.68545000  1.0
  O  O129  1  0.45389000  0.40612000  0.31458000  1.0
  O  O130  1  0.23183000  0.90562000  0.31455000  1.0
  O  O131  1  0.54611000  0.59388000  0.68542000  1.0
  O  O132  1  0.89058000  0.06201000  0.54295000  1.0
  O  O133  1  0.43354000  0.43811000  0.45731000  1.0
  O  O134  1  0.10941000  0.93799000  0.45706000  1.0
  O  O135  1  0.56646000  0.56189000  0.54269000  1.0
  O  O136  1  0.38005000  0.43823000  0.11278000  1.0
  O  O137  1  0.49269000  0.06177000  0.88730000  1.0
  O  O138  1  0.61995000  0.56177000  0.88722000  1.0
  O  O139  1  0.50731000  0.93823000  0.11270000  1.0
  O  O140  1  0.28662000  0.57794000  0.83627000  1.0
  O  O141  1  0.12283000  0.92204000  0.16367000  1.0
  O  O142  1  0.71338000  0.42206000  0.16373000  1.0
  O  O143  1  0.87717000  0.07796000  0.83633000  1.0
