# generated using pymatgen
data_CdNiH16(C2N)6
_symmetry_space_group_name_H-M   'P 1'
_cell_length_a   7.00498000
_cell_length_b   7.74874000
_cell_length_c   10.85730000
_cell_angle_alpha   89.99990000
_cell_angle_beta   75.25900000
_cell_angle_gamma   89.99990000
_symmetry_Int_Tables_number   1
_chemical_formula_structural   CdNiH16(C2N)6
_chemical_formula_sum   'Cd1 Ni1 H16 C12 N6'
_cell_volume   569.93442103
_cell_formula_units_Z   1
loop_
 _symmetry_equiv_pos_site_id
 _symmetry_equiv_pos_as_xyz
  1  'x, y, z'
loop_
 _atom_site_type_symbol
 _atom_site_label
 _atom_site_symmetry_multiplicity
 _atom_site_fract_x
 _atom_site_fract_y
 _atom_site_fract_z
 _atom_site_occupancy
  Cd  Cd0  1  0.00000000  0.00000000  0.00000000  1.0
  Ni  Ni1  1  0.50000000  0.50000000  0.00000000  1.0
  H  H2  1  0.81762000  0.10534000  0.25730000  1.0
  H  H3  1  0.54598000  0.11319000  0.15777000  1.0
  H  H4  1  0.45172000  0.11417000  0.39810000  1.0
  H  H5  1  0.19422000  0.11306000  0.27269000  1.0
  H  H6  1  0.18238000  0.10534000  0.74269000  1.0
  H  H7  1  0.45402000  0.11319000  0.84223000  1.0
  H  H8  1  0.54828000  0.11417000  0.60190000  1.0
  H  H9  1  0.80578000  0.11306000  0.72731000  1.0
  H  H10  1  0.18238000  0.89466000  0.74269000  1.0
  H  H11  1  0.45402000  0.88681000  0.84223000  1.0
  H  H12  1  0.54828000  0.88583000  0.60190000  1.0
  H  H13  1  0.80578000  0.88694000  0.72731000  1.0
  H  H14  1  0.81762000  0.89466000  0.25730000  1.0
  H  H15  1  0.54598000  0.88681000  0.15777000  1.0
  H  H16  1  0.45172000  0.88583000  0.39810000  1.0
  H  H17  1  0.19422000  0.88694000  0.27269000  1.0
  C  C18  1  0.69135000  0.33217000  0.96412000  1.0
  C  C19  1  0.30865000  0.33217000  0.03588000  1.0
  C  C20  1  0.30863000  0.66784000  0.03588000  1.0
  C  C21  1  0.69135000  0.66783000  0.96412000  1.0
  C  C22  1  0.57239000  0.00000000  0.21187000  1.0
  C  C23  1  0.42788000  0.00000000  0.34343000  1.0
  C  C24  1  0.21434000  0.00000000  0.32980000  1.0
  C  C25  1  0.06363000  0.00000000  0.45004000  1.0
  C  C26  1  0.42761000  0.00000000  0.78813000  1.0
  C  C27  1  0.57213000  0.00000000  0.65657000  1.0
  C  C28  1  0.78566000  0.00000000  0.67020000  1.0
  C  C29  1  0.93637000  0.00000000  0.54996000  1.0
  N  N30  1  0.81062000  0.22245000  0.94209000  1.0
  N  N31  1  0.18938000  0.22245000  0.05791000  1.0
  N  N32  1  0.18939000  0.77754000  0.05791000  1.0
  N  N33  1  0.81061000  0.77755000  0.94209000  1.0
  N  N34  1  0.78374000  0.00000000  0.21016000  1.0
  N  N35  1  0.21626000  0.00000000  0.78984000  1.0
