# generated using pymatgen
data_Al4H9C29(BrO7)3
_symmetry_space_group_name_H-M   'P 1'
_cell_length_a   6.66094000
_cell_length_b   16.51670000
_cell_length_c   19.02230000
_cell_angle_alpha   75.48000000
_cell_angle_beta   89.93760000
_cell_angle_gamma   89.73280000
_symmetry_Int_Tables_number   1
_chemical_formula_structural   Al4H9C29(BrO7)3
_chemical_formula_sum   'Al4 H9 C29 Br3 O21'
_cell_volume   2025.90679969
_cell_formula_units_Z   1
loop_
 _symmetry_equiv_pos_site_id
 _symmetry_equiv_pos_as_xyz
  1  'x, y, z'
loop_
 _atom_site_type_symbol
 _atom_site_label
 _atom_site_symmetry_multiplicity
 _atom_site_fract_x
 _atom_site_fract_y
 _atom_site_fract_z
 _atom_site_occupancy
  Al  Al0  1  0.11334000  0.49638000  0.50021000  1.0
  Al  Al1  1  0.61279000  0.50007000  0.49930000  1.0
  Al  Al2  1  0.62844000  0.99898000  0.99596000  1.0
  Al  Al3  1  0.12816000  0.99818000  0.99933000  1.0
  H  H4  1  0.59793000  0.16587000  0.78650000  1.0
  H  H5  1  0.04446000  0.20074000  0.80836000  1.0
  H  H6  1  0.08617000  0.79426000  0.18492000  1.0
  H  H7  1  0.54874000  0.79449000  0.19086000  1.0
  H  H8  1  0.48075000  0.20151000  0.67009000  1.0
  H  H9  1  0.37197000  0.39279000  0.49542000  1.0
  H  H10  1  0.86797000  0.60614000  0.46003000  1.0
  H  H11  1  0.37913000  0.09812000  0.01257000  1.0
  H  H12  1  0.87667000  0.89078000  0.03472000  1.0
  C  C13  1  0.35219000  0.58420000  0.58400000  1.0
  C  C14  1  0.36762000  0.61353000  0.39239000  1.0
  C  C15  1  0.86968000  0.40923000  0.41668000  1.0
  C  C16  1  0.85379000  0.39218000  0.61041000  1.0
  C  C17  1  0.74122000  0.19851000  0.77286000  1.0
  C  C18  1  0.89457000  0.17493000  0.81974000  1.0
  C  C19  1  0.74997000  0.25912000  0.70265000  1.0
  C  C20  1  0.85992000  0.33055000  0.68390000  1.0
  C  C21  1  0.87208000  0.13565000  0.13628000  1.0
  C  C22  1  0.86812000  0.17870000  0.18029000  1.0
  C  C23  1  0.86506000  0.22586000  0.22831000  1.0
  C  C24  1  0.86337000  0.26933000  0.27243000  1.0
  C  C25  1  0.86319000  0.31633000  0.32058000  1.0
  C  C26  1  0.86451000  0.35927000  0.36466000  1.0
  C  C27  1  0.35576000  0.63322000  0.63669000  1.0
  C  C28  1  0.35971000  0.67678000  0.68025000  1.0
  C  C29  1  0.36386000  0.72513000  0.72726000  1.0
  C  C30  1  0.36700000  0.77036000  0.76994000  1.0
  C  C31  1  0.36986000  0.81927000  0.81650000  1.0
  C  C32  1  0.37250000  0.86382000  0.85927000  1.0
  C  C33  1  0.23462000  0.77483000  0.20757000  1.0
  C  C34  1  0.39706000  0.81322000  0.17250000  1.0
  C  C35  1  0.23985000  0.70478000  0.27162000  1.0
  C  C36  1  0.36622000  0.68936000  0.32913000  1.0
  C  C37  1  0.38447000  0.88229000  0.10605000  1.0
  C  C38  1  0.37421000  0.91402000  0.91119000  1.0
  C  C39  1  0.87686000  0.10977000  0.88843000  1.0
  C  C40  1  0.87832000  0.08602000  0.08393000  1.0
  C  C41  1  0.61421000  0.23946000  0.64650000  1.0
  Br  Br42  1  0.02859000  0.36957000  0.74796000  1.0
  Br  Br43  1  0.03555000  0.62500000  0.26641000  1.0
  Br  Br44  1  0.56717000  0.76726000  0.33983000  1.0
  O  O45  1  0.53758000  0.57954000  0.40989000  1.0
  O  O46  1  0.18381000  0.55351000  0.57299000  1.0
  O  O47  1  0.01901000  0.40512000  0.57654000  1.0
  O  O48  1  0.20152000  0.59200000  0.42414000  1.0
  O  O49  1  0.04227000  0.43520000  0.42981000  1.0
  O  O50  1  0.51771000  0.57728000  0.55239000  1.0
  O  O51  1  0.36551000  0.44732000  0.50589000  1.0
  O  O52  1  0.70238000  0.42234000  0.44447000  1.0
  O  O53  1  0.68728000  0.42776000  0.59119000  1.0
  O  O54  1  0.86403000  0.54945000  0.49047000  1.0
  O  O55  1  0.20405000  0.93702000  0.92968000  1.0
  O  O56  1  0.55398000  0.91190000  0.08055000  1.0
  O  O57  1  0.71025000  0.07194000  0.05740000  1.0
  O  O58  1  0.54538000  0.92953000  0.93417000  1.0
  O  O59  1  0.70443000  0.08088000  0.91031000  1.0
  O  O60  1  0.21240000  0.90633000  0.07899000  1.0
  O  O61  1  0.37780000  0.04840000  0.99419000  1.0
  O  O62  1  0.04261000  0.08790000  0.92157000  1.0
  O  O63  1  0.05148000  0.06177000  0.06901000  1.0
  O  O64  1  0.87875000  0.94818000  0.00590000  1.0
  O  O65  1  0.64235000  0.25988000  0.58102000  1.0
