# generated using pymatgen
data_Zn7H26C46(NO4)10
_symmetry_space_group_name_H-M   'P 1'
_cell_length_a   13.03140000
_cell_length_b   13.03140000
_cell_length_c   14.42760000
_cell_angle_alpha   88.42460000
_cell_angle_beta   88.42540000
_cell_angle_gamma   86.59510000
_symmetry_Int_Tables_number   1
_chemical_formula_structural   Zn7H26C46(NO4)10
_chemical_formula_sum   'Zn7 H26 C46 N10 O40'
_cell_volume   2443.98768779
_cell_formula_units_Z   1
loop_
 _symmetry_equiv_pos_site_id
 _symmetry_equiv_pos_as_xyz
  1  'x, y, z'
loop_
 _atom_site_type_symbol
 _atom_site_label
 _atom_site_symmetry_multiplicity
 _atom_site_fract_x
 _atom_site_fract_y
 _atom_site_fract_z
 _atom_site_occupancy
  Zn  Zn0  1  0.50000000  0.50000000  0.00000000  1.0
  Zn  Zn1  1  0.66504000  0.66504000  0.01365000  1.0
  Zn  Zn2  1  0.33496000  0.33496000  0.98635000  1.0
  Zn  Zn3  1  0.68352000  0.50314000  0.84681000  1.0
  Zn  Zn4  1  0.49686000  0.31648000  0.15320000  1.0
  Zn  Zn5  1  0.31649000  0.49686000  0.15319000  1.0
  Zn  Zn6  1  0.50314000  0.68352000  0.84681000  1.0
  H  H7  1  0.53476000  0.99239000  0.76743000  1.0
  H  H8  1  0.00761000  0.46524000  0.23256000  1.0
  H  H9  1  0.46524000  0.00761000  0.23256000  1.0
  H  H10  1  0.99238000  0.53476000  0.76744000  1.0
  H  H11  1  0.67118000  0.98899000  0.03577000  1.0
  H  H12  1  0.01101000  0.32883000  0.96422000  1.0
  H  H13  1  0.32882000  0.01101000  0.96423000  1.0
  H  H14  1  0.98899000  0.67118000  0.03577000  1.0
  H  H15  1  0.67318000  0.18038000  0.02773000  1.0
  H  H16  1  0.81962000  0.32682000  0.97227000  1.0
  H  H17  1  0.32682000  0.81962000  0.97227000  1.0
  H  H18  1  0.18039000  0.67318000  0.02772000  1.0
  H  H19  1  0.61679000  0.61679000  0.23049000  1.0
  H  H20  1  0.38321000  0.38321000  0.76952000  1.0
  H  H21  1  0.81108000  0.81110000  0.35387000  1.0
  H  H22  1  0.18891000  0.18891000  0.64614000  1.0
  H  H23  1  0.85677000  0.75719000  0.24658000  1.0
  H  H24  1  0.24282000  0.14322000  0.75342000  1.0
  H  H25  1  0.14322000  0.24281000  0.75342000  1.0
  H  H26  1  0.75718000  0.85679000  0.24658000  1.0
  H  H27  1  0.71721000  0.71722000  0.44030000  1.0
  H  H28  1  0.28278000  0.28279000  0.55970000  1.0
  H  H29  1  0.59402000  0.69528000  0.39807000  1.0
  H  H30  1  0.30471000  0.40597000  0.60194000  1.0
  H  H31  1  0.40597000  0.30472000  0.60193000  1.0
  H  H32  1  0.69528000  0.59403000  0.39807000  1.0
  C  C33  1  0.60707000  0.19466000  0.89230000  1.0
  C  C34  1  0.80534000  0.39293000  0.10770000  1.0
  C  C35  1  0.39293000  0.80534000  0.10770000  1.0
  C  C36  1  0.19466000  0.60708000  0.89230000  1.0
  C  C37  1  0.56994000  0.13901000  0.81973000  1.0
  C  C38  1  0.86099000  0.43006000  0.18026000  1.0
  C  C39  1  0.43007000  0.86099000  0.18026000  1.0
  C  C40  1  0.13901000  0.56993000  0.81974000  1.0
  C  C41  1  0.56592000  0.03255000  0.82446000  1.0
  C  C42  1  0.96745000  0.43407000  0.17554000  1.0
  C  C43  1  0.43408000  0.96745000  0.17554000  1.0
  C  C44  1  0.03255000  0.56592000  0.82446000  1.0
  C  C45  1  0.60211000  0.97854000  0.90285000  1.0
  C  C46  1  0.02147000  0.39789000  0.09714000  1.0
  C  C47  1  0.39789000  0.02146000  0.09714000  1.0
  C  C48  1  0.97853000  0.60211000  0.90286000  1.0
  C  C49  1  0.64268000  0.03214000  0.97502000  1.0
  C  C50  1  0.96786000  0.35732000  0.02497000  1.0
  C  C51  1  0.35731000  0.96785000  0.02498000  1.0
  C  C52  1  0.03215000  0.64269000  0.97503000  1.0
  C  C53  1  0.64449000  0.13897000  0.97006000  1.0
  C  C54  1  0.86103000  0.35551000  0.02994000  1.0
  C  C55  1  0.35552000  0.86103000  0.02994000  1.0
  C  C56  1  0.13898000  0.64449000  0.97006000  1.0
  C  C57  1  0.60437000  0.31049000  0.89255000  1.0
  C  C58  1  0.68951000  0.39563000  0.10745000  1.0
  C  C59  1  0.39563000  0.68951000  0.10745000  1.0
  C  C60  1  0.31049000  0.60437000  0.89255000  1.0
  C  C61  1  0.59480000  0.86425000  0.90971000  1.0
  C  C62  1  0.13575000  0.40520000  0.09028000  1.0
  C  C63  1  0.40520000  0.13575000  0.09028000  1.0
  C  C64  1  0.86425000  0.59480000  0.90972000  1.0
  C  C65  1  0.57021000  0.57022000  0.67749000  1.0
  C  C66  1  0.42979000  0.42978000  0.32251000  1.0
  C  C67  1  0.54088000  0.54088000  0.58114000  1.0
  C  C68  1  0.45913000  0.45912000  0.41886000  1.0
  C  C69  1  0.58822000  0.45428000  0.53835000  1.0
  C  C70  1  0.54572000  0.41177000  0.46166000  1.0
  C  C71  1  0.41178000  0.54571000  0.46165000  1.0
  C  C72  1  0.45429000  0.58822000  0.53834000  1.0
  C  C73  1  0.67426000  0.67427000  0.21989000  1.0
  C  C74  1  0.32573000  0.32573000  0.78011000  1.0
  C  C75  1  0.78877000  0.78879000  0.28512000  1.0
  C  C76  1  0.21122000  0.21122000  0.71489000  1.0
  C  C77  1  0.67664000  0.67665000  0.38839000  1.0
  C  C78  1  0.32335000  0.32336000  0.61161000  1.0
  N  N79  1  0.53251000  0.19307000  0.73569000  1.0
  N  N80  1  0.80693000  0.46750000  0.26430000  1.0
  N  N81  1  0.46750000  0.80693000  0.26431000  1.0
  N  N82  1  0.19307000  0.53251000  0.73569000  1.0
  N  N83  1  0.69111000  0.41032000  0.56808000  1.0
  N  N84  1  0.58968000  0.30889000  0.43193000  1.0
  N  N85  1  0.30890000  0.58968000  0.43192000  1.0
  N  N86  1  0.41032000  0.69111000  0.56807000  1.0
  N  N87  1  0.71174000  0.71175000  0.29582000  1.0
  N  N88  1  0.28825000  0.28825000  0.70418000  1.0
  O  O89  1  0.58918000  0.58919000  0.92227000  1.0
  O  O90  1  0.41082000  0.41081000  0.07772000  1.0
  O  O91  1  0.52211000  0.35737000  0.92082000  1.0
  O  O92  1  0.64263000  0.47790000  0.07917000  1.0
  O  O93  1  0.47789000  0.64263000  0.07918000  1.0
  O  O94  1  0.35737000  0.52211000  0.92082000  1.0
  O  O95  1  0.68838000  0.35197000  0.87079000  1.0
  O  O96  1  0.64803000  0.31163000  0.12920000  1.0
  O  O97  1  0.31162000  0.64803000  0.12920000  1.0
  O  O98  1  0.35197000  0.68838000  0.87080000  1.0
  O  O99  1  0.54221000  0.82565000  0.84711000  1.0
  O  O100  1  0.17435000  0.45779000  0.15289000  1.0
  O  O101  1  0.45779000  0.17435000  0.15289000  1.0
  O  O102  1  0.82565000  0.54221000  0.84711000  1.0
  O  O103  1  0.63939000  0.81650000  0.97632000  1.0
  O  O104  1  0.18350000  0.36062000  0.02367000  1.0
  O  O105  1  0.36061000  0.18350000  0.02368000  1.0
  O  O106  1  0.81650000  0.63938000  0.97633000  1.0
  O  O107  1  0.53996000  0.28789000  0.73048000  1.0
  O  O108  1  0.71212000  0.46003000  0.26952000  1.0
  O  O109  1  0.46004000  0.71211000  0.26952000  1.0
  O  O110  1  0.28788000  0.53996000  0.73048000  1.0
  O  O111  1  0.49465000  0.14258000  0.67508000  1.0
  O  O112  1  0.85742000  0.50536000  0.32491000  1.0
  O  O113  1  0.50535000  0.85742000  0.32492000  1.0
  O  O114  1  0.14258000  0.49465000  0.67508000  1.0
  O  O115  1  0.64224000  0.51508000  0.71391000  1.0
  O  O116  1  0.48492000  0.35775000  0.28610000  1.0
  O  O117  1  0.35778000  0.48493000  0.28609000  1.0
  O  O118  1  0.51507000  0.64224000  0.71391000  1.0
  O  O119  1  0.69757000  0.32208000  0.60058000  1.0
  O  O120  1  0.67792000  0.30243000  0.39943000  1.0
  O  O121  1  0.30244000  0.67793000  0.39943000  1.0
  O  O122  1  0.32208000  0.69756000  0.60056000  1.0
  O  O123  1  0.76203000  0.46694000  0.55086000  1.0
  O  O124  1  0.53306000  0.23797000  0.44916000  1.0
  O  O125  1  0.23798000  0.53305000  0.44913000  1.0
  O  O126  1  0.46694000  0.76203000  0.55085000  1.0
  O  O127  1  0.70376000  0.70378000  0.13966000  1.0
  O  O128  1  0.29623000  0.29623000  0.86034000  1.0
