# generated using pymatgen
data_GdH3(C5O4)2
_symmetry_space_group_name_H-M   'P 1'
_cell_length_a   7.23969000
_cell_length_b   8.00751000
_cell_length_c   8.71437000
_cell_angle_alpha   65.75480000
_cell_angle_beta   85.53580000
_cell_angle_gamma   83.61120000
_symmetry_Int_Tables_number   1
_chemical_formula_structural   GdH3(C5O4)2
_chemical_formula_sum   'Gd2 H6 C20 O16'
_cell_volume   457.48034884
_cell_formula_units_Z   2
loop_
 _symmetry_equiv_pos_site_id
 _symmetry_equiv_pos_as_xyz
  1  'x, y, z'
loop_
 _atom_site_type_symbol
 _atom_site_label
 _atom_site_symmetry_multiplicity
 _atom_site_fract_x
 _atom_site_fract_y
 _atom_site_fract_z
 _atom_site_occupancy
  Gd  Gd0  1  0.06843000  0.24225000  0.50707000  1.0
  Gd  Gd1  1  0.93157000  0.75775000  0.49293000  1.0
  H  H2  1  0.25577000  0.72084000  0.02207000  1.0
  H  H3  1  0.74423000  0.27916000  0.97793000  1.0
  H  H4  1  0.93072000  0.80186000  0.95906000  1.0
  H  H5  1  0.06928000  0.19814000  0.04094000  1.0
  H  H6  1  0.50243000  0.27988000  0.49917000  1.0
  H  H7  1  0.49757000  0.72011000  0.50083000  1.0
  C  C8  1  0.76110000  0.04278000  0.70056000  1.0
  C  C9  1  0.23889000  0.95722000  0.29944000  1.0
  C  C10  1  0.66356000  0.90288000  0.84860000  1.0
  C  C11  1  0.33644000  0.09712000  0.15140000  1.0
  C  C12  1  0.47092000  0.88270000  0.86712000  1.0
  C  C13  1  0.52907000  0.11730000  0.13288000  1.0
  C  C14  1  0.33159000  0.00919000  0.74646000  1.0
  C  C15  1  0.66841000  0.99081000  0.25354000  1.0
  C  C16  1  0.40374000  0.73812000  0.00807000  1.0
  C  C17  1  0.59626000  0.26188000  0.99193000  1.0
  C  C18  1  0.52191000  0.61717000  0.13211000  1.0
  C  C19  1  0.47809000  0.38283000  0.86789000  1.0
  C  C20  1  0.44142000  0.46995000  0.28101000  1.0
  C  C21  1  0.55858000  0.53005000  0.71899000  1.0
  C  C22  1  0.71354000  0.64127000  0.11624000  1.0
  C  C23  1  0.28646000  0.35873000  0.88376000  1.0
  C  C24  1  0.84718000  0.51330000  0.24562000  1.0
  C  C25  1  0.15282000  0.48670000  0.75438000  1.0
  C  C26  1  0.78255000  0.78326000  0.97447000  1.0
  C  C27  1  0.21745000  0.21674000  0.02553000  1.0
  O  O28  1  0.83701000  0.99310000  0.58541000  1.0
  O  O29  1  0.16299000  0.00690000  0.41459000  1.0
  O  O30  1  0.78740000  0.19719000  0.69686000  1.0
  O  O31  1  0.21260000  0.80281000  0.30314000  1.0
  O  O32  1  0.38528000  0.13261000  0.60445000  1.0
  O  O33  1  0.61471000  0.86739000  0.39555000  1.0
  O  O34  1  0.15911000  0.99738000  0.78022000  1.0
  O  O35  1  0.84089000  0.00262000  0.21978000  1.0
  O  O36  1  0.27857000  0.42906000  0.28899000  1.0
  O  O37  1  0.72143000  0.57094000  0.71101000  1.0
  O  O38  1  0.55863000  0.38806000  0.40314000  1.0
  O  O39  1  0.44137000  0.61194000  0.59686000  1.0
  O  O40  1  0.90837000  0.36187000  0.24149000  1.0
  O  O41  1  0.09163000  0.63814000  0.75851000  1.0
  O  O42  1  0.89905000  0.56118000  0.35911000  1.0
  O  O43  1  0.10095000  0.43882000  0.64089000  1.0
