# generated using pymatgen
data_CdH6C5N5Cl
_symmetry_space_group_name_H-M   'P 1'
_cell_length_a   6.43755000
_cell_length_b   10.16380000
_cell_length_c   12.51180000
_cell_angle_alpha   89.99980000
_cell_angle_beta   96.77360000
_cell_angle_gamma   89.99970000
_symmetry_Int_Tables_number   1
_chemical_formula_structural   CdH6C5N5Cl
_chemical_formula_sum   'Cd4 H24 C20 N20 Cl4'
_cell_volume   812.93251995
_cell_formula_units_Z   4
loop_
 _symmetry_equiv_pos_site_id
 _symmetry_equiv_pos_as_xyz
  1  'x, y, z'
loop_
 _atom_site_type_symbol
 _atom_site_label
 _atom_site_symmetry_multiplicity
 _atom_site_fract_x
 _atom_site_fract_y
 _atom_site_fract_z
 _atom_site_occupancy
  Cd  Cd0  1  0.51797000  0.44431000  0.14188000  1.0
  Cd  Cd1  1  0.98203000  0.94431000  0.35812000  1.0
  Cd  Cd2  1  0.48202000  0.55568000  0.85812000  1.0
  Cd  Cd3  1  0.01797000  0.05568000  0.64188000  1.0
  H  H4  1  0.46641000  0.72312000  0.25427000  1.0
  H  H5  1  0.03358000  0.22312000  0.24573000  1.0
  H  H6  1  0.53358000  0.27688000  0.74573000  1.0
  H  H7  1  0.96641000  0.77688000  0.75427000  1.0
  H  H8  1  0.20465000  0.67068000  0.55362000  1.0
  H  H9  1  0.29536000  0.17067000  0.94638000  1.0
  H  H10  1  0.79535000  0.32933000  0.44638000  1.0
  H  H11  1  0.70465000  0.82933000  0.05363000  1.0
  H  H12  1  0.18652000  0.42843000  0.51351000  1.0
  H  H13  1  0.31348000  0.92843000  0.98650000  1.0
  H  H14  1  0.81348000  0.57158000  0.48650000  1.0
  H  H15  1  0.68653000  0.07157000  0.01351000  1.0
  H  H16  1  0.31535000  0.34577000  0.34630000  1.0
  H  H17  1  0.18465000  0.84576000  0.15370000  1.0
  H  H18  1  0.68465000  0.65423000  0.65370000  1.0
  H  H19  1  0.81535000  0.15423000  0.84630000  1.0
  H  H20  1  0.43723000  0.90519000  0.37990000  1.0
  H  H21  1  0.06277000  0.40519000  0.12010000  1.0
  H  H22  1  0.56277000  0.09481000  0.62010000  1.0
  H  H23  1  0.93722000  0.59481000  0.87990000  1.0
  H  H24  1  0.34697000  0.88326000  0.49878000  1.0
  H  H25  1  0.15304000  0.38326000  0.00121000  1.0
  H  H26  1  0.65304000  0.11674000  0.50121000  1.0
  H  H27  1  0.84696000  0.61674000  0.99878000  1.0
  C  C28  1  0.40477000  0.66127000  0.31442000  1.0
  C  C29  1  0.09523000  0.16127000  0.18558000  1.0
  C  C30  1  0.59523000  0.33873000  0.68558000  1.0
  C  C31  1  0.90476000  0.83873000  0.81442000  1.0
  C  C32  1  0.33646000  0.71660000  0.40673000  1.0
  C  C33  1  0.16354000  0.21660000  0.09327000  1.0
  C  C34  1  0.66354000  0.28340000  0.59327000  1.0
  C  C35  1  0.83645000  0.78340000  0.90673000  1.0
  C  C36  1  0.25787000  0.63149000  0.48057000  1.0
  C  C37  1  0.24214000  0.13148000  0.01943000  1.0
  C  C38  1  0.74214000  0.36852000  0.51943000  1.0
  C  C39  1  0.75786000  0.86852000  0.98057000  1.0
  C  C40  1  0.24645000  0.49771000  0.45835000  1.0
  C  C41  1  0.25356000  0.99771000  0.04165000  1.0
  C  C42  1  0.75356000  0.50229000  0.54165000  1.0
  C  C43  1  0.74645000  0.00230000  0.95835000  1.0
  C  C44  1  0.31740000  0.45045000  0.36487000  1.0
  C  C45  1  0.18260000  0.95045000  0.13514000  1.0
  C  C46  1  0.68260000  0.54955000  0.63514000  1.0
  C  C47  1  0.81740000  0.04955000  0.86487000  1.0
  N  N48  1  0.61058000  0.25205000  0.24456000  1.0
  N  N49  1  0.88943000  0.75204000  0.25543000  1.0
  N  N50  1  0.38942000  0.74795000  0.75544000  1.0
  N  N51  1  0.11058000  0.24796000  0.74456000  1.0
  N  N52  1  0.62759000  0.14777000  0.28477000  1.0
  N  N53  1  0.87242000  0.64777000  0.21522000  1.0
  N  N54  1  0.37241000  0.85223000  0.71522000  1.0
  N  N55  1  0.12758000  0.35222000  0.78477000  1.0
  N  N56  1  0.64645000  0.04326000  0.32831000  1.0
  N  N57  1  0.85355000  0.54325000  0.17169000  1.0
  N  N58  1  0.35355000  0.95674000  0.67168000  1.0
  N  N59  1  0.14644000  0.45674000  0.82832000  1.0
  N  N60  1  0.39638000  0.53132000  0.29479000  1.0
  N  N61  1  0.10362000  0.03132000  0.20521000  1.0
  N  N62  1  0.60362000  0.46868000  0.70521000  1.0
  N  N63  1  0.89638000  0.96868000  0.79479000  1.0
  N  N64  1  0.33243000  0.85364000  0.41987000  1.0
  N  N65  1  0.16758000  0.35364000  0.08013000  1.0
  N  N66  1  0.66758000  0.14636000  0.58012000  1.0
  N  N67  1  0.83242000  0.64636000  0.91987000  1.0
  Cl  Cl68  1  0.36336000  0.65610000  0.03238000  1.0
  Cl  Cl69  1  0.13664000  0.15610000  0.46763000  1.0
  Cl  Cl70  1  0.63665000  0.34390000  0.96763000  1.0
  Cl  Cl71  1  0.86336000  0.84390000  0.53237000  1.0
