# generated using pymatgen
data_CoH20C18(NO)4
_symmetry_space_group_name_H-M   'P 1'
_cell_length_a   9.51515000
_cell_length_b   13.45850000
_cell_length_c   18.45180000
_cell_angle_alpha   109.82100000
_cell_angle_beta   90.01360000
_cell_angle_gamma   109.21700000
_symmetry_Int_Tables_number   1
_chemical_formula_structural   CoH20C18(NO)4
_chemical_formula_sum   'Co4 H80 C72 N16 O16'
_cell_volume   2082.37401661
_cell_formula_units_Z   4
loop_
 _symmetry_equiv_pos_site_id
 _symmetry_equiv_pos_as_xyz
  1  'x, y, z'
loop_
 _atom_site_type_symbol
 _atom_site_label
 _atom_site_symmetry_multiplicity
 _atom_site_fract_x
 _atom_site_fract_y
 _atom_site_fract_z
 _atom_site_occupancy
  Co  Co0  1  0.22353000  0.49103000  0.31902000  1.0
  Co  Co1  1  0.77691000  0.50888000  0.68093000  1.0
  Co  Co2  1  0.72150000  0.48598000  0.17393000  1.0
  Co  Co3  1  0.27873000  0.51406000  0.82606000  1.0
  H  H4  1  0.38484000  0.73465000  0.39653000  1.0
  H  H5  1  0.61495000  0.26507000  0.60334000  1.0
  H  H6  1  0.52738000  0.87185000  0.52609000  1.0
  H  H7  1  0.47229000  0.12803000  0.47382000  1.0
  H  H8  1  0.45613000  0.58982000  0.59992000  1.0
  H  H9  1  0.54380000  0.41018000  0.40009000  1.0
  H  H10  1  0.31288000  0.46405000  0.46856000  1.0
  H  H11  1  0.68711000  0.53583000  0.53147000  1.0
  H  H12  1  0.61234000  0.77029000  0.68436000  1.0
  H  H13  1  0.38764000  0.22978000  0.31559000  1.0
  H  H14  1  0.70671000  0.86840000  0.63973000  1.0
  H  H15  1  0.29312000  0.13157000  0.36019000  1.0
  H  H16  1  0.41159000  0.80955000  0.76201000  1.0
  H  H17  1  0.58837000  0.19050000  0.23797000  1.0
  H  H18  1  0.31077000  0.77884000  0.67129000  1.0
  H  H19  1  0.68913000  0.22120000  0.32870000  1.0
  H  H20  1  0.73132000  0.03394000  0.73510000  1.0
  H  H21  1  0.26863000  0.96606000  0.26482000  1.0
  H  H22  1  0.66186000  0.96274000  0.80099000  1.0
  H  H23  1  0.33809000  0.03724000  0.19894000  1.0
  H  H24  1  0.99505000  0.47841000  0.43076000  1.0
  H  H25  1  0.00492000  0.52156000  0.56920000  1.0
  H  H26  1  0.86233000  0.34502000  0.49707000  1.0
  H  H27  1  0.13760000  0.65501000  0.50298000  1.0
  H  H28  1  0.01798000  0.09741000  0.33874000  1.0
  H  H29  1  0.98200000  0.90259000  0.66138000  1.0
  H  H30  1  0.15319000  0.24348000  0.28199000  1.0
  H  H31  1  0.84671000  0.75643000  0.71809000  1.0
  H  H32  1  0.82573000  0.17275000  0.51818000  1.0
  H  H33  1  0.17424000  0.82731000  0.48190000  1.0
  H  H34  1  0.74042000  0.07259000  0.42451000  1.0
  H  H35  1  0.25955000  0.92749000  0.57556000  1.0
  H  H36  1  0.74068000  0.91117000  0.43984000  1.0
  H  H37  1  0.25921000  0.08881000  0.56024000  1.0
  H  H38  1  0.80380000  0.98781000  0.54123000  1.0
  H  H39  1  0.19604000  0.01215000  0.45884000  1.0
  H  H40  1  0.04697000  0.15616000  0.57737000  1.0
  H  H41  1  0.95294000  0.84383000  0.42270000  1.0
  H  H42  1  0.14068000  0.18688000  0.49988000  1.0
  H  H43  1  0.85922000  0.81309000  0.50020000  1.0
  H  H44  1  0.64447000  0.23644000  0.09539000  1.0
  H  H45  1  0.35564000  0.76354000  0.90459000  1.0
  H  H46  1  0.50504000  0.08540000  0.96886000  1.0
  H  H47  1  0.49499000  0.91462000  0.03114000  1.0
  H  H48  1  0.37228000  0.33445000  0.91945000  1.0
  H  H49  1  0.62779000  0.66558000  0.08058000  1.0
  H  H50  1  0.50573000  0.47253000  0.05061000  1.0
  H  H51  1  0.49446000  0.52748000  0.94938000  1.0
  H  H52  1  0.23014000  0.06631000  0.86729000  1.0
  H  H53  1  0.76990000  0.93371000  0.13272000  1.0
  H  H54  1  0.32957000  0.15525000  0.81804000  1.0
  H  H55  1  0.67045000  0.84481000  0.18197000  1.0
  H  H56  1  0.21320000  0.89311000  0.78235000  1.0
  H  H57  1  0.78678000  0.10695000  0.21766000  1.0
  H  H58  1  0.27730000  0.96127000  0.71462000  1.0
  H  H59  1  0.72266000  0.03880000  0.28538000  1.0
  H  H60  1  0.63328000  0.14879000  0.84559000  1.0
  H  H61  1  0.36676000  0.85122000  0.15437000  1.0
  H  H62  1  0.53692000  0.11897000  0.75362000  1.0
  H  H63  1  0.46306000  0.88106000  0.24636000  1.0
  H  H64  1  0.81327000  0.46517000  0.01056000  1.0
  H  H65  1  0.18687000  0.53482000  0.98941000  1.0
  H  H66  1  0.95444000  0.59648000  0.94474000  1.0
  H  H67  1  0.04553000  0.40353000  0.05521000  1.0
  H  H68  1  0.01887000  0.87125000  0.16165000  1.0
  H  H69  1  0.98104000  0.12875000  0.83833000  1.0
  H  H70  1  0.87764000  0.72884000  0.21971000  1.0
  H  H71  1  0.12242000  0.27109000  0.78025000  1.0
  H  H72  1  0.20743000  0.86402000  0.04401000  1.0
  H  H73  1  0.79250000  0.13602000  0.95597000  1.0
  H  H74  1  0.09829000  0.78249000  0.95189000  1.0
  H  H75  1  0.90167000  0.21757000  0.04808000  1.0
  H  H76  1  0.81686000  0.81313000  0.97600000  1.0
  H  H77  1  0.18307000  0.18690000  0.02400000  1.0
  H  H78  1  0.93140000  0.85681000  0.90831000  1.0
  H  H79  1  0.06850000  0.14321000  0.09170000  1.0
  H  H80  1  0.19478000  0.99725000  0.96058000  1.0
  H  H81  1  0.80515000  0.00279000  0.03942000  1.0
  H  H82  1  0.24943000  0.04541000  0.06266000  1.0
  H  H83  1  0.75050000  0.95463000  0.93735000  1.0
  C  C84  1  0.47846000  0.44048000  0.26083000  1.0
  C  C85  1  0.52160000  0.55947000  0.73909000  1.0
  C  C86  1  0.47721000  0.54209000  0.23941000  1.0
  C  C87  1  0.52314000  0.45799000  0.76066000  1.0
  C  C88  1  0.97744000  0.54307000  0.27958000  1.0
  C  C89  1  0.02269000  0.45690000  0.72044000  1.0
  C  C90  1  0.97898000  0.43999000  0.20893000  1.0
  C  C91  1  0.02137000  0.56012000  0.79105000  1.0
  C  C92  1  0.40278000  0.70661000  0.44359000  1.0
  C  C93  1  0.59701000  0.29323000  0.55635000  1.0
  C  C94  1  0.48258000  0.78167000  0.51507000  1.0
  C  C95  1  0.51716000  0.21822000  0.48486000  1.0
  C  C96  1  0.50528000  0.74103000  0.57304000  1.0
  C  C97  1  0.49461000  0.25891000  0.42689000  1.0
  C  C98  1  0.44218000  0.62490000  0.55628000  1.0
  C  C99  1  0.55773000  0.37505000  0.44372000  1.0
  C  C100  1  0.36263000  0.55500000  0.48347000  1.0
  C  C101  1  0.63727000  0.44489000  0.51654000  1.0
  C  C102  1  0.59536000  0.82013000  0.65033000  1.0
  C  C103  1  0.40449000  0.17987000  0.34960000  1.0
  C  C104  1  0.38807000  0.84754000  0.72064000  1.0
  C  C105  1  0.61186000  0.15250000  0.27934000  1.0
  C  C106  1  0.62876000  0.99381000  0.75716000  1.0
  C  C107  1  0.37121000  0.00620000  0.24278000  1.0
  C  C108  1  0.99918000  0.39368000  0.41331000  1.0
  C  C109  1  0.00074000  0.60630000  0.58669000  1.0
  C  C110  1  0.92389000  0.31879000  0.44879000  1.0
  C  C111  1  0.07607000  0.68126000  0.55128000  1.0
  C  C112  1  0.93048000  0.21032000  0.42320000  1.0
  C  C113  1  0.06949000  0.78973000  0.57692000  1.0
  C  C114  1  0.01183000  0.18173000  0.36104000  1.0
  C  C115  1  0.98809000  0.81827000  0.63908000  1.0
  C  C116  1  0.08606000  0.26159000  0.32925000  1.0
  C  C117  1  0.91380000  0.73833000  0.67081000  1.0
  C  C118  1  0.85000000  0.12664000  0.45993000  1.0
  C  C119  1  0.14995000  0.87340000  0.54016000  1.0
  C  C120  1  0.84136000  0.95894000  0.48293000  1.0
  C  C121  1  0.15852000  0.04104000  0.51715000  1.0
  C  C122  1  0.07141000  0.11764000  0.51747000  1.0
  C  C123  1  0.92848000  0.88234000  0.48261000  1.0
  C  C124  1  0.58051000  0.25367000  0.05506000  1.0
  C  C125  1  0.41962000  0.74634000  0.94494000  1.0
  C  C126  1  0.50402000  0.17092000  0.98510000  1.0
  C  C127  1  0.49602000  0.82909000  0.01491000  1.0
  C  C128  1  0.42767000  0.19827000  0.93405000  1.0
  C  C129  1  0.57236000  0.80173000  0.06595000  1.0
  C  C130  1  0.42839000  0.30873000  0.95760000  1.0
  C  C131  1  0.57170000  0.69128000  0.04243000  1.0
  C  C132  1  0.50455000  0.38618000  0.02926000  1.0
  C  C133  1  0.49561000  0.61383000  0.97075000  1.0
  C  C134  1  0.34415000  0.11156000  0.85747000  1.0
  C  C135  1  0.65588000  0.88846000  0.14253000  1.0
  C  C136  1  0.31405000  0.93305000  0.75909000  1.0
  C  C137  1  0.68591000  0.06699000  0.24090000  1.0
  C  C138  1  0.55643000  0.08060000  0.79566000  1.0
  C  C139  1  0.44359000  0.91942000  0.20431000  1.0
  C  C140  1  0.86096000  0.55586000  0.04221000  1.0
  C  C141  1  0.13912000  0.44413000  0.95776000  1.0
  C  C142  1  0.93935000  0.62886000  0.00580000  1.0
  C  C143  1  0.06060000  0.37113000  0.99414000  1.0
  C  C144  1  0.99981000  0.74447000  0.04855000  1.0
  C  C145  1  0.00012000  0.25552000  0.95139000  1.0
  C  C146  1  0.97580000  0.78151000  0.12663000  1.0
  C  C147  1  0.02414000  0.21847000  0.87332000  1.0
  C  C148  1  0.89685000  0.70360000  0.15893000  1.0
  C  C149  1  0.10321000  0.29636000  0.84103000  1.0
  C  C150  1  0.09207000  0.82745000  0.01379000  1.0
  C  C151  1  0.90786000  0.17259000  0.98619000  1.0
  C  C152  1  0.90455000  0.88527000  0.96894000  1.0
  C  C153  1  0.09537000  0.11479000  0.03107000  1.0
  C  C154  1  0.15361000  0.01845000  0.01835000  1.0
  C  C155  1  0.84633000  0.98161000  0.98166000  1.0
  N  N156  1  0.34306000  0.59421000  0.42750000  1.0
  N  N157  1  0.65683000  0.40564000  0.57250000  1.0
  N  N158  1  0.52572000  0.90144000  0.69222000  1.0
  N  N159  1  0.47416000  0.09859000  0.30773000  1.0
  N  N160  1  0.08285000  0.36731000  0.35587000  1.0
  N  N161  1  0.91706000  0.63263000  0.64413000  1.0
  N  N162  1  0.93306000  0.05435000  0.46309000  1.0
  N  N163  1  0.06682000  0.94564000  0.53699000  1.0
  N  N164  1  0.58303000  0.36068000  0.07672000  1.0
  N  N165  1  0.41718000  0.63935000  0.92329000  1.0
  N  N166  1  0.41567000  0.02913000  0.82275000  1.0
  N  N167  1  0.58435000  0.97091000  0.17723000  1.0
  N  N168  1  0.83984000  0.59165000  0.11751000  1.0
  N  N169  1  0.16031000  0.40829000  0.88247000  1.0
  N  N170  1  0.03686000  0.92030000  0.02477000  1.0
  N  N171  1  0.96307000  0.07974000  0.97523000  1.0
  O  O172  1  0.37282000  0.40306000  0.29755000  1.0
  O  O173  1  0.62712000  0.59688000  0.70232000  1.0
  O  O174  1  0.37736000  0.58370000  0.26392000  1.0
  O  O175  1  0.62316000  0.41654000  0.73626000  1.0
  O  O176  1  0.58408000  0.40330000  0.24202000  1.0
  O  O177  1  0.41589000  0.59659000  0.75789000  1.0
  O  O178  1  0.57691000  0.57603000  0.19875000  1.0
  O  O179  1  0.42351000  0.42406000  0.80135000  1.0
  O  O180  1  0.07922000  0.58015000  0.33673000  1.0
  O  O181  1  0.92087000  0.41968000  0.66328000  1.0
  O  O182  1  0.08578000  0.40417000  0.20989000  1.0
  O  O183  1  0.91474000  0.59610000  0.79004000  1.0
  O  O184  1  0.87529000  0.58241000  0.27552000  1.0
  O  O185  1  0.12473000  0.41747000  0.72447000  1.0
  O  O186  1  0.87186000  0.39981000  0.15402000  1.0
  O  O187  1  0.12846000  0.60041000  0.84598000  1.0
