# generated using pymatgen
data_BiH10C5S2NCl2
_symmetry_space_group_name_H-M   'P 1'
_cell_length_a   7.70118000
_cell_length_b   9.68623000
_cell_length_c   14.77840000
_cell_angle_alpha   89.99970000
_cell_angle_beta   89.99990000
_cell_angle_gamma   86.47690000
_symmetry_Int_Tables_number   1
_chemical_formula_structural   BiH10C5S2NCl2
_chemical_formula_sum   'Bi4 H40 C20 S8 N4 Cl8'
_cell_volume   1100.31724816
_cell_formula_units_Z   4
loop_
 _symmetry_equiv_pos_site_id
 _symmetry_equiv_pos_as_xyz
  1  'x, y, z'
loop_
 _atom_site_type_symbol
 _atom_site_label
 _atom_site_symmetry_multiplicity
 _atom_site_fract_x
 _atom_site_fract_y
 _atom_site_fract_z
 _atom_site_occupancy
  Bi  Bi0  1  0.23996000  0.21715000  0.78486000  1.0
  Bi  Bi1  1  0.26006000  0.78286000  0.28487000  1.0
  Bi  Bi2  1  0.76007000  0.78284000  0.21513000  1.0
  Bi  Bi3  1  0.73996000  0.21715000  0.71514000  1.0
  H  H4  1  0.69740000  0.15601000  0.13536000  1.0
  H  H5  1  0.80260000  0.84398000  0.63536000  1.0
  H  H6  1  0.30260000  0.84399000  0.86464000  1.0
  H  H7  1  0.19740000  0.15602000  0.36464000  1.0
  H  H8  1  0.70271000  0.08577000  0.02501000  1.0
  H  H9  1  0.79728000  0.91422000  0.52501000  1.0
  H  H10  1  0.29729000  0.91423000  0.97499000  1.0
  H  H11  1  0.20271000  0.08578000  0.47499000  1.0
  H  H12  1  0.84400000  0.29705000  0.96678000  1.0
  H  H13  1  0.65600000  0.70295000  0.46678000  1.0
  H  H14  1  0.15599000  0.70295000  0.03322000  1.0
  H  H15  1  0.34400000  0.29706000  0.53322000  1.0
  H  H16  1  0.84641000  0.36556000  0.07872000  1.0
  H  H17  1  0.65359000  0.63444000  0.57872000  1.0
  H  H18  1  0.15359000  0.63444000  0.92128000  1.0
  H  H19  1  0.34641000  0.36557000  0.42128000  1.0
  H  H20  1  0.96939000  0.20945000  0.05206000  1.0
  H  H21  1  0.53060000  0.79055000  0.55206000  1.0
  H  H22  1  0.03060000  0.79055000  0.94794000  1.0
  H  H23  1  0.46940000  0.20945000  0.44794000  1.0
  H  H24  1  0.56855000  0.39252000  0.15035000  1.0
  H  H25  1  0.93144000  0.60747000  0.65035000  1.0
  H  H26  1  0.43144000  0.60748000  0.84965000  1.0
  H  H27  1  0.06855000  0.39253000  0.34965000  1.0
  H  H28  1  0.37892000  0.43464000  0.08631000  1.0
  H  H29  1  0.12108000  0.56536000  0.58631000  1.0
  H  H30  1  0.62108000  0.56536000  0.91369000  1.0
  H  H31  1  0.87892000  0.43464000  0.41369000  1.0
  H  H32  1  0.23707000  0.22799000  0.15155000  1.0
  H  H33  1  0.26293000  0.77201000  0.65155000  1.0
  H  H34  1  0.76293000  0.77201000  0.84845000  1.0
  H  H35  1  0.73707000  0.22799000  0.34845000  1.0
  H  H36  1  0.42721000  0.18575000  0.21721000  1.0
  H  H37  1  0.07279000  0.81424000  0.71721000  1.0
  H  H38  1  0.57279000  0.81425000  0.78280000  1.0
  H  H39  1  0.92721000  0.18576000  0.28279000  1.0
  H  H40  1  0.30157000  0.34323000  0.23729000  1.0
  H  H41  1  0.19843000  0.65677000  0.73729000  1.0
  H  H42  1  0.69843000  0.65678000  0.76271000  1.0
  H  H43  1  0.80156000  0.34323000  0.26271000  1.0
  C  C44  1  0.44083000  0.24184000  0.96801000  1.0
  C  C45  1  0.05917000  0.75816000  0.46801000  1.0
  C  C46  1  0.55917000  0.75816000  0.03199000  1.0
  C  C47  1  0.94083000  0.24184000  0.53199000  1.0
  C  C48  1  0.69593000  0.18298000  0.06323000  1.0
  C  C49  1  0.80407000  0.81701000  0.56323000  1.0
  C  C50  1  0.30407000  0.81702000  0.93677000  1.0
  C  C51  1  0.19593000  0.18299000  0.43677000  1.0
  C  C52  1  0.84701000  0.26984000  0.03888000  1.0
  C  C53  1  0.65298000  0.73016000  0.53888000  1.0
  C  C54  1  0.15298000  0.73016000  0.96112000  1.0
  C  C55  1  0.34702000  0.26984000  0.46112000  1.0
  C  C56  1  0.45722000  0.34851000  0.11722000  1.0
  C  C57  1  0.04278000  0.65149000  0.61722000  1.0
  C  C58  1  0.54278000  0.65149000  0.88278000  1.0
  C  C59  1  0.95722000  0.34851000  0.38278000  1.0
  C  C60  1  0.34962000  0.27078000  0.18464000  1.0
  C  C61  1  0.15038000  0.72921000  0.68464000  1.0
  C  C62  1  0.65038000  0.72922000  0.81536000  1.0
  C  C63  1  0.84961000  0.27078000  0.31536000  1.0
  S  S64  1  0.51536000  0.12159000  0.88722000  1.0
  S  S65  1  0.98464000  0.87841000  0.38722000  1.0
  S  S66  1  0.48464000  0.87841000  0.11278000  1.0
  S  S67  1  0.01536000  0.12159000  0.61278000  1.0
  S  S68  1  0.24951000  0.33821000  0.94653000  1.0
  S  S69  1  0.25049000  0.66179000  0.44653000  1.0
  S  S70  1  0.75049000  0.66179000  0.05346000  1.0
  S  S71  1  0.74951000  0.33821000  0.55347000  1.0
  N  N72  1  0.52686000  0.25673000  0.04478000  1.0
  N  N73  1  0.97313000  0.74327000  0.54478000  1.0
  N  N74  1  0.47314000  0.74327000  0.95522000  1.0
  N  N75  1  0.02686000  0.25673000  0.45522000  1.0
  Cl  Cl76  1  0.94336000  0.41544000  0.78561000  1.0
  Cl  Cl77  1  0.55663000  0.58456000  0.28560000  1.0
  Cl  Cl78  1  0.05664000  0.58456000  0.21439000  1.0
  Cl  Cl79  1  0.44337000  0.41544000  0.71440000  1.0
  Cl  Cl80  1  0.99210000  0.04283000  0.83610000  1.0
  Cl  Cl81  1  0.50789000  0.95716000  0.33610000  1.0
  Cl  Cl82  1  0.00790000  0.95717000  0.16389000  1.0
  Cl  Cl83  1  0.49210000  0.04284000  0.66390000  1.0
