# generated using pymatgen
data_AgH6C8N3
_symmetry_space_group_name_H-M   'P 1'
_cell_length_a   6.42019000
_cell_length_b   8.54208000
_cell_length_c   13.67270000
_cell_angle_alpha   90.00140000
_cell_angle_beta   90.00170000
_cell_angle_gamma   84.50110000
_symmetry_Int_Tables_number   1
_chemical_formula_structural   AgH6C8N3
_chemical_formula_sum   'Ag4 H24 C32 N12'
_cell_volume   746.38444566
_cell_formula_units_Z   4
loop_
 _symmetry_equiv_pos_site_id
 _symmetry_equiv_pos_as_xyz
  1  'x, y, z'
loop_
 _atom_site_type_symbol
 _atom_site_label
 _atom_site_symmetry_multiplicity
 _atom_site_fract_x
 _atom_site_fract_y
 _atom_site_fract_z
 _atom_site_occupancy
  Ag  Ag0  1  0.84236000  0.73139000  0.54109000  1.0
  Ag  Ag1  1  0.65760000  0.76859000  0.04110000  1.0
  Ag  Ag2  1  0.15761000  0.26859000  0.45890000  1.0
  Ag  Ag3  1  0.34244000  0.23141000  0.95891000  1.0
  H  H4  1  0.10664000  0.89580000  0.38891000  1.0
  H  H5  1  0.39329000  0.60420000  0.88889000  1.0
  H  H6  1  0.89334000  0.10418000  0.61108000  1.0
  H  H7  1  0.60674000  0.39580000  0.11112000  1.0
  H  H8  1  0.53386000  0.91347000  0.39929000  1.0
  H  H9  1  0.96607000  0.58652000  0.89928000  1.0
  H  H10  1  0.46611000  0.08652000  0.60071000  1.0
  H  H11  1  0.03397000  0.41348000  0.10072000  1.0
  H  H12  1  0.68863000  0.37101000  0.79863000  1.0
  H  H13  1  0.81138000  0.12899000  0.29863000  1.0
  H  H14  1  0.31133000  0.62900000  0.20137000  1.0
  H  H15  1  0.18866000  0.87099000  0.70139000  1.0
  H  H16  1  0.68890000  0.57218000  0.66845000  1.0
  H  H17  1  0.81109000  0.92783000  0.16845000  1.0
  H  H18  1  0.31107000  0.42783000  0.33154000  1.0
  H  H19  1  0.18893000  0.07216000  0.83156000  1.0
  H  H20  1  0.03747000  0.50644000  0.61798000  1.0
  H  H21  1  0.46252000  0.99355000  0.11798000  1.0
  H  H22  1  0.96250000  0.49356000  0.38202000  1.0
  H  H23  1  0.53749000  0.00647000  0.88201000  1.0
  H  H24  1  0.06505000  0.31072000  0.75089000  1.0
  H  H25  1  0.43497000  0.18928000  0.25089000  1.0
  H  H26  1  0.93493000  0.68928000  0.24911000  1.0
  H  H27  1  0.56507000  0.81072000  0.74912000  1.0
  C  C28  1  0.34826000  0.67820000  0.55341000  1.0
  C  C29  1  0.15172000  0.82179000  0.05340000  1.0
  C  C30  1  0.65172000  0.32179000  0.44659000  1.0
  C  C31  1  0.84830000  0.17823000  0.94659000  1.0
  C  C32  1  0.22123000  0.83566000  0.43750000  1.0
  C  C33  1  0.27872000  0.66435000  0.93750000  1.0
  C  C34  1  0.77874000  0.16433000  0.56249000  1.0
  C  C35  1  0.72132000  0.33567000  0.06251000  1.0
  C  C36  1  0.43520000  0.84448000  0.44279000  1.0
  C  C37  1  0.06477000  0.65552000  0.94278000  1.0
  C  C38  1  0.56479000  0.15551000  0.55720000  1.0
  C  C39  1  0.93528000  0.34449000  0.05721000  1.0
  C  C40  1  0.54631000  0.40442000  0.75677000  1.0
  C  C41  1  0.95368000  0.09557000  0.25677000  1.0
  C  C42  1  0.45366000  0.59558000  0.24323000  1.0
  C  C43  1  0.04632000  0.90442000  0.74323000  1.0
  C  C44  1  0.54552000  0.51757000  0.68368000  1.0
  C  C45  1  0.95449000  0.98243000  0.18368000  1.0
  C  C46  1  0.45445000  0.48243000  0.31632000  1.0
  C  C47  1  0.04554000  0.01757000  0.81633000  1.0
  C  C48  1  0.36058000  0.56112000  0.63089000  1.0
  C  C49  1  0.13941000  0.93888000  0.13089000  1.0
  C  C50  1  0.63938000  0.43887000  0.36911000  1.0
  C  C51  1  0.86062000  0.06114000  0.86911000  1.0
  C  C52  1  0.18553000  0.48226000  0.65656000  1.0
  C  C53  1  0.31446000  0.01773000  0.15656000  1.0
  C  C54  1  0.81443000  0.51774000  0.34344000  1.0
  C  C55  1  0.68556000  0.98229000  0.84343000  1.0
  C  C56  1  0.20094000  0.37165000  0.73105000  1.0
  C  C57  1  0.29907000  0.12834000  0.23106000  1.0
  C  C58  1  0.79904000  0.62834000  0.26895000  1.0
  C  C59  1  0.70095000  0.87167000  0.76894000  1.0
  N  N60  1  0.51441000  0.74626000  0.51561000  1.0
  N  N61  1  0.98555000  0.75374000  0.01560000  1.0
  N  N62  1  0.48557000  0.25373000  0.48439000  1.0
  N  N63  1  0.01445000  0.24627000  0.98439000  1.0
  N  N64  1  0.16693000  0.73134000  0.50687000  1.0
  N  N65  1  0.33302000  0.76867000  0.00686000  1.0
  N  N66  1  0.83304000  0.26865000  0.49312000  1.0
  N  N67  1  0.66701000  0.23134000  0.99314000  1.0
  N  N68  1  0.37744000  0.33142000  0.78182000  1.0
  N  N69  1  0.12256000  0.16857000  0.28183000  1.0
  N  N70  1  0.62253000  0.66858000  0.21818000  1.0
  N  N71  1  0.87746000  0.83142000  0.71818000  1.0
