# generated using pymatgen
data_ZrCdH6(C2O5)3
_symmetry_space_group_name_H-M   'P 1'
_cell_length_a   8.86531000
_cell_length_b   10.08340000
_cell_length_c   16.62970000
_cell_angle_alpha   90.00000000
_cell_angle_beta   90.00000000
_cell_angle_gamma   105.61700000
_symmetry_Int_Tables_number   1
_chemical_formula_structural   ZrCdH6(C2O5)3
_chemical_formula_sum   'Zr4 Cd4 H24 C24 O60'
_cell_volume   1431.68980982
_cell_formula_units_Z   4
loop_
 _symmetry_equiv_pos_site_id
 _symmetry_equiv_pos_as_xyz
  1  'x, y, z'
loop_
 _atom_site_type_symbol
 _atom_site_label
 _atom_site_symmetry_multiplicity
 _atom_site_fract_x
 _atom_site_fract_y
 _atom_site_fract_z
 _atom_site_occupancy
  Zr  Zr0  1  0.18973000  0.88502000  0.40765000  1.0
  Zr  Zr1  1  0.81027000  0.61498000  0.90765000  1.0
  Zr  Zr2  1  0.81027000  0.11498000  0.59235000  1.0
  Zr  Zr3  1  0.18973000  0.38502000  0.09235000  1.0
  Cd  Cd4  1  0.44608000  0.52998000  0.62801000  1.0
  Cd  Cd5  1  0.55392000  0.97002000  0.12801000  1.0
  Cd  Cd6  1  0.55392000  0.47003000  0.37199000  1.0
  Cd  Cd7  1  0.44608000  0.02997000  0.87199000  1.0
  H  H8  1  0.42952000  0.50813000  0.80224000  1.0
  H  H9  1  0.57048000  0.99187000  0.30223000  1.0
  H  H10  1  0.57048000  0.49187000  0.19776000  1.0
  H  H11  1  0.42952000  0.00813000  0.69776000  1.0
  H  H12  1  0.33570000  0.61536000  0.78475000  1.0
  H  H13  1  0.66430000  0.88464000  0.28475000  1.0
  H  H14  1  0.66430000  0.38464000  0.21525000  1.0
  H  H15  1  0.33570000  0.11536000  0.71525000  1.0
  H  H16  1  0.22964000  0.98925000  0.24677000  1.0
  H  H17  1  0.77036000  0.51075000  0.74677000  1.0
  H  H18  1  0.77036000  0.01075000  0.75323000  1.0
  H  H19  1  0.22964000  0.48925000  0.25323000  1.0
  H  H20  1  0.06326000  0.99904000  0.27929000  1.0
  H  H21  1  0.93674000  0.50096000  0.77929000  1.0
  H  H22  1  0.93674000  0.00096000  0.72071000  1.0
  H  H23  1  0.06326000  0.49904000  0.22071000  1.0
  H  H24  1  0.13138000  0.98163000  0.56851000  1.0
  H  H25  1  0.86862000  0.51837000  0.06851000  1.0
  H  H26  1  0.86861000  0.01837000  0.43149000  1.0
  H  H27  1  0.13139000  0.48163000  0.93149000  1.0
  H  H28  1  0.22081000  0.85942000  0.57628000  1.0
  H  H29  1  0.77920000  0.64058000  0.07628000  1.0
  H  H30  1  0.77919000  0.14059000  0.42372000  1.0
  H  H31  1  0.22081000  0.35941000  0.92372000  1.0
  C  C32  1  0.39155000  0.68956000  0.43451000  1.0
  C  C33  1  0.60845000  0.81044000  0.93451000  1.0
  C  C34  1  0.60845000  0.31044000  0.56549000  1.0
  C  C35  1  0.39155000  0.18956000  0.06549000  1.0
  C  C36  1  0.34630000  0.67278000  0.34473000  1.0
  C  C37  1  0.65370000  0.82722000  0.84473000  1.0
  C  C38  1  0.65370000  0.32723000  0.65527000  1.0
  C  C39  1  0.34630000  0.17277000  0.15527000  1.0
  C  C40  1  0.69796000  0.80190000  0.59886000  1.0
  C  C41  1  0.30204000  0.69810000  0.09886000  1.0
  C  C42  1  0.30204000  0.19811000  0.40114000  1.0
  C  C43  1  0.69796000  0.30189000  0.90114000  1.0
  C  C44  1  0.55168000  0.84868000  0.62316000  1.0
  C  C45  1  0.44832000  0.65132000  0.12316000  1.0
  C  C46  1  0.44832000  0.15132000  0.37684000  1.0
  C  C47  1  0.55168000  0.34868000  0.87684000  1.0
  C  C48  1  0.16559000  0.23378000  0.61532000  1.0
  C  C49  1  0.83441000  0.26622000  0.11532000  1.0
  C  C50  1  0.83441000  0.76622000  0.38468000  1.0
  C  C51  1  0.16559000  0.73378000  0.88468000  1.0
  C  C52  1  0.10474000  0.35806000  0.59035000  1.0
  C  C53  1  0.89526000  0.14194000  0.09035000  1.0
  C  C54  1  0.89526000  0.64194000  0.40965000  1.0
  C  C55  1  0.10474000  0.85806000  0.90965000  1.0
  O  O56  1  0.46346000  0.61320000  0.46664000  1.0
  O  O57  1  0.53654000  0.88680000  0.96664000  1.0
  O  O58  1  0.53654000  0.38681000  0.53336000  1.0
  O  O59  1  0.46346000  0.11319000  0.03336000  1.0
  O  O60  1  0.34560000  0.78511000  0.46962000  1.0
  O  O61  1  0.65440000  0.71489000  0.96962000  1.0
  O  O62  1  0.65440000  0.21489000  0.53038000  1.0
  O  O63  1  0.34560000  0.28511000  0.03038000  1.0
  O  O64  1  0.27380000  0.75714000  0.31814000  1.0
  O  O65  1  0.72620000  0.74286000  0.81814000  1.0
  O  O66  1  0.72620000  0.24286000  0.68186000  1.0
  O  O67  1  0.27380000  0.25714000  0.18186000  1.0
  O  O68  1  0.37708000  0.57799000  0.30417000  1.0
  O  O69  1  0.62293000  0.92201000  0.80417000  1.0
  O  O70  1  0.62293000  0.42201000  0.69583000  1.0
  O  O71  1  0.37707000  0.07799000  0.19583000  1.0
  O  O72  1  0.81632000  0.90162000  0.57794000  1.0
  O  O73  1  0.18368000  0.59838000  0.07794000  1.0
  O  O74  1  0.18368000  0.09838000  0.42206000  1.0
  O  O75  1  0.81632000  0.40162000  0.92206000  1.0
  O  O76  1  0.69565000  0.67836000  0.60127000  1.0
  O  O77  1  0.30435000  0.82164000  0.10127000  1.0
  O  O78  1  0.30435000  0.32164000  0.39873000  1.0
  O  O79  1  0.69565000  0.17836000  0.89873000  1.0
  O  O80  1  0.57505000  0.98126000  0.62363000  1.0
  O  O81  1  0.42495000  0.51874000  0.12363000  1.0
  O  O82  1  0.42495000  0.01874000  0.37637000  1.0
  O  O83  1  0.57505000  0.48126000  0.87637000  1.0
  O  O84  1  0.42626000  0.76398000  0.64091000  1.0
  O  O85  1  0.57374000  0.73602000  0.14091000  1.0
  O  O86  1  0.57374000  0.23602000  0.35909000  1.0
  O  O87  1  0.42626000  0.26397000  0.85909000  1.0
  O  O88  1  0.35691000  0.53108000  0.76294000  1.0
  O  O89  1  0.64309000  0.96892000  0.26294000  1.0
  O  O90  1  0.64309000  0.46892000  0.23706000  1.0
  O  O91  1  0.35691000  0.03108000  0.73706000  1.0
  O  O92  1  0.06440000  0.11552000  0.60160000  1.0
  O  O93  1  0.93561000  0.38448000  0.10160000  1.0
  O  O94  1  0.93560000  0.88448000  0.39840000  1.0
  O  O95  1  0.06440000  0.61552000  0.89840000  1.0
  O  O96  1  0.29568000  0.25088000  0.64714000  1.0
  O  O97  1  0.70432000  0.24912000  0.14714000  1.0
  O  O98  1  0.70432000  0.74912000  0.35286000  1.0
  O  O99  1  0.29568000  0.75088000  0.85285000  1.0
  O  O100  1  0.19290000  0.47724000  0.58768000  1.0
  O  O101  1  0.80710000  0.02276000  0.08768000  1.0
  O  O102  1  0.80710000  0.52276000  0.41232000  1.0
  O  O103  1  0.19290000  0.97724000  0.91233000  1.0
  O  O104  1  0.95727000  0.32508000  0.57553000  1.0
  O  O105  1  0.04273000  0.17492000  0.07552000  1.0
  O  O106  1  0.04274000  0.67492000  0.42447000  1.0
  O  O107  1  0.95726000  0.82508000  0.92448000  1.0
  O  O108  1  0.13617000  0.94202000  0.28086000  1.0
  O  O109  1  0.86383000  0.55798000  0.78086000  1.0
  O  O110  1  0.86383000  0.05798000  0.71914000  1.0
  O  O111  1  0.13617000  0.44202000  0.21914000  1.0
  O  O112  1  0.17428000  0.91283000  0.53936000  1.0
  O  O113  1  0.82572000  0.58717000  0.03936000  1.0
  O  O114  1  0.82571000  0.08717000  0.46064000  1.0
  O  O115  1  0.17429000  0.41283000  0.96064000  1.0
