# generated using pymatgen
data_AlH15C24(NO2)3
_symmetry_space_group_name_H-M   'P 1'
_cell_length_a   4.01574000
_cell_length_b   28.97272582
_cell_length_c   28.97170000
_cell_angle_alpha   59.99951378
_cell_angle_beta   89.99880000
_cell_angle_gamma   90.00040000
_symmetry_Int_Tables_number   1
_chemical_formula_structural   AlH15C24(NO2)3
_chemical_formula_sum   'Al2 H30 C48 N6 O12'
_cell_volume   2919.15681890
_cell_formula_units_Z   2
loop_
 _symmetry_equiv_pos_site_id
 _symmetry_equiv_pos_as_xyz
  1  'x, y, z'
loop_
 _atom_site_type_symbol
 _atom_site_label
 _atom_site_symmetry_multiplicity
 _atom_site_fract_x
 _atom_site_fract_y
 _atom_site_fract_z
 _atom_site_occupancy
  Al  Al0  1  0.00139000  0.50000000  0.00000000  1.0
  Al  Al1  1  0.00240000  0.16666000  0.66668000  1.0
  H  H2  1  0.85021000  0.29734000  0.52469000  1.0
  H  H3  1  0.90880000  0.34914000  0.42569000  1.0
  H  H4  1  0.30752000  0.23159000  0.41481000  1.0
  H  H5  1  0.30774000  0.43511000  0.25186000  1.0
  H  H6  1  0.84912000  0.36928000  0.14195000  1.0
  H  H7  1  0.90822000  0.31750000  0.24094000  1.0
  H  H8  1  0.85012000  0.17798000  0.79735000  1.0
  H  H9  1  0.90866000  0.22517000  0.84915000  1.0
  H  H10  1  0.30757000  0.35361000  0.73158000  1.0
  H  H11  1  0.30771000  0.31303000  0.93512000  1.0
  H  H12  1  0.84914000  0.48877000  0.86927000  1.0
  H  H13  1  0.90822000  0.44156000  0.81750000  1.0
  H  H14  1  0.85014000  0.02466000  0.67798000  1.0
  H  H15  1  0.90873000  0.92567000  0.72519000  1.0
  H  H16  1  0.30750000  0.91480000  0.85362000  1.0
  H  H17  1  0.30767000  0.75185000  0.81303000  1.0
  H  H18  1  0.84906000  0.64195000  0.98877000  1.0
  H  H19  1  0.90808000  0.74094000  0.94156000  1.0
  H  H20  1  0.11888000  0.15789000  0.55514000  1.0
  H  H21  1  0.03518000  0.16679000  0.49290000  1.0
  H  H22  1  0.11836000  0.50876000  0.11156000  1.0
  H  H23  1  0.03521000  0.49991000  0.17380000  1.0
  H  H24  1  0.11896000  0.28698000  0.65789000  1.0
  H  H25  1  0.03527000  0.34033000  0.66677000  1.0
  H  H26  1  0.11833000  0.37968000  0.00877000  1.0
  H  H27  1  0.03516000  0.32629000  0.99992000  1.0
  H  H28  1  0.11893000  0.05512000  0.78699000  1.0
  H  H29  1  0.03525000  0.99289000  0.84034000  1.0
  H  H30  1  0.11841000  0.61155000  0.87966000  1.0
  H  H31  1  0.03526000  0.67379000  0.82627000  1.0
  C  C32  1  0.50974000  0.58235000  0.96065000  1.0
  C  C33  1  0.50975000  0.45700000  0.08235000  1.0
  C  C34  1  0.50973000  0.46065000  0.95700000  1.0
  C  C35  1  0.51072000  0.20962000  0.58433000  1.0
  C  C36  1  0.51074000  0.20606000  0.70963000  1.0
  C  C37  1  0.51069000  0.08430000  0.70607000  1.0
  C  C38  1  0.53705000  0.23691000  0.52583000  1.0
  C  C39  1  0.72813000  0.28394000  0.49987000  1.0
  C  C40  1  0.76132000  0.31277000  0.44506000  1.0
  C  C41  1  0.61029000  0.29323000  0.41404000  1.0
  C  C42  1  0.42716000  0.24583000  0.43917000  1.0
  C  C43  1  0.37872000  0.21749000  0.49477000  1.0
  C  C44  1  0.63393000  0.32148000  0.35764000  1.0
  C  C45  1  0.63394000  0.34519000  0.30901000  1.0
  C  C46  1  0.61016000  0.37344000  0.25260000  1.0
  C  C47  1  0.42710000  0.42085000  0.22749000  1.0
  C  C48  1  0.37837000  0.44917000  0.17190000  1.0
  C  C49  1  0.53635000  0.42973000  0.14082000  1.0
  C  C50  1  0.72737000  0.38269000  0.16678000  1.0
  C  C51  1  0.76084000  0.35388000  0.22158000  1.0
  C  C52  1  0.53708000  0.23726000  0.73692000  1.0
  C  C53  1  0.72810000  0.21620000  0.78395000  1.0
  C  C54  1  0.76127000  0.24217000  0.81278000  1.0
  C  C55  1  0.61031000  0.29273000  0.79324000  1.0
  C  C56  1  0.42720000  0.31501000  0.74582000  1.0
  C  C57  1  0.37878000  0.28775000  0.71749000  1.0
  C  C58  1  0.63395000  0.32089000  0.82148000  1.0
  C  C59  1  0.63394000  0.34580000  0.84519000  1.0
  C  C60  1  0.61014000  0.37396000  0.87343000  1.0
  C  C61  1  0.42706000  0.35166000  0.92086000  1.0
  C  C62  1  0.37834000  0.37893000  0.94918000  1.0
  C  C63  1  0.53633000  0.42944000  0.92973000  1.0
  C  C64  1  0.72736000  0.45053000  0.88269000  1.0
  C  C65  1  0.76082000  0.42454000  0.85388000  1.0
  C  C66  1  0.53696000  0.02582000  0.73726000  1.0
  C  C67  1  0.72803000  0.99985000  0.71620000  1.0
  C  C68  1  0.76123000  0.94505000  0.74217000  1.0
  C  C69  1  0.61020000  0.91403000  0.79274000  1.0
  C  C70  1  0.42708000  0.93916000  0.81501000  1.0
  C  C71  1  0.37867000  0.99476000  0.78775000  1.0
  C  C72  1  0.63384000  0.85763000  0.82089000  1.0
  C  C73  1  0.63382000  0.80900000  0.84581000  1.0
  C  C74  1  0.61003000  0.75260000  0.87396000  1.0
  C  C75  1  0.42701000  0.72748000  0.85166000  1.0
  C  C76  1  0.37834000  0.67189000  0.87893000  1.0
  C  C77  1  0.53633000  0.64082000  0.92944000  1.0
  C  C78  1  0.72730000  0.66678000  0.95053000  1.0
  C  C79  1  0.76073000  0.72157000  0.92455000  1.0
  N  N80  1  0.19811000  0.17107000  0.51721000  1.0
  N  N81  1  0.19785000  0.49560000  0.14947000  1.0
  N  N82  1  0.19818000  0.31173000  0.67106000  1.0
  N  N83  1  0.19780000  0.35493000  0.99561000  1.0
  N  N84  1  0.19811000  0.01719000  0.81174000  1.0
  N  N85  1  0.19789000  0.64946000  0.85492000  1.0
  O  O86  1  0.26534000  0.45083000  0.98948000  1.0
  O  O87  1  0.26539000  0.55969000  0.95082000  1.0
  O  O88  1  0.26537000  0.48948000  0.05969000  1.0
  O  O89  1  0.73206000  0.49615000  0.94736000  1.0
  O  O90  1  0.73208000  0.44737000  0.05648000  1.0
  O  O91  1  0.73206000  0.55649000  0.99614000  1.0
  O  O92  1  0.26645000  0.10699000  0.71588000  1.0
  O  O93  1  0.26644000  0.17713000  0.60700000  1.0
  O  O94  1  0.26646000  0.21587000  0.67714000  1.0
  O  O95  1  0.73315000  0.11014000  0.67059000  1.0
  O  O96  1  0.73317000  0.17057000  0.71929000  1.0
  O  O97  1  0.73319000  0.21927000  0.61016000  1.0
