# generated using pymatgen
data_MnH8(C3O2)3
_symmetry_space_group_name_H-M   'P 1'
_cell_length_a   5.09756000
_cell_length_b   9.34256000
_cell_length_c   9.74828000
_cell_angle_alpha   89.97450000
_cell_angle_beta   89.08380000
_cell_angle_gamma   89.99450000
_symmetry_Int_Tables_number   1
_chemical_formula_structural   MnH8(C3O2)3
_chemical_formula_sum   'Mn2 H16 C18 O12'
_cell_volume   464.19522065
_cell_formula_units_Z   2
loop_
 _symmetry_equiv_pos_site_id
 _symmetry_equiv_pos_as_xyz
  1  'x, y, z'
loop_
 _atom_site_type_symbol
 _atom_site_label
 _atom_site_symmetry_multiplicity
 _atom_site_fract_x
 _atom_site_fract_y
 _atom_site_fract_z
 _atom_site_occupancy
  Mn  Mn0  1  0.77915000  0.38174000  0.55330000  1.0
  Mn  Mn1  1  0.22123000  0.88183000  0.44659000  1.0
  H  H2  1  0.21785000  0.23865000  0.45733000  1.0
  H  H3  1  0.78256000  0.73870000  0.54236000  1.0
  H  H4  1  0.96820000  0.16628000  0.39304000  1.0
  H  H5  1  0.03209000  0.66625000  0.60676000  1.0
  H  H6  1  0.88360000  0.06778000  0.97033000  1.0
  H  H7  1  0.11623000  0.56783000  0.02985000  1.0
  H  H8  1  0.16926000  0.11240000  0.16544000  1.0
  H  H9  1  0.82977000  0.61227000  0.83486000  1.0
  H  H10  1  0.51845000  0.29894000  0.15074000  1.0
  H  H11  1  0.48059000  0.79891000  0.84948000  1.0
  H  H12  1  0.56649000  0.44219000  0.93529000  1.0
  H  H13  1  0.43306000  0.94232000  0.06473000  1.0
  H  H14  1  0.60281000  0.08955000  0.83433000  1.0
  H  H15  1  0.39760000  0.58989000  0.16564000  1.0
  H  H16  1  0.83477000  0.99395000  0.72864000  1.0
  H  H17  1  0.16530000  0.49411000  0.27124000  1.0
  C  C18  1  0.24266000  0.34522000  0.83465000  1.0
  C  C19  1  0.75745000  0.84532000  0.16533000  1.0
  C  C20  1  0.04747000  0.23777000  0.84409000  1.0
  C  C21  1  0.95264000  0.73785000  0.15592000  1.0
  C  C22  1  0.02735000  0.15335000  0.96257000  1.0
  C  C23  1  0.97240000  0.65341000  0.03751000  1.0
  C  C24  1  0.19156000  0.17729000  0.07319000  1.0
  C  C25  1  0.80782000  0.67731000  0.92699000  1.0
  C  C26  1  0.38751000  0.28131000  0.06508000  1.0
  C  C27  1  0.61178000  0.78133000  0.93510000  1.0
  C  C28  1  0.41293000  0.36185000  0.94568000  1.0
  C  C29  1  0.58684000  0.86200000  0.05437000  1.0
  C  C30  1  0.28664000  0.44381000  0.71554000  1.0
  C  C31  1  0.71374000  0.94385000  0.28439000  1.0
  C  C32  1  0.71755000  0.09259000  0.73783000  1.0
  C  C33  1  0.28280000  0.59268000  0.26215000  1.0
  C  C34  1  0.51950000  0.09839000  0.62333000  1.0
  C  C35  1  0.48066000  0.59834000  0.37670000  1.0
  O  O36  1  0.88582000  0.21625000  0.73384000  1.0
  O  O37  1  0.11453000  0.71640000  0.26608000  1.0
  O  O38  1  0.09023000  0.48520000  0.64361000  1.0
  O  O39  1  0.91012000  0.98522000  0.35623000  1.0
  O  O40  1  0.51806000  0.48795000  0.69240000  1.0
  O  O41  1  0.48234000  0.98807000  0.30755000  1.0
  O  O42  1  0.04159000  0.26052000  0.41983000  1.0
  O  O43  1  0.95881000  0.76059000  0.57997000  1.0
  O  O44  1  0.37246000  0.98974000  0.61607000  1.0
  O  O45  1  0.62745000  0.48958000  0.38404000  1.0
  O  O46  1  0.50540000  0.20895000  0.54732000  1.0
  O  O47  1  0.49488000  0.70882000  0.45269000  1.0
