# generated using pymatgen
data_CoH10C13N2O7
_symmetry_space_group_name_H-M   'P 1'
_cell_length_a   7.07707000
_cell_length_b   8.89868000
_cell_length_c   10.40070000
_cell_angle_alpha   79.48110000
_cell_angle_beta   87.84350000
_cell_angle_gamma   80.76750000
_symmetry_Int_Tables_number   1
_chemical_formula_structural   CoH10C13N2O7
_chemical_formula_sum   'Co2 H20 C26 N4 O14'
_cell_volume   635.62694500
_cell_formula_units_Z   2
loop_
 _symmetry_equiv_pos_site_id
 _symmetry_equiv_pos_as_xyz
  1  'x, y, z'
loop_
 _atom_site_type_symbol
 _atom_site_label
 _atom_site_symmetry_multiplicity
 _atom_site_fract_x
 _atom_site_fract_y
 _atom_site_fract_z
 _atom_site_occupancy
  Co  Co0  1  0.22139000  0.26808000  0.43326000  1.0
  Co  Co1  1  0.77862000  0.73192000  0.56674000  1.0
  H  H2  1  0.23317000  0.55662000  0.28847000  1.0
  H  H3  1  0.76683000  0.44338000  0.71153000  1.0
  H  H4  1  0.03926000  0.56209000  0.36616000  1.0
  H  H5  1  0.96074000  0.43791000  0.63384000  1.0
  H  H6  1  0.31790000  0.50853000  0.11916000  1.0
  H  H7  1  0.68209000  0.49146000  0.88084000  1.0
  H  H8  1  0.26030000  0.31678000  0.90039000  1.0
  H  H9  1  0.73969000  0.68322000  0.09961000  1.0
  H  H10  1  0.20200000  0.88553000  0.78355000  1.0
  H  H11  1  0.79800000  0.11446000  0.21646000  1.0
  H  H12  1  0.27471000  0.90256000  0.18891000  1.0
  H  H13  1  0.72528000  0.09743000  0.81110000  1.0
  H  H14  1  0.88173000  0.42054000  0.26336000  1.0
  H  H15  1  0.11827000  0.57946000  0.73664000  1.0
  H  H16  1  0.53089000  0.43464000  0.26804000  1.0
  H  H17  1  0.46910000  0.56537000  0.73195000  1.0
  H  H18  1  0.57169000  0.09564000  0.60382000  1.0
  H  H19  1  0.42832000  0.90437000  0.39618000  1.0
  H  H20  1  0.92313000  0.08926000  0.60411000  1.0
  H  H21  1  0.07688000  0.91075000  0.39589000  1.0
  C  C22  1  0.26722000  0.11911000  0.05483000  1.0
  C  C23  1  0.73278000  0.88088000  0.94517000  1.0
  C  C24  1  0.25226000  0.19354000  0.92374000  1.0
  C  C25  1  0.74773000  0.80646000  0.07627000  1.0
  C  C26  1  0.22993000  0.10952000  0.82544000  1.0
  C  C27  1  0.77006000  0.89048000  0.17457000  1.0
  C  C28  1  0.22085000  0.95143000  0.85909000  1.0
  C  C29  1  0.77915000  0.04856000  0.14091000  1.0
  C  C30  1  0.23696000  0.87606000  0.98916000  1.0
  C  C31  1  0.76305000  0.12393000  0.01084000  1.0
  C  C32  1  0.26095000  0.96019000  0.08725000  1.0
  C  C33  1  0.73904000  0.03980000  0.91276000  1.0
  C  C34  1  0.29093000  0.21519000  0.15661000  1.0
  C  C35  1  0.70907000  0.78481000  0.84339000  1.0
  C  C36  1  0.22030000  0.18167000  0.68464000  1.0
  C  C37  1  0.77970000  0.81833000  0.31536000  1.0
  C  C38  1  0.22888000  0.70690000  0.01290000  1.0
  C  C39  1  0.77113000  0.29309000  0.98710000  1.0
  C  C40  1  0.81348000  0.35182000  0.34307000  1.0
  C  C41  1  0.18652000  0.64818000  0.65693000  1.0
  C  C42  1  0.61578000  0.35881000  0.34564000  1.0
  C  C43  1  0.38422000  0.64120000  0.65435000  1.0
  C  C44  1  0.63878000  0.17419000  0.53050000  1.0
  C  C45  1  0.36121000  0.82582000  0.46949000  1.0
  C  C46  1  0.83561000  0.16965000  0.52983000  1.0
  C  C47  1  0.16439000  0.83036000  0.47017000  1.0
  N  N48  1  0.92502000  0.25924000  0.43643000  1.0
  N  N49  1  0.07498000  0.74076000  0.56357000  1.0
  N  N50  1  0.52570000  0.27015000  0.43894000  1.0
  N  N51  1  0.47430000  0.72986000  0.56106000  1.0
  O  O52  1  0.24746000  0.16216000  0.27552000  1.0
  O  O53  1  0.75254000  0.83784000  0.72449000  1.0
  O  O54  1  0.17257000  0.50393000  0.36701000  1.0
  O  O55  1  0.82744000  0.49608000  0.63299000  1.0
  O  O56  1  0.26182000  0.09384000  0.59933000  1.0
  O  O57  1  0.73819000  0.90615000  0.40067000  1.0
  O  O58  1  0.17457000  0.32748000  0.64633000  1.0
  O  O59  1  0.82543000  0.67252000  0.35367000  1.0
  O  O60  1  0.35329000  0.34085000  0.11718000  1.0
  O  O61  1  0.64671000  0.65915000  0.88283000  1.0
  O  O62  1  0.31100000  0.62505000  0.12465000  1.0
  O  O63  1  0.68899000  0.37495000  0.87535000  1.0
  O  O64  1  0.15706000  0.64527000  0.93480000  1.0
  O  O65  1  0.84296000  0.35472000  0.06519000  1.0
