# generated using pymatgen
data_CuH16C11S4N2Cl
_symmetry_space_group_name_H-M   'P 1'
_cell_length_a   8.82515000
_cell_length_b   9.36229000
_cell_length_c   10.10580000
_cell_angle_alpha   68.61700000
_cell_angle_beta   73.17820000
_cell_angle_gamma   89.11520000
_symmetry_Int_Tables_number   1
_chemical_formula_structural   CuH16C11S4N2Cl
_chemical_formula_sum   'Cu2 H32 C22 S8 N4 Cl2'
_cell_volume   740.42171013
_cell_formula_units_Z   2
loop_
 _symmetry_equiv_pos_site_id
 _symmetry_equiv_pos_as_xyz
  1  'x, y, z'
loop_
 _atom_site_type_symbol
 _atom_site_label
 _atom_site_symmetry_multiplicity
 _atom_site_fract_x
 _atom_site_fract_y
 _atom_site_fract_z
 _atom_site_occupancy
  Cu  Cu0  1  0.83674000  0.49510000  0.53663000  1.0
  Cu  Cu1  1  0.16327000  0.50490000  0.46337000  1.0
  H  H2  1  0.76776000  0.10898000  0.59526000  1.0
  H  H3  1  0.23223000  0.89102000  0.40474000  1.0
  H  H4  1  0.86638000  0.84574000  0.67834000  1.0
  H  H5  1  0.13361000  0.15425000  0.32167000  1.0
  H  H6  1  0.93503000  0.53561000  0.20233000  1.0
  H  H7  1  0.06497000  0.46438000  0.79768000  1.0
  H  H8  1  0.95175000  0.73924000  0.15300000  1.0
  H  H9  1  0.04825000  0.26076000  0.84700000  1.0
  H  H10  1  0.64607000  0.51827000  0.26571000  1.0
  H  H11  1  0.35393000  0.48173000  0.73430000  1.0
  H  H12  1  0.64571000  0.72073000  0.17974000  1.0
  H  H13  1  0.35429000  0.27926000  0.82027000  1.0
  H  H14  1  0.77464000  0.85432000  0.45963000  1.0
  H  H15  1  0.22537000  0.14569000  0.54037000  1.0
  H  H16  1  0.85257000  0.87584000  0.26969000  1.0
  H  H17  1  0.14743000  0.12416000  0.73030000  1.0
  H  H18  1  0.57939000  0.93644000  0.23753000  1.0
  H  H19  1  0.42061000  0.06356000  0.76246000  1.0
  H  H20  1  0.51206000  0.92900000  0.42289000  1.0
  H  H21  1  0.48794000  0.07100000  0.57710000  1.0
  H  H22  1  0.78547000  0.15377000  0.16764000  1.0
  H  H23  1  0.21453000  0.84624000  0.83235000  1.0
  H  H24  1  0.72413000  0.14837000  0.35208000  1.0
  H  H25  1  0.27587000  0.85163000  0.64792000  1.0
  H  H26  1  0.52123000  0.14252000  0.05939000  1.0
  H  H27  1  0.47877000  0.85748000  0.94061000  1.0
  H  H28  1  0.41846000  0.30951000  0.03716000  1.0
  H  H29  1  0.58154000  0.69050000  0.96283000  1.0
  H  H30  1  0.78446000  0.33573000  0.94425000  1.0
  H  H31  1  0.21554000  0.66426000  0.05575000  1.0
  H  H32  1  0.66020000  0.48175000  0.88509000  1.0
  H  H33  1  0.33980000  0.51826000  0.11492000  1.0
  C  C34  1  0.76468000  0.13659000  0.80115000  1.0
  C  C35  1  0.23531000  0.86342000  0.19885000  1.0
  C  C36  1  0.79017000  0.05777000  0.70236000  1.0
  C  C37  1  0.20983000  0.94222000  0.29764000  1.0
  C  C38  1  0.84348000  0.91452000  0.74779000  1.0
  C  C39  1  0.15651000  0.08550000  0.25222000  1.0
  C  C40  1  0.86338000  0.85603000  0.89135000  1.0
  C  C41  1  0.13661000  0.14396000  0.10865000  1.0
  C  C42  1  0.88225000  0.64197000  0.15517000  1.0
  C  C43  1  0.11775000  0.35803000  0.84483000  1.0
  C  C44  1  0.70737000  0.63028000  0.24170000  1.0
  C  C45  1  0.29263000  0.36972000  0.75830000  1.0
  C  C46  1  0.74325000  0.84775000  0.36430000  1.0
  C  C47  1  0.25675000  0.15225000  0.63570000  1.0
  C  C48  1  0.61766000  0.95576000  0.32457000  1.0
  C  C49  1  0.38233000  0.04424000  0.67543000  1.0
  C  C50  1  0.68284000  0.12463000  0.26855000  1.0
  C  C51  1  0.31716000  0.87537000  0.73144000  1.0
  C  C52  1  0.53002000  0.26236000  0.05136000  1.0
  C  C53  1  0.46998000  0.73764000  0.94864000  1.0
  C  C54  1  0.67137000  0.35764000  0.91980000  1.0
  C  C55  1  0.32863000  0.64236000  0.08020000  1.0
  S  S56  1  0.68333000  0.31504000  0.75506000  1.0
  S  S57  1  0.31667000  0.68497000  0.24494000  1.0
  S  S58  1  0.90932000  0.66530000  0.96355000  1.0
  S  S59  1  0.09068000  0.33470000  0.03645000  1.0
  S  S60  1  0.67351000  0.64522000  0.42220000  1.0
  S  S61  1  0.32649000  0.35478000  0.57780000  1.0
  S  S62  1  0.53750000  0.26164000  0.22924000  1.0
  S  S63  1  0.46250000  0.73836000  0.77077000  1.0
  N  N64  1  0.79491000  0.07979000  0.93166000  1.0
  N  N65  1  0.20509000  0.92021000  0.06834000  1.0
  N  N66  1  0.84234000  0.93843000  0.97811000  1.0
  N  N67  1  0.15766000  0.06157000  0.02189000  1.0
  Cl  Cl68  1  0.00272000  0.65122000  0.58415000  1.0
  Cl  Cl69  1  0.99728000  0.34879000  0.41585000  1.0
