# generated using pymatgen
data_ZnH8C6(IN)2
_symmetry_space_group_name_H-M   'P 1'
_cell_length_a   6.69089000
_cell_length_b   8.94058000
_cell_length_c   9.97796000
_cell_angle_alpha   112.17800000
_cell_angle_beta   90.02930000
_cell_angle_gamma   111.93800000
_symmetry_Int_Tables_number   1
_chemical_formula_structural   ZnH8C6(IN)2
_chemical_formula_sum   'Zn2 H16 C12 I4 N4'
_cell_volume   505.69348900
_cell_formula_units_Z   2
loop_
 _symmetry_equiv_pos_site_id
 _symmetry_equiv_pos_as_xyz
  1  'x, y, z'
loop_
 _atom_site_type_symbol
 _atom_site_label
 _atom_site_symmetry_multiplicity
 _atom_site_fract_x
 _atom_site_fract_y
 _atom_site_fract_z
 _atom_site_occupancy
  Zn  Zn0  1  0.13058000  0.99964000  0.74978000  1.0
  Zn  Zn1  1  0.86942000  0.00036000  0.25024000  1.0
  H  H2  1  0.16677000  0.74792000  0.46937000  1.0
  H  H3  1  0.41800000  0.25172000  0.03017000  1.0
  H  H4  1  0.83321000  0.25208000  0.53062000  1.0
  H  H5  1  0.58198000  0.74829000  0.96986000  1.0
  H  H6  1  0.44064000  0.36376000  0.73417000  1.0
  H  H7  1  0.07792000  0.63557000  0.76597000  1.0
  H  H8  1  0.55936000  0.63623000  0.26583000  1.0
  H  H9  1  0.92205000  0.36442000  0.23402000  1.0
  H  H10  1  0.72745000  0.43227000  0.73476000  1.0
  H  H11  1  0.29693000  0.56772000  0.76502000  1.0
  H  H12  1  0.27254000  0.56772000  0.26524000  1.0
  H  H13  1  0.70311000  0.43227000  0.23497000  1.0
  H  H14  1  0.60067000  0.32368000  0.84752000  1.0
  H  H15  1  0.27729000  0.67618000  0.65241000  1.0
  H  H16  1  0.39933000  0.67633000  0.15248000  1.0
  H  H17  1  0.72274000  0.32383000  0.34756000  1.0
  C  C18  1  0.53786000  0.15577000  0.61775000  1.0
  C  C19  1  0.38260000  0.84417000  0.88222000  1.0
  C  C20  1  0.46213000  0.84423000  0.38226000  1.0
  C  C21  1  0.61745000  0.15588000  0.11782000  1.0
  C  C22  1  0.31795000  0.86061000  0.48295000  1.0
  C  C23  1  0.45696000  0.13921000  0.01678000  1.0
  C  C24  1  0.68203000  0.13938000  0.51704000  1.0
  C  C25  1  0.54299000  0.86076000  0.98321000  1.0
  C  C26  1  0.57975000  0.32827000  0.74029000  1.0
  C  C27  1  0.25251000  0.67157000  0.75970000  1.0
  C  C28  1  0.42025000  0.67175000  0.25973000  1.0
  C  C29  1  0.74757000  0.32848000  0.24033000  1.0
  I  I30  1  0.78030000  0.72572000  0.60945000  1.0
  I  I31  1  0.05313000  0.27310000  0.89016000  1.0
  I  I32  1  0.21970000  0.27427000  0.39055000  1.0
  I  I33  1  0.94685000  0.72689000  0.10983000  1.0
  N  N34  1  0.35480000  0.01190000  0.59882000  1.0
  N  N35  1  0.34297000  0.98784000  0.90086000  1.0
  N  N36  1  0.64519000  0.98809000  0.40117000  1.0
  N  N37  1  0.65700000  0.01211000  0.09911000  1.0
