# generated using pymatgen
data_AlH5C10NO8
_symmetry_space_group_name_H-M   'P 1'
_cell_length_a   6.80738000
_cell_length_b   11.00557867
_cell_length_c   11.06164639
_cell_angle_alpha   77.22028507
_cell_angle_beta   73.36084332
_cell_angle_gamma   73.33006364
_symmetry_Int_Tables_number   1
_chemical_formula_structural   AlH5C10NO8
_chemical_formula_sum   'Al2 H10 C20 N2 O16'
_cell_volume   751.87638458
_cell_formula_units_Z   2
loop_
 _symmetry_equiv_pos_site_id
 _symmetry_equiv_pos_as_xyz
  1  'x, y, z'
loop_
 _atom_site_type_symbol
 _atom_site_label
 _atom_site_symmetry_multiplicity
 _atom_site_fract_x
 _atom_site_fract_y
 _atom_site_fract_z
 _atom_site_occupancy
  Al  Al0  1  0.50344000  0.50633000  0.48309000  1.0
  Al  Al1  1  0.00382000  0.50820000  0.48235000  1.0
  H  H2  1  0.28154000  0.60387000  0.33042000  1.0
  H  H3  1  0.75984000  0.36925000  0.60434000  1.0
  H  H4  1  0.35240000  0.54901000  0.86705000  1.0
  H  H5  1  0.65746000  0.45647000  0.09937000  1.0
  H  H6  1  0.86276000  0.75630000  0.65403000  1.0
  H  H7  1  0.99125000  0.85953000  0.78154000  1.0
  H  H8  1  0.56703000  0.21745000  0.68451000  1.0
  H  H9  1  0.83719000  0.09305000  0.79927000  1.0
  H  H10  1  0.10267000  0.21892000  0.43384000  1.0
  H  H11  1  0.33543000  0.79070000  0.43076000  1.0
  C  C12  1  0.64969000  0.73276000  0.49499000  1.0
  C  C13  1  0.85312000  0.50237000  0.25816000  1.0
  C  C14  1  0.34473000  0.27539000  0.50607000  1.0
  C  C15  1  0.15378000  0.50980000  0.70737000  1.0
  C  C16  1  0.93435000  0.49784000  0.11762000  1.0
  C  C17  1  0.07342000  0.51043000  0.84839000  1.0
  C  C18  1  0.13152000  0.52031000  0.05000000  1.0
  C  C19  1  0.87803000  0.48532000  0.91620000  1.0
  C  C20  1  0.20027000  0.52888000  0.91856000  1.0
  C  C21  1  0.80854000  0.47790000  0.04770000  1.0
  C  C22  1  0.55665000  0.86527000  0.52159000  1.0
  C  C23  1  0.64536000  0.92717000  0.58946000  1.0
  C  C24  1  0.37569000  0.93375000  0.47729000  1.0
  C  C25  1  0.80088000  0.85800000  0.65757000  1.0
  C  C26  1  0.87218000  0.91625000  0.72985000  1.0
  C  C27  1  0.40151000  0.13444000  0.52880000  1.0
  C  C28  1  0.29988000  0.06987000  0.47897000  1.0
  C  C29  1  0.56393000  0.06174000  0.59546000  1.0
  C  C30  1  0.63631000  0.11745000  0.67328000  1.0
  C  C31  1  0.78759000  0.04699000  0.73905000  1.0
  N  N32  1  0.28377000  0.52324000  0.11968000  1.0
  N  N33  1  0.72704000  0.47703000  0.84811000  1.0
  O  O34  1  0.53275000  0.67755000  0.46042000  1.0
  O  O35  1  0.97788000  0.52525000  0.31211000  1.0
  O  O36  1  0.16608000  0.33249000  0.47498000  1.0
  O  O37  1  0.33544000  0.52975000  0.65522000  1.0
  O  O38  1  0.47198000  0.33642000  0.51477000  1.0
  O  O39  1  0.03204000  0.48504000  0.65268000  1.0
  O  O40  1  0.83915000  0.67740000  0.50030000  1.0
  O  O41  1  0.66816000  0.48739000  0.30980000  1.0
  O  O42  1  0.25484000  0.56840000  0.42086000  1.0
  O  O43  1  0.75447000  0.44634000  0.54134000  1.0
  O  O44  1  0.37811000  0.41661000  0.16487000  1.0
  O  O45  1  0.31443000  0.62776000  0.12348000  1.0
  O  O46  1  0.69927000  0.37074000  0.84878000  1.0
  O  O47  1  0.62932000  0.58177000  0.80142000  1.0
  O  O48  1  0.13815000  0.12624000  0.42410000  1.0
  O  O49  1  0.26757000  0.88492000  0.42451000  1.0
