# generated using pymatgen
data_CuH10C8(NO2)2
_symmetry_space_group_name_H-M   'P 1'
_cell_length_a   4.84348000
_cell_length_b   12.74700000
_cell_length_c   16.26510000
_cell_angle_alpha   90.00450000
_cell_angle_beta   90.00200000
_cell_angle_gamma   84.27400000
_symmetry_Int_Tables_number   1
_chemical_formula_structural   CuH10C8(NO2)2
_chemical_formula_sum   'Cu4 H40 C32 N8 O16'
_cell_volume   999.19407901
_cell_formula_units_Z   4
loop_
 _symmetry_equiv_pos_site_id
 _symmetry_equiv_pos_as_xyz
  1  'x, y, z'
loop_
 _atom_site_type_symbol
 _atom_site_label
 _atom_site_symmetry_multiplicity
 _atom_site_fract_x
 _atom_site_fract_y
 _atom_site_fract_z
 _atom_site_occupancy
  Cu  Cu0  1  0.52948000  0.67219000  0.22740000  1.0
  Cu  Cu1  1  0.97052000  0.82776000  0.72741000  1.0
  Cu  Cu2  1  0.47052000  0.32774000  0.77261000  1.0
  Cu  Cu3  1  0.02949000  0.17222000  0.27260000  1.0
  H  H4  1  0.64282000  0.55234000  0.01167000  1.0
  H  H5  1  0.85718000  0.94772000  0.51173000  1.0
  H  H6  1  0.35711000  0.44770000  0.98831000  1.0
  H  H7  1  0.14272000  0.05232000  0.48831000  1.0
  H  H8  1  0.86327000  0.63377000  0.06133000  1.0
  H  H9  1  0.63674000  0.86629000  0.56139000  1.0
  H  H10  1  0.13672000  0.36627000  0.93861000  1.0
  H  H11  1  0.36323000  0.13376000  0.43870000  1.0
  H  H12  1  0.35295000  0.68922000  0.92625000  1.0
  H  H13  1  0.14716000  0.81088000  0.42627000  1.0
  H  H14  1  0.64716000  0.31089000  0.07374000  1.0
  H  H15  1  0.85292000  0.18922000  0.57375000  1.0
  H  H16  1  0.01038000  0.84928000  0.92762000  1.0
  H  H17  1  0.48962000  0.65078000  0.42760000  1.0
  H  H18  1  0.98967000  0.15080000  0.07240000  1.0
  H  H19  1  0.51033000  0.34928000  0.57239000  1.0
  H  H20  1  0.91828000  0.94662000  0.06148000  1.0
  H  H21  1  0.58153000  0.55336000  0.56142000  1.0
  H  H22  1  0.08162000  0.05338000  0.93857000  1.0
  H  H23  1  0.41821000  0.44661000  0.43854000  1.0
  H  H24  1  0.16554000  0.87598000  0.18852000  1.0
  H  H25  1  0.33416000  0.62392000  0.68846000  1.0
  H  H26  1  0.83426000  0.12393000  0.81154000  1.0
  H  H27  1  0.66548000  0.37597000  0.31150000  1.0
  H  H28  1  0.10400000  0.53545000  0.35555000  1.0
  H  H29  1  0.39599000  0.96452000  0.85552000  1.0
  H  H30  1  0.89599000  0.46456000  0.64453000  1.0
  H  H31  1  0.60398000  0.03543000  0.14446000  1.0
  H  H32  1  0.88889000  0.81017000  0.30538000  1.0
  H  H33  1  0.61119000  0.68981000  0.80535000  1.0
  H  H34  1  0.11117000  0.18983000  0.69462000  1.0
  H  H35  1  0.38888000  0.31015000  0.19457000  1.0
  H  H36  1  0.80231000  0.50804000  0.15630000  1.0
  H  H37  1  0.69794000  0.99198000  0.65638000  1.0
  H  H38  1  0.19795000  0.49198000  0.84365000  1.0
  H  H39  1  0.30237000  0.00808000  0.34367000  1.0
  H  H40  1  0.45633000  0.51051000  0.14327000  1.0
  H  H41  1  0.04393000  0.98947000  0.64334000  1.0
  H  H42  1  0.54397000  0.48946000  0.85669000  1.0
  H  H43  1  0.95638000  0.01053000  0.35667000  1.0
  C  C44  1  0.65464000  0.60655000  0.06376000  1.0
  C  C45  1  0.84540000  0.89349000  0.56379000  1.0
  C  C46  1  0.34538000  0.39348000  0.93622000  1.0
  C  C47  1  0.15460000  0.10654000  0.43624000  1.0
  C  C48  1  0.44218000  0.70013000  0.05593000  1.0
  C  C49  1  0.05782000  0.79989000  0.55594000  1.0
  C  C50  1  0.55782000  0.29989000  0.94407000  1.0
  C  C51  1  0.94212000  0.20012000  0.44407000  1.0
  C  C52  1  0.31066000  0.73337000  0.98294000  1.0
  C  C53  1  0.18939000  0.76669000  0.48294000  1.0
  C  C54  1  0.68939000  0.26670000  0.01706000  1.0
  C  C55  1  0.81062000  0.23337000  0.51706000  1.0
  C  C56  1  0.11823000  0.82259000  0.98397000  1.0
  C  C57  1  0.38176000  0.67745000  0.48395000  1.0
  C  C58  1  0.88181000  0.17746000  0.01605000  1.0
  C  C59  1  0.61817000  0.32259000  0.51604000  1.0
  C  C60  1  0.06436000  0.87608000  0.05801000  1.0
  C  C61  1  0.43551000  0.62391000  0.55797000  1.0
  C  C62  1  0.93558000  0.12392000  0.94203000  1.0
  C  C63  1  0.56430000  0.37608000  0.44200000  1.0
  C  C64  1  0.19993000  0.83783000  0.12899000  1.0
  C  C65  1  0.29984000  0.66212000  0.62894000  1.0
  C  C66  1  0.79991000  0.16212000  0.87106000  1.0
  C  C67  1  0.69987000  0.33782000  0.37103000  1.0
  C  C68  1  0.97609000  0.58550000  0.31113000  1.0
  C  C69  1  0.52393000  0.91447000  0.81112000  1.0
  C  C70  1  0.02393000  0.41446000  0.68891000  1.0
  C  C71  1  0.47608000  0.08551000  0.18886000  1.0
  C  C72  1  0.67922000  0.84823000  0.32135000  1.0
  C  C73  1  0.82084000  0.65174000  0.82136000  1.0
  C  C74  1  0.32080000  0.15175000  0.67862000  1.0
  C  C75  1  0.17920000  0.34823000  0.17862000  1.0
  N  N76  1  0.62247000  0.55632000  0.14417000  1.0
  N  N77  1  0.87773000  0.94369000  0.64422000  1.0
  N  N78  1  0.37774000  0.44369000  0.85580000  1.0
  N  N79  1  0.12250000  0.05634000  0.35581000  1.0
  N  N80  1  0.38312000  0.75159000  0.12752000  1.0
  N  N81  1  0.11670000  0.74836000  0.62751000  1.0
  N  N82  1  0.61675000  0.24836000  0.87250000  1.0
  N  N83  1  0.88307000  0.25159000  0.37249000  1.0
  O  O84  1  0.71260000  0.58377000  0.31874000  1.0
  O  O85  1  0.78742000  0.91620000  0.81874000  1.0
  O  O86  1  0.28742000  0.41620000  0.68129000  1.0
  O  O87  1  0.21258000  0.08379000  0.18125000  1.0
  O  O88  1  0.09054000  0.63818000  0.25856000  1.0
  O  O89  1  0.40952000  0.86178000  0.75852000  1.0
  O  O90  1  0.90952000  0.36175000  0.74147000  1.0
  O  O91  1  0.59054000  0.13821000  0.24143000  1.0
  O  O92  1  0.47075000  0.80172000  0.29717000  1.0
  O  O93  1  0.02936000  0.69822000  0.79718000  1.0
  O  O94  1  0.52936000  0.19819000  0.70283000  1.0
  O  O95  1  0.97073000  0.30176000  0.20286000  1.0
  O  O96  1  0.65848000  0.93315000  0.36139000  1.0
  O  O97  1  0.84149000  0.56686000  0.86142000  1.0
  O  O98  1  0.34144000  0.06689000  0.63851000  1.0
  O  O99  1  0.15845000  0.43311000  0.13855000  1.0
