# generated using pymatgen
data_MnH8(C7N4)2
_symmetry_space_group_name_H-M   'P 1'
_cell_length_a   6.47018000
_cell_length_b   9.21816000
_cell_length_c   12.70600000
_cell_angle_alpha   89.38790000
_cell_angle_beta   87.96010000
_cell_angle_gamma   69.49010000
_symmetry_Int_Tables_number   1
_chemical_formula_structural   MnH8(C7N4)2
_chemical_formula_sum   'Mn2 H16 C28 N16'
_cell_volume   709.33749499
_cell_formula_units_Z   2
loop_
 _symmetry_equiv_pos_site_id
 _symmetry_equiv_pos_as_xyz
  1  'x, y, z'
loop_
 _atom_site_type_symbol
 _atom_site_label
 _atom_site_symmetry_multiplicity
 _atom_site_fract_x
 _atom_site_fract_y
 _atom_site_fract_z
 _atom_site_occupancy
  Mn  Mn0  1  0.60811000  0.77945000  0.74928000  1.0
  Mn  Mn1  1  0.39180000  0.21701000  0.25000000  1.0
  H  H2  1  0.03012000  0.18730000  0.79990000  1.0
  H  H3  1  0.21568000  0.81746000  0.29763000  1.0
  H  H4  1  0.96692000  0.81715000  0.20246000  1.0
  H  H5  1  0.78283000  0.18824000  0.70004000  1.0
  H  H6  1  0.32654000  0.20655000  0.90927000  1.0
  H  H7  1  0.53195000  0.80090000  0.40488000  1.0
  H  H8  1  0.66713000  0.79967000  0.09561000  1.0
  H  H9  1  0.46714000  0.20712000  0.59064000  1.0
  H  H10  1  0.34087000  0.47099000  0.94897000  1.0
  H  H11  1  0.81405000  0.53767000  0.44413000  1.0
  H  H12  1  0.64844000  0.53611000  0.05640000  1.0
  H  H13  1  0.18911000  0.47187000  0.55159000  1.0
  H  H14  1  0.04814000  0.70368000  0.87663000  1.0
  H  H15  1  0.75160000  0.30334000  0.37454000  1.0
  H  H16  1  0.94562000  0.30229000  0.12551000  1.0
  H  H17  1  0.24944000  0.70419000  0.62411000  1.0
  C  C18  1  0.87563000  0.43557000  0.78177000  1.0
  C  C19  1  0.31008000  0.56817000  0.28151000  1.0
  C  C20  1  0.12203000  0.56792000  0.21840000  1.0
  C  C21  1  0.68983000  0.43626000  0.71853000  1.0
  C  C22  1  0.03693000  0.30040000  0.81777000  1.0
  C  C23  1  0.33478000  0.70460000  0.31615000  1.0
  C  C24  1  0.96081000  0.70408000  0.18393000  1.0
  C  C25  1  0.66297000  0.30129000  0.68224000  1.0
  C  C26  1  0.20453000  0.31137000  0.87900000  1.0
  C  C27  1  0.51451000  0.69508000  0.37628000  1.0
  C  C28  1  0.79051000  0.69408000  0.12403000  1.0
  C  C29  1  0.48453000  0.31197000  0.62104000  1.0
  C  C30  1  0.21249000  0.45730000  0.90118000  1.0
  C  C31  1  0.66961000  0.55035000  0.39842000  1.0
  C  C32  1  0.78030000  0.54915000  0.10187000  1.0
  C  C33  1  0.33127000  0.45799000  0.59927000  1.0
  C  C34  1  0.04942000  0.58721000  0.86221000  1.0
  C  C35  1  0.63531000  0.41962000  0.36049000  1.0
  C  C36  1  0.94554000  0.41871000  0.13959000  1.0
  C  C37  1  0.36474000  0.58789000  0.63844000  1.0
  C  C38  1  0.74052000  0.00951000  0.88173000  1.0
  C  C39  1  0.77440000  0.96971000  0.38497000  1.0
  C  C40  1  0.25577000  0.96948000  0.11503000  1.0
  C  C41  1  0.24850000  0.00957000  0.61734000  1.0
  C  C42  1  0.67745000  0.16182000  0.02811000  1.0
  C  C43  1  0.82724000  0.83008000  0.53760000  1.0
  C  C44  1  0.34108000  0.83012000  0.96188000  1.0
  C  C45  1  0.16055000  0.16274000  0.47164000  1.0
  N  N46  1  0.88357000  0.57728000  0.80530000  1.0
  N  N47  1  0.45933000  0.42802000  0.30493000  1.0
  N  N48  1  0.11316000  0.42753000  0.19493000  1.0
  N  N49  1  0.54069000  0.57870000  0.69538000  1.0
  N  N50  1  0.70580000  0.92970000  0.81772000  1.0
  N  N51  1  0.67843000  0.06209000  0.32209000  1.0
  N  N52  1  0.25968000  0.06190000  0.17810000  1.0
  N  N53  1  0.36185000  0.92880000  0.68110000  1.0
  N  N54  1  0.57925000  0.22817000  0.10369000  1.0
  N  N55  1  0.78182000  0.78890000  0.62058000  1.0
  N  N56  1  0.42638000  0.78921000  0.87852000  1.0
  N  N57  1  0.19283000  0.22918000  0.39637000  1.0
  N  N58  1  0.79671000  0.09574000  0.94614000  1.0
  N  N59  1  0.89399000  0.86278000  0.44597000  1.0
  N  N60  1  0.24288000  0.86241000  0.05390000  1.0
  N  N61  1  0.10681000  0.09658000  0.55328000  1.0
