# generated using pymatgen
data_ZnH8C8(SN4)2
_symmetry_space_group_name_H-M   'P 1'
_cell_length_a   8.80333000
_cell_length_b   8.82276000
_cell_length_c   19.46885829
_cell_angle_alpha   92.66027723
_cell_angle_beta   102.34426293
_cell_angle_gamma   114.92500000
_symmetry_Int_Tables_number   1
_chemical_formula_structural   ZnH8C8(SN4)2
_chemical_formula_sum   'Zn4 H32 C32 S8 N32'
_cell_volume   1323.59634298
_cell_formula_units_Z   4
loop_
 _symmetry_equiv_pos_site_id
 _symmetry_equiv_pos_as_xyz
  1  'x, y, z'
loop_
 _atom_site_type_symbol
 _atom_site_label
 _atom_site_symmetry_multiplicity
 _atom_site_fract_x
 _atom_site_fract_y
 _atom_site_fract_z
 _atom_site_occupancy
  Zn  Zn0  1  0.53945000  0.03418000  0.37672000  1.0
  Zn  Zn1  1  0.15815000  0.16319000  0.12332000  1.0
  Zn  Zn2  1  0.46055000  0.96582000  0.62328000  1.0
  Zn  Zn3  1  0.84185000  0.83681000  0.87668000  1.0
  H  H4  1  0.18101000  0.06079000  0.30503000  1.0
  H  H5  1  0.25581000  0.87631000  0.19518000  1.0
  H  H6  1  0.81899000  0.93921000  0.69497000  1.0
  H  H7  1  0.74419000  0.12369000  0.80482000  1.0
  H  H8  1  0.31589000  0.40352000  0.49190000  1.0
  H  H9  1  0.41119000  0.82355000  0.00788000  1.0
  H  H10  1  0.68411000  0.59648000  0.50810000  1.0
  H  H11  1  0.58881000  0.17645000  0.99212000  1.0
  H  H12  1  0.93242000  0.13912000  0.37999000  1.0
  H  H13  1  0.25873000  0.55274000  0.12000000  1.0
  H  H14  1  0.06758000  0.86087000  0.62001000  1.0
  H  H15  1  0.74127000  0.44726000  0.88000000  1.0
  H  H16  1  0.99940000  0.21665000  0.30370000  1.0
  H  H17  1  0.41231000  0.69551000  0.19629000  1.0
  H  H18  1  0.00060000  0.78335000  0.69630000  1.0
  H  H19  1  0.58769000  0.30449000  0.80371000  1.0
  H  H20  1  0.89571000  0.39177000  0.36875000  1.0
  H  H21  1  0.52332000  0.52762000  0.13129000  1.0
  H  H22  1  0.10429000  0.60823000  0.63125000  1.0
  H  H23  1  0.47668000  0.47238000  0.86871000  1.0
  H  H24  1  0.06757000  0.43805000  0.44494000  1.0
  H  H25  1  0.49390000  0.62344000  0.05510000  1.0
  H  H26  1  0.93243000  0.56195000  0.55506000  1.0
  H  H27  1  0.50611000  0.37656000  0.94490000  1.0
  H  H28  1  0.36078000  0.69314000  0.45099000  1.0
  H  H29  1  0.74291000  0.91044000  0.04919000  1.0
  H  H30  1  0.63921000  0.30686000  0.54901000  1.0
  H  H31  1  0.25709000  0.08957000  0.95081000  1.0
  H  H32  1  0.99165000  0.51221000  0.24966000  1.0
  H  H33  1  0.76242000  0.74157000  0.25044000  1.0
  H  H34  1  0.00836000  0.48779000  0.75034000  1.0
  H  H35  1  0.23758000  0.25843000  0.74956000  1.0
  C  C36  1  0.25400000  0.14145000  0.35618000  1.0
  C  C37  1  0.28530000  0.89794000  0.14391000  1.0
  C  C38  1  0.74600000  0.85855000  0.64382000  1.0
  C  C39  1  0.71472000  0.10207000  0.85610000  1.0
  C  C40  1  0.32197000  0.31803000  0.45190000  1.0
  C  C41  1  0.36574000  0.86966000  0.04794000  1.0
  C  C42  1  0.67803000  0.68197000  0.54810000  1.0
  C  C43  1  0.63426000  0.13034000  0.95206000  1.0
  C  C44  1  0.03142000  0.24251000  0.36199000  1.0
  C  C45  1  0.38016000  0.66949000  0.13800000  1.0
  C  C46  1  0.96857000  0.75749000  0.63801000  1.0
  C  C47  1  0.61984000  0.33051000  0.86200000  1.0
  C  C48  1  0.02920000  0.40745000  0.38669000  1.0
  C  C49  1  0.52107000  0.64296000  0.11334000  1.0
  C  C50  1  0.97080000  0.59256000  0.61331000  1.0
  C  C51  1  0.47893000  0.35704000  0.88666000  1.0
  C  C52  1  0.29313000  0.68317000  0.39565000  1.0
  C  C53  1  0.78813000  0.89796000  0.10451000  1.0
  C  C54  1  0.70687000  0.31683000  0.60435000  1.0
  C  C55  1  0.21187000  0.10204000  0.89549000  1.0
  C  C56  1  0.10656000  0.59308000  0.29184000  1.0
  C  C57  1  0.80132000  0.81450000  0.20826000  1.0
  C  C58  1  0.89344000  0.40692000  0.70816000  1.0
  C  C59  1  0.19868000  0.18550000  0.79174000  1.0
  C  C60  1  0.85271000  0.12871000  0.50665000  1.0
  C  C61  1  0.12226000  0.34639000  0.99334000  1.0
  C  C62  1  0.14729000  0.87129000  0.49335000  1.0
  C  C63  1  0.87773000  0.65360000  0.00666000  1.0
  C  C64  1  0.65729000  0.16077000  0.24209000  1.0
  C  C65  1  0.41874000  0.41496000  0.25780000  1.0
  C  C66  1  0.34271000  0.83923000  0.75791000  1.0
  C  C67  1  0.58126000  0.58504000  0.74220000  1.0
  S  S68  1  0.02930000  0.19835000  0.56893000  1.0
  S  S69  1  0.12936000  0.46051000  0.93098000  1.0
  S  S70  1  0.97070000  0.80165000  0.43107000  1.0
  S  S71  1  0.87064000  0.53949000  0.06902000  1.0
  S  S72  1  0.71881000  0.24922000  0.17617000  1.0
  S  S73  1  0.57256000  0.54220000  0.32376000  1.0
  S  S74  1  0.28119000  0.75078000  0.82383000  1.0
  S  S75  1  0.42744000  0.45780000  0.67624000  1.0
  N  N76  1  0.40411000  0.16089000  0.39657000  1.0
  N  N77  1  0.26462000  0.00758000  0.10346000  1.0
  N  N78  1  0.59589000  0.83911000  0.60343000  1.0
  N  N79  1  0.73538000  0.99243000  0.89654000  1.0
  N  N80  1  0.44857000  0.27318000  0.45715000  1.0
  N  N81  1  0.31608000  0.99113000  0.04273000  1.0
  N  N82  1  0.55143000  0.72682000  0.54285000  1.0
  N  N83  1  0.68392000  0.00887000  0.95727000  1.0
  N  N84  1  0.19859000  0.23993000  0.38900000  1.0
  N  N85  1  0.35059000  0.80945000  0.11096000  1.0
  N  N86  1  0.80141000  0.76007000  0.61100000  1.0
  N  N87  1  0.64941000  0.19055000  0.88904000  1.0
  N  N88  1  0.14108000  0.55295000  0.35879000  1.0
  N  N89  1  0.69451000  0.78244000  0.14129000  1.0
  N  N90  1  0.85893000  0.44705000  0.64121000  1.0
  N  N91  1  0.30548000  0.21756000  0.85871000  1.0
  N  N92  1  0.34785000  0.79571000  0.35317000  1.0
  N  N93  1  0.94301000  0.99503000  0.14701000  1.0
  N  N94  1  0.65215000  0.20429000  0.64683000  1.0
  N  N95  1  0.05699000  0.00497000  0.85299000  1.0
  N  N96  1  0.23027000  0.73968000  0.28720000  1.0
  N  N97  1  0.95263000  0.94302000  0.21294000  1.0
  N  N98  1  0.76973000  0.26032000  0.71280000  1.0
  N  N99  1  0.04737000  0.05698000  0.78706000  1.0
  N  N100  1  0.72251000  0.07942000  0.46048000  1.0
  N  N101  1  0.11932000  0.26246000  0.03954000  1.0
  N  N102  1  0.27749000  0.92058000  0.53952000  1.0
  N  N103  1  0.88067000  0.73754000  0.96046000  1.0
  N  N104  1  0.61304000  0.09375000  0.29077000  1.0
  N  N105  1  0.30330000  0.32218000  0.20915000  1.0
  N  N106  1  0.38696000  0.90626000  0.70923000  1.0
  N  N107  1  0.69670000  0.67782000  0.79085000  1.0
