# generated using pymatgen
data_CdH7C4Br2NO2
_symmetry_space_group_name_H-M   'P 1'
_cell_length_a   6.59400000
_cell_length_b   11.12690000
_cell_length_c   12.98960000
_cell_angle_alpha   89.99490000
_cell_angle_beta   89.99960000
_cell_angle_gamma   74.64900000
_symmetry_Int_Tables_number   1
_chemical_formula_structural   CdH7C4Br2NO2
_chemical_formula_sum   'Cd4 H28 C16 Br8 N4 O8'
_cell_volume   919.05404275
_cell_formula_units_Z   4
loop_
 _symmetry_equiv_pos_site_id
 _symmetry_equiv_pos_as_xyz
  1  'x, y, z'
loop_
 _atom_site_type_symbol
 _atom_site_label
 _atom_site_symmetry_multiplicity
 _atom_site_fract_x
 _atom_site_fract_y
 _atom_site_fract_z
 _atom_site_occupancy
  Cd  Cd0  1  0.06792000  0.14359000  0.44460000  1.0
  Cd  Cd1  1  0.93215000  0.35639000  0.94459000  1.0
  Cd  Cd2  1  0.93202000  0.85646000  0.55539000  1.0
  Cd  Cd3  1  0.06792000  0.64355000  0.05539000  1.0
  H  H4  1  0.68452000  0.66635000  0.30802000  1.0
  H  H5  1  0.31543000  0.83368000  0.80802000  1.0
  H  H6  1  0.31531000  0.33371000  0.69194000  1.0
  H  H7  1  0.68473000  0.16626000  0.19195000  1.0
  H  H8  1  0.69399000  0.59935000  0.43513000  1.0
  H  H9  1  0.30599000  0.90066000  0.93512000  1.0
  H  H10  1  0.30590000  0.40073000  0.56484000  1.0
  H  H11  1  0.69410000  0.09927000  0.06485000  1.0
  H  H12  1  0.36623000  0.43917000  0.38763000  1.0
  H  H13  1  0.63381000  0.06080000  0.88760000  1.0
  H  H14  1  0.63369000  0.56084000  0.61237000  1.0
  H  H15  1  0.36627000  0.93918000  0.11240000  1.0
  H  H16  1  0.32313000  0.48725000  0.25574000  1.0
  H  H17  1  0.67686000  0.01274000  0.75572000  1.0
  H  H18  1  0.67674000  0.51278000  0.74426000  1.0
  H  H19  1  0.32326000  0.98722000  0.24428000  1.0
  H  H20  1  0.32105000  0.69031000  0.30566000  1.0
  H  H21  1  0.67890000  0.80967000  0.80567000  1.0
  H  H22  1  0.67876000  0.30972000  0.69434000  1.0
  H  H23  1  0.32127000  0.19028000  0.19434000  1.0
  H  H24  1  0.32168000  0.64513000  0.43064000  1.0
  H  H25  1  0.67828000  0.85487000  0.93064000  1.0
  H  H26  1  0.67819000  0.35491000  0.56937000  1.0
  H  H27  1  0.32185000  0.14510000  0.06937000  1.0
  H  H28  1  0.69738000  0.46418000  0.22864000  1.0
  H  H29  1  0.30259000  0.03586000  0.72863000  1.0
  H  H30  1  0.30250000  0.53584000  0.77136000  1.0
  H  H31  1  0.69751000  0.96411000  0.27137000  1.0
  C  C32  1  0.79156000  0.35756000  0.36606000  1.0
  C  C33  1  0.20849000  0.14246000  0.86604000  1.0
  C  C34  1  0.20832000  0.64252000  0.63397000  1.0
  C  C35  1  0.79168000  0.85749000  0.13398000  1.0
  C  C36  1  0.65429000  0.46913000  0.31012000  1.0
  C  C37  1  0.34570000  0.03089000  0.81010000  1.0
  C  C38  1  0.34559000  0.53092000  0.68988000  1.0
  C  C39  1  0.65441000  0.96906000  0.18989000  1.0
  C  C40  1  0.41400000  0.49193000  0.32528000  1.0
  C  C41  1  0.58600000  0.00806000  0.82526000  1.0
  C  C42  1  0.58589000  0.50810000  0.67473000  1.0
  C  C43  1  0.41411000  0.99190000  0.17474000  1.0
  C  C44  1  0.63314000  0.59958000  0.35675000  1.0
  C  C45  1  0.36683000  0.90044000  0.85674000  1.0
  C  C46  1  0.36672000  0.40048000  0.64323000  1.0
  C  C47  1  0.63330000  0.09951000  0.14324000  1.0
  Br  Br48  1  0.56622000  0.82306000  0.58794000  1.0
  Br  Br49  1  0.43373000  0.67694000  0.08792000  1.0
  Br  Br50  1  0.43373000  0.17697000  0.41207000  1.0
  Br  Br51  1  0.56633000  0.32301000  0.91207000  1.0
  Br  Br52  1  0.06859000  0.91266000  0.37324000  1.0
  Br  Br53  1  0.93134000  0.58736000  0.87325000  1.0
  Br  Br54  1  0.93140000  0.08740000  0.62676000  1.0
  Br  Br55  1  0.06862000  0.41256000  0.12677000  1.0
  N  N56  1  0.39516000  0.62460000  0.35880000  1.0
  N  N57  1  0.60480000  0.87540000  0.85879000  1.0
  N  N58  1  0.60469000  0.37544000  0.64120000  1.0
  N  N59  1  0.39533000  0.12456000  0.14121000  1.0
  O  O60  1  0.86806000  0.25874000  0.31424000  1.0
  O  O61  1  0.13198000  0.24129000  0.81421000  1.0
  O  O62  1  0.13183000  0.74132000  0.68580000  1.0
  O  O63  1  0.86820000  0.75867000  0.18582000  1.0
  O  O64  1  0.82678000  0.36542000  0.46226000  1.0
  O  O65  1  0.17330000  0.13459000  0.96225000  1.0
  O  O66  1  0.17306000  0.63468000  0.53776000  1.0
  O  O67  1  0.82689000  0.86533000  0.03777000  1.0
