# generated using pymatgen
data_ZnSiH4C8(N2F5)2
_symmetry_space_group_name_H-M   'P 1'
_cell_length_a   7.33704000
_cell_length_b   7.33671000
_cell_length_c   7.60722000
_cell_angle_alpha   97.56970000
_cell_angle_beta   97.62900000
_cell_angle_gamma   97.14880000
_symmetry_Int_Tables_number   1
_chemical_formula_structural   ZnSiH4C8(N2F5)2
_chemical_formula_sum   'Zn1 Si1 H4 C8 N4 F10'
_cell_volume   398.11265351
_cell_formula_units_Z   1
loop_
 _symmetry_equiv_pos_site_id
 _symmetry_equiv_pos_as_xyz
  1  'x, y, z'
loop_
 _atom_site_type_symbol
 _atom_site_label
 _atom_site_symmetry_multiplicity
 _atom_site_fract_x
 _atom_site_fract_y
 _atom_site_fract_z
 _atom_site_occupancy
  Zn  Zn0  1  0.50004000  0.50004000  0.49999000  1.0
  Si  Si1  1  0.49995000  0.50001000  0.99996000  1.0
  H  H2  1  0.23723000  0.62756000  0.75741000  1.0
  H  H3  1  0.76272000  0.37239000  0.24254000  1.0
  H  H4  1  0.62755000  0.23715000  0.75747000  1.0
  H  H5  1  0.37249000  0.76283000  0.24258000  1.0
  C  C6  1  0.94617000  0.57602000  0.64750000  1.0
  C  C7  1  0.05383000  0.42396000  0.35249000  1.0
  C  C8  1  0.13431000  0.57142000  0.63969000  1.0
  C  C9  1  0.86567000  0.42855000  0.36027000  1.0
  C  C10  1  0.57605000  0.94608000  0.64759000  1.0
  C  C11  1  0.42398000  0.05391000  0.35247000  1.0
  C  C12  1  0.57141000  0.13425000  0.63972000  1.0
  C  C13  1  0.42863000  0.86574000  0.36035000  1.0
  N  N14  1  0.81123000  0.50689000  0.51090000  1.0
  N  N15  1  0.18874000  0.49308000  0.48905000  1.0
  N  N16  1  0.50698000  0.81126000  0.51104000  1.0
  N  N17  1  0.49308000  0.18872000  0.48903000  1.0
  F  F18  1  0.47170000  0.47196000  0.22693000  1.0
  F  F19  1  0.52828000  0.52807000  0.77304000  1.0
  F  F20  1  0.34558000  0.65527000  0.99986000  1.0
  F  F21  1  0.65438000  0.34477000  0.00010000  1.0
  F  F22  1  0.32642000  0.32718000  0.91748000  1.0
  F  F23  1  0.67356000  0.67286000  0.08250000  1.0
  F  F24  1  0.89832000  0.65377000  0.79921000  1.0
  F  F25  1  0.10162000  0.34621000  0.20075000  1.0
  F  F26  1  0.65383000  0.89819000  0.79942000  1.0
  F  F27  1  0.34619000  0.10179000  0.20064000  1.0
