# generated using pymatgen
data_CoH16C17(NO3)2
_symmetry_space_group_name_H-M   'P 1'
_cell_length_a   8.75062000
_cell_length_b   13.71710000
_cell_length_c   16.96250000
_cell_angle_alpha   89.87380000
_cell_angle_beta   100.31000000
_cell_angle_gamma   89.94910000
_symmetry_Int_Tables_number   1
_chemical_formula_structural   CoH16C17(NO3)2
_chemical_formula_sum   'Co4 H64 C68 N8 O24'
_cell_volume   2003.18076861
_cell_formula_units_Z   4
loop_
 _symmetry_equiv_pos_site_id
 _symmetry_equiv_pos_as_xyz
  1  'x, y, z'
loop_
 _atom_site_type_symbol
 _atom_site_label
 _atom_site_symmetry_multiplicity
 _atom_site_fract_x
 _atom_site_fract_y
 _atom_site_fract_z
 _atom_site_occupancy
  Co  Co0  1  0.29049000  0.76380000  0.23351000  1.0
  Co  Co1  1  0.20899000  0.26143000  0.26396000  1.0
  Co  Co2  1  0.70928000  0.23845000  0.76412000  1.0
  Co  Co3  1  0.79099000  0.73856000  0.73605000  1.0
  H  H4  1  0.56414000  0.84627000  0.43966000  1.0
  H  H5  1  0.93573000  0.34498000  0.06128000  1.0
  H  H6  1  0.43613000  0.15500000  0.56203000  1.0
  H  H7  1  0.06380000  0.65366000  0.93786000  1.0
  H  H8  1  0.10202000  0.41629000  0.47957000  1.0
  H  H9  1  0.39813000  0.91599000  0.02042000  1.0
  H  H10  1  0.89845000  0.58456000  0.51975000  1.0
  H  H11  1  0.60168000  0.08390000  0.97954000  1.0
  H  H12  1  0.25615000  0.56283000  0.51793000  1.0
  H  H13  1  0.24328000  0.06260000  0.98161000  1.0
  H  H14  1  0.74406000  0.43765000  0.48198000  1.0
  H  H15  1  0.75657000  0.93735000  0.01827000  1.0
  H  H16  1  0.16438000  0.58229000  0.60191000  1.0
  H  H17  1  0.33500000  0.08224000  0.89763000  1.0
  H  H18  1  0.83474000  0.41846000  0.39762000  1.0
  H  H19  1  0.66525000  0.91775000  0.10240000  1.0
  H  H20  1  0.81717000  0.42778000  0.74387000  1.0
  H  H21  1  0.68305000  0.92787000  0.75608000  1.0
  H  H22  1  0.18480000  0.57055000  0.25572000  1.0
  H  H23  1  0.31719000  0.07221000  0.24412000  1.0
  H  H24  1  0.93102000  0.53017000  0.64933000  1.0
  H  H25  1  0.56906000  0.03019000  0.85043000  1.0
  H  H26  1  0.06936000  0.46899000  0.35056000  1.0
  H  H27  1  0.43058000  0.96983000  0.14955000  1.0
  H  H28  1  0.04942000  0.26313000  0.53747000  1.0
  H  H29  1  0.45012000  0.76300000  0.96252000  1.0
  H  H30  1  0.95212000  0.73717000  0.46106000  1.0
  H  H31  1  0.54964000  0.23683000  0.03732000  1.0
  H  H32  1  0.92673000  0.17209000  0.63707000  1.0
  H  H33  1  0.57318000  0.67206000  0.86317000  1.0
  H  H34  1  0.07660000  0.82699000  0.36171000  1.0
  H  H35  1  0.42683000  0.32788000  0.13674000  1.0
  H  H36  1  0.40388000  0.39619000  0.51189000  1.0
  H  H37  1  0.09601000  0.89587000  0.98799000  1.0
  H  H38  1  0.59595000  0.60409000  0.48866000  1.0
  H  H39  1  0.90402000  0.10416000  0.01189000  1.0
  H  H40  1  0.59108000  0.28603000  0.59699000  1.0
  H  H41  1  0.90906000  0.78598000  0.90313000  1.0
  H  H42  1  0.40835000  0.71488000  0.40394000  1.0
  H  H43  1  0.09100000  0.21400000  0.09678000  1.0
  H  H44  1  0.47318000  0.39412000  0.80600000  1.0
  H  H45  1  0.02717000  0.89426000  0.69396000  1.0
  H  H46  1  0.52375000  0.60631000  0.19456000  1.0
  H  H47  1  0.97296000  0.10575000  0.30598000  1.0
  H  H48  1  0.27521000  0.50571000  0.72969000  1.0
  H  H49  1  0.22476000  0.00566000  0.77000000  1.0
  H  H50  1  0.72272000  0.49534000  0.27019000  1.0
  H  H51  1  0.77541000  0.99432000  0.22998000  1.0
  H  H52  1  0.41499000  0.74586000  0.10988000  1.0
  H  H53  1  0.07944000  0.24803000  0.38783000  1.0
  H  H54  1  0.57991000  0.25207000  0.88807000  1.0
  H  H55  1  0.92016000  0.75209000  0.61207000  1.0
  H  H56  1  0.55241000  0.78444000  0.18053000  1.0
  H  H57  1  0.94455000  0.28553000  0.31681000  1.0
  H  H58  1  0.44524000  0.21509000  0.81708000  1.0
  H  H59  1  0.05503000  0.71482000  0.68302000  1.0
  H  H60  1  0.02449000  0.84721000  0.17756000  1.0
  H  H61  1  0.47569000  0.34264000  0.32443000  1.0
  H  H62  1  0.97631000  0.15697000  0.82380000  1.0
  H  H63  1  0.52374000  0.65737000  0.67576000  1.0
  H  H64  1  0.13919000  0.91857000  0.23590000  1.0
  H  H65  1  0.36619000  0.41568000  0.26612000  1.0
  H  H66  1  0.86563000  0.08345000  0.76707000  1.0
  H  H67  1  0.63420000  0.58371000  0.73297000  1.0
  C  C68  1  0.72784000  0.86400000  0.58583000  1.0
  C  C69  1  0.77284000  0.36302000  0.91449000  1.0
  C  C70  1  0.27324000  0.13720000  0.41494000  1.0
  C  C71  1  0.22574000  0.63554000  0.08517000  1.0
  C  C72  1  0.61863000  0.93964000  0.54246000  1.0
  C  C73  1  0.88211000  0.43827000  0.95791000  1.0
  C  C74  1  0.38273000  0.06204000  0.45881000  1.0
  C  C75  1  0.11753000  0.56037000  0.04114000  1.0
  C  C76  1  0.41887000  0.97320000  0.42479000  1.0
  C  C77  1  0.08138000  0.47164000  0.07561000  1.0
  C  C78  1  0.58209000  0.02831000  0.57665000  1.0
  C  C79  1  0.91829000  0.52699000  0.92348000  1.0
  C  C80  1  0.32889000  0.93444000  0.34759000  1.0
  C  C81  1  0.17165000  0.43347000  0.15323000  1.0
  C  C82  1  0.67177000  0.06600000  0.65425000  1.0
  C  C83  1  0.82826000  0.56526000  0.84593000  1.0
  C  C84  1  0.53714000  0.91445000  0.46694000  1.0
  C  C85  1  0.96326000  0.41299000  0.03371000  1.0
  C  C86  1  0.46378000  0.08711000  0.53455000  1.0
  C  C87  1  0.03651000  0.58563000  0.96541000  1.0
  C  C88  1  0.06298000  0.46589000  0.52293000  1.0
  C  C89  1  0.43696000  0.96567000  0.97689000  1.0
  C  C90  1  0.93701000  0.53462000  0.47645000  1.0
  C  C91  1  0.56294000  0.03423000  0.02310000  1.0
  C  C92  1  0.20484000  0.52583000  0.56454000  1.0
  C  C93  1  0.29478000  0.02566000  0.93512000  1.0
  C  C94  1  0.79473000  0.47482000  0.43522000  1.0
  C  C95  1  0.70526000  0.97432000  0.06482000  1.0
  C  C96  1  0.87046000  0.39448000  0.69738000  1.0
  C  C97  1  0.62968000  0.89457000  0.80261000  1.0
  C  C98  1  0.13161000  0.60408000  0.30209000  1.0
  C  C99  1  0.37046000  0.10546000  0.19751000  1.0
  C  C100  1  0.93426000  0.45099000  0.64394000  1.0
  C  C101  1  0.56584000  0.95099000  0.85595000  1.0
  C  C102  1  0.06668000  0.54825000  0.35562000  1.0
  C  C103  1  0.43413000  0.04902000  0.14411000  1.0
  C  C104  1  0.99783000  0.40533000  0.58342000  1.0
  C  C105  1  0.50220000  0.90523000  0.91651000  1.0
  C  C106  1  0.00271000  0.59450000  0.41573000  1.0
  C  C107  1  0.49777000  0.09467000  0.08349000  1.0
  C  C108  1  0.99831000  0.30329000  0.58187000  1.0
  C  C109  1  0.50162000  0.80320000  0.91819000  1.0
  C  C110  1  0.00320000  0.69654000  0.41693000  1.0
  C  C111  1  0.49839000  0.19669000  0.08178000  1.0
  C  C112  1  0.93108000  0.25160000  0.63781000  1.0
  C  C113  1  0.56895000  0.75158000  0.86235000  1.0
  C  C114  1  0.07167000  0.74746000  0.36107000  1.0
  C  C115  1  0.43119000  0.24838000  0.13762000  1.0
  C  C116  1  0.32350000  0.46139000  0.61391000  1.0
  C  C117  1  0.17635000  0.96125000  0.88588000  1.0
  C  C118  1  0.67551000  0.53929000  0.38627000  1.0
  C  C119  1  0.82380000  0.03869000  0.11404000  1.0
  C  C120  1  0.41447000  0.39785000  0.57699000  1.0
  C  C121  1  0.08549000  0.89765000  0.92290000  1.0
  C  C122  1  0.58472000  0.60262000  0.42349000  1.0
  C  C123  1  0.91464000  0.10230000  0.07699000  1.0
  C  C124  1  0.51870000  0.33614000  0.62392000  1.0
  C  C125  1  0.98146000  0.83605000  0.87612000  1.0
  C  C126  1  0.48022000  0.66462000  0.37686000  1.0
  C  C127  1  0.01866000  0.16389000  0.12380000  1.0
  C  C128  1  0.45171000  0.39499000  0.74066000  1.0
  C  C129  1  0.04855000  0.89500000  0.75929000  1.0
  C  C130  1  0.54592000  0.60574000  0.25991000  1.0
  C  C131  1  0.95162000  0.10495000  0.24065000  1.0
  C  C132  1  0.34346000  0.45849000  0.69755000  1.0
  C  C133  1  0.15655000  0.95845000  0.80226000  1.0
  C  C134  1  0.65480000  0.54235000  0.30263000  1.0
  C  C135  1  0.84364000  0.04147000  0.19768000  1.0
  N  N136  1  0.86561000  0.29604000  0.69435000  1.0
  N  N137  1  0.63455000  0.79611000  0.80580000  1.0
  N  N138  1  0.13725000  0.70241000  0.30485000  1.0
  N  N139  1  0.36566000  0.20392000  0.19425000  1.0
  N  N140  1  0.53808000  0.33389000  0.70473000  1.0
  N  N141  1  0.96225000  0.83388000  0.79533000  1.0
  N  N142  1  0.45995000  0.66686000  0.29608000  1.0
  N  N143  1  0.03791000  0.16605000  0.20460000  1.0
  O  O144  1  0.68337000  0.82698000  0.64743000  1.0
  O  O145  1  0.81731000  0.32613000  0.85298000  1.0
  O  O146  1  0.31761000  0.17400000  0.35324000  1.0
  O  O147  1  0.18345000  0.66909000  0.14813000  1.0
  O  O148  1  0.84441000  0.83639000  0.55700000  1.0
  O  O149  1  0.65591000  0.33575000  0.94321000  1.0
  O  O150  1  0.15603000  0.16446000  0.44340000  1.0
  O  O151  1  0.34150000  0.66506000  0.05596000  1.0
  O  O152  1  0.19564000  0.96996000  0.31969000  1.0
  O  O153  1  0.30661000  0.46638000  0.17904000  1.0
  O  O154  1  0.80580000  0.03177000  0.68092000  1.0
  O  O155  1  0.69431000  0.53125000  0.81926000  1.0
  O  O156  1  0.39197000  0.86383000  0.31581000  1.0
  O  O157  1  0.10526000  0.36602000  0.18773000  1.0
  O  O158  1  0.60608000  0.13417000  0.68817000  1.0
  O  O159  1  0.89373000  0.63379000  0.81217000  1.0
  O  O160  1  0.44828000  0.80035000  0.15267000  1.0
  O  O161  1  0.04669000  0.30280000  0.34628000  1.0
  O  O162  1  0.54698000  0.19721000  0.84686000  1.0
  O  O163  1  0.95308000  0.69720000  0.65349000  1.0
  O  O164  1  0.12832000  0.87503000  0.18586000  1.0
  O  O165  1  0.37443000  0.37405000  0.31645000  1.0
  O  O166  1  0.87514000  0.12572000  0.81700000  1.0
  O  O167  1  0.62521000  0.62629000  0.68313000  1.0
