# generated using pymatgen
data_Cd2H54C49(N3O4)2
_symmetry_space_group_name_H-M   'P 1'
_cell_length_a   12.20290000
_cell_length_b   12.20290000
_cell_length_c   20.38530000
_cell_angle_alpha   90.00010000
_cell_angle_beta   90.00020000
_cell_angle_gamma   67.85400000
_symmetry_Int_Tables_number   1
_chemical_formula_structural   Cd2H54C49(N3O4)2
_chemical_formula_sum   'Cd4 H108 C98 N12 O16'
_cell_volume   2811.64387016
_cell_formula_units_Z   2
loop_
 _symmetry_equiv_pos_site_id
 _symmetry_equiv_pos_as_xyz
  1  'x, y, z'
loop_
 _atom_site_type_symbol
 _atom_site_label
 _atom_site_symmetry_multiplicity
 _atom_site_fract_x
 _atom_site_fract_y
 _atom_site_fract_z
 _atom_site_occupancy
  Cd  Cd0  1  0.71203000  0.96383000  0.18476000  1.0
  Cd  Cd1  1  0.28797000  0.03617000  0.68475000  1.0
  Cd  Cd2  1  0.96383000  0.71203000  0.81525000  1.0
  Cd  Cd3  1  0.03617000  0.28797000  0.31525000  1.0
  H  H4  1  0.82420000  0.08192000  0.29971000  1.0
  H  H5  1  0.17580000  0.91808000  0.79971000  1.0
  H  H6  1  0.08192000  0.82420000  0.70029000  1.0
  H  H7  1  0.91808000  0.17580000  0.20029000  1.0
  H  H8  1  0.90483000  0.73461000  0.24129000  1.0
  H  H9  1  0.09516000  0.26539000  0.74129000  1.0
  H  H10  1  0.73461000  0.90483000  0.75871000  1.0
  H  H11  1  0.26539000  0.09516000  0.25871000  1.0
  H  H12  1  0.52875000  0.86464000  0.11741000  1.0
  H  H13  1  0.47125000  0.13536000  0.61741000  1.0
  H  H14  1  0.86463000  0.52875000  0.88259000  1.0
  H  H15  1  0.13537000  0.47125000  0.38259000  1.0
  H  H16  1  0.57486000  0.17649000  0.07977000  1.0
  H  H17  1  0.42514000  0.82350000  0.57977000  1.0
  H  H18  1  0.17650000  0.57486000  0.92023000  1.0
  H  H19  1  0.82351000  0.42514000  0.42023000  1.0
  H  H20  1  0.86635000  0.60290000  0.05764000  1.0
  H  H21  1  0.13365000  0.39710000  0.55764000  1.0
  H  H22  1  0.60290000  0.86635000  0.94236000  1.0
  H  H23  1  0.39710000  0.13366000  0.44236000  1.0
  H  H24  1  0.91174000  0.69828000  0.00728000  1.0
  H  H25  1  0.08826000  0.30172000  0.50728000  1.0
  H  H26  1  0.69827000  0.91175000  0.99271000  1.0
  H  H27  1  0.30173000  0.08825000  0.49272000  1.0
  H  H28  1  0.56875000  0.37467000  0.14780000  1.0
  H  H29  1  0.43125000  0.62533000  0.64780000  1.0
  H  H30  1  0.37467000  0.56875000  0.85220000  1.0
  H  H31  1  0.62533000  0.43125000  0.35220000  1.0
  H  H32  1  0.71455000  0.34833000  0.17299000  1.0
  H  H33  1  0.28545000  0.65167000  0.67299000  1.0
  H  H34  1  0.34833000  0.71455000  0.82701000  1.0
  H  H35  1  0.65167000  0.28545000  0.32701000  1.0
  H  H36  1  0.99715000  0.02512000  0.37441000  1.0
  H  H37  1  0.00285000  0.97488000  0.87440000  1.0
  H  H38  1  0.02512000  0.99715000  0.62560000  1.0
  H  H39  1  0.97488000  0.00285000  0.12560000  1.0
  H  H40  1  0.08257000  0.66195000  0.31395000  1.0
  H  H41  1  0.91743000  0.33805000  0.81395000  1.0
  H  H42  1  0.66195000  0.08256000  0.68605000  1.0
  H  H43  1  0.33805000  0.91744000  0.18605000  1.0
  H  H44  1  0.36440000  0.91229000  0.03524000  1.0
  H  H45  1  0.63560000  0.08771000  0.53525000  1.0
  H  H46  1  0.91229000  0.36440000  0.96476000  1.0
  H  H47  1  0.08771000  0.63560000  0.46476000  1.0
  H  H48  1  0.41240000  0.23837000  0.99596000  1.0
  H  H49  1  0.58760000  0.76163000  0.49596000  1.0
  H  H50  1  0.23837000  0.41240000  0.00404000  1.0
  H  H51  1  0.76163000  0.58760000  0.50404000  1.0
  H  H52  1  0.65366000  0.73195000  0.03466000  1.0
  H  H53  1  0.34634000  0.26805000  0.53466000  1.0
  H  H54  1  0.73195000  0.65366000  0.96534000  1.0
  H  H55  1  0.26805000  0.34634000  0.46534000  1.0
  H  H56  1  0.49380000  0.42120000  0.26081000  1.0
  H  H57  1  0.50621000  0.57881000  0.76081000  1.0
  H  H58  1  0.42121000  0.49380000  0.73920000  1.0
  H  H59  1  0.57880000  0.50620000  0.23920000  1.0
  H  H60  1  0.19765000  0.70442000  0.40177000  1.0
  H  H61  1  0.80236000  0.29558000  0.90177000  1.0
  H  H62  1  0.70442000  0.19765000  0.59823000  1.0
  H  H63  1  0.29557000  0.80235000  0.09824000  1.0
  H  H64  1  0.14948000  0.84766000  0.43829000  1.0
  H  H65  1  0.85052000  0.15233000  0.93829000  1.0
  H  H66  1  0.84766000  0.14948000  0.56171000  1.0
  H  H67  1  0.15233000  0.85052000  0.06171000  1.0
  H  H68  1  0.27842000  0.03955000  0.93070000  1.0
  H  H69  1  0.72158000  0.96045000  0.43071000  1.0
  H  H70  1  0.03955000  0.27842000  0.06930000  1.0
  H  H71  1  0.96045000  0.72158000  0.56930000  1.0
  H  H72  1  0.26887000  0.18764000  0.93043000  1.0
  H  H73  1  0.73113000  0.81237000  0.43043000  1.0
  H  H74  1  0.18763000  0.26887000  0.06957000  1.0
  H  H75  1  0.81237000  0.73113000  0.56957000  1.0
  H  H76  1  0.22882000  0.92339000  0.34498000  1.0
  H  H77  1  0.77119000  0.07661000  0.84497000  1.0
  H  H78  1  0.92339000  0.22881000  0.65502000  1.0
  H  H79  1  0.07661000  0.77119000  0.15502000  1.0
  H  H80  1  0.27257000  0.78551000  0.30438000  1.0
  H  H81  1  0.72743000  0.21449000  0.80437000  1.0
  H  H82  1  0.78551000  0.27257000  0.69563000  1.0
  H  H83  1  0.21449000  0.72742000  0.19562000  1.0
  H  H84  1  0.08094000  0.15593000  0.96473000  1.0
  H  H85  1  0.91906000  0.84407000  0.46473000  1.0
  H  H86  1  0.15594000  0.08094000  0.03527000  1.0
  H  H87  1  0.84406000  0.91906000  0.53527000  1.0
  H  H88  1  0.36888000  0.83000000  0.43670000  1.0
  H  H89  1  0.63112000  0.17000000  0.93669000  1.0
  H  H90  1  0.83000000  0.36888000  0.56331000  1.0
  H  H91  1  0.17000000  0.63112000  0.06330000  1.0
  H  H92  1  0.41543000  0.69040000  0.39621000  1.0
  H  H93  1  0.58458000  0.30960000  0.89621000  1.0
  H  H94  1  0.69040000  0.41542000  0.60380000  1.0
  H  H95  1  0.30960000  0.58457000  0.10379000  1.0
  H  H96  1  0.39104000  0.00452000  0.37635000  1.0
  H  H97  1  0.60896000  0.99548000  0.87634000  1.0
  H  H98  1  0.00452000  0.39104000  0.62365000  1.0
  H  H99  1  0.99547000  0.60896000  0.12365000  1.0
  H  H100  1  0.56122000  0.64768000  0.30508000  1.0
  H  H101  1  0.43878000  0.35231000  0.80508000  1.0
  H  H102  1  0.64769000  0.56122000  0.69492000  1.0
  H  H103  1  0.35231000  0.43878000  0.19492000  1.0
  H  H104  1  0.51401000  0.06585000  0.29665000  1.0
  H  H105  1  0.48599000  0.93415000  0.79665000  1.0
  H  H106  1  0.06586000  0.51401000  0.70335000  1.0
  H  H107  1  0.93414000  0.48599000  0.20335000  1.0
  H  H108  1  0.67520000  0.72344000  0.22761000  1.0
  H  H109  1  0.32480000  0.27655000  0.72761000  1.0
  H  H110  1  0.72345000  0.67520000  0.77239000  1.0
  H  H111  1  0.27655000  0.32480000  0.27239000  1.0
  C  C112  1  0.82074000  0.77850000  0.09633000  1.0
  C  C113  1  0.17925000  0.22150000  0.59633000  1.0
  C  C114  1  0.77850000  0.82075000  0.90367000  1.0
  C  C115  1  0.22150000  0.17925000  0.40367000  1.0
  C  C116  1  0.65297000  0.20987000  0.19584000  1.0
  C  C117  1  0.34703000  0.79013000  0.69583000  1.0
  C  C118  1  0.20987000  0.65297000  0.80417000  1.0
  C  C119  1  0.79013000  0.34703000  0.30417000  1.0
  C  C120  1  0.88275000  0.98932000  0.30459000  1.0
  C  C121  1  0.11725000  0.01068000  0.80458000  1.0
  C  C122  1  0.98932000  0.88275000  0.69542000  1.0
  C  C123  1  0.01068000  0.11725000  0.19542000  1.0
  C  C124  1  0.92835000  0.79553000  0.27216000  1.0
  C  C125  1  0.07166000  0.20447000  0.77216000  1.0
  C  C126  1  0.79553000  0.92834000  0.72784000  1.0
  C  C127  1  0.20447000  0.07166000  0.22784000  1.0
  C  C128  1  0.49834000  0.94752000  0.08991000  1.0
  C  C129  1  0.50166000  0.05248000  0.58991000  1.0
  C  C130  1  0.94752000  0.49834000  0.91009000  1.0
  C  C131  1  0.05248000  0.50166000  0.41009000  1.0
  C  C132  1  0.52431000  0.12155000  0.06885000  1.0
  C  C133  1  0.47569000  0.87845000  0.56885000  1.0
  C  C134  1  0.12155000  0.52431000  0.93115000  1.0
  C  C135  1  0.87845000  0.47569000  0.43115000  1.0
  C  C136  1  0.84067000  0.69354000  0.03875000  1.0
  C  C137  1  0.15933000  0.30646000  0.53875000  1.0
  C  C138  1  0.69354000  0.84067000  0.96124000  1.0
  C  C139  1  0.30646000  0.15933000  0.46124000  1.0
  C  C140  1  0.63170000  0.34079000  0.18882000  1.0
  C  C141  1  0.36830000  0.65921000  0.68882000  1.0
  C  C142  1  0.34080000  0.63171000  0.81118000  1.0
  C  C143  1  0.65921000  0.36830000  0.31118000  1.0
  C  C144  1  0.97944000  0.95690000  0.34678000  1.0
  C  C145  1  0.02056000  0.04310000  0.84678000  1.0
  C  C146  1  0.95690000  0.97944000  0.65322000  1.0
  C  C147  1  0.04309000  0.02056000  0.15322000  1.0
  C  C148  1  0.02696000  0.75591000  0.31286000  1.0
  C  C149  1  0.97304000  0.24409000  0.81286000  1.0
  C  C150  1  0.75591000  0.02695000  0.68714000  1.0
  C  C151  1  0.24409000  0.97304000  0.18714000  1.0
  C  C152  1  0.40780000  0.97442000  0.04395000  1.0
  C  C153  1  0.59220000  0.02558000  0.54396000  1.0
  C  C154  1  0.97442000  0.40780000  0.95604000  1.0
  C  C155  1  0.02558000  0.59220000  0.45604000  1.0
  C  C156  1  0.43410000  0.15502000  0.02226000  1.0
  C  C157  1  0.56590000  0.84498000  0.52226000  1.0
  C  C158  1  0.15502000  0.43410000  0.97774000  1.0
  C  C159  1  0.84498000  0.56590000  0.47774000  1.0
  C  C160  1  0.72494000  0.72495000  0.00000000  1.0
  C  C161  1  0.27506000  0.27506000  0.50000000  1.0
  C  C162  1  0.58387000  0.41613000  0.25000000  1.0
  C  C163  1  0.41613000  0.58388000  0.75000000  1.0
  C  C164  1  0.05456000  0.83739000  0.35110000  1.0
  C  C165  1  0.94544000  0.16261000  0.85110000  1.0
  C  C166  1  0.83739000  0.05456000  0.64890000  1.0
  C  C167  1  0.16261000  0.94544000  0.14890000  1.0
  C  C168  1  0.37240000  0.08124000  0.00917000  1.0
  C  C169  1  0.62760000  0.91876000  0.50917000  1.0
  C  C170  1  0.08123000  0.37240000  0.99083000  1.0
  C  C171  1  0.91876000  0.62760000  0.49083000  1.0
  C  C172  1  0.16590000  0.79986000  0.39125000  1.0
  C  C173  1  0.83410000  0.20014000  0.89124000  1.0
  C  C174  1  0.79986000  0.16590000  0.60876000  1.0
  C  C175  1  0.20014000  0.83410000  0.10876000  1.0
  C  C176  1  0.26923000  0.11520000  0.96272000  1.0
  C  C177  1  0.73077000  0.88480000  0.46272000  1.0
  C  C178  1  0.11520000  0.26923000  0.03728000  1.0
  C  C179  1  0.88480000  0.73077000  0.53728000  1.0
  C  C180  1  0.26081000  0.82729000  0.35320000  1.0
  C  C181  1  0.73919000  0.17271000  0.85319000  1.0
  C  C182  1  0.82730000  0.26081000  0.64680000  1.0
  C  C183  1  0.17270000  0.73919000  0.14680000  1.0
  C  C184  1  0.15087000  0.15087000  0.00000000  1.0
  C  C185  1  0.84913000  0.84914000  0.50000000  1.0
  C  C186  1  0.38085000  0.78678000  0.38835000  1.0
  C  C187  1  0.61915000  0.21321000  0.88835000  1.0
  C  C188  1  0.78678000  0.38085000  0.61165000  1.0
  C  C189  1  0.21321000  0.61915000  0.11165000  1.0
  C  C190  1  0.46477000  0.82106000  0.34716000  1.0
  C  C191  1  0.53523000  0.17894000  0.84716000  1.0
  C  C192  1  0.82106000  0.46476000  0.65284000  1.0
  C  C193  1  0.17893000  0.53523000  0.15284000  1.0
  C  C194  1  0.45410000  0.93928000  0.34476000  1.0
  C  C195  1  0.54591000  0.06071000  0.84476000  1.0
  C  C196  1  0.93928000  0.45409000  0.65524000  1.0
  C  C197  1  0.06071000  0.54591000  0.15524000  1.0
  C  C198  1  0.54757000  0.74131000  0.30530000  1.0
  C  C199  1  0.45243000  0.25869000  0.80530000  1.0
  C  C200  1  0.74131000  0.54757000  0.69470000  1.0
  C  C201  1  0.25868000  0.45243000  0.19470000  1.0
  C  C202  1  0.52137000  0.97406000  0.30055000  1.0
  C  C203  1  0.47863000  0.02593000  0.80056000  1.0
  C  C204  1  0.97407000  0.52137000  0.69944000  1.0
  C  C205  1  0.02593000  0.47863000  0.19944000  1.0
  C  C206  1  0.61193000  0.78241000  0.26208000  1.0
  C  C207  1  0.38807000  0.21758000  0.76209000  1.0
  C  C208  1  0.78243000  0.61193000  0.73791000  1.0
  C  C209  1  0.21757000  0.38807000  0.23791000  1.0
  N  N210  1  0.85776000  0.91039000  0.26764000  1.0
  N  N211  1  0.14224000  0.08961000  0.76763000  1.0
  N  N212  1  0.91039000  0.85776000  0.73237000  1.0
  N  N213  1  0.08960000  0.14224000  0.23237000  1.0
  N  N214  1  0.55570000  0.01996000  0.10272000  1.0
  N  N215  1  0.44430000  0.98004000  0.60272000  1.0
  N  N216  1  0.01996000  0.55570000  0.89728000  1.0
  N  N217  1  0.98004000  0.44430000  0.39729000  1.0
  N  N218  1  0.59818000  0.89710000  0.25906000  1.0
  N  N219  1  0.40182000  0.10290000  0.75907000  1.0
  N  N220  1  0.89711000  0.59818000  0.74093000  1.0
  N  N221  1  0.10289000  0.40182000  0.24093000  1.0
  O  O222  1  0.86703000  0.85560000  0.09708000  1.0
  O  O223  1  0.13295000  0.14441000  0.59709000  1.0
  O  O224  1  0.85559000  0.86705000  0.90291000  1.0
  O  O225  1  0.14441000  0.13295000  0.40291000  1.0
  O  O226  1  0.75031000  0.77049000  0.14125000  1.0
  O  O227  1  0.24969000  0.22951000  0.64125000  1.0
  O  O228  1  0.77050000  0.75030000  0.85875000  1.0
  O  O229  1  0.22951000  0.24969000  0.35875000  1.0
  O  O230  1  0.73595000  0.13813000  0.15998000  1.0
  O  O231  1  0.26405000  0.86187000  0.65998000  1.0
  O  O232  1  0.13813000  0.73595000  0.84002000  1.0
  O  O233  1  0.86187000  0.26405000  0.34002000  1.0
  O  O234  1  0.58929000  0.17692000  0.23378000  1.0
  O  O235  1  0.41071000  0.82308000  0.73377000  1.0
  O  O236  1  0.17693000  0.58928000  0.76623000  1.0
  O  O237  1  0.82307000  0.41071000  0.26623000  1.0
