# generated using pymatgen
data_NiH17C21N2ClO5
_symmetry_space_group_name_H-M   'P 1'
_cell_length_a   8.42334000
_cell_length_b   10.06040000
_cell_length_c   15.50310000
_cell_angle_alpha   101.28100000
_cell_angle_beta   102.87500000
_cell_angle_gamma   104.25500000
_symmetry_Int_Tables_number   1
_chemical_formula_structural   NiH17C21N2ClO5
_chemical_formula_sum   'Ni2 H34 C42 N4 Cl2 O10'
_cell_volume   1196.88500555
_cell_formula_units_Z   2
loop_
 _symmetry_equiv_pos_site_id
 _symmetry_equiv_pos_as_xyz
  1  'x, y, z'
loop_
 _atom_site_type_symbol
 _atom_site_label
 _atom_site_symmetry_multiplicity
 _atom_site_fract_x
 _atom_site_fract_y
 _atom_site_fract_z
 _atom_site_occupancy
  Ni  Ni0  1  0.52374000  0.50843000  0.68079000  1.0
  Ni  Ni1  1  0.47626000  0.49157000  0.31921000  1.0
  H  H2  1  0.70615000  0.74945000  0.76860000  1.0
  H  H3  1  0.29384000  0.25056000  0.23143000  1.0
  H  H4  1  0.64675000  0.69260000  0.84743000  1.0
  H  H5  1  0.35318000  0.30737000  0.15258000  1.0
  H  H6  1  0.57397000  0.07004000  0.68779000  1.0
  H  H7  1  0.42606000  0.93000000  0.31222000  1.0
  H  H8  1  0.23454000  0.67729000  0.50106000  1.0
  H  H9  1  0.76554000  0.32271000  0.49896000  1.0
  H  H10  1  0.16814000  0.08099000  0.46863000  1.0
  H  H11  1  0.83187000  0.91899000  0.53136000  1.0
  H  H12  1  0.93615000  0.85696000  0.39056000  1.0
  H  H13  1  0.06389000  0.14301000  0.60945000  1.0
  H  H14  1  0.95449000  0.69143000  0.40612000  1.0
  H  H15  1  0.04556000  0.30855000  0.59389000  1.0
  H  H16  1  0.07034000  0.55698000  0.31605000  1.0
  H  H17  1  0.92964000  0.44299000  0.68393000  1.0
  H  H18  1  0.13377000  0.49548000  0.17019000  1.0
  H  H19  1  0.86617000  0.50449000  0.82978000  1.0
  H  H20  1  0.13897000  0.91904000  0.14382000  1.0
  H  H21  1  0.86107000  0.08097000  0.85620000  1.0
  H  H22  1  0.07307000  0.96460000  0.29247000  1.0
  H  H23  1  0.92702000  0.03541000  0.70756000  1.0
  H  H24  1  0.18757000  0.76367000  0.02196000  1.0
  H  H25  1  0.81243000  0.23636000  0.97805000  1.0
  H  H26  1  0.23071000  0.47949000  0.05320000  1.0
  H  H27  1  0.76923000  0.52051000  0.94678000  1.0
  H  H28  1  0.34202000  0.35010000  0.94587000  1.0
  H  H29  1  0.65793000  0.64990000  0.05412000  1.0
  H  H30  1  0.42890000  0.31802000  0.80122000  1.0
  H  H31  1  0.57103000  0.68196000  0.19876000  1.0
  H  H32  1  0.29902000  0.66881000  0.74555000  1.0
  H  H33  1  0.70093000  0.33117000  0.25443000  1.0
  H  H34  1  0.21369000  0.72085000  0.88818000  1.0
  H  H35  1  0.78627000  0.27914000  0.11179000  1.0
  C  C36  1  0.42950000  0.24870000  0.61652000  1.0
  C  C37  1  0.57051000  0.75131000  0.38348000  1.0
  C  C38  1  0.37702000  0.09102000  0.58098000  1.0
  C  C39  1  0.62300000  0.90899000  0.41902000  1.0
  C  C40  1  0.46581000  0.01366000  0.62761000  1.0
  C  C41  1  0.53421000  0.98637000  0.37240000  1.0
  C  C42  1  0.41480000  0.86541000  0.59891000  1.0
  C  C43  1  0.58525000  0.13462000  0.40110000  1.0
  C  C44  1  0.27233000  0.79337000  0.52281000  1.0
  C  C45  1  0.72773000  0.20664000  0.47721000  1.0
  C  C46  1  0.18237000  0.86996000  0.47568000  1.0
  C  C47  1  0.81768000  0.13003000  0.52433000  1.0
  C  C48  1  0.23580000  0.01879000  0.50430000  1.0
  C  C49  1  0.76423000  0.98120000  0.49571000  1.0
  C  C50  1  0.50742000  0.78433000  0.65292000  1.0
  C  C51  1  0.49263000  0.21570000  0.34710000  1.0
  C  C52  1  0.02363000  0.79244000  0.39652000  1.0
  C  C53  1  0.97641000  0.20754000  0.60349000  1.0
  C  C54  1  0.07731000  0.63107000  0.27309000  1.0
  C  C55  1  0.92268000  0.36891000  0.72690000  1.0
  C  C56  1  0.11578000  0.59933000  0.19116000  1.0
  C  C57  1  0.88419000  0.40066000  0.80883000  1.0
  C  C58  1  0.13801000  0.70080000  0.14050000  1.0
  C  C59  1  0.86198000  0.29920000  0.85949000  1.0
  C  C60  1  0.11829000  0.83377000  0.17766000  1.0
  C  C61  1  0.88175000  0.16624000  0.82235000  1.0
  C  C62  1  0.08129000  0.86136000  0.26015000  1.0
  C  C63  1  0.91876000  0.13865000  0.73987000  1.0
  C  C64  1  0.18501000  0.67796000  0.05591000  1.0
  C  C65  1  0.81497000  0.32205000  0.94408000  1.0
  C  C66  1  0.22888000  0.56351000  0.01805000  1.0
  C  C67  1  0.77109000  0.43649000  0.98193000  1.0
  C  C68  1  0.27596000  0.54241000  0.93336000  1.0
  C  C69  1  0.72399000  0.45759000  0.06663000  1.0
  C  C70  1  0.33307000  0.42542000  0.90444000  1.0
  C  C71  1  0.66687000  0.57458000  0.09553000  1.0
  C  C72  1  0.37978000  0.40538000  0.82365000  1.0
  C  C73  1  0.62017000  0.59461000  0.17633000  1.0
  C  C74  1  0.31053000  0.60365000  0.79365000  1.0
  C  C75  1  0.68941000  0.39633000  0.20632000  1.0
  C  C76  1  0.26475000  0.63199000  0.87403000  1.0
  C  C77  1  0.73521000  0.36800000  0.12595000  1.0
  N  N78  1  0.37105000  0.49344000  0.76823000  1.0
  N  N79  1  0.62890000  0.50655000  0.23175000  1.0
  N  N80  1  0.05979000  0.75995000  0.30652000  1.0
  N  N81  1  0.94024000  0.24004000  0.69349000  1.0
  Cl  Cl82  1  0.73791000  0.55153000  0.61187000  1.0
  Cl  Cl83  1  0.26212000  0.44849000  0.38815000  1.0
  O  O84  1  0.55330000  0.30941000  0.69061000  1.0
  O  O85  1  0.44670000  0.69060000  0.30939000  1.0
  O  O86  1  0.35182000  0.32342000  0.57694000  1.0
  O  O87  1  0.64818000  0.67659000  0.42305000  1.0
  O  O88  1  0.65000000  0.85140000  0.71277000  1.0
  O  O89  1  0.35003000  0.14864000  0.28727000  1.0
  O  O90  1  0.42837000  0.65193000  0.63599000  1.0
  O  O91  1  0.57167000  0.34810000  0.36402000  1.0
  O  O92  1  0.71372000  0.67418000  0.80520000  1.0
  O  O93  1  0.28624000  0.32581000  0.19481000  1.0
