# generated using pymatgen
data_CuH10C7N5ClO5
_symmetry_space_group_name_H-M   'P 1'
_cell_length_a   6.57269000
_cell_length_b   9.03037000
_cell_length_c   10.97580000
_cell_angle_alpha   104.61400000
_cell_angle_beta   103.31000000
_cell_angle_gamma   103.56300000
_symmetry_Int_Tables_number   1
_chemical_formula_structural   CuH10C7N5ClO5
_chemical_formula_sum   'Cu2 H20 C14 N10 Cl2 O10'
_cell_volume   583.08007396
_cell_formula_units_Z   2
loop_
 _symmetry_equiv_pos_site_id
 _symmetry_equiv_pos_as_xyz
  1  'x, y, z'
loop_
 _atom_site_type_symbol
 _atom_site_label
 _atom_site_symmetry_multiplicity
 _atom_site_fract_x
 _atom_site_fract_y
 _atom_site_fract_z
 _atom_site_occupancy
  Cu  Cu0  1  0.19942000  0.66078000  0.22368000  1.0
  Cu  Cu1  1  0.80058000  0.33922000  0.77632000  1.0
  H  H2  1  0.55370000  0.60275000  0.61572000  1.0
  H  H3  1  0.44629000  0.39725000  0.38429000  1.0
  H  H4  1  0.45413000  0.57742000  0.74878000  1.0
  H  H5  1  0.54586000  0.42258000  0.25122000  1.0
  H  H6  1  0.63693000  0.76893000  0.76477000  1.0
  H  H7  1  0.36307000  0.23107000  0.23523000  1.0
  H  H8  1  0.73121000  0.92553000  0.58350000  1.0
  H  H9  1  0.26879000  0.07446000  0.41649000  1.0
  H  H10  1  0.72159000  0.84796000  0.41615000  1.0
  H  H11  1  0.27842000  0.15204000  0.58384000  1.0
  H  H12  1  0.41488000  0.76910000  0.88523000  1.0
  H  H13  1  0.58511000  0.23090000  0.11477000  1.0
  H  H14  1  0.08558000  0.93677000  0.92175000  1.0
  H  H15  1  0.91441000  0.06323000  0.07825000  1.0
  H  H16  1  0.26596000  0.88878000  0.04389000  1.0
  H  H17  1  0.73404000  0.11122000  0.95611000  1.0
  H  H18  1  0.31989000  0.48159000  0.06466000  1.0
  H  H19  1  0.68011000  0.51840000  0.93534000  1.0
  H  H20  1  0.53819000  0.64180000  0.14452000  1.0
  H  H21  1  0.46181000  0.35820000  0.85548000  1.0
  C  C22  1  0.21086000  0.78657000  0.72350000  1.0
  C  C23  1  0.78913000  0.21343000  0.27649000  1.0
  C  C24  1  0.95706000  0.81122000  0.55221000  1.0
  C  C25  1  0.04295000  0.18879000  0.44780000  1.0
  C  C26  1  0.05703000  0.73801000  0.45815000  1.0
  C  C27  1  0.94298000  0.26199000  0.54184000  1.0
  C  C28  1  0.24542000  0.68634000  0.50609000  1.0
  C  C29  1  0.75457000  0.31367000  0.49392000  1.0
  C  C30  1  0.50155000  0.66261000  0.69686000  1.0
  C  C31  1  0.49844000  0.33738000  0.30314000  1.0
  C  C32  1  0.16081000  0.84510000  0.94033000  1.0
  C  C33  1  0.83918000  0.15490000  0.05967000  1.0
  C  C34  1  0.98038000  0.68912000  0.91874000  1.0
  C  C35  1  0.01962000  0.31087000  0.08126000  1.0
  N  N36  1  0.31301000  0.71060000  0.64147000  1.0
  N  N37  1  0.68699000  0.28941000  0.35853000  1.0
  N  N38  1  0.03629000  0.83103000  0.68116000  1.0
  N  N39  1  0.96372000  0.16898000  0.31884000  1.0
  N  N40  1  0.79016000  0.86456000  0.51393000  1.0
  N  N41  1  0.20984000  0.13544000  0.48607000  1.0
  N  N42  1  0.99546000  0.71646000  0.32773000  1.0
  N  N43  1  0.00454000  0.28354000  0.67226000  1.0
  N  N44  1  0.29487000  0.81663000  0.85422000  1.0
  N  N45  1  0.70513000  0.18336000  0.14579000  1.0
  Cl  Cl46  1  0.40387000  0.92150000  0.29186000  1.0
  Cl  Cl47  1  0.59613000  0.07850000  0.70814000  1.0
  O  O48  1  0.82692000  0.74804000  0.27323000  1.0
  O  O49  1  0.17308000  0.25196000  0.72676000  1.0
  O  O50  1  0.34060000  0.62228000  0.43258000  1.0
  O  O51  1  0.65942000  0.37772000  0.56741000  1.0
  O  O52  1  0.83179000  0.69911000  0.97259000  1.0
  O  O53  1  0.16820000  0.30088000  0.02741000  1.0
  O  O54  1  0.00127000  0.56121000  0.84688000  1.0
  O  O55  1  0.99874000  0.43879000  0.15312000  1.0
  O  O56  1  0.37875000  0.60465000  0.10040000  1.0
  O  O57  1  0.62125000  0.39535000  0.89960000  1.0
