# generated using pymatgen
data_CdH11C15Br(N2O)2
_symmetry_space_group_name_H-M   'P 1'
_cell_length_a   6.43618000
_cell_length_b   12.07480000
_cell_length_c   22.75560000
_cell_angle_alpha   97.37870000
_cell_angle_beta   90.04260000
_cell_angle_gamma   105.44800000
_symmetry_Int_Tables_number   1
_chemical_formula_structural   CdH11C15Br(N2O)2
_chemical_formula_sum   'Cd4 H44 C60 Br4 N16 O8'
_cell_volume   1689.32869631
_cell_formula_units_Z   4
loop_
 _symmetry_equiv_pos_site_id
 _symmetry_equiv_pos_as_xyz
  1  'x, y, z'
loop_
 _atom_site_type_symbol
 _atom_site_label
 _atom_site_symmetry_multiplicity
 _atom_site_fract_x
 _atom_site_fract_y
 _atom_site_fract_z
 _atom_site_occupancy
  Cd  Cd0  1  0.35274000  0.83812000  0.46782000  1.0
  Cd  Cd1  1  0.51489000  0.16175000  0.03238000  1.0
  Cd  Cd2  1  0.64723000  0.16188000  0.53218000  1.0
  Cd  Cd3  1  0.48508000  0.83824000  0.96763000  1.0
  H  H4  1  0.55882000  0.12242000  0.25118000  1.0
  H  H5  1  0.43517000  0.87717000  0.24923000  1.0
  H  H6  1  0.44120000  0.87760000  0.74882000  1.0
  H  H7  1  0.56485000  0.12281000  0.75076000  1.0
  H  H8  1  0.40866000  0.13991000  0.35387000  1.0
  H  H9  1  0.26810000  0.85963000  0.14635000  1.0
  H  H10  1  0.59134000  0.86010000  0.64613000  1.0
  H  H11  1  0.73190000  0.14036000  0.85364000  1.0
  H  H12  1  0.96465000  0.31182000  0.28982000  1.0
  H  H13  1  0.65193000  0.68738000  0.21002000  1.0
  H  H14  1  0.03536000  0.68818000  0.71018000  1.0
  H  H15  1  0.34806000  0.31263000  0.78998000  1.0
  H  H16  1  0.10210000  0.28518000  0.18766000  1.0
  H  H17  1  0.81581000  0.71415000  0.31233000  1.0
  H  H18  1  0.89793000  0.71484000  0.81234000  1.0
  H  H19  1  0.18421000  0.28586000  0.68767000  1.0
  H  H20  1  0.90284000  0.99359000  0.38360000  1.0
  H  H21  1  0.90985000  0.00615000  0.11671000  1.0
  H  H22  1  0.09717000  0.00642000  0.61639000  1.0
  H  H23  1  0.09015000  0.99385000  0.88329000  1.0
  H  H24  1  0.79705000  0.05761000  0.32859000  1.0
  H  H25  1  0.73868000  0.94163000  0.17127000  1.0
  H  H26  1  0.20298000  0.94242000  0.67140000  1.0
  H  H27  1  0.26131000  0.05837000  0.82873000  1.0
  H  H28  1  0.65294000  0.02744000  0.39420000  1.0
  H  H29  1  0.62622000  0.97258000  0.10563000  1.0
  H  H30  1  0.34706000  0.97256000  0.60579000  1.0
  H  H31  1  0.37378000  0.02742000  0.89437000  1.0
  H  H32  1  0.57087000  0.36947000  0.38186000  1.0
  H  H33  1  0.20137000  0.63037000  0.11828000  1.0
  H  H34  1  0.42916000  0.63054000  0.61815000  1.0
  H  H35  1  0.79861000  0.36962000  0.88172000  1.0
  H  H36  1  0.84718000  0.56169000  0.38085000  1.0
  H  H37  1  0.28550000  0.43824000  0.11960000  1.0
  H  H38  1  0.15285000  0.43832000  0.61915000  1.0
  H  H39  1  0.71450000  0.56175000  0.88040000  1.0
  H  H40  1  0.75620000  0.74177000  0.42168000  1.0
  H  H41  1  0.01483000  0.25809000  0.07875000  1.0
  H  H42  1  0.24383000  0.25823000  0.57833000  1.0
  H  H43  1  0.98516000  0.74191000  0.92125000  1.0
  H  H44  1  0.14280000  0.56112000  0.46415000  1.0
  H  H45  1  0.58228000  0.43869000  0.03553000  1.0
  H  H46  1  0.85722000  0.43889000  0.53586000  1.0
  H  H47  1  0.41771000  0.56130000  0.96447000  1.0
  C  C48  1  0.42939000  0.19352000  0.15268000  1.0
  C  C49  1  0.23455000  0.80622000  0.34757000  1.0
  C  C50  1  0.57059000  0.80648000  0.84732000  1.0
  C  C51  1  0.76545000  0.19377000  0.65242000  1.0
  C  C52  1  0.34325000  0.20552000  0.21399000  1.0
  C  C53  1  0.13644000  0.79412000  0.28620000  1.0
  C  C54  1  0.65674000  0.79447000  0.78601000  1.0
  C  C55  1  0.86357000  0.20587000  0.71379000  1.0
  C  C56  1  0.42901000  0.16382000  0.26059000  1.0
  C  C57  1  0.26400000  0.83591000  0.23968000  1.0
  C  C58  1  0.57098000  0.83620000  0.73941000  1.0
  C  C59  1  0.73601000  0.16407000  0.76031000  1.0
  C  C60  1  0.34855000  0.17453000  0.31733000  1.0
  C  C61  1  0.17312000  0.82519000  0.18287000  1.0
  C  C62  1  0.65145000  0.82548000  0.68267000  1.0
  C  C63  1  0.82689000  0.17480000  0.81712000  1.0
  C  C64  1  0.18489000  0.23035000  0.32722000  1.0
  C  C65  1  0.95371000  0.76926000  0.17284000  1.0
  C  C66  1  0.81511000  0.76965000  0.67278000  1.0
  C  C67  1  0.04628000  0.23074000  0.82716000  1.0
  C  C68  1  0.09531000  0.27072000  0.28114000  1.0
  C  C69  1  0.82364000  0.72867000  0.21882000  1.0
  C  C70  1  0.90469000  0.72927000  0.71886000  1.0
  C  C71  1  0.17635000  0.27135000  0.78118000  1.0
  C  C72  1  0.17327000  0.25689000  0.22444000  1.0
  C  C73  1  0.91522000  0.74253000  0.27559000  1.0
  C  C74  1  0.82672000  0.74310000  0.77556000  1.0
  C  C75  1  0.08479000  0.25748000  0.72440000  1.0
  C  C76  1  0.81339000  0.05708000  0.37658000  1.0
  C  C77  1  0.75661000  0.94265000  0.12335000  1.0
  C  C78  1  0.18662000  0.94293000  0.62341000  1.0
  C  C79  1  0.24338000  0.05735000  0.87665000  1.0
  C  C80  1  0.92717000  0.17308000  0.40682000  1.0
  C  C81  1  0.75417000  0.82669000  0.09303000  1.0
  C  C82  1  0.07283000  0.82693000  0.59318000  1.0
  C  C83  1  0.24583000  0.17331000  0.90697000  1.0
  C  C84  1  0.15992000  0.34506000  0.42681000  1.0
  C  C85  1  0.81488000  0.65469000  0.07314000  1.0
  C  C86  1  0.84010000  0.65495000  0.57319000  1.0
  C  C87  1  0.18511000  0.34530000  0.92686000  1.0
  C  C88  1  0.33287000  0.45000000  0.42265000  1.0
  C  C89  1  0.88283000  0.54973000  0.07741000  1.0
  C  C90  1  0.66715000  0.55001000  0.57735000  1.0
  C  C91  1  0.11716000  0.45026000  0.92259000  1.0
  C  C92  1  0.53426000  0.45047000  0.39876000  1.0
  C  C93  1  0.08376000  0.54933000  0.10142000  1.0
  C  C94  1  0.46575000  0.54954000  0.60124000  1.0
  C  C95  1  0.91622000  0.45066000  0.89858000  1.0
  C  C96  1  0.68758000  0.55605000  0.39817000  1.0
  C  C97  1  0.13164000  0.44379000  0.10207000  1.0
  C  C98  1  0.31244000  0.44395000  0.60183000  1.0
  C  C99  1  0.86834000  0.55620000  0.89793000  1.0
  C  C100  1  0.63804000  0.65816000  0.42147000  1.0
  C  C101  1  0.98012000  0.34162000  0.07872000  1.0
  C  C102  1  0.36198000  0.34184000  0.57854000  1.0
  C  C103  1  0.01987000  0.65836000  0.92128000  1.0
  C  C104  1  0.29651000  0.55673000  0.44510000  1.0
  C  C105  1  0.74010000  0.44302000  0.05481000  1.0
  C  C106  1  0.70349000  0.44326000  0.55490000  1.0
  C  C107  1  0.25990000  0.55698000  0.94519000  1.0
  Br  Br108  1  0.72002000  0.94085000  0.52925000  1.0
  Br  Br109  1  0.77878000  0.05903000  0.97070000  1.0
  Br  Br110  1  0.27996000  0.05915000  0.47076000  1.0
  Br  Br111  1  0.22119000  0.94095000  0.02929000  1.0
  N  N112  1  0.10227000  0.24688000  0.38526000  1.0
  N  N113  1  0.85507000  0.75279000  0.11471000  1.0
  N  N114  1  0.89773000  0.75312000  0.61474000  1.0
  N  N115  1  0.14491000  0.24721000  0.88529000  1.0
  N  N116  1  0.88272000  0.22486000  0.45854000  1.0
  N  N117  1  0.65830000  0.77501000  0.04123000  1.0
  N  N118  1  0.11729000  0.77515000  0.54147000  1.0
  N  N119  1  0.34171000  0.22499000  0.95877000  1.0
  N  N120  1  0.02723000  0.33187000  0.47130000  1.0
  N  N121  1  0.69602000  0.66803000  0.02849000  1.0
  N  N122  1  0.97277000  0.66814000  0.52870000  1.0
  N  N123  1  0.30396000  0.33197000  0.97151000  1.0
  N  N124  1  0.44576000  0.65804000  0.44452000  1.0
  N  N125  1  0.78816000  0.34169000  0.05544000  1.0
  N  N126  1  0.55425000  0.34196000  0.55548000  1.0
  N  N127  1  0.21183000  0.65830000  0.94456000  1.0
  O  O128  1  0.32834000  0.22327000  0.11126000  1.0
  O  O129  1  0.10389000  0.77650000  0.38896000  1.0
  O  O130  1  0.67163000  0.77673000  0.88874000  1.0
  O  O131  1  0.89610000  0.22350000  0.61103000  1.0
  O  O132  1  0.59242000  0.15460000  0.14448000  1.0
  O  O133  1  0.43651000  0.84521000  0.35583000  1.0
  O  O134  1  0.40758000  0.84540000  0.85551000  1.0
  O  O135  1  0.56350000  0.15477000  0.64417000  1.0
