# generated using pymatgen
data_SmAgH8C14(NO4)2
_symmetry_space_group_name_H-M   'P 1'
_cell_length_a   9.59320000
_cell_length_b   12.07090000
_cell_length_c   16.89900000
_cell_angle_alpha   96.29740000
_cell_angle_beta   90.00000000
_cell_angle_gamma   113.41400000
_symmetry_Int_Tables_number   1
_chemical_formula_structural   SmAgH8C14(NO4)2
_chemical_formula_sum   'Sm4 Ag4 H32 C56 N8 O32'
_cell_volume   1782.87074924
_cell_formula_units_Z   4
loop_
 _symmetry_equiv_pos_site_id
 _symmetry_equiv_pos_as_xyz
  1  'x, y, z'
loop_
 _atom_site_type_symbol
 _atom_site_label
 _atom_site_symmetry_multiplicity
 _atom_site_fract_x
 _atom_site_fract_y
 _atom_site_fract_z
 _atom_site_occupancy
  Sm  Sm0  1  0.80452000  0.01062000  0.93321000  1.0
  Sm  Sm1  1  0.79393000  0.98941000  0.56677000  1.0
  Sm  Sm2  1  0.19548000  0.98939000  0.06679000  1.0
  Sm  Sm3  1  0.20608000  0.01059000  0.43323000  1.0
  Ag  Ag4  1  0.77369000  0.31870000  0.08574000  1.0
  Ag  Ag5  1  0.45506000  0.68134000  0.41428000  1.0
  Ag  Ag6  1  0.22631000  0.68130000  0.91426000  1.0
  Ag  Ag7  1  0.54493000  0.31865000  0.58572000  1.0
  H  H8  1  0.52943000  0.59119000  0.13515000  1.0
  H  H9  1  0.93821000  0.40872000  0.36492000  1.0
  H  H10  1  0.47057000  0.40881000  0.86485000  1.0
  H  H11  1  0.06179000  0.59128000  0.63509000  1.0
  H  H12  1  0.52451000  0.90731000  0.16417000  1.0
  H  H13  1  0.61707000  0.09258000  0.33573000  1.0
  H  H14  1  0.47549000  0.09269000  0.83583000  1.0
  H  H15  1  0.38294000  0.90741000  0.66427000  1.0
  H  H16  1  0.89766000  0.81178000  0.22193000  1.0
  H  H17  1  0.08579000  0.18801000  0.27802000  1.0
  H  H18  1  0.10234000  0.18822000  0.77807000  1.0
  H  H19  1  0.91422000  0.81200000  0.72197000  1.0
  H  H20  1  0.74300000  0.69932000  0.32858000  1.0
  H  H21  1  0.04375000  0.30060000  0.17142000  1.0
  H  H22  1  0.25700000  0.30068000  0.67142000  1.0
  H  H23  1  0.95625000  0.69940000  0.82858000  1.0
  H  H24  1  0.38745000  0.79780000  0.27662000  1.0
  H  H25  1  0.58977000  0.20243000  0.22342000  1.0
  H  H26  1  0.61254000  0.20220000  0.72338000  1.0
  H  H27  1  0.41023000  0.79757000  0.77658000  1.0
  H  H28  1  0.36958000  0.36359000  0.12328000  1.0
  H  H29  1  0.00593000  0.63631000  0.37672000  1.0
  H  H30  1  0.63041000  0.63641000  0.87672000  1.0
  H  H31  1  0.99407000  0.36369000  0.62329000  1.0
  H  H32  1  0.45644000  0.71633000  0.04795000  1.0
  H  H33  1  0.74019000  0.28366000  0.45217000  1.0
  H  H34  1  0.54356000  0.28367000  0.95205000  1.0
  H  H35  1  0.25981000  0.71634000  0.54783000  1.0
  H  H36  1  0.07754000  0.41518000  0.95139000  1.0
  H  H37  1  0.66226000  0.58479000  0.54859000  1.0
  H  H38  1  0.92246000  0.58482000  0.04861000  1.0
  H  H39  1  0.33773000  0.41520000  0.45141000  1.0
  C  C40  1  0.42886000  0.54845000  0.09489000  1.0
  C  C41  1  0.88039000  0.45148000  0.40516000  1.0
  C  C42  1  0.57114000  0.45155000  0.90511000  1.0
  C  C43  1  0.11960000  0.54852000  0.59484000  1.0
  C  C44  1  0.72388000  0.87028000  0.18540000  1.0
  C  C45  1  0.85348000  0.12955000  0.31453000  1.0
  C  C46  1  0.27612000  0.12972000  0.81460000  1.0
  C  C47  1  0.14653000  0.87045000  0.68547000  1.0
  C  C48  1  0.57724000  0.86342000  0.19998000  1.0
  C  C49  1  0.71376000  0.13649000  0.29995000  1.0
  C  C50  1  0.42276000  0.13658000  0.80002000  1.0
  C  C51  1  0.28625000  0.86351000  0.70005000  1.0
  C  C52  1  0.21167000  0.37489000  0.03712000  1.0
  C  C53  1  0.83670000  0.62505000  0.46286000  1.0
  C  C54  1  0.78833000  0.62511000  0.96288000  1.0
  C  C55  1  0.16330000  0.37495000  0.53714000  1.0
  C  C56  1  0.72144000  0.92916000  0.74491000  1.0
  C  C57  1  0.79247000  0.07079000  0.75502000  1.0
  C  C58  1  0.27856000  0.07085000  0.25508000  1.0
  C  C59  1  0.20753000  0.92922000  0.24497000  1.0
  C  C60  1  0.78432000  0.80924000  0.23166000  1.0
  C  C61  1  0.97499000  0.19057000  0.26828000  1.0
  C  C62  1  0.21568000  0.19076000  0.76834000  1.0
  C  C63  1  0.02501000  0.80943000  0.73171000  1.0
  C  C64  1  0.69893000  0.74739000  0.29142000  1.0
  C  C65  1  0.95155000  0.25251000  0.20854000  1.0
  C  C66  1  0.30107000  0.25261000  0.70858000  1.0
  C  C67  1  0.04845000  0.74749000  0.79145000  1.0
  C  C68  1  0.49980000  0.80159000  0.26191000  1.0
  C  C69  1  0.69826000  0.19846000  0.23807000  1.0
  C  C70  1  0.50020000  0.19841000  0.73809000  1.0
  C  C71  1  0.30174000  0.80154000  0.76192000  1.0
  C  C72  1  0.81713000  0.94202000  0.12198000  1.0
  C  C73  1  0.87499000  0.05790000  0.37801000  1.0
  C  C74  1  0.18287000  0.05798000  0.87802000  1.0
  C  C75  1  0.12502000  0.94210000  0.62199000  1.0
  C  C76  1  0.34088000  0.42389000  0.08904000  1.0
  C  C77  1  0.91692000  0.57603000  0.41095000  1.0
  C  C78  1  0.65912000  0.57610000  0.91095000  1.0
  C  C79  1  0.08308000  0.42397000  0.58905000  1.0
  C  C80  1  0.38905000  0.61918000  0.04692000  1.0
  C  C81  1  0.76988000  0.38079000  0.45315000  1.0
  C  C82  1  0.61095000  0.38082000  0.95308000  1.0
  C  C83  1  0.23011000  0.61921000  0.54685000  1.0
  C  C84  1  0.17747000  0.45198000  0.99229000  1.0
  C  C85  1  0.72540000  0.54798000  0.50770000  1.0
  C  C86  1  0.82253000  0.54802000  0.00771000  1.0
  C  C87  1  0.27459000  0.45202000  0.49231000  1.0
  C  C88  1  0.11323000  0.24091000  0.02589000  1.0
  C  C89  1  0.87237000  0.75904000  0.47415000  1.0
  C  C90  1  0.88676000  0.75909000  0.97411000  1.0
  C  C91  1  0.12763000  0.24096000  0.52586000  1.0
  C  C92  1  0.53555000  0.06951000  0.01216000  1.0
  C  C93  1  0.46615000  0.93050000  0.48782000  1.0
  C  C94  1  0.46445000  0.93050000  0.98784000  1.0
  C  C95  1  0.53386000  0.06949000  0.51218000  1.0
  N  N96  1  0.56012000  0.74510000  0.30778000  1.0
  N  N97  1  0.81510000  0.25494000  0.19222000  1.0
  N  N98  1  0.43988000  0.25490000  0.69222000  1.0
  N  N99  1  0.18490000  0.74507000  0.80778000  1.0
  N  N100  1  0.26579000  0.57159000  0.99587000  1.0
  N  N101  1  0.69417000  0.42839000  0.50416000  1.0
  N  N102  1  0.73421000  0.42841000  0.00413000  1.0
  N  N103  1  0.30583000  0.57161000  0.49584000  1.0
  O  O104  1  0.71417000  0.87843000  0.80728000  1.0
  O  O105  1  0.83614000  0.12151000  0.69268000  1.0
  O  O106  1  0.28583000  0.12157000  0.19273000  1.0
  O  O107  1  0.16386000  0.87849000  0.30732000  1.0
  O  O108  1  0.75055000  0.98146000  0.07450000  1.0
  O  O109  1  0.76896000  0.01857000  0.42551000  1.0
  O  O110  1  0.24946000  0.01854000  0.92550000  1.0
  O  O111  1  0.23105000  0.98143000  0.57449000  1.0
  O  O112  1  0.65960000  0.12917000  0.98122000  1.0
  O  O113  1  0.53062000  0.87092000  0.51879000  1.0
  O  O114  1  0.34040000  0.87084000  0.01878000  1.0
  O  O115  1  0.46939000  0.12908000  0.48121000  1.0
  O  O116  1  0.97889000  0.20846000  0.99694000  1.0
  O  O117  1  0.77048000  0.79154000  0.50305000  1.0
  O  O118  1  0.02111000  0.79154000  0.00306000  1.0
  O  O119  1  0.22952000  0.20845000  0.49696000  1.0
  O  O120  1  0.95530000  0.95647000  0.12123000  1.0
  O  O121  1  0.99869000  0.04343000  0.37882000  1.0
  O  O122  1  0.04470000  0.04354000  0.87878000  1.0
  O  O123  1  0.00132000  0.95657000  0.62118000  1.0
  O  O124  1  0.17380000  0.17164000  0.04565000  1.0
  O  O125  1  0.00234000  0.82828000  0.45451000  1.0
  O  O126  1  0.82619000  0.82836000  0.95435000  1.0
  O  O127  1  0.99765000  0.17172000  0.54549000  1.0
  O  O128  1  0.67728000  0.87584000  0.67491000  1.0
  O  O129  1  0.80179000  0.12412000  0.82503000  1.0
  O  O130  1  0.32273000  0.12416000  0.32509000  1.0
  O  O131  1  0.19821000  0.87588000  0.17497000  1.0
  O  O132  1  0.46680000  0.11439000  0.06104000  1.0
  O  O133  1  0.35259000  0.88555000  0.43890000  1.0
  O  O134  1  0.53320000  0.88562000  0.93896000  1.0
  O  O135  1  0.64741000  0.11444000  0.56110000  1.0
