# generated using pymatgen
data_ZnH19C22(NO2)2
_symmetry_space_group_name_H-M   'P 1'
_cell_length_a   9.55296000
_cell_length_b   10.52520000
_cell_length_c   11.02540000
_cell_angle_alpha   99.03650000
_cell_angle_beta   102.46000000
_cell_angle_gamma   114.24800000
_symmetry_Int_Tables_number   1
_chemical_formula_structural   ZnH19C22(NO2)2
_chemical_formula_sum   'Zn2 H38 C44 N4 O8'
_cell_volume   948.64037549
_cell_formula_units_Z   2
loop_
 _symmetry_equiv_pos_site_id
 _symmetry_equiv_pos_as_xyz
  1  'x, y, z'
loop_
 _atom_site_type_symbol
 _atom_site_label
 _atom_site_symmetry_multiplicity
 _atom_site_fract_x
 _atom_site_fract_y
 _atom_site_fract_z
 _atom_site_occupancy
  Zn  Zn0  1  0.03318000  0.04916000  0.38153000  1.0
  Zn  Zn1  1  0.96682000  0.95084000  0.61848000  1.0
  H  H2  1  0.87988000  0.56074000  0.22236000  1.0
  H  H3  1  0.12012000  0.43926000  0.77764000  1.0
  H  H4  1  0.87277000  0.51717000  0.37089000  1.0
  H  H5  1  0.12723000  0.48283000  0.62911000  1.0
  H  H6  1  0.05260000  0.41042000  0.39836000  1.0
  H  H7  1  0.94740000  0.58958000  0.60164000  1.0
  H  H8  1  0.32699000  0.43647000  0.43845000  1.0
  H  H9  1  0.67301000  0.56353000  0.56155000  1.0
  H  H10  1  0.21298000  0.82712000  0.32133000  1.0
  H  H11  1  0.78702000  0.17287000  0.67867000  1.0
  H  H12  1  0.54928000  0.65807000  0.42151000  1.0
  H  H13  1  0.45072000  0.34193000  0.57849000  1.0
  H  H14  1  0.49619000  0.88283000  0.24504000  1.0
  H  H15  1  0.50381000  0.11717000  0.75496000  1.0
  H  H16  1  0.50374000  0.98628000  0.39008000  1.0
  H  H17  1  0.49626000  0.01372000  0.60992000  1.0
  H  H18  1  0.31817000  0.07779000  0.30164000  1.0
  H  H19  1  0.68183000  0.92221000  0.69836000  1.0
  H  H20  1  0.42855000  0.18727000  0.21403000  1.0
  H  H21  1  0.57145000  0.81273000  0.78597000  1.0
  H  H22  1  0.29061000  0.00119000  0.13634000  1.0
  H  H23  1  0.70939000  0.99881000  0.86366000  1.0
  H  H24  1  0.16371000  0.16894000  0.87490000  1.0
  H  H25  1  0.83629000  0.83106000  0.12510000  1.0
  H  H26  1  0.30485000  0.13481000  0.97746000  1.0
  H  H27  1  0.69515000  0.86519000  0.02254000  1.0
  H  H28  1  0.39379000  0.45413000  0.18432000  1.0
  H  H29  1  0.60621000  0.54587000  0.81568000  1.0
  H  H30  1  0.00724000  0.31440000  0.89417000  1.0
  H  H31  1  0.99276000  0.68560000  0.10583000  1.0
  H  H32  1  0.77153000  0.34412000  0.92870000  1.0
  H  H33  1  0.22847000  0.65588000  0.07130000  1.0
  H  H34  1  0.66316000  0.26622000  0.10388000  1.0
  H  H35  1  0.33684000  0.73378000  0.89612000  1.0
  H  H36  1  0.78873000  0.15784000  0.25218000  1.0
  H  H37  1  0.21127000  0.84217000  0.74782000  1.0
  H  H38  1  0.39116000  0.30387000  0.79691000  1.0
  H  H39  1  0.60884000  0.69613000  0.20309000  1.0
  C  C40  1  0.94145000  0.59865000  0.32725000  1.0
  C  C41  1  0.05855000  0.40135000  0.67275000  1.0
  C  C42  1  0.94460000  0.74216000  0.38106000  1.0
  C  C43  1  0.05540000  0.25785000  0.61895000  1.0
  C  C44  1  0.11219000  0.61645000  0.35461000  1.0
  C  C45  1  0.88781000  0.38355000  0.64539000  1.0
  C  C46  1  0.14677000  0.50761000  0.38895000  1.0
  C  C47  1  0.85323000  0.49239000  0.61105000  1.0
  C  C48  1  0.30313000  0.52290000  0.41204000  1.0
  C  C49  1  0.69687000  0.47709000  0.58796000  1.0
  C  C50  1  0.23786000  0.74065000  0.34605000  1.0
  C  C51  1  0.76214000  0.25936000  0.65395000  1.0
  C  C52  1  0.39514000  0.75749000  0.36896000  1.0
  C  C53  1  0.60486000  0.24251000  0.63104000  1.0
  C  C54  1  0.42737000  0.64687000  0.40208000  1.0
  C  C55  1  0.57263000  0.35313000  0.59792000  1.0
  C  C56  1  0.51885000  0.89192000  0.34900000  1.0
  C  C57  1  0.48115000  0.10808000  0.65100000  1.0
  C  C58  1  0.69563000  0.93239000  0.40789000  1.0
  C  C59  1  0.30437000  0.06761000  0.59211000  1.0
  C  C60  1  0.31153000  0.09863000  0.20692000  1.0
  C  C61  1  0.68847000  0.90137000  0.79308000  1.0
  C  C62  1  0.18010000  0.13860000  0.16767000  1.0
  C  C63  1  0.81990000  0.86140000  0.83233000  1.0
  C  C64  1  0.97034000  0.17898000  0.15744000  1.0
  C  C65  1  0.02966000  0.82102000  0.84256000  1.0
  C  C66  1  0.02971000  0.22280000  0.05630000  1.0
  C  C67  1  0.97029000  0.77720000  0.94370000  1.0
  C  C68  1  0.25093000  0.20885000  0.97211000  1.0
  C  C69  1  0.74907000  0.79115000  0.02789000  1.0
  C  C70  1  0.37867000  0.36103000  0.98926000  1.0
  C  C71  1  0.62133000  0.63897000  0.01074000  1.0
  C  C72  1  0.44017000  0.47277000  0.10313000  1.0
  C  C73  1  0.55983000  0.52723000  0.89687000  1.0
  C  C74  1  0.96097000  0.28266000  0.97228000  1.0
  C  C75  1  0.03903000  0.71734000  0.02772000  1.0
  C  C76  1  0.82832000  0.29724000  0.99194000  1.0
  C  C77  1  0.17167000  0.70276000  0.00806000  1.0
  C  C78  1  0.76685000  0.25246000  0.09149000  1.0
  C  C79  1  0.23315000  0.74754000  0.90851000  1.0
  C  C80  1  0.83605000  0.19296000  0.17542000  1.0
  C  C81  1  0.16395000  0.80704000  0.82458000  1.0
  C  C82  1  0.43955000  0.39003000  0.88642000  1.0
  C  C83  1  0.56045000  0.60997000  0.11358000  1.0
  N  N84  1  0.06716000  0.12724000  0.22536000  1.0
  N  N85  1  0.93284000  0.87276000  0.77464000  1.0
  N  N86  1  0.16073000  0.19418000  0.06457000  1.0
  N  N87  1  0.83927000  0.80582000  0.93543000  1.0
  O  O88  1  0.97216000  0.83164000  0.31285000  1.0
  O  O89  1  0.02784000  0.16836000  0.68716000  1.0
  O  O90  1  0.92645000  0.76452000  0.49191000  1.0
  O  O91  1  0.07355000  0.23548000  0.50809000  1.0
  O  O92  1  0.74034000  0.92181000  0.52154000  1.0
  O  O93  1  0.25966000  0.07819000  0.47846000  1.0
  O  O94  1  0.78625000  0.97718000  0.33877000  1.0
  O  O95  1  0.21374000  0.02282000  0.66123000  1.0
