# generated using pymatgen
data_Fe3P4H22C16(NO10)2
_symmetry_space_group_name_H-M   'P 1'
_cell_length_a   8.97729000
_cell_length_b   9.04115000
_cell_length_c   9.96479000
_cell_angle_alpha   109.48900000
_cell_angle_beta   101.86400000
_cell_angle_gamma   109.51400000
_symmetry_Int_Tables_number   1
_chemical_formula_structural   Fe3P4H22C16(NO10)2
_chemical_formula_sum   'Fe3 P4 H22 C16 N2 O20'
_cell_volume   671.35754676
_cell_formula_units_Z   1
loop_
 _symmetry_equiv_pos_site_id
 _symmetry_equiv_pos_as_xyz
  1  'x, y, z'
loop_
 _atom_site_type_symbol
 _atom_site_label
 _atom_site_symmetry_multiplicity
 _atom_site_fract_x
 _atom_site_fract_y
 _atom_site_fract_z
 _atom_site_occupancy
  Fe  Fe0  1  0.75122000  0.73679000  0.46376000  1.0
  Fe  Fe1  1  0.24901000  0.26365000  0.53650000  1.0
  Fe  Fe2  1  0.00006000  0.00005000  0.00015000  1.0
  P  P3  1  0.03581000  0.72110000  0.69556000  1.0
  P  P4  1  0.96398000  0.27863000  0.30446000  1.0
  P  P5  1  0.10224000  0.08368000  0.73525000  1.0
  P  P6  1  0.89786000  0.91624000  0.26492000  1.0
  H  H7  1  0.12158000  0.51737000  0.60754000  1.0
  H  H8  1  0.87829000  0.48250000  0.39238000  1.0
  H  H9  1  0.14589000  0.90660000  0.48362000  1.0
  H  H10  1  0.85401000  0.09322000  0.51635000  1.0
  H  H11  1  0.78681000  0.08705000  0.86633000  1.0
  H  H12  1  0.21373000  0.91434000  0.13512000  1.0
  H  H13  1  0.69856000  0.88267000  0.77305000  1.0
  H  H14  1  0.30159000  0.11871000  0.22714000  1.0
  H  H15  1  0.72190000  0.56461000  0.10521000  1.0
  H  H16  1  0.27825000  0.43494000  0.89473000  1.0
  H  H17  1  0.40312000  0.88274000  0.78728000  1.0
  H  H18  1  0.59684000  0.11708000  0.21248000  1.0
  H  H19  1  0.33965000  0.99866000  0.92915000  1.0
  H  H20  1  0.66047000  0.00127000  0.07068000  1.0
  H  H21  1  0.52520000  0.04953000  0.62925000  1.0
  H  H22  1  0.47349000  0.95075000  0.36970000  1.0
  H  H23  1  0.75210000  0.33446000  0.67528000  1.0
  H  H24  1  0.24766000  0.66552000  0.32442000  1.0
  H  H25  1  0.84471000  0.59848000  0.92471000  1.0
  H  H26  1  0.15589000  0.40111000  0.07551000  1.0
  H  H27  1  0.51244000  0.30857000  0.07575000  1.0
  H  H28  1  0.48765000  0.69084000  0.92400000  1.0
  C  C29  1  0.18999000  0.92054000  0.69546000  1.0
  C  C30  1  0.80978000  0.07914000  0.30441000  1.0
  C  C31  1  0.36080000  0.98596000  0.82203000  1.0
  C  C32  1  0.63909000  0.01382000  0.17770000  1.0
  C  C33  1  0.49641000  0.15407000  0.84582000  1.0
  C  C34  1  0.50335000  0.84570000  0.15374000  1.0
  C  C35  1  0.56909000  0.16598000  0.73503000  1.0
  C  C36  1  0.43030000  0.83401000  0.26434000  1.0
  C  C37  1  0.69561000  0.32410000  0.76066000  1.0
  C  C38  1  0.30414000  0.67582000  0.23902000  1.0
  C  C39  1  0.74971000  0.46968000  0.89702000  1.0
  C  C40  1  0.25045000  0.53005000  0.10292000  1.0
  C  C41  1  0.55710000  0.30369000  0.98122000  1.0
  C  C42  1  0.44292000  0.69592000  0.01852000  1.0
  C  C43  1  0.51442000  0.57194000  0.57543000  1.0
  C  C44  1  0.48603000  0.42852000  0.42484000  1.0
  N  N45  1  0.67975000  0.45471000  0.00241000  1.0
  N  N46  1  0.32037000  0.54492000  0.99749000  1.0
  O  O47  1  0.12997000  0.60459000  0.70930000  1.0
  O  O48  1  0.87001000  0.39526000  0.29067000  1.0
  O  O49  1  0.98100000  0.77132000  0.83078000  1.0
  O  O50  1  0.01889000  0.22842000  0.16930000  1.0
  O  O51  1  0.89027000  0.62178000  0.53881000  1.0
  O  O52  1  0.10952000  0.37790000  0.46118000  1.0
  O  O53  1  0.92075000  0.99598000  0.61872000  1.0
  O  O54  1  0.07920000  0.00426000  0.38188000  1.0
  O  O55  1  0.21802000  0.24380000  0.71883000  1.0
  O  O56  1  0.78197000  0.75617000  0.28126000  1.0
  O  O57  1  0.11282000  0.14461000  0.90076000  1.0
  O  O58  1  0.88786000  0.85519000  0.09957000  1.0
  O  O59  1  0.21429000  0.87563000  0.55255000  1.0
  O  O60  1  0.78524000  0.12371000  0.44721000  1.0
  O  O61  1  0.60834000  0.72874000  0.59971000  1.0
  O  O62  1  0.39206000  0.27173000  0.40057000  1.0
  O  O63  1  0.44587000  0.52932000  0.66336000  1.0
  O  O64  1  0.55433000  0.47107000  0.33675000  1.0
  O  O65  1  0.75850000  0.97998000  0.87896000  1.0
  O  O66  1  0.24176000  0.02080000  0.12150000  1.0
