# generated using pymatgen
data_ZnH14C17N2(ClO2)2
_symmetry_space_group_name_H-M   'P 1'
_cell_length_a   9.66695000
_cell_length_b   10.93310000
_cell_length_c   17.14440000
_cell_angle_alpha   90.69820000
_cell_angle_beta   96.82100000
_cell_angle_gamma   94.64860000
_symmetry_Int_Tables_number   1
_chemical_formula_structural   ZnH14C17N2(ClO2)2
_chemical_formula_sum   'Zn2 H28 C34 N4 Cl4 O8'
_cell_volume   1792.80794546
_cell_formula_units_Z   2
loop_
 _symmetry_equiv_pos_site_id
 _symmetry_equiv_pos_as_xyz
  1  'x, y, z'
loop_
 _atom_site_type_symbol
 _atom_site_label
 _atom_site_symmetry_multiplicity
 _atom_site_fract_x
 _atom_site_fract_y
 _atom_site_fract_z
 _atom_site_occupancy
  Zn  Zn0  1  0.34060000  0.48738000  0.49250000  1.0
  Zn  Zn1  1  0.62785000  0.50869000  0.50543000  1.0
  H  H2  1  0.25072000  0.53588000  0.09559000  1.0
  H  H3  1  0.67441000  0.23970000  0.88431000  1.0
  H  H4  1  0.79361000  0.25422000  0.97208000  1.0
  H  H5  1  0.84278000  0.43221000  0.88722000  1.0
  H  H6  1  0.77658000  0.48273000  0.97347000  1.0
  H  H7  1  0.65281000  0.85135000  0.11288000  1.0
  H  H8  1  0.74961000  0.82440000  0.20505000  1.0
  H  H9  1  0.83803000  0.85097000  0.12081000  1.0
  H  H10  1  0.82231000  0.62655000  0.14768000  1.0
  H  H11  1  0.72339000  0.65437000  0.05787000  1.0
  H  H12  1  0.85427000  0.98340000  0.43054000  1.0
  H  H13  1  0.34631000  0.64352000  0.88734000  1.0
  H  H14  1  0.81930000  0.82901000  0.45902000  1.0
  H  H15  1  0.86147000  0.86031000  0.36254000  1.0
  H  H16  1  0.60568000  0.80521000  0.36099000  1.0
  H  H17  1  0.63811000  0.95782000  0.33072000  1.0
  H  H18  1  0.48760000  0.06599000  0.71854000  1.0
  H  H19  1  0.51653000  0.21391000  0.67936000  1.0
  H  H20  1  0.37817000  0.18372000  0.73781000  1.0
  H  H21  1  0.28111000  0.18308000  0.59609000  1.0
  H  H22  1  0.25518000  0.03420000  0.63410000  1.0
  H  H23  1  0.25862000  0.49380000  0.24009000  1.0
  H  H24  1  0.32278000  0.62089000  0.74007000  1.0
  H  H25  1  0.62231000  0.13271000  0.41520000  1.0
  H  H26  1  0.35680000  0.86423000  0.58408000  1.0
  H  H27  1  0.16930000  0.63412000  0.57050000  1.0
  H  H28  1  0.79846000  0.36802000  0.42201000  1.0
  H  H29  1  0.61821000  0.29255000  0.97311000  1.0
  C  C30  1  0.49220000  0.26257000  0.50905000  1.0
  C  C31  1  0.88208000  0.42608000  0.45550000  1.0
  C  C32  1  0.47518000  0.50015000  0.34785000  1.0
  C  C33  1  0.48945000  0.51686000  0.65152000  1.0
  C  C34  1  0.48006000  0.53380000  0.26355000  1.0
  C  C35  1  0.50784000  0.52482000  0.73965000  1.0
  C  C36  1  0.60177000  0.57790000  0.23117000  1.0
  C  C37  1  0.61946000  0.47647000  0.78606000  1.0
  C  C38  1  0.60113000  0.60574000  0.15102000  1.0
  C  C39  1  0.63443000  0.48583000  0.86859000  1.0
  C  C40  1  0.47189000  0.58264000  0.10249000  1.0
  C  C41  1  0.48699000  0.73409000  0.49158000  1.0
  C  C42  1  0.53238000  0.54642000  0.90353000  1.0
  C  C43  1  0.34837000  0.54750000  0.13487000  1.0
  C  C44  1  0.42167000  0.59709000  0.85780000  1.0
  C  C45  1  0.35300000  0.52298000  0.21408000  1.0
  C  C46  1  0.40934000  0.58471000  0.77685000  1.0
  C  C47  1  0.56526000  0.07232000  0.45289000  1.0
  C  C48  1  0.41499000  0.92491000  0.54719000  1.0
  C  C49  1  0.74993000  0.42902000  0.91856000  1.0
  C  C50  1  0.70645000  0.29569000  0.93806000  1.0
  C  C51  1  0.72894000  0.66872000  0.12137000  1.0
  C  C52  1  0.56791000  0.94522000  0.44371000  1.0
  C  C53  1  0.74311000  0.80702000  0.14142000  1.0
  C  C54  1  0.64956000  0.89718000  0.38154000  1.0
  C  C55  1  0.80557000  0.89244000  0.41012000  1.0
  C  C56  1  0.33553000  0.10413000  0.61887000  1.0
  C  C57  1  0.43501000  0.14428000  0.69299000  1.0
  C  C58  1  0.41209000  0.05155000  0.55605000  1.0
  C  C59  1  0.49109000  0.87095000  0.49303000  1.0
  C  C60  1  0.48989000  0.12551000  0.50722000  1.0
  C  C61  1  0.94463000  0.58581000  0.54525000  1.0
  C  C62  1  0.02316000  0.41460000  0.44869000  1.0
  C  C63  1  0.08561000  0.57449000  0.53830000  1.0
  N  N64  1  0.45285000  0.59057000  0.01949000  1.0
  N  N65  1  0.54887000  0.54667000  0.98644000  1.0
  N  N66  1  0.12314000  0.48879000  0.49036000  1.0
  N  N67  1  0.84469000  0.51126000  0.50386000  1.0
  Cl  Cl68  1  0.73921000  0.39711000  0.74201000  1.0
  Cl  Cl69  1  0.76069000  0.60424000  0.29077000  1.0
  Cl  Cl70  1  0.89871000  0.69473000  0.60677000  1.0
  Cl  Cl71  1  0.06939000  0.30574000  0.38720000  1.0
  O  O72  1  0.37483000  0.30806000  0.49403000  1.0
  O  O73  1  0.59666000  0.68483000  0.47702000  1.0
  O  O74  1  0.61101000  0.32285000  0.52345000  1.0
  O  O75  1  0.37422000  0.67486000  0.50671000  1.0
  O  O76  1  0.35926000  0.51096000  0.37498000  1.0
  O  O77  1  0.59810000  0.54466000  0.61824000  1.0
  O  O78  1  0.58369000  0.46281000  0.38648000  1.0
  O  O79  1  0.36723000  0.48605000  0.61762000  1.0
