# generated using pymatgen
data_Cd4H18C16N15ClO4
_symmetry_space_group_name_H-M   'P 1'
_cell_length_a   6.79677000
_cell_length_b   11.67390000
_cell_length_c   17.05600000
_cell_angle_alpha   90.00000000
_cell_angle_beta   90.00000000
_cell_angle_gamma   94.72950000
_symmetry_Int_Tables_number   1
_chemical_formula_structural   Cd4H18C16N15ClO4
_chemical_formula_sum   'Cd8 H36 C32 N30 Cl2 O8'
_cell_volume   1348.69722220
_cell_formula_units_Z   2
loop_
 _symmetry_equiv_pos_site_id
 _symmetry_equiv_pos_as_xyz
  1  'x, y, z'
loop_
 _atom_site_type_symbol
 _atom_site_label
 _atom_site_symmetry_multiplicity
 _atom_site_fract_x
 _atom_site_fract_y
 _atom_site_fract_z
 _atom_site_occupancy
  Cd  Cd0  1  0.61618000  0.13996000  0.42201000  1.0
  Cd  Cd1  1  0.38382000  0.86005000  0.92201000  1.0
  Cd  Cd2  1  0.38382000  0.86005000  0.57799000  1.0
  Cd  Cd3  1  0.61618000  0.13995000  0.07799000  1.0
  Cd  Cd4  1  0.63435000  0.63647000  0.25000000  1.0
  Cd  Cd5  1  0.36565000  0.36353000  0.75000000  1.0
  Cd  Cd6  1  0.41579000  0.33565000  0.25000000  1.0
  Cd  Cd7  1  0.58422000  0.66435000  0.75000000  1.0
  H  H8  1  0.16741000  0.76350000  0.25000000  1.0
  H  H9  1  0.83259000  0.23650000  0.75000000  1.0
  H  H10  1  0.93003000  0.59496000  0.55275000  1.0
  H  H11  1  0.06997000  0.40504000  0.05275000  1.0
  H  H12  1  0.06997000  0.40504000  0.44725000  1.0
  H  H13  1  0.93003000  0.59496000  0.94725000  1.0
  H  H14  1  0.83324000  0.45030000  0.55363000  1.0
  H  H15  1  0.16676000  0.54970000  0.05363000  1.0
  H  H16  1  0.16676000  0.54970000  0.44637000  1.0
  H  H17  1  0.83324000  0.45030000  0.94637000  1.0
  H  H18  1  0.63222000  0.58620000  0.47638000  1.0
  H  H19  1  0.36778000  0.41380000  0.97638000  1.0
  H  H20  1  0.36778000  0.41380000  0.52362000  1.0
  H  H21  1  0.63222000  0.58620000  0.02362000  1.0
  H  H22  1  0.82853000  0.60960000  0.41007000  1.0
  H  H23  1  0.17147000  0.39040000  0.91006000  1.0
  H  H24  1  0.17147000  0.39040000  0.58994000  1.0
  H  H25  1  0.82853000  0.60960000  0.08993000  1.0
  H  H26  1  0.63036000  0.31227000  0.58327000  1.0
  H  H27  1  0.36964000  0.68772000  0.08327000  1.0
  H  H28  1  0.36964000  0.68773000  0.41673000  1.0
  H  H29  1  0.63036000  0.31228000  0.91673000  1.0
  H  H30  1  0.93492000  0.28460000  0.31872000  1.0
  H  H31  1  0.06508000  0.71540000  0.81872000  1.0
  H  H32  1  0.06508000  0.71541000  0.68128000  1.0
  H  H33  1  0.93492000  0.28460000  0.18128000  1.0
  H  H34  1  0.20638000  0.07412000  0.68328000  1.0
  H  H35  1  0.79362000  0.92588000  0.18327000  1.0
  H  H36  1  0.79362000  0.92588000  0.31673000  1.0
  H  H37  1  0.20637000  0.07412000  0.81673000  1.0
  H  H38  1  0.90129000  0.42731000  0.25000000  1.0
  H  H39  1  0.09871000  0.57269000  0.75000000  1.0
  H  H40  1  0.12914000  0.05192000  0.48261000  1.0
  H  H41  1  0.87086000  0.94808000  0.98261000  1.0
  H  H42  1  0.87086000  0.94808000  0.51738000  1.0
  H  H43  1  0.12914000  0.05192000  0.01738000  1.0
  C  C44  1  0.14438000  0.67033000  0.25000000  1.0
  C  C45  1  0.85562000  0.32967000  0.75000000  1.0
  C  C46  1  0.90226000  0.51843000  0.51563000  1.0
  C  C47  1  0.09774000  0.48157000  0.01563000  1.0
  C  C48  1  0.09774000  0.48157000  0.48437000  1.0
  C  C49  1  0.90226000  0.51843000  0.98437000  1.0
  C  C50  1  0.75853000  0.54572000  0.45090000  1.0
  C  C51  1  0.24146000  0.45428000  0.95090000  1.0
  C  C52  1  0.24146000  0.45428000  0.54910000  1.0
  C  C53  1  0.75853000  0.54572000  0.04910000  1.0
  C  C54  1  0.53891000  0.23435000  0.59698000  1.0
  C  C55  1  0.46108000  0.76565000  0.09698000  1.0
  C  C56  1  0.46108000  0.76565000  0.40302000  1.0
  C  C57  1  0.53892000  0.23435000  0.90302000  1.0
  C  C58  1  0.02906000  0.23475000  0.35380000  1.0
  C  C59  1  0.97094000  0.76525000  0.85380000  1.0
  C  C60  1  0.97094000  0.76526000  0.64620000  1.0
  C  C61  1  0.02906000  0.23475000  0.14620000  1.0
  C  C62  1  0.32288000  0.11488000  0.64694000  1.0
  C  C63  1  0.67712000  0.88511000  0.14693000  1.0
  C  C64  1  0.67712000  0.88512000  0.35307000  1.0
  C  C65  1  0.32288000  0.11489000  0.85307000  1.0
  C  C66  1  0.67156000  0.44264000  0.40365000  1.0
  C  C67  1  0.32845000  0.55736000  0.90365000  1.0
  C  C68  1  0.32844000  0.55736000  0.59635000  1.0
  C  C69  1  0.67156000  0.44264000  0.09635000  1.0
  C  C70  1  0.01283000  0.49898000  0.25000000  1.0
  C  C71  1  0.98717000  0.50102000  0.75000000  1.0
  C  C72  1  0.12359000  0.11552000  0.43654000  1.0
  C  C73  1  0.87641000  0.88448000  0.93654000  1.0
  C  C74  1  0.87641000  0.88448000  0.56346000  1.0
  C  C75  1  0.12359000  0.11552000  0.06346000  1.0
  N  N76  1  0.54940000  0.13655000  0.55740000  1.0
  N  N77  1  0.45060000  0.86345000  0.05740000  1.0
  N  N78  1  0.45060000  0.86345000  0.44260000  1.0
  N  N79  1  0.54940000  0.13655000  0.94261000  1.0
  N  N80  1  0.95761000  0.15762000  0.40810000  1.0
  N  N81  1  0.04239000  0.84238000  0.90810000  1.0
  N  N82  1  0.04239000  0.84238000  0.59190000  1.0
  N  N83  1  0.95761000  0.15762000  0.09190000  1.0
  N  N84  1  0.20655000  0.49078000  0.25000000  1.0
  N  N85  1  0.79345000  0.50922000  0.75000000  1.0
  N  N86  1  0.28584000  0.16335000  0.40156000  1.0
  N  N87  1  0.71416000  0.83665000  0.90156000  1.0
  N  N88  1  0.71416000  0.83665000  0.59844000  1.0
  N  N89  1  0.28584000  0.16335000  0.09844000  1.0
  N  N90  1  0.29167000  0.60138000  0.25000000  1.0
  N  N91  1  0.70833000  0.39862000  0.75000000  1.0
  N  N92  1  0.96568000  0.60957000  0.25000000  1.0
  N  N93  1  0.03432000  0.39043000  0.75000000  1.0
  N  N94  1  0.22448000  0.24046000  0.34830000  1.0
  N  N95  1  0.77552000  0.75954000  0.84830000  1.0
  N  N96  1  0.77552000  0.75955000  0.65170000  1.0
  N  N97  1  0.22448000  0.24046000  0.15170000  1.0
  N  N98  1  0.40867000  0.05919000  0.58984000  1.0
  N  N99  1  0.59132000  0.94080000  0.08984000  1.0
  N  N100  1  0.59132000  0.94081000  0.41016000  1.0
  N  N101  1  0.40867000  0.05920000  0.91016000  1.0
  N  N102  1  0.39913000  0.22517000  0.65370000  1.0
  N  N103  1  0.60086000  0.77482000  0.15370000  1.0
  N  N104  1  0.60086000  0.77483000  0.34630000  1.0
  N  N105  1  0.39913000  0.22518000  0.84630000  1.0
  Cl  Cl106  1  0.62849000  0.15678000  0.25000000  1.0
  Cl  Cl107  1  0.37151000  0.84322000  0.75000000  1.0
  O  O108  1  0.60676000  0.46297000  0.33434000  1.0
  O  O109  1  0.39324000  0.53703000  0.83434000  1.0
  O  O110  1  0.39324000  0.53703000  0.66566000  1.0
  O  O111  1  0.60676000  0.46297000  0.16566000  1.0
  O  O112  1  0.66346000  0.34454000  0.43498000  1.0
  O  O113  1  0.33654000  0.65546000  0.93498000  1.0
  O  O114  1  0.33654000  0.65546000  0.56503000  1.0
  O  O115  1  0.66346000  0.34454000  0.06503000  1.0
