# generated using pymatgen
data_GdH11C5O8
_symmetry_space_group_name_H-M   'P 1'
_cell_length_a   6.57827000
_cell_length_b   7.79126000
_cell_length_c   9.92280000
_cell_angle_alpha   109.49600000
_cell_angle_beta   89.99920000
_cell_angle_gamma   89.99940000
_symmetry_Int_Tables_number   1
_chemical_formula_structural   GdH11C5O8
_chemical_formula_sum   'Gd2 H22 C10 O16'
_cell_volume   479.41422613
_cell_formula_units_Z   2
loop_
 _symmetry_equiv_pos_site_id
 _symmetry_equiv_pos_as_xyz
  1  'x, y, z'
loop_
 _atom_site_type_symbol
 _atom_site_label
 _atom_site_symmetry_multiplicity
 _atom_site_fract_x
 _atom_site_fract_y
 _atom_site_fract_z
 _atom_site_occupancy
  Gd  Gd0  1  0.75001000  0.50506000  0.74885000  1.0
  Gd  Gd1  1  0.24999000  0.49494000  0.25115000  1.0
  H  H2  1  0.87297000  0.70436000  0.05409000  1.0
  H  H3  1  0.37298000  0.29564000  0.94591000  1.0
  H  H4  1  0.12703000  0.29564000  0.94591000  1.0
  H  H5  1  0.62702000  0.70436000  0.05409000  1.0
  H  H6  1  0.62698000  0.71263000  0.55297000  1.0
  H  H7  1  0.12698000  0.28736000  0.44704000  1.0
  H  H8  1  0.37302000  0.28737000  0.44704000  1.0
  H  H9  1  0.87302000  0.71264000  0.55297000  1.0
  H  H10  1  0.75000000  0.11345000  0.03856000  1.0
  H  H11  1  0.25000000  0.88655000  0.96144000  1.0
  H  H12  1  0.61352000  0.97796000  0.88518000  1.0
  H  H13  1  0.11350000  0.02204000  0.11482000  1.0
  H  H14  1  0.38649000  0.02204000  0.11482000  1.0
  H  H15  1  0.88650000  0.97796000  0.88518000  1.0
  H  H16  1  0.75000000  0.09770000  0.25992000  1.0
  H  H17  1  0.25000000  0.90230000  0.74008000  1.0
  H  H18  1  0.88685000  0.96414000  0.34395000  1.0
  H  H19  1  0.38685000  0.03586000  0.65605000  1.0
  H  H20  1  0.11315000  0.03586000  0.65605000  1.0
  H  H21  1  0.61315000  0.96414000  0.34395000  1.0
  H  H22  1  0.25002000  0.39031000  0.72156000  1.0
  H  H23  1  0.74998000  0.60969000  0.27844000  1.0
  C  C24  1  0.75001000  0.22028000  0.86977000  1.0
  C  C25  1  0.25000000  0.77972000  0.13023000  1.0
  C  C26  1  0.75001000  0.06073000  0.92106000  1.0
  C  C27  1  0.25000000  0.93927000  0.07894000  1.0
  C  C28  1  0.75000000  0.20858000  0.48416000  1.0
  C  C29  1  0.25000000  0.79142000  0.51584000  1.0
  C  C30  1  0.74999000  0.04661000  0.35069000  1.0
  C  C31  1  0.25000000  0.95339000  0.64931000  1.0
  C  C32  1  0.24999000  0.54119000  0.75790000  1.0
  C  C33  1  0.75001000  0.45881000  0.24210000  1.0
  O  O34  1  0.91770000  0.29053000  0.84708000  1.0
  O  O35  1  0.41770000  0.70947000  0.15293000  1.0
  O  O36  1  0.08230000  0.70947000  0.15292000  1.0
  O  O37  1  0.58230000  0.29052000  0.84707000  1.0
  O  O38  1  0.91768000  0.28014000  0.54287000  1.0
  O  O39  1  0.41768000  0.71985000  0.45713000  1.0
  O  O40  1  0.08232000  0.71986000  0.45713000  1.0
  O  O41  1  0.58232000  0.28015000  0.54287000  1.0
  O  O42  1  0.07998000  0.62244000  0.77757000  1.0
  O  O43  1  0.57995000  0.37754000  0.22242000  1.0
  O  O44  1  0.92002000  0.37756000  0.22243000  1.0
  O  O45  1  0.42004000  0.62246000  0.77759000  1.0
  O  O46  1  0.74999000  0.68780000  0.99184000  1.0
  O  O47  1  0.25001000  0.31220000  0.00816000  1.0
  O  O48  1  0.75000000  0.69259000  0.60500000  1.0
  O  O49  1  0.25000000  0.30741000  0.39501000  1.0
