# generated using pymatgen
data_Zn4H38C49Br2N16O5
_symmetry_space_group_name_H-M   'P 1'
_cell_length_a   14.57580000
_cell_length_b   14.63459936
_cell_length_c   15.20430000
_cell_angle_alpha   113.80911540
_cell_angle_beta   105.34400000
_cell_angle_gamma   107.15532446
_symmetry_Int_Tables_number   1
_chemical_formula_structural   Zn4H38C49Br2N16O5
_chemical_formula_sum   'Zn4 H38 C49 Br2 N16 O5'
_cell_volume   2547.53257118
_cell_formula_units_Z   1
loop_
 _symmetry_equiv_pos_site_id
 _symmetry_equiv_pos_as_xyz
  1  'x, y, z'
loop_
 _atom_site_type_symbol
 _atom_site_label
 _atom_site_symmetry_multiplicity
 _atom_site_fract_x
 _atom_site_fract_y
 _atom_site_fract_z
 _atom_site_occupancy
  Zn  Zn0  1  0.05660000  0.14384000  0.63549000  1.0
  Zn  Zn1  1  0.98674000  0.84979000  0.35769000  1.0
  Zn  Zn2  1  0.82556000  0.86113000  0.48153000  1.0
  Zn  Zn3  1  0.16435000  0.14293000  0.49959000  1.0
  H  H4  1  0.09252000  0.18105000  0.86806000  1.0
  H  H5  1  0.13206000  0.80788000  0.50298000  1.0
  H  H6  1  0.66976000  0.60952000  0.06405000  1.0
  H  H7  1  0.51748000  0.59889000  0.81075000  1.0
  H  H8  1  0.67255000  0.71538000  0.97182000  1.0
  H  H9  1  0.35900000  0.56073000  0.00506000  1.0
  H  H10  1  0.48891000  0.73219000  0.15279000  1.0
  H  H11  1  0.49255000  0.79954000  0.07910000  1.0
  H  H12  1  0.45616000  0.68470000  0.85360000  1.0
  H  H13  1  0.75541000  0.61454000  0.45682000  1.0
  H  H14  1  0.50002000  0.87679000  0.65241000  1.0
  H  H15  1  0.83539000  0.81605000  0.14269000  1.0
  H  H16  1  0.46592000  0.13916000  0.78288000  1.0
  H  H17  1  0.34648000  0.88898000  0.60583000  1.0
  H  H18  1  0.87800000  0.39067000  0.22906000  1.0
  H  H19  1  0.79320000  0.42613000  0.39912000  1.0
  H  H20  1  0.90989000  0.25012000  0.25159000  1.0
  H  H21  1  0.80056000  0.27864000  0.40273000  1.0
  H  H22  1  0.02471000  0.79908000  0.97639000  1.0
  H  H23  1  0.18185000  0.05047000  0.11695000  1.0
  H  H24  1  0.02741000  0.83320000  0.83242000  1.0
  H  H25  1  0.38378000  0.40923000  0.66066000  1.0
  H  H26  1  0.63672000  0.78275000  0.57664000  1.0
  H  H27  1  0.93862000  0.58575000  0.27309000  1.0
  H  H28  1  0.21676000  0.39916000  0.85610000  1.0
  H  H29  1  0.30415000  0.16954000  0.70768000  1.0
  H  H30  1  0.90577000  0.81990000  0.66624000  1.0
  H  H31  1  0.00506000  0.71785000  0.06670000  1.0
  H  H32  1  0.70360000  0.91633000  0.08054000  1.0
  H  H33  1  0.63370000  0.22761000  0.85625000  1.0
  H  H34  1  0.97053000  0.10894000  0.95859000  1.0
  H  H35  1  0.86513000  0.18700000  0.61775000  1.0
  H  H36  1  0.24612000  0.14832000  0.32120000  1.0
  H  H37  1  0.67165000  0.09980000  0.60392000  1.0
  H  H38  1  0.00320000  0.16408000  0.31496000  1.0
  H  H39  1  0.64128000  0.84912000  0.31450000  1.0
  H  H40  1  0.53611000  0.47981000  0.88934000  1.0
  H  H41  1  0.45337000  0.44227000  0.94757000  1.0
  C  C42  1  0.04188000  0.09409000  0.80369000  1.0
  C  C43  1  0.67524000  0.02202000  0.58842000  1.0
  C  C44  1  0.97496000  0.16318000  0.37411000  1.0
  C  C45  1  0.15872000  0.89797000  0.54475000  1.0
  C  C46  1  0.70276000  0.84858000  0.28710000  1.0
  C  C47  1  0.89705000  0.19281000  0.39745000  1.0
  C  C48  1  0.69633000  0.80913000  0.18367000  1.0
  C  C49  1  0.62979000  0.94758000  0.62067000  1.0
  C  C50  1  0.14079000  0.96543000  0.19642000  1.0
  C  C51  1  0.50212000  0.51285000  0.94431000  1.0
  C  C52  1  0.59164000  0.60659000  0.05467000  1.0
  C  C53  1  0.26003000  0.98517000  0.62812000  1.0
  C  C54  1  0.49938000  0.64191000  0.87697000  1.0
  C  C55  1  0.39729000  0.61748000  0.98151000  1.0
  C  C56  1  0.43004000  0.55630000  0.89546000  1.0
  C  C57  1  0.80484000  0.62583000  0.41598000  1.0
  C  C58  1  0.59844000  0.72299000  0.07915000  1.0
  C  C59  1  0.60422000  0.73004000  0.98031000  1.0
  C  C60  1  0.49360000  0.72505000  0.07969000  1.0
  C  C61  1  0.55535000  0.05350000  0.73085000  1.0
  C  C62  1  0.56046000  0.95563000  0.67024000  1.0
  C  C63  1  0.45647000  0.05586000  0.72987000  1.0
  C  C64  1  0.83609000  0.54992000  0.35550000  1.0
  C  C65  1  0.35612000  0.97213000  0.65861000  1.0
  C  C66  1  0.85154000  0.37258000  0.28372000  1.0
  C  C67  1  0.82162000  0.44385000  0.34526000  1.0
  C  C68  1  0.86692000  0.28395000  0.29429000  1.0
  C  C69  1  0.32986000  0.38958000  0.69503000  1.0
  C  C70  1  0.84649000  0.25026000  0.36143000  1.0
  C  C71  1  0.06701000  0.88578000  0.99741000  1.0
  C  C72  1  0.13359000  0.96816000  0.10138000  1.0
  C  C73  1  0.04617000  0.90381000  0.90949000  1.0
  C  C74  1  0.03646000  0.99365000  0.90696000  1.0
  C  C75  1  0.33693000  0.45284000  0.79683000  1.0
  C  C76  1  0.89721000  0.61010000  0.32123000  1.0
  C  C77  1  0.24500000  0.38392000  0.79478000  1.0
  C  C78  1  0.24732000  0.08201000  0.65002000  1.0
  C  C79  1  0.94867000  0.90974000  0.70046000  1.0
  C  C80  1  0.01043000  0.99670000  0.80869000  1.0
  C  C81  1  0.01413000  0.76358000  0.14939000  1.0
  C  C82  1  0.63435000  0.84861000  0.00196000  1.0
  C  C83  1  0.65042000  0.16366000  0.80029000  1.0
  C  C84  1  0.02850000  0.08279000  0.99259000  1.0
  C  C85  1  0.84067000  0.19957000  0.54920000  1.0
  C  C86  1  0.89747000  0.17651000  0.48376000  1.0
  C  C87  1  0.80197000  0.83222000  0.20003000  1.0
  C  C88  1  0.65471000  0.85840000  0.57297000  1.0
  C  C89  1  0.19446000  0.06377000  0.29808000  1.0
  C  C90  1  0.08400000  0.88303000  0.21530000  1.0
  Br  Br91  1  0.57107000  0.57337000  0.16492000  1.0
  Br  Br92  1  0.28327000  0.65449000  0.92441000  1.0
  N  N93  1  0.00162000  0.06633000  0.70078000  1.0
  N  N94  1  0.84462000  0.72240000  0.41777000  1.0
  N  N95  1  0.24000000  0.29036000  0.63702000  1.0
  N  N96  1  0.90215000  0.71246000  0.35931000  1.0
  N  N97  1  0.18797000  0.28751000  0.69959000  1.0
  N  N98  1  0.14744000  0.05433000  0.58044000  1.0
  N  N99  1  0.94387000  0.95223000  0.63679000  1.0
  N  N100  1  0.97235000  0.14195000  0.50874000  1.0
  N  N101  1  0.86514000  0.87884000  0.30449000  1.0
  N  N102  1  0.70979000  0.88079000  0.52007000  1.0
  N  N103  1  0.16889000  0.04208000  0.36924000  1.0
  N  N104  1  0.10131000  0.93223000  0.31923000  1.0
  N  N105  1  0.72085000  0.98212000  0.52812000  1.0
  N  N106  1  0.01912000  0.13456000  0.44213000  1.0
  N  N107  1  0.80387000  0.88857000  0.35861000  1.0
  N  N108  1  0.09326000  0.93911000  0.51603000  1.0
  O  O109  1  0.96535000  0.71199000  0.18370000  1.0
  O  O110  1  0.58881000  0.87060000  0.93948000  1.0
  O  O111  1  0.74182000  0.19014000  0.80792000  1.0
  O  O112  1  0.07327000  0.12526000  0.09008000  1.0
  O  O113  1  0.77283000  0.23272000  0.53434000  1.0
