# generated using pymatgen
data_CuMo2H6C7N4O7
_symmetry_space_group_name_H-M   'P 1'
_cell_length_a   5.18914000
_cell_length_b   9.48734000
_cell_length_c   12.30070000
_cell_angle_alpha   109.81100000
_cell_angle_beta   92.96100000
_cell_angle_gamma   91.35530000
_symmetry_Int_Tables_number   1
_chemical_formula_structural   CuMo2H6C7N4O7
_chemical_formula_sum   'Cu2 Mo4 H12 C14 N8 O14'
_cell_volume   568.42990830
_cell_formula_units_Z   2
loop_
 _symmetry_equiv_pos_site_id
 _symmetry_equiv_pos_as_xyz
  1  'x, y, z'
loop_
 _atom_site_type_symbol
 _atom_site_label
 _atom_site_symmetry_multiplicity
 _atom_site_fract_x
 _atom_site_fract_y
 _atom_site_fract_z
 _atom_site_occupancy
  Cu  Cu0  1  0.74838000  0.06868000  0.11778000  1.0
  Cu  Cu1  1  0.25163000  0.93132000  0.88222000  1.0
  Mo  Mo2  1  0.88466000  0.12585000  0.44275000  1.0
  Mo  Mo3  1  0.11535000  0.87415000  0.55724000  1.0
  Mo  Mo4  1  0.31847000  0.92598000  0.27502000  1.0
  Mo  Mo5  1  0.68154000  0.07402000  0.72498000  1.0
  H  H6  1  0.89454000  0.62782000  0.21608000  1.0
  H  H7  1  0.10545000  0.37218000  0.78393000  1.0
  H  H8  1  0.34027000  0.25417000  0.29643000  1.0
  H  H9  1  0.65972000  0.74581000  0.70356000  1.0
  H  H10  1  0.57678000  0.71061000  0.33808000  1.0
  H  H11  1  0.42320000  0.28938000  0.66192000  1.0
  H  H12  1  0.28628000  0.53679000  0.39414000  1.0
  H  H13  1  0.71370000  0.46320000  0.60586000  1.0
  H  H14  1  0.46708000  0.25851000  0.92490000  1.0
  H  H15  1  0.53291000  0.74149000  0.07510000  1.0
  H  H16  1  0.23917000  0.50721000  0.07198000  1.0
  H  H17  1  0.76082000  0.49279000  0.92801000  1.0
  C  C18  1  0.77577000  0.54164000  0.23304000  1.0
  C  C19  1  0.22423000  0.45836000  0.76697000  1.0
  C  C20  1  0.46708000  0.33717000  0.28062000  1.0
  C  C21  1  0.53291000  0.66282000  0.71937000  1.0
  C  C22  1  0.99870000  0.32621000  0.10066000  1.0
  C  C23  1  0.00130000  0.67379000  0.89935000  1.0
  C  C24  1  0.43457000  0.49071000  0.33362000  1.0
  C  C25  1  0.56541000  0.50928000  0.66638000  1.0
  C  C26  1  0.30654000  0.26481000  0.97881000  1.0
  C  C27  1  0.69346000  0.73519000  0.02119000  1.0
  C  C28  1  0.19292000  0.38889000  0.05338000  1.0
  C  C29  1  0.80707000  0.61112000  0.94662000  1.0
  C  C30  1  0.80907000  0.38813000  0.18251000  1.0
  C  C31  1  0.19093000  0.61187000  0.81750000  1.0
  N  N32  1  0.00022000  0.17398000  0.05536000  1.0
  N  N33  1  0.99979000  0.82603000  0.94465000  1.0
  N  N34  1  0.65409000  0.28769000  0.20775000  1.0
  N  N35  1  0.34591000  0.71230000  0.79225000  1.0
  N  N36  1  0.59093000  0.58716000  0.30714000  1.0
  N  N37  1  0.40906000  0.41283000  0.69286000  1.0
  N  N38  1  0.18572000  0.13696000  0.98180000  1.0
  N  N39  1  0.81428000  0.86305000  0.01820000  1.0
  O  O40  1  0.15015000  0.95175000  0.42995000  1.0
  O  O41  1  0.84985000  0.04825000  0.57005000  1.0
  O  O42  1  0.45028000  0.99792000  0.17125000  1.0
  O  O43  1  0.54974000  0.00209000  0.82876000  1.0
  O  O44  1  0.02360000  0.07648000  0.29549000  1.0
  O  O45  1  0.97641000  0.92352000  0.70451000  1.0
  O  O46  1  0.01808000  0.30276000  0.51561000  1.0
  O  O47  1  0.98192000  0.69724000  0.48439000  1.0
  O  O48  1  0.59575000  0.86220000  0.33450000  1.0
  O  O49  1  0.40426000  0.13780000  0.66550000  1.0
  O  O50  1  0.56135000  0.15773000  0.41407000  1.0
  O  O51  1  0.43866000  0.84227000  0.58592000  1.0
  O  O52  1  0.16798000  0.75749000  0.18977000  1.0
  O  O53  1  0.83202000  0.24251000  0.81022000  1.0
