# generated using pymatgen
data_Ag2H6C9N3O4
_symmetry_space_group_name_H-M   'P 1'
_cell_length_a   6.74567000
_cell_length_b   10.36250000
_cell_length_c   16.06800000
_cell_angle_alpha   86.90650000
_cell_angle_beta   78.03760000
_cell_angle_gamma   79.31690000
_symmetry_Int_Tables_number   1
_chemical_formula_structural   Ag2H6C9N3O4
_chemical_formula_sum   'Ag8 H24 C36 N12 O16'
_cell_volume   1079.60817740
_cell_formula_units_Z   4
loop_
 _symmetry_equiv_pos_site_id
 _symmetry_equiv_pos_as_xyz
  1  'x, y, z'
loop_
 _atom_site_type_symbol
 _atom_site_label
 _atom_site_symmetry_multiplicity
 _atom_site_fract_x
 _atom_site_fract_y
 _atom_site_fract_z
 _atom_site_occupancy
  Ag  Ag0  1  0.83358000  0.05811000  0.30876000  1.0
  Ag  Ag1  1  0.16642000  0.94189000  0.69124000  1.0
  Ag  Ag2  1  0.78687000  0.29370000  0.21721000  1.0
  Ag  Ag3  1  0.21313000  0.70630000  0.78279000  1.0
  Ag  Ag4  1  0.58838000  0.79721000  0.67262000  1.0
  Ag  Ag5  1  0.41162000  0.20279000  0.32738000  1.0
  Ag  Ag6  1  0.24540000  0.41523000  0.14386000  1.0
  Ag  Ag7  1  0.75460000  0.58477000  0.85614000  1.0
  H  H8  1  0.50091000  0.76084000  0.99317000  1.0
  H  H9  1  0.49909000  0.23916000  0.00683000  1.0
  H  H10  1  0.41445000  0.77227000  0.15434000  1.0
  H  H11  1  0.58556000  0.22773000  0.84566000  1.0
  H  H12  1  0.58046000  0.57865000  0.23413000  1.0
  H  H13  1  0.41954000  0.42136000  0.76587000  1.0
  H  H14  1  0.52869000  0.62432000  0.54250000  1.0
  H  H15  1  0.47131000  0.37568000  0.45750000  1.0
  H  H16  1  0.58737000  0.60550000  0.38264000  1.0
  H  H17  1  0.41263000  0.39450000  0.61736000  1.0
  H  H18  1  0.72874000  0.79227000  0.29439000  1.0
  H  H19  1  0.27125000  0.20773000  0.70561000  1.0
  H  H20  1  0.19522000  0.67264000  0.43388000  1.0
  H  H21  1  0.80478000  0.32736000  0.56612000  1.0
  H  H22  1  0.84731000  0.97404000  0.03471000  1.0
  H  H23  1  0.15269000  0.02597000  0.96529000  1.0
  H  H24  1  0.93258000  0.28606000  0.03369000  1.0
  H  H25  1  0.06742000  0.71394000  0.96631000  1.0
  H  H26  1  0.89487000  0.36249000  0.93498000  1.0
  H  H27  1  0.10513000  0.63751000  0.06502000  1.0
  H  H28  1  0.81815000  0.06910000  0.48370000  1.0
  H  H29  1  0.18185000  0.93090000  0.51630000  1.0
  H  H30  1  0.75770000  0.99380000  0.58413000  1.0
  H  H31  1  0.24230000  0.00620000  0.41587000  1.0
  C  C32  1  0.75932000  0.47346000  0.03910000  1.0
  C  C33  1  0.24068000  0.52653000  0.96090000  1.0
  C  C34  1  0.56216000  0.68177000  0.03312000  1.0
  C  C35  1  0.43784000  0.31823000  0.96688000  1.0
  C  C36  1  0.51549000  0.68850000  0.12121000  1.0
  C  C37  1  0.48452000  0.31150000  0.87879000  1.0
  C  C38  1  0.60492000  0.58138000  0.16489000  1.0
  C  C39  1  0.39509000  0.41863000  0.83511000  1.0
  C  C40  1  0.71375000  0.89447000  0.48558000  1.0
  C  C41  1  0.28624000  0.10553000  0.51442000  1.0
  C  C42  1  0.58950000  0.69878000  0.49938000  1.0
  C  C43  1  0.41050000  0.30121000  0.50062000  1.0
  C  C44  1  0.61742000  0.69015000  0.41188000  1.0
  C  C45  1  0.38258000  0.30985000  0.58811000  1.0
  C  C46  1  0.69983000  0.79026000  0.36363000  1.0
  C  C47  1  0.30017000  0.20974000  0.63637000  1.0
  C  C48  1  0.12574000  0.52265000  0.31573000  1.0
  C  C49  1  0.87426000  0.47735000  0.68427000  1.0
  C  C50  1  0.05677000  0.51099000  0.41079000  1.0
  C  C51  1  0.94323000  0.48901000  0.58921000  1.0
  C  C52  1  0.94371000  0.41372000  0.44812000  1.0
  C  C53  1  0.05629000  0.58627000  0.55189000  1.0
  C  C54  1  0.10951000  0.59691000  0.46332000  1.0
  C  C55  1  0.89048000  0.40309000  0.53668000  1.0
  C  C56  1  0.87010000  0.32625000  0.39369000  1.0
  C  C57  1  0.12990000  0.67375000  0.60631000  1.0
  C  C58  1  0.69540000  0.98468000  0.01902000  1.0
  C  C59  1  0.30461000  0.01532000  0.98098000  1.0
  C  C60  1  0.52148000  0.02309000  0.08247000  1.0
  C  C61  1  0.47852000  0.97691000  0.91753000  1.0
  C  C62  1  0.67615000  0.96244000  0.93635000  1.0
  C  C63  1  0.32385000  0.03756000  0.06365000  1.0
  C  C64  1  0.55182000  0.05575000  0.16817000  1.0
  C  C65  1  0.44819000  0.94425000  0.83183000  1.0
  C  C66  1  0.86384000  0.92389000  0.86795000  1.0
  C  C67  1  0.13616000  0.07611000  0.13205000  1.0
  N  N68  1  0.87081000  0.36523000  0.99942000  1.0
  N  N69  1  0.12919000  0.63477000  0.00058000  1.0
  N  N70  1  0.72406000  0.47488000  0.12549000  1.0
  N  N71  1  0.27594000  0.52512000  0.87451000  1.0
  N  N72  1  0.68450000  0.57741000  0.99144000  1.0
  N  N73  1  0.31550000  0.42259000  0.00856000  1.0
  N  N74  1  0.75467000  0.99824000  0.52123000  1.0
  N  N75  1  0.24533000  0.00176000  0.47877000  1.0
  N  N76  1  0.74700000  0.89116000  0.39952000  1.0
  N  N77  1  0.25300000  0.10884000  0.60048000  1.0
  N  N78  1  0.63618000  0.79900000  0.53686000  1.0
  N  N79  1  0.36382000  0.20100000  0.46314000  1.0
  O  O80  1  0.76029000  0.38539000  0.34247000  1.0
  O  O81  1  0.23971000  0.61461000  0.65753000  1.0
  O  O82  1  0.91715000  0.20297000  0.40461000  1.0
  O  O83  1  0.08285000  0.79703000  0.59539000  1.0
  O  O84  1  0.19067000  0.40959000  0.27785000  1.0
  O  O85  1  0.80933000  0.59041000  0.72215000  1.0
  O  O86  1  0.12116000  0.63221000  0.27986000  1.0
  O  O87  1  0.87884000  0.36779000  0.72014000  1.0
  O  O88  1  0.65936000  0.97202000  0.20694000  1.0
  O  O89  1  0.34063000  0.02798000  0.79307000  1.0
  O  O90  1  0.46727000  0.17416000  0.19256000  1.0
  O  O91  1  0.53273000  0.82584000  0.80744000  1.0
  O  O92  1  0.86595000  0.98047000  0.79664000  1.0
  O  O93  1  0.13405000  0.01953000  0.20336000  1.0
  O  O94  1  0.00653000  0.83518000  0.88880000  1.0
  O  O95  1  0.99348000  0.16482000  0.11120000  1.0
