# generated using pymatgen
data_ZnH21C30N3O4
_symmetry_space_group_name_H-M   'P 1'
_cell_length_a   13.94510000
_cell_length_b   20.03180000
_cell_length_c   30.78620000
_cell_angle_alpha   100.01200000
_cell_angle_beta   90.00000000
_cell_angle_gamma   89.99980000
_symmetry_Int_Tables_number   1
_chemical_formula_structural   ZnH21C30N3O4
_chemical_formula_sum   'Zn8 H168 C240 N24 O32'
_cell_volume   8469.01896809
_cell_formula_units_Z   8
loop_
 _symmetry_equiv_pos_site_id
 _symmetry_equiv_pos_as_xyz
  1  'x, y, z'
loop_
 _atom_site_type_symbol
 _atom_site_label
 _atom_site_symmetry_multiplicity
 _atom_site_fract_x
 _atom_site_fract_y
 _atom_site_fract_z
 _atom_site_occupancy
  Zn  Zn0  1  0.39936000  0.74021000  0.25305000  1.0
  Zn  Zn1  1  0.89937000  0.75979000  0.24696000  1.0
  Zn  Zn2  1  0.60063000  0.25979000  0.74696000  1.0
  Zn  Zn3  1  0.10064000  0.24021000  0.75304000  1.0
  Zn  Zn4  1  0.47152000  0.13268000  0.04836000  1.0
  Zn  Zn5  1  0.97152000  0.36731000  0.45164000  1.0
  Zn  Zn6  1  0.52848000  0.86731000  0.95164000  1.0
  Zn  Zn7  1  0.02848000  0.63269000  0.54836000  1.0
  H  H8  1  0.54889000  0.71091000  0.18424000  1.0
  H  H9  1  0.04890000  0.78909000  0.31576000  1.0
  H  H10  1  0.45110000  0.28909000  0.81576000  1.0
  H  H11  1  0.95110000  0.21091000  0.68424000  1.0
  H  H12  1  0.59391000  0.61753000  0.12373000  1.0
  H  H13  1  0.09392000  0.88247000  0.37627000  1.0
  H  H14  1  0.40609000  0.38247000  0.87627000  1.0
  H  H15  1  0.90608000  0.11753000  0.62373000  1.0
  H  H16  1  0.33190000  0.51626000  0.15047000  1.0
  H  H17  1  0.83191000  0.98374000  0.34952000  1.0
  H  H18  1  0.66810000  0.48373000  0.84953000  1.0
  H  H19  1  0.16810000  0.01626000  0.65047000  1.0
  H  H20  1  0.30466000  0.60985000  0.21320000  1.0
  H  H21  1  0.80467000  0.89015000  0.28680000  1.0
  H  H22  1  0.69534000  0.39015000  0.78681000  1.0
  H  H23  1  0.19534000  0.10985000  0.71320000  1.0
  H  H24  1  0.58199000  0.56169000  0.05984000  1.0
  H  H25  1  0.08200000  0.93832000  0.44016000  1.0
  H  H26  1  0.41800000  0.43831000  0.94016000  1.0
  H  H27  1  0.91800000  0.06169000  0.55984000  1.0
  H  H28  1  0.61765000  0.47143000  0.99873000  1.0
  H  H29  1  0.11765000  0.02857000  0.50127000  1.0
  H  H30  1  0.38235000  0.52857000  0.00127000  1.0
  H  H31  1  0.88235000  0.97143000  0.49873000  1.0
  H  H32  1  0.43721000  0.33479000  0.05611000  1.0
  H  H33  1  0.93721000  0.16521000  0.44389000  1.0
  H  H34  1  0.56279000  0.66521000  0.94389000  1.0
  H  H35  1  0.06280000  0.83480000  0.55611000  1.0
  H  H36  1  0.40048000  0.42637000  0.11789000  1.0
  H  H37  1  0.90049000  0.07363000  0.38211000  1.0
  H  H38  1  0.59951000  0.57363000  0.88212000  1.0
  H  H39  1  0.09951000  0.92637000  0.61789000  1.0
  H  H40  1  0.72423000  0.40159000  0.99366000  1.0
  H  H41  1  0.22423000  0.09842000  0.50634000  1.0
  H  H42  1  0.27577000  0.59841000  0.00634000  1.0
  H  H43  1  0.77577000  0.90159000  0.49366000  1.0
  H  H44  1  0.85011000  0.37581000  0.93867000  1.0
  H  H45  1  0.35011000  0.12420000  0.56133000  1.0
  H  H46  1  0.14989000  0.62419000  0.06133000  1.0
  H  H47  1  0.64989000  0.87581000  0.43867000  1.0
  H  H48  1  0.67130000  0.22186000  0.86316000  1.0
  H  H49  1  0.17131000  0.27816000  0.63684000  1.0
  H  H50  1  0.32869000  0.77815000  0.13684000  1.0
  H  H51  1  0.82870000  0.72186000  0.36316000  1.0
  H  H52  1  0.54274000  0.25007000  0.91720000  1.0
  H  H53  1  0.04274000  0.24994000  0.58280000  1.0
  H  H54  1  0.45726000  0.74993000  0.08280000  1.0
  H  H55  1  0.95727000  0.75007000  0.41719000  1.0
  H  H56  1  0.96544000  0.32361000  0.90584000  1.0
  H  H57  1  0.46544000  0.17640000  0.59416000  1.0
  H  H58  1  0.03456000  0.67639000  0.09416000  1.0
  H  H59  1  0.53456000  0.82361000  0.40584000  1.0
  H  H60  1  0.08911000  0.29769000  0.84767000  1.0
  H  H61  1  0.58911000  0.20231000  0.65233000  1.0
  H  H62  1  0.91089000  0.70230000  0.15234000  1.0
  H  H63  1  0.41089000  0.79769000  0.34767000  1.0
  H  H64  1  0.88772000  0.21319000  0.75515000  1.0
  H  H65  1  0.38773000  0.28681000  0.74485000  1.0
  H  H66  1  0.11227000  0.78681000  0.24485000  1.0
  H  H67  1  0.61227000  0.71318000  0.25515000  1.0
  H  H68  1  0.75700000  0.23161000  0.80877000  1.0
  H  H69  1  0.25700000  0.26839000  0.69123000  1.0
  H  H70  1  0.24300000  0.76839000  0.19123000  1.0
  H  H71  1  0.74300000  0.73161000  0.30877000  1.0
  H  H72  1  0.61933000  0.22151000  0.01175000  1.0
  H  H73  1  0.11933000  0.27848000  0.48825000  1.0
  H  H74  1  0.38066000  0.77848000  0.98825000  1.0
  H  H75  1  0.88067000  0.72152000  0.51175000  1.0
  H  H76  1  0.75903000  0.20168000  0.96266000  1.0
  H  H77  1  0.25903000  0.29832000  0.53734000  1.0
  H  H78  1  0.24097000  0.79831000  0.03734000  1.0
  H  H79  1  0.74097000  0.70168000  0.46266000  1.0
  H  H80  1  0.74072000  0.98914000  0.97438000  1.0
  H  H81  1  0.24072000  0.51085000  0.52561000  1.0
  H  H82  1  0.25929000  0.01085000  0.02562000  1.0
  H  H83  1  0.75928000  0.48915000  0.47438000  1.0
  H  H84  1  0.60225000  0.01869000  0.02299000  1.0
  H  H85  1  0.10225000  0.48130000  0.47700000  1.0
  H  H86  1  0.39775000  0.98130000  0.97701000  1.0
  H  H87  1  0.89774000  0.51870000  0.52300000  1.0
  H  H88  1  0.87918000  0.18115000  0.92671000  1.0
  H  H89  1  0.37917000  0.31885000  0.57329000  1.0
  H  H90  1  0.12083000  0.81884000  0.07329000  1.0
  H  H91  1  0.62082000  0.68115000  0.42671000  1.0
  H  H92  1  0.99135000  0.15346000  0.86518000  1.0
  H  H93  1  0.49135000  0.34654000  0.63482000  1.0
  H  H94  1  0.00865000  0.84654000  0.13482000  1.0
  H  H95  1  0.50865000  0.65346000  0.36518000  1.0
  H  H96  1  0.94111000  0.94038000  0.86287000  1.0
  H  H97  1  0.44111000  0.55962000  0.63713000  1.0
  H  H98  1  0.05889000  0.05962000  0.13713000  1.0
  H  H99  1  0.55890000  0.44038000  0.36287000  1.0
  H  H100  1  0.82567000  0.96740000  0.92224000  1.0
  H  H101  1  0.32566000  0.53260000  0.57776000  1.0
  H  H102  1  0.17434000  0.03259000  0.07776000  1.0
  H  H103  1  0.67434000  0.46740000  0.42224000  1.0
  H  H104  1  0.17071000  0.00017000  0.76541000  1.0
  H  H105  1  0.67071000  0.49983000  0.73459000  1.0
  H  H106  1  0.82929000  0.99983000  0.23460000  1.0
  H  H107  1  0.32929000  0.50017000  0.26541000  1.0
  H  H108  1  0.17063000  0.90923000  0.70066000  1.0
  H  H109  1  0.67063000  0.59077000  0.79934000  1.0
  H  H110  1  0.82937000  0.09077000  0.29934000  1.0
  H  H111  1  0.32937000  0.40923000  0.20066000  1.0
  H  H112  1  0.88276000  0.85469000  0.73283000  1.0
  H  H113  1  0.38277000  0.64531000  0.76717000  1.0
  H  H114  1  0.11723000  0.14531000  0.26717000  1.0
  H  H115  1  0.61723000  0.35470000  0.23283000  1.0
  H  H116  1  0.88301000  0.94505000  0.79681000  1.0
  H  H117  1  0.38301000  0.55495000  0.70320000  1.0
  H  H118  1  0.11699000  0.05495000  0.20320000  1.0
  H  H119  1  0.61699000  0.44505000  0.29680000  1.0
  H  H120  1  0.18196000  0.80803000  0.66691000  1.0
  H  H121  1  0.68197000  0.69197000  0.83308000  1.0
  H  H122  1  0.81803000  0.19197000  0.33308000  1.0
  H  H123  1  0.31803000  0.30803000  0.16691000  1.0
  H  H124  1  0.17522000  0.71462000  0.60262000  1.0
  H  H125  1  0.67522000  0.78538000  0.89738000  1.0
  H  H126  1  0.82477000  0.28539000  0.39738000  1.0
  H  H127  1  0.32478000  0.21462000  0.10262000  1.0
  H  H128  1  0.87850000  0.71703000  0.60142000  1.0
  H  H129  1  0.37850000  0.78297000  0.89857000  1.0
  H  H130  1  0.12150000  0.28296000  0.39857000  1.0
  H  H131  1  0.62150000  0.21703000  0.10142000  1.0
  H  H132  1  0.87146000  0.81064000  0.66522000  1.0
  H  H133  1  0.37146000  0.68936000  0.83478000  1.0
  H  H134  1  0.12854000  0.18936000  0.33478000  1.0
  H  H135  1  0.62854000  0.31064000  0.16522000  1.0
  H  H136  1  0.28552000  0.92744000  0.20799000  1.0
  H  H137  1  0.78552000  0.57256000  0.29201000  1.0
  H  H138  1  0.71448000  0.07256000  0.79201000  1.0
  H  H139  1  0.21449000  0.42743000  0.70799000  1.0
  H  H140  1  0.27166000  0.01848000  0.16096000  1.0
  H  H141  1  0.77166000  0.48151000  0.33904000  1.0
  H  H142  1  0.72834000  0.98152000  0.83905000  1.0
  H  H143  1  0.22834000  0.51848000  0.66095000  1.0
  H  H144  1  0.54048000  0.95605000  0.09972000  1.0
  H  H145  1  0.04048000  0.54394000  0.40028000  1.0
  H  H146  1  0.45951000  0.04395000  0.90027000  1.0
  H  H147  1  0.95951000  0.45605000  0.59973000  1.0
  H  H148  1  0.55767000  0.86813000  0.14855000  1.0
  H  H149  1  0.05767000  0.63187000  0.35145000  1.0
  H  H150  1  0.44233000  0.13187000  0.85145000  1.0
  H  H151  1  0.94233000  0.36813000  0.64856000  1.0
  H  H152  1  0.29290000  0.57667000  0.36029000  1.0
  H  H153  1  0.79292000  0.92333000  0.13971000  1.0
  H  H154  1  0.70709000  0.42334000  0.63971000  1.0
  H  H155  1  0.20709000  0.07667000  0.86029000  1.0
  H  H156  1  0.21547000  0.57958000  0.43386000  1.0
  H  H157  1  0.71547000  0.92041000  0.06613000  1.0
  H  H158  1  0.78453000  0.42042000  0.56613000  1.0
  H  H159  1  0.28453000  0.07958000  0.93387000  1.0
  H  H160  1  0.12293000  0.78388000  0.43373000  1.0
  H  H161  1  0.62295000  0.71611000  0.06627000  1.0
  H  H162  1  0.87706000  0.21612000  0.56627000  1.0
  H  H163  1  0.37706000  0.28388000  0.93373000  1.0
  H  H164  1  0.20059000  0.78071000  0.35961000  1.0
  H  H165  1  0.70062000  0.71928000  0.14039000  1.0
  H  H166  1  0.79939000  0.21929000  0.64039000  1.0
  H  H167  1  0.29940000  0.28071000  0.85960000  1.0
  H  H168  1  0.49929000  0.30175000  0.98803000  1.0
  H  H169  1  0.99929000  0.19825000  0.51197000  1.0
  H  H170  1  0.50070000  0.69825000  0.01197000  1.0
  H  H171  1  0.00071000  0.80176000  0.48803000  1.0
  H  H172  1  0.07831000  0.07062000  0.81682000  1.0
  H  H173  1  0.57831000  0.42938000  0.68318000  1.0
  H  H174  1  0.92169000  0.92937000  0.18318000  1.0
  H  H175  1  0.42168000  0.57062000  0.31682000  1.0
  C  C176  1  0.50486000  0.66550000  0.17620000  1.0
  C  C177  1  0.00487000  0.83450000  0.32380000  1.0
  C  C178  1  0.49513000  0.33451000  0.82381000  1.0
  C  C179  1  0.99513000  0.16550000  0.67620000  1.0
  C  C180  1  0.52755000  0.61379000  0.14178000  1.0
  C  C181  1  0.02756000  0.88621000  0.35822000  1.0
  C  C182  1  0.47245000  0.38621000  0.85822000  1.0
  C  C183  1  0.97245000  0.11379000  0.64179000  1.0
  C  C184  1  0.46688000  0.55716000  0.13093000  1.0
  C  C185  1  0.96689000  0.94284000  0.36907000  1.0
  C  C186  1  0.53312000  0.44284000  0.86907000  1.0
  C  C187  1  0.03312000  0.05716000  0.63093000  1.0
  C  C188  1  0.38395000  0.55726000  0.15712000  1.0
  C  C189  1  0.88396000  0.94275000  0.34288000  1.0
  C  C190  1  0.61604000  0.44274000  0.84288000  1.0
  C  C191  1  0.11604000  0.05726000  0.65712000  1.0
  C  C192  1  0.36682000  0.60993000  0.19179000  1.0
  C  C193  1  0.86683000  0.89007000  0.30821000  1.0
  C  C194  1  0.63318000  0.39007000  0.80821000  1.0
  C  C195  1  0.13318000  0.10993000  0.69179000  1.0
  C  C196  1  0.48925000  0.50185000  0.09457000  1.0
  C  C197  1  0.98926000  0.99815000  0.40543000  1.0
  C  C198  1  0.51075000  0.49815000  0.90544000  1.0
  C  C199  1  0.01075000  0.00185000  0.59457000  1.0
  C  C200  1  0.55240000  0.51155000  0.06054000  1.0
  C  C201  1  0.05241000  0.98845000  0.43946000  1.0
  C  C202  1  0.44760000  0.48845000  0.93947000  1.0
  C  C203  1  0.94760000  0.01155000  0.56054000  1.0
  C  C204  1  0.57392000  0.45996000  0.02571000  1.0
  C  C205  1  0.07393000  0.04004000  0.47429000  1.0
  C  C206  1  0.42607000  0.54004000  0.97430000  1.0
  C  C207  1  0.92607000  0.95996000  0.52571000  1.0
  C  C208  1  0.53303000  0.39504000  0.02347000  1.0
  C  C209  1  0.03303000  0.10496000  0.47653000  1.0
  C  C210  1  0.46697000  0.60496000  0.97653000  1.0
  C  C211  1  0.96697000  0.89505000  0.52347000  1.0
  C  C212  1  0.46922000  0.38475000  0.05742000  1.0
  C  C213  1  0.96922000  0.11525000  0.44258000  1.0
  C  C214  1  0.53078000  0.61525000  0.94259000  1.0
  C  C215  1  0.03078000  0.88476000  0.55742000  1.0
  C  C216  1  0.44808000  0.43691000  0.09182000  1.0
  C  C217  1  0.94809000  0.06309000  0.40818000  1.0
  C  C218  1  0.55191000  0.56309000  0.90819000  1.0
  C  C219  1  0.05192000  0.93691000  0.59182000  1.0
  C  C220  1  0.62152000  0.33010000  0.95884000  1.0
  C  C221  1  0.12153000  0.16990000  0.54116000  1.0
  C  C222  1  0.37847000  0.66990000  0.04116000  1.0
  C  C223  1  0.87848000  0.83011000  0.45884000  1.0
  C  C224  1  0.71063000  0.36384000  0.96445000  1.0
  C  C225  1  0.21064000  0.13617000  0.53555000  1.0
  C  C226  1  0.28936000  0.63616000  0.03555000  1.0
  C  C227  1  0.78937000  0.86384000  0.46445000  1.0
  C  C228  1  0.78293000  0.34772000  0.93343000  1.0
  C  C229  1  0.28293000  0.15229000  0.56657000  1.0
  C  C230  1  0.21707000  0.65228000  0.06657000  1.0
  C  C231  1  0.71708000  0.84772000  0.43343000  1.0
  C  C232  1  0.77104000  0.29750000  0.89575000  1.0
  C  C233  1  0.27105000  0.20251000  0.60425000  1.0
  C  C234  1  0.22895000  0.70250000  0.10425000  1.0
  C  C235  1  0.72896000  0.79750000  0.39575000  1.0
  C  C236  1  0.68259000  0.26286000  0.89093000  1.0
  C  C237  1  0.18259000  0.23715000  0.60907000  1.0
  C  C238  1  0.31741000  0.73714000  0.10907000  1.0
  C  C239  1  0.81742000  0.76287000  0.39092000  1.0
  C  C240  1  0.60973000  0.27853000  0.92155000  1.0
  C  C241  1  0.10973000  0.22148000  0.57845000  1.0
  C  C242  1  0.39026000  0.72147000  0.07845000  1.0
  C  C243  1  0.89027000  0.77853000  0.42154000  1.0
  C  C244  1  0.84759000  0.28189000  0.86290000  1.0
  C  C245  1  0.34759000  0.21812000  0.63710000  1.0
  C  C246  1  0.15241000  0.71811000  0.13710000  1.0
  C  C247  1  0.65242000  0.78189000  0.36290000  1.0
  C  C248  1  0.94399000  0.29955000  0.87282000  1.0
  C  C249  1  0.44399000  0.20046000  0.62718000  1.0
  C  C250  1  0.05601000  0.70045000  0.12718000  1.0
  C  C251  1  0.55601000  0.79955000  0.37282000  1.0
  C  C252  1  0.01395000  0.28510000  0.84064000  1.0
  C  C253  1  0.51396000  0.21490000  0.65935000  1.0
  C  C254  1  0.98605000  0.71489000  0.15936000  1.0
  C  C255  1  0.48605000  0.78510000  0.34065000  1.0
  C  C256  1  0.90241000  0.23680000  0.78909000  1.0
  C  C257  1  0.40242000  0.26321000  0.71091000  1.0
  C  C258  1  0.09758000  0.76320000  0.21091000  1.0
  C  C259  1  0.59758000  0.73680000  0.28909000  1.0
  C  C260  1  0.82871000  0.24858000  0.81959000  1.0
  C  C261  1  0.32872000  0.25142000  0.68041000  1.0
  C  C262  1  0.17128000  0.75142000  0.18041000  1.0
  C  C263  1  0.67128000  0.74858000  0.31959000  1.0
  C  C264  1  0.64997000  0.17093000  0.00307000  1.0
  C  C265  1  0.14997000  0.32907000  0.49693000  1.0
  C  C266  1  0.35003000  0.82906000  0.99693000  1.0
  C  C267  1  0.85003000  0.67094000  0.50307000  1.0
  C  C268  1  0.72876000  0.15900000  0.97549000  1.0
  C  C269  1  0.22876000  0.34100000  0.52451000  1.0
  C  C270  1  0.27124000  0.84100000  0.02451000  1.0
  C  C271  1  0.77124000  0.65900000  0.47549000  1.0
  C  C272  1  0.76461000  0.09258000  0.96264000  1.0
  C  C273  1  0.26462000  0.40742000  0.53735000  1.0
  C  C274  1  0.23539000  0.90742000  0.03736000  1.0
  C  C275  1  0.73538000  0.59258000  0.46264000  1.0
  C  C276  1  0.71863000  0.04196000  0.98176000  1.0
  C  C277  1  0.21863000  0.45804000  0.51824000  1.0
  C  C278  1  0.28137000  0.95803000  0.01825000  1.0
  C  C279  1  0.78137000  0.54197000  0.48176000  1.0
  C  C280  1  0.64011000  0.05773000  0.00914000  1.0
  C  C281  1  0.14011000  0.44226000  0.49086000  1.0
  C  C282  1  0.35989000  0.94226000  0.99086000  1.0
  C  C283  1  0.85989000  0.55774000  0.50914000  1.0
  C  C284  1  0.84086000  0.07676000  0.92954000  1.0
  C  C285  1  0.34086000  0.42324000  0.57046000  1.0
  C  C286  1  0.15915000  0.92323000  0.07046000  1.0
  C  C287  1  0.65914000  0.57677000  0.42954000  1.0
  C  C288  1  0.89123000  0.12798000  0.91288000  1.0
  C  C289  1  0.39123000  0.37202000  0.58712000  1.0
  C  C290  1  0.10877000  0.87202000  0.08712000  1.0
  C  C291  1  0.60877000  0.62798000  0.41288000  1.0
  C  C292  1  0.95506000  0.11280000  0.87805000  1.0
  C  C293  1  0.45505000  0.38720000  0.62195000  1.0
  C  C294  1  0.04494000  0.88719000  0.12195000  1.0
  C  C295  1  0.54494000  0.61280000  0.37805000  1.0
  C  C296  1  0.97122000  0.04497000  0.85782000  1.0
  C  C297  1  0.47121000  0.45503000  0.64218000  1.0
  C  C298  1  0.02878000  0.95503000  0.14219000  1.0
  C  C299  1  0.52878000  0.54497000  0.35782000  1.0
  C  C300  1  0.92629000  0.99332000  0.87615000  1.0
  C  C301  1  0.42628000  0.50668000  0.62385000  1.0
  C  C302  1  0.07372000  0.00668000  0.12385000  1.0
  C  C303  1  0.57372000  0.49332000  0.37615000  1.0
  C  C304  1  0.86245000  0.00911000  0.91093000  1.0
  C  C305  1  0.36245000  0.49089000  0.58907000  1.0
  C  C306  1  0.13755000  0.99088000  0.08908000  1.0
  C  C307  1  0.63755000  0.50911000  0.41093000  1.0
  C  C308  1  0.02826000  0.97846000  0.78680000  1.0
  C  C309  1  0.52826000  0.52154000  0.71320000  1.0
  C  C310  1  0.97174000  0.02153000  0.21320000  1.0
  C  C311  1  0.47174000  0.47846000  0.28680000  1.0
  C  C312  1  0.10840000  0.96719000  0.75831000  1.0
  C  C313  1  0.60840000  0.53281000  0.74169000  1.0
  C  C314  1  0.89159000  0.03280000  0.24169000  1.0
  C  C315  1  0.39160000  0.46720000  0.25831000  1.0
  C  C316  1  0.10743000  0.91595000  0.72184000  1.0
  C  C317  1  0.60744000  0.58405000  0.77816000  1.0
  C  C318  1  0.89256000  0.08405000  0.27816000  1.0
  C  C319  1  0.39257000  0.41595000  0.22184000  1.0
  C  C320  1  0.02694000  0.87352000  0.71124000  1.0
  C  C321  1  0.52695000  0.62648000  0.78876000  1.0
  C  C322  1  0.97305000  0.12648000  0.28876000  1.0
  C  C323  1  0.47306000  0.37353000  0.21124000  1.0
  C  C324  1  0.94688000  0.88595000  0.73944000  1.0
  C  C325  1  0.44688000  0.61404000  0.76056000  1.0
  C  C326  1  0.05311000  0.11404000  0.26056000  1.0
  C  C327  1  0.55312000  0.38596000  0.23944000  1.0
  C  C328  1  0.94700000  0.93664000  0.77638000  1.0
  C  C329  1  0.44700000  0.56336000  0.72362000  1.0
  C  C330  1  0.05300000  0.06335000  0.22362000  1.0
  C  C331  1  0.55300000  0.43664000  0.27638000  1.0
  C  C332  1  0.02675000  0.81903000  0.67276000  1.0
  C  C333  1  0.52675000  0.68097000  0.82724000  1.0
  C  C334  1  0.97324000  0.18097000  0.32724000  1.0
  C  C335  1  0.47325000  0.31903000  0.17276000  1.0
  C  C336  1  0.11247000  0.79082000  0.65321000  1.0
  C  C337  1  0.61247000  0.70918000  0.84679000  1.0
  C  C338  1  0.88753000  0.20918000  0.34679000  1.0
  C  C339  1  0.38753000  0.29082000  0.15320000  1.0
  C  C340  1  0.10997000  0.73870000  0.61718000  1.0
  C  C341  1  0.60997000  0.76130000  0.88282000  1.0
  C  C342  1  0.89003000  0.26130000  0.38282000  1.0
  C  C343  1  0.39003000  0.23870000  0.11718000  1.0
  C  C344  1  0.94423000  0.73918000  0.61692000  1.0
  C  C345  1  0.44423000  0.76082000  0.88308000  1.0
  C  C346  1  0.05577000  0.26082000  0.38308000  1.0
  C  C347  1  0.55577000  0.23918000  0.11692000  1.0
  C  C348  1  0.94107000  0.79119000  0.65296000  1.0
  C  C349  1  0.44108000  0.70881000  0.84703000  1.0
  C  C350  1  0.05892000  0.20881000  0.34704000  1.0
  C  C351  1  0.55892000  0.29119000  0.15296000  1.0
  C  C352  1  0.43576000  0.83967000  0.20895000  1.0
  C  C353  1  0.93575000  0.66032000  0.29105000  1.0
  C  C354  1  0.56425000  0.16033000  0.79105000  1.0
  C  C355  1  0.06426000  0.33967000  0.70895000  1.0
  C  C356  1  0.42307000  0.89320000  0.18113000  1.0
  C  C357  1  0.92306000  0.60680000  0.31887000  1.0
  C  C358  1  0.57694000  0.10680000  0.81887000  1.0
  C  C359  1  0.07694000  0.39320000  0.68113000  1.0
  C  C360  1  0.34139000  0.93472000  0.18449000  1.0
  C  C361  1  0.84139000  0.56528000  0.31550000  1.0
  C  C362  1  0.65861000  0.06529000  0.81551000  1.0
  C  C363  1  0.15861000  0.43471000  0.68449000  1.0
  C  C364  1  0.33343000  0.98470000  0.15840000  1.0
  C  C365  1  0.83342000  0.51529000  0.34160000  1.0
  C  C366  1  0.66657000  0.01530000  0.84160000  1.0
  C  C367  1  0.16658000  0.48470000  0.65840000  1.0
  C  C368  1  0.40545000  0.99255000  0.12793000  1.0
  C  C369  1  0.90545000  0.50745000  0.37207000  1.0
  C  C370  1  0.59455000  0.00746000  0.87207000  1.0
  C  C371  1  0.09454000  0.49255000  0.62793000  1.0
  C  C372  1  0.48566000  0.94967000  0.12383000  1.0
  C  C373  1  0.98566000  0.55033000  0.37617000  1.0
  C  C374  1  0.51434000  0.05033000  0.87617000  1.0
  C  C375  1  0.01433000  0.44967000  0.62383000  1.0
  C  C376  1  0.49497000  0.90091000  0.15057000  1.0
  C  C377  1  0.99497000  0.59908000  0.34943000  1.0
  C  C378  1  0.50502000  0.09909000  0.84943000  1.0
  C  C379  1  0.00503000  0.40091000  0.65057000  1.0
  C  C380  1  0.39876000  0.04752000  0.10062000  1.0
  C  C381  1  0.89876000  0.45248000  0.39937000  1.0
  C  C382  1  0.60123000  0.95248000  0.89938000  1.0
  C  C383  1  0.10123000  0.54752000  0.60062000  1.0
  C  C384  1  0.29994000  0.67807000  0.31201000  1.0
  C  C385  1  0.79995000  0.82192000  0.18799000  1.0
  C  C386  1  0.70005000  0.32194000  0.68799000  1.0
  C  C387  1  0.20006000  0.17807000  0.81201000  1.0
  C  C388  1  0.25120000  0.67884000  0.35554000  1.0
  C  C389  1  0.75122000  0.82115000  0.14446000  1.0
  C  C390  1  0.74878000  0.32116000  0.64446000  1.0
  C  C391  1  0.24879000  0.17884000  0.85554000  1.0
  C  C392  1  0.25590000  0.62211000  0.37651000  1.0
  C  C393  1  0.75592000  0.87789000  0.12349000  1.0
  C  C394  1  0.74408000  0.37790000  0.62349000  1.0
  C  C395  1  0.24409000  0.12211000  0.87651000  1.0
  C  C396  1  0.21285000  0.62350000  0.41744000  1.0
  C  C397  1  0.71286000  0.87649000  0.08256000  1.0
  C  C398  1  0.78714000  0.37651000  0.58256000  1.0
  C  C399  1  0.28714000  0.12350000  0.91744000  1.0
  C  C400  1  0.16408000  0.68161000  0.43810000  1.0
  C  C401  1  0.66410000  0.81837000  0.06189000  1.0
  C  C402  1  0.83591000  0.31839000  0.56190000  1.0
  C  C403  1  0.33591000  0.18162000  0.93810000  1.0
  C  C404  1  0.16025000  0.73862000  0.41735000  1.0
  C  C405  1  0.66027000  0.76137000  0.08265000  1.0
  C  C406  1  0.83974000  0.26138000  0.58265000  1.0
  C  C407  1  0.33974000  0.23862000  0.91735000  1.0
  C  C408  1  0.20326000  0.73718000  0.37642000  1.0
  C  C409  1  0.70328000  0.76281000  0.12357000  1.0
  C  C410  1  0.79672000  0.26282000  0.62357000  1.0
  C  C411  1  0.29673000  0.23718000  0.87642000  1.0
  C  C412  1  0.11346000  0.68203000  0.48108000  1.0
  C  C413  1  0.61347000  0.81796000  0.01891000  1.0
  C  C414  1  0.88654000  0.31798000  0.51891000  1.0
  C  C415  1  0.38654000  0.18203000  0.98108000  1.0
  N  N416  1  0.42596000  0.66381000  0.20153000  1.0
  N  N417  1  0.92597000  0.83619000  0.29847000  1.0
  N  N418  1  0.57403000  0.33618000  0.79848000  1.0
  N  N419  1  0.07403000  0.16382000  0.70153000  1.0
  N  N420  1  0.54689000  0.34183000  0.98884000  1.0
  N  N421  1  0.04689000  0.15818000  0.51116000  1.0
  N  N422  1  0.45311000  0.65818000  0.01116000  1.0
  N  N423  1  0.95311000  0.84183000  0.48884000  1.0
  N  N424  1  0.99414000  0.25455000  0.79904000  1.0
  N  N425  1  0.49413000  0.24545000  0.70096000  1.0
  N  N426  1  0.00587000  0.74544000  0.20097000  1.0
  N  N427  1  0.50587000  0.75455000  0.29904000  1.0
  N  N428  1  0.60437000  0.12125000  0.01944000  1.0
  N  N429  1  0.10438000  0.37875000  0.48056000  1.0
  N  N430  1  0.39562000  0.87874000  0.98056000  1.0
  N  N431  1  0.89562000  0.62126000  0.51944000  1.0
  N  N432  1  0.03225000  0.03188000  0.82181000  1.0
  N  N433  1  0.53225000  0.46812000  0.67819000  1.0
  N  N434  1  0.96775000  0.96811000  0.17820000  1.0
  N  N435  1  0.46775000  0.53188000  0.32181000  1.0
  N  N436  1  0.02705000  0.71276000  0.59891000  1.0
  N  N437  1  0.52705000  0.78724000  0.90109000  1.0
  N  N438  1  0.97294000  0.28724000  0.40109000  1.0
  N  N439  1  0.47295000  0.21276000  0.09891000  1.0
  O  O440  1  0.35126000  0.62816000  0.29567000  1.0
  O  O441  1  0.85127000  0.87183000  0.20433000  1.0
  O  O442  1  0.64875000  0.37185000  0.70434000  1.0
  O  O443  1  0.14874000  0.12816000  0.79567000  1.0
  O  O444  1  0.28950000  0.73117000  0.29392000  1.0
  O  O445  1  0.78951000  0.76882000  0.20608000  1.0
  O  O446  1  0.71049000  0.26883000  0.70608000  1.0
  O  O447  1  0.21049000  0.23117000  0.79392000  1.0
  O  O448  1  0.12064000  0.62818000  0.49855000  1.0
  O  O449  1  0.62064000  0.87181000  0.00145000  1.0
  O  O450  1  0.87936000  0.37182000  0.50145000  1.0
  O  O451  1  0.37936000  0.12818000  0.99855000  1.0
  O  O452  1  0.06493000  0.73310000  0.49824000  1.0
  O  O453  1  0.56494000  0.76689000  0.00175000  1.0
  O  O454  1  0.93508000  0.26691000  0.50176000  1.0
  O  O455  1  0.43507000  0.23310000  0.99824000  1.0
  O  O456  1  0.35928000  0.82157000  0.22844000  1.0
  O  O457  1  0.85928000  0.67843000  0.27157000  1.0
  O  O458  1  0.64072000  0.17843000  0.77157000  1.0
  O  O459  1  0.14073000  0.32157000  0.72844000  1.0
  O  O460  1  0.51638000  0.81296000  0.21172000  1.0
  O  O461  1  0.01638000  0.68703000  0.28828000  1.0
  O  O462  1  0.48362000  0.18704000  0.78828000  1.0
  O  O463  1  0.98363000  0.31296000  0.71172000  1.0
  O  O464  1  0.32927000  0.08769000  0.10433000  1.0
  O  O465  1  0.82927000  0.41230000  0.39567000  1.0
  O  O466  1  0.67073000  0.91231000  0.89567000  1.0
  O  O467  1  0.17072000  0.58769000  0.60433000  1.0
  O  O468  1  0.47089000  0.04986000  0.07400000  1.0
  O  O469  1  0.97089000  0.45014000  0.42600000  1.0
  O  O470  1  0.52911000  0.95014000  0.92600000  1.0
  O  O471  1  0.02910000  0.54986000  0.57400000  1.0
