# generated using pymatgen
data_TbH6C6SNO8
_symmetry_space_group_name_H-M   'P 1'
_cell_length_a   6.44013000
_cell_length_b   7.67020000
_cell_length_c   20.15330000
_cell_angle_alpha   90.00050000
_cell_angle_beta   90.00010000
_cell_angle_gamma   75.15000000
_symmetry_Int_Tables_number   1
_chemical_formula_structural   TbH6C6SNO8
_chemical_formula_sum   'Tb4 H24 C24 S4 N4 O32'
_cell_volume   962.26420038
_cell_formula_units_Z   4
loop_
 _symmetry_equiv_pos_site_id
 _symmetry_equiv_pos_as_xyz
  1  'x, y, z'
loop_
 _atom_site_type_symbol
 _atom_site_label
 _atom_site_symmetry_multiplicity
 _atom_site_fract_x
 _atom_site_fract_y
 _atom_site_fract_z
 _atom_site_occupancy
  Tb  Tb0  1  0.31884000  0.14460000  0.57220000  1.0
  Tb  Tb1  1  0.18115000  0.85540000  0.07220000  1.0
  Tb  Tb2  1  0.68115000  0.85540000  0.42780000  1.0
  Tb  Tb3  1  0.81885000  0.14459000  0.92780000  1.0
  H  H4  1  0.56099000  0.51977000  0.66788000  1.0
  H  H5  1  0.93899000  0.48023000  0.16788000  1.0
  H  H6  1  0.43901000  0.48024000  0.33212000  1.0
  H  H7  1  0.06102000  0.51977000  0.83212000  1.0
  H  H8  1  0.64574000  0.30894000  0.76569000  1.0
  H  H9  1  0.85424000  0.69105000  0.26570000  1.0
  H  H10  1  0.35425000  0.69107000  0.23430000  1.0
  H  H11  1  0.14576000  0.30895000  0.73430000  1.0
  H  H12  1  0.41478000  0.96346000  0.80759000  1.0
  H  H13  1  0.08524000  0.03653000  0.30759000  1.0
  H  H14  1  0.58522000  0.03654000  0.19241000  1.0
  H  H15  1  0.91477000  0.96347000  0.69241000  1.0
  H  H16  1  0.51130000  0.73321000  0.90006000  1.0
  H  H17  1  0.98870000  0.26678000  0.40006000  1.0
  H  H18  1  0.48869000  0.26679000  0.09994000  1.0
  H  H19  1  0.01130000  0.73322000  0.59994000  1.0
  H  H20  1  0.25962000  0.47802000  0.48689000  1.0
  H  H21  1  0.24038000  0.52198000  0.98689000  1.0
  H  H22  1  0.74038000  0.52198000  0.51311000  1.0
  H  H23  1  0.75962000  0.47802000  0.01311000  1.0
  H  H24  1  0.39160000  0.30601000  0.44368000  1.0
  H  H25  1  0.10839000  0.69399000  0.94368000  1.0
  H  H26  1  0.60839000  0.69400000  0.55632000  1.0
  H  H27  1  0.89160000  0.30600000  0.05632000  1.0
  C  C28  1  0.42941000  0.89413000  0.67537000  1.0
  C  C29  1  0.07059000  0.10585000  0.17537000  1.0
  C  C30  1  0.57059000  0.10587000  0.32463000  1.0
  C  C31  1  0.92941000  0.89415000  0.82464000  1.0
  C  C32  1  0.48083000  0.76027000  0.73031000  1.0
  C  C33  1  0.01916000  0.23973000  0.23032000  1.0
  C  C34  1  0.51917000  0.23973000  0.26969000  1.0
  C  C35  1  0.98084000  0.76027000  0.76968000  1.0
  C  C36  1  0.54610000  0.57473000  0.71805000  1.0
  C  C37  1  0.95388000  0.42527000  0.21805000  1.0
  C  C38  1  0.45390000  0.42527000  0.28196000  1.0
  C  C39  1  0.04612000  0.57473000  0.78196000  1.0
  C  C40  1  0.59321000  0.45496000  0.77061000  1.0
  C  C41  1  0.90677000  0.54503000  0.27061000  1.0
  C  C42  1  0.40679000  0.54504000  0.22939000  1.0
  C  C43  1  0.09323000  0.45497000  0.72939000  1.0
  C  C44  1  0.46388000  0.82022000  0.79615000  1.0
  C  C45  1  0.03613000  0.17977000  0.29615000  1.0
  C  C46  1  0.53612000  0.17977000  0.20385000  1.0
  C  C47  1  0.96387000  0.82023000  0.70385000  1.0
  C  C48  1  0.51414000  0.69840000  0.84769000  1.0
  C  C49  1  0.98587000  0.30160000  0.34769000  1.0
  C  C50  1  0.48586000  0.30160000  0.15231000  1.0
  C  C51  1  0.01413000  0.69840000  0.65231000  1.0
  S  S52  1  0.78444000  0.17274000  0.55461000  1.0
  S  S53  1  0.71556000  0.82726000  0.05461000  1.0
  S  S54  1  0.21556000  0.82726000  0.44539000  1.0
  S  S55  1  0.28444000  0.17274000  0.94539000  1.0
  N  N56  1  0.57827000  0.51817000  0.83422000  1.0
  N  N57  1  0.92173000  0.48181000  0.33422000  1.0
  N  N58  1  0.42174000  0.48183000  0.16577000  1.0
  N  N59  1  0.07827000  0.51819000  0.66578000  1.0
  O  O60  1  0.45517000  0.84034000  0.61496000  1.0
  O  O61  1  0.04482000  0.15967000  0.11496000  1.0
  O  O62  1  0.54483000  0.15966000  0.38504000  1.0
  O  O63  1  0.95518000  0.84033000  0.88505000  1.0
  O  O64  1  0.35855000  0.06111000  0.68881000  1.0
  O  O65  1  0.14146000  0.93887000  0.18881000  1.0
  O  O66  1  0.64145000  0.93889000  0.31119000  1.0
  O  O67  1  0.85855000  0.06113000  0.81119000  1.0
  O  O68  1  0.62429000  0.40667000  0.88428000  1.0
  O  O69  1  0.87570000  0.59331000  0.38429000  1.0
  O  O70  1  0.37571000  0.59333000  0.11571000  1.0
  O  O71  1  0.12429000  0.40669000  0.61572000  1.0
  O  O72  1  0.82717000  0.29893000  0.50517000  1.0
  O  O73  1  0.67282000  0.70106000  0.00517000  1.0
  O  O74  1  0.17283000  0.70106000  0.49483000  1.0
  O  O75  1  0.32718000  0.29893000  0.99483000  1.0
  O  O76  1  0.98857000  0.07322000  0.58659000  1.0
  O  O77  1  0.51142000  0.92678000  0.08659000  1.0
  O  O78  1  0.01142000  0.92677000  0.41341000  1.0
  O  O79  1  0.48858000  0.07323000  0.91341000  1.0
  O  O80  1  0.62222000  0.26036000  0.60540000  1.0
  O  O81  1  0.87777000  0.73963000  0.10540000  1.0
  O  O82  1  0.37777000  0.73963000  0.39460000  1.0
  O  O83  1  0.12223000  0.26037000  0.89460000  1.0
  O  O84  1  0.68095000  0.03578000  0.52268000  1.0
  O  O85  1  0.81904000  0.96422000  0.02268000  1.0
  O  O86  1  0.31904000  0.96423000  0.47732000  1.0
  O  O87  1  0.18096000  0.03578000  0.97732000  1.0
  O  O88  1  0.30624000  0.34380000  0.48432000  1.0
  O  O89  1  0.19376000  0.65620000  0.98432000  1.0
  O  O90  1  0.69376000  0.65620000  0.51568000  1.0
  O  O91  1  0.80624000  0.34380000  0.01568000  1.0
