# generated using pymatgen
data_CdH10C8N5ClO4
_symmetry_space_group_name_H-M   'P 1'
_cell_length_a   7.52447000
_cell_length_b   8.77494000
_cell_length_c   10.74740000
_cell_angle_alpha   70.27790000
_cell_angle_beta   84.36010000
_cell_angle_gamma   65.05980000
_symmetry_Int_Tables_number   1
_chemical_formula_structural   CdH10C8N5ClO4
_chemical_formula_sum   'Cd2 H20 C16 N10 Cl2 O8'
_cell_volume   604.89313545
_cell_formula_units_Z   2
loop_
 _symmetry_equiv_pos_site_id
 _symmetry_equiv_pos_as_xyz
  1  'x, y, z'
loop_
 _atom_site_type_symbol
 _atom_site_label
 _atom_site_symmetry_multiplicity
 _atom_site_fract_x
 _atom_site_fract_y
 _atom_site_fract_z
 _atom_site_occupancy
  Cd  Cd0  1  0.17314000  0.26554000  0.09493000  1.0
  Cd  Cd1  1  0.82686000  0.73446000  0.90507000  1.0
  H  H2  1  0.23366000  0.34452000  0.83028000  1.0
  H  H3  1  0.76633000  0.65549000  0.16972000  1.0
  H  H4  1  0.29022000  0.13594000  0.88610000  1.0
  H  H5  1  0.70978000  0.86406000  0.11389000  1.0
  H  H6  1  0.20823000  0.94412000  0.06425000  1.0
  H  H7  1  0.79177000  0.05588000  0.93575000  1.0
  H  H8  1  0.01187000  0.99913000  0.13884000  1.0
  H  H9  1  0.98813000  0.00087000  0.86116000  1.0
  H  H10  1  0.19672000  0.67259000  0.30123000  1.0
  H  H11  1  0.80327000  0.32740000  0.69878000  1.0
  H  H12  1  0.46244000  0.48161000  0.19166000  1.0
  H  H13  1  0.53756000  0.51838000  0.80835000  1.0
  H  H14  1  0.66164000  0.06238000  0.54754000  1.0
  H  H15  1  0.33837000  0.93760000  0.45247000  1.0
  H  H16  1  0.40912000  0.23787000  0.67215000  1.0
  H  H17  1  0.59089000  0.76212000  0.32786000  1.0
  H  H18  1  0.83545000  0.05096000  0.36689000  1.0
  H  H19  1  0.16456000  0.94903000  0.63311000  1.0
  H  H20  1  0.78450000  0.25109000  0.22894000  1.0
  H  H21  1  0.21550000  0.74891000  0.77106000  1.0
  C  C22  1  0.12880000  0.58253000  0.56196000  1.0
  C  C23  1  0.87119000  0.41747000  0.43804000  1.0
  C  C24  1  0.27862000  0.47069000  0.49625000  1.0
  C  C25  1  0.72138000  0.52930000  0.50374000  1.0
  C  C26  1  0.29532000  0.53827000  0.35911000  1.0
  C  C27  1  0.70469000  0.46172000  0.64089000  1.0
  C  C28  1  0.44164000  0.43499000  0.29716000  1.0
  C  C29  1  0.55835000  0.56502000  0.70283000  1.0
  C  C30  1  0.55408000  0.19799000  0.49891000  1.0
  C  C31  1  0.44593000  0.80201000  0.50110000  1.0
  C  C32  1  0.41181000  0.29728000  0.56569000  1.0
  C  C33  1  0.58820000  0.70272000  0.43432000  1.0
  C  C34  1  0.72099000  0.16373000  0.29592000  1.0
  C  C35  1  0.27902000  0.83627000  0.70408000  1.0
  C  C36  1  0.64385000  0.09279000  0.21090000  1.0
  C  C37  1  0.35615000  0.90723000  0.78910000  1.0
  N  N38  1  0.10342000  0.53899000  0.69344000  1.0
  N  N39  1  0.89657000  0.46101000  0.30655000  1.0
  N  N40  1  0.95266000  0.68235000  0.70739000  1.0
  N  N41  1  0.04734000  0.31764000  0.29261000  1.0
  N  N42  1  0.88884000  0.80798000  0.59000000  1.0
  N  N43  1  0.11116000  0.19201000  0.41000000  1.0
  N  N44  1  0.99689000  0.74907000  0.49692000  1.0
  N  N45  1  0.00310000  0.25093000  0.50308000  1.0
  N  N46  1  0.56840000  0.26802000  0.36696000  1.0
  N  N47  1  0.43160000  0.73198000  0.63304000  1.0
  Cl  Cl48  1  0.19048000  0.57943000  0.01154000  1.0
  Cl  Cl49  1  0.80952000  0.42057000  0.98846000  1.0
  O  O50  1  0.46865000  0.11119000  0.21974000  1.0
  O  O51  1  0.53135000  0.88882000  0.78026000  1.0
  O  O52  1  0.77187000  0.01525000  0.13980000  1.0
  O  O53  1  0.22813000  0.98477000  0.86020000  1.0
  O  O54  1  0.31465000  0.23217000  0.90129000  1.0
  O  O55  1  0.68535000  0.76784000  0.09871000  1.0
  O  O56  1  0.15105000  0.98487000  0.13944000  1.0
  O  O57  1  0.84896000  0.01513000  0.86056000  1.0
