# generated using pymatgen
data_K2H8C14Cl4O5
_symmetry_space_group_name_H-M   'P 1'
_cell_length_a   4.26154000
_cell_length_b   12.82800000
_cell_length_c   15.95332441
_cell_angle_alpha   86.04560554
_cell_angle_beta   82.32414952
_cell_angle_gamma   90.00560000
_symmetry_Int_Tables_number   1
_chemical_formula_structural   K2H8C14Cl4O5
_chemical_formula_sum   'K4 H16 C28 Cl8 O10'
_cell_volume   862.21046908
_cell_formula_units_Z   2
loop_
 _symmetry_equiv_pos_site_id
 _symmetry_equiv_pos_as_xyz
  1  'x, y, z'
loop_
 _atom_site_type_symbol
 _atom_site_label
 _atom_site_symmetry_multiplicity
 _atom_site_fract_x
 _atom_site_fract_y
 _atom_site_fract_z
 _atom_site_occupancy
  K  K0  1  0.31033000  0.39461000  0.93320000  1.0
  K  K1  1  0.24297000  0.10536000  0.06675000  1.0
  K  K2  1  0.68968000  0.60539000  0.06680000  1.0
  K  K3  1  0.75703000  0.89464000  0.93325000  1.0
  H  H4  1  0.92869000  0.48330000  0.58412000  1.0
  H  H5  1  0.51168000  0.01678000  0.41586000  1.0
  H  H6  1  0.07130000  0.51670000  0.41588000  1.0
  H  H7  1  0.48832000  0.98322000  0.58414000  1.0
  H  H8  1  0.42258000  0.76955000  0.62980000  1.0
  H  H9  1  0.05232000  0.73020000  0.37039000  1.0
  H  H10  1  0.57742000  0.23045000  0.37020000  1.0
  H  H11  1  0.94768000  0.26980000  0.62961000  1.0
  H  H12  1  0.54989000  0.75662000  0.77732000  1.0
  H  H13  1  0.32665000  0.74320000  0.22281000  1.0
  H  H14  1  0.45012000  0.24338000  0.22268000  1.0
  H  H15  1  0.67335000  0.25680000  0.77719000  1.0
  H  H16  1  0.86341000  0.22335000  0.95597000  1.0
  H  H17  1  0.81928000  0.27651000  0.04390000  1.0
  H  H18  1  0.13659000  0.77665000  0.04403000  1.0
  H  H19  1  0.18071000  0.72349000  0.95610000  1.0
  C  C20  1  0.80299000  0.61257000  0.76646000  1.0
  C  C21  1  0.56835000  0.88741000  0.23357000  1.0
  C  C22  1  0.19701000  0.38743000  0.23354000  1.0
  C  C23  1  0.43165000  0.11259000  0.76643000  1.0
  C  C24  1  0.90280000  0.53568000  0.71057000  1.0
  C  C25  1  0.61220000  0.96436000  0.28942000  1.0
  C  C26  1  0.09720000  0.46432000  0.28943000  1.0
  C  C27  1  0.38780000  0.03564000  0.71058000  1.0
  C  C28  1  0.84152000  0.54279000  0.62654000  1.0
  C  C29  1  0.46703000  0.95724000  0.37347000  1.0
  C  C30  1  0.15848000  0.45720000  0.37346000  1.0
  C  C31  1  0.53297000  0.04276000  0.62653000  1.0
  C  C32  1  0.66860000  0.62728000  0.59831000  1.0
  C  C33  1  0.26626000  0.87267000  0.40175000  1.0
  C  C34  1  0.33140000  0.37272000  0.40169000  1.0
  C  C35  1  0.73373000  0.12733000  0.59825000  1.0
  C  C36  1  0.56128000  0.70477000  0.65212000  1.0
  C  C37  1  0.21296000  0.79509000  0.34800000  1.0
  C  C38  1  0.43872000  0.29523000  0.34788000  1.0
  C  C39  1  0.78704000  0.20491000  0.65200000  1.0
  C  C40  1  0.63345000  0.69682000  0.73470000  1.0
  C  C41  1  0.36742000  0.80308000  0.26539000  1.0
  C  C42  1  0.36656000  0.30317000  0.26530000  1.0
  C  C43  1  0.63258000  0.19692000  0.73461000  1.0
  C  C44  1  0.86558000  0.61187000  0.85753000  1.0
  C  C45  1  0.72203000  0.88813000  0.14250000  1.0
  C  C46  1  0.13442000  0.38813000  0.14247000  1.0
  C  C47  1  0.27797000  0.11187000  0.85750000  1.0
  Cl  Cl48  1  0.11493000  0.42680000  0.74130000  1.0
  Cl  Cl49  1  0.85503000  0.07323000  0.25864000  1.0
  Cl  Cl50  1  0.88508000  0.57320000  0.25870000  1.0
  Cl  Cl51  1  0.14497000  0.92677000  0.74136000  1.0
  Cl  Cl52  1  0.58535000  0.63576000  0.49483000  1.0
  Cl  Cl53  1  0.07988000  0.86415000  0.50529000  1.0
  Cl  Cl54  1  0.41465000  0.36424000  0.50517000  1.0
  Cl  Cl55  1  0.92012000  0.13585000  0.49471000  1.0
  O  O56  1  0.69972000  0.24990000  0.99993000  1.0
  O  O57  1  0.30028000  0.75010000  0.00007000  1.0
  O  O58  1  0.95120000  0.69904000  0.88123000  1.0
  O  O59  1  0.83169000  0.80100000  0.11883000  1.0
  O  O60  1  0.04880000  0.30096000  0.11877000  1.0
  O  O61  1  0.16831000  0.19900000  0.88117000  1.0
  O  O62  1  0.82170000  0.52760000  0.90454000  1.0
  O  O63  1  0.72492000  0.97237000  0.09546000  1.0
  O  O64  1  0.17831000  0.47240000  0.09546000  1.0
  O  O65  1  0.27507000  0.02764000  0.90454000  1.0
