# generated using pymatgen
data_Cu2H9C17N8
_symmetry_space_group_name_H-M   'P 1'
_cell_length_a   5.76762000
_cell_length_b   10.91320000
_cell_length_c   13.67230000
_cell_angle_alpha   93.87690000
_cell_angle_beta   100.96100000
_cell_angle_gamma   99.55470000
_symmetry_Int_Tables_number   1
_chemical_formula_structural   Cu2H9C17N8
_chemical_formula_sum   'Cu4 H18 C34 N16'
_cell_volume   828.77506391
_cell_formula_units_Z   2
loop_
 _symmetry_equiv_pos_site_id
 _symmetry_equiv_pos_as_xyz
  1  'x, y, z'
loop_
 _atom_site_type_symbol
 _atom_site_label
 _atom_site_symmetry_multiplicity
 _atom_site_fract_x
 _atom_site_fract_y
 _atom_site_fract_z
 _atom_site_occupancy
  Cu  Cu0  1  0.50816000  0.91952000  0.38332000  1.0
  Cu  Cu1  1  0.49184000  0.08048000  0.61668000  1.0
  Cu  Cu2  1  0.91714000  0.75506000  0.28619000  1.0
  Cu  Cu3  1  0.08286000  0.24494000  0.71381000  1.0
  H  H4  1  0.83480000  0.51273000  0.22401000  1.0
  H  H5  1  0.16520000  0.48728000  0.77599000  1.0
  H  H6  1  0.87665000  0.30326000  0.15723000  1.0
  H  H7  1  0.12335000  0.69674000  0.84277000  1.0
  H  H8  1  0.16186000  0.25147000  0.97672000  1.0
  H  H9  1  0.83814000  0.74853000  0.02328000  1.0
  H  H10  1  0.12380000  0.46190000  0.04027000  1.0
  H  H11  1  0.87619000  0.53810000  0.95973000  1.0
  H  H12  1  0.73983000  0.16636000  0.92789000  1.0
  H  H13  1  0.26018000  0.83364000  0.07211000  1.0
  H  H14  1  0.92018000  0.93852000  0.09736000  1.0
  H  H15  1  0.07984000  0.06149000  0.90264000  1.0
  H  H16  1  0.73629000  0.97545000  0.24260000  1.0
  H  H17  1  0.26371000  0.02455000  0.75740000  1.0
  H  H18  1  0.38208000  0.22806000  0.39074000  1.0
  H  H19  1  0.61792000  0.77195000  0.60926000  1.0
  H  H20  1  0.56693000  0.18967000  0.24603000  1.0
  H  H21  1  0.43307000  0.81033000  0.75398000  1.0
  C  C22  1  0.42226000  0.61628000  0.18351000  1.0
  C  C23  1  0.57774000  0.38372000  0.81648000  1.0
  C  C24  1  0.47387000  0.50135000  0.13825000  1.0
  C  C25  1  0.52613000  0.49865000  0.86175000  1.0
  C  C26  1  0.68769000  0.45654000  0.16883000  1.0
  C  C27  1  0.31230000  0.54346000  0.83117000  1.0
  C  C28  1  0.71163000  0.33831000  0.13091000  1.0
  C  C29  1  0.28837000  0.66169000  0.86909000  1.0
  C  C30  1  0.51933000  0.26074000  0.06480000  1.0
  C  C31  1  0.48067000  0.73926000  0.93520000  1.0
  C  C32  1  0.31043000  0.30851000  0.03079000  1.0
  C  C33  1  0.68957000  0.69149000  0.96921000  1.0
  C  C34  1  0.28832000  0.42706000  0.06621000  1.0
  C  C35  1  0.71168000  0.57294000  0.93379000  1.0
  C  C36  1  0.51861000  0.12675000  0.03533000  1.0
  C  C37  1  0.48140000  0.87326000  0.96467000  1.0
  C  C38  1  0.63781000  0.09265000  0.96076000  1.0
  C  C39  1  0.36220000  0.90735000  0.03924000  1.0
  C  C40  1  0.37820000  0.03228000  0.07652000  1.0
  C  C41  1  0.62181000  0.96772000  0.92349000  1.0
  C  C42  1  0.25904000  0.06039000  0.16031000  1.0
  C  C43  1  0.74097000  0.93961000  0.83969000  1.0
  C  C44  1  0.02449000  0.00094000  0.16187000  1.0
  C  C45  1  0.97551000  0.99906000  0.83813000  1.0
  C  C46  1  0.91996000  0.02154000  0.24410000  1.0
  C  C47  1  0.08004000  0.97845000  0.75589000  1.0
  C  C48  1  0.04813000  0.10306000  0.32794000  1.0
  C  C49  1  0.95187000  0.89694000  0.67206000  1.0
  C  C50  1  0.28103000  0.16505000  0.32593000  1.0
  C  C51  1  0.71897000  0.83495000  0.67408000  1.0
  C  C52  1  0.38396000  0.14343000  0.24409000  1.0
  C  C53  1  0.61605000  0.85657000  0.75591000  1.0
  C  C54  1  0.95821000  0.12248000  0.41955000  1.0
  C  C55  1  0.04178000  0.87751000  0.58045000  1.0
  N  N56  1  0.57346000  0.71194000  0.24443000  1.0
  N  N57  1  0.42653000  0.28807000  0.75557000  1.0
  N  N58  1  0.42998000  0.78599000  0.27642000  1.0
  N  N59  1  0.57001000  0.21402000  0.72358000  1.0
  N  N60  1  0.20207000  0.73689000  0.23328000  1.0
  N  N61  1  0.79793000  0.26311000  0.76672000  1.0
  N  N62  1  0.19360000  0.63323000  0.17472000  1.0
  N  N63  1  0.80639000  0.36677000  0.82528000  1.0
  N  N64  1  0.08507000  0.20287000  0.49822000  1.0
  N  N65  1  0.91493000  0.79713000  0.50178000  1.0
  N  N66  1  0.95376000  0.19276000  0.56847000  1.0
  N  N67  1  0.04624000  0.80723000  0.43153000  1.0
  N  N68  1  0.75233000  0.10995000  0.53591000  1.0
  N  N69  1  0.24767000  0.89005000  0.46409000  1.0
  N  N70  1  0.75203000  0.06264000  0.44207000  1.0
  N  N71  1  0.24796000  0.93736000  0.55793000  1.0
