# generated using pymatgen
data_CuH4C7N3
_symmetry_space_group_name_H-M   'P 1'
_cell_length_a   5.94952000
_cell_length_b   8.25917000
_cell_length_c   13.70600000
_cell_angle_alpha   89.99850000
_cell_angle_beta   90.00070000
_cell_angle_gamma   89.99890000
_symmetry_Int_Tables_number   1
_chemical_formula_structural   CuH4C7N3
_chemical_formula_sum   'Cu4 H16 C28 N12'
_cell_volume   673.48675843
_cell_formula_units_Z   4
loop_
 _symmetry_equiv_pos_site_id
 _symmetry_equiv_pos_as_xyz
  1  'x, y, z'
loop_
 _atom_site_type_symbol
 _atom_site_label
 _atom_site_symmetry_multiplicity
 _atom_site_fract_x
 _atom_site_fract_y
 _atom_site_fract_z
 _atom_site_occupancy
  Cu  Cu0  1  0.76025000  0.38370000  0.24549000  1.0
  Cu  Cu1  1  0.26027000  0.11630000  0.75451000  1.0
  Cu  Cu2  1  0.23974000  0.88368000  0.25452000  1.0
  Cu  Cu3  1  0.73974000  0.61630000  0.74548000  1.0
  H  H4  1  0.32224000  0.25907000  0.31766000  1.0
  H  H5  1  0.82220000  0.24091000  0.68233000  1.0
  H  H6  1  0.67783000  0.75907000  0.18232000  1.0
  H  H7  1  0.17779000  0.74096000  0.81767000  1.0
  H  H8  1  0.04596000  0.31757000  0.44816000  1.0
  H  H9  1  0.54595000  0.18240000  0.55182000  1.0
  H  H10  1  0.95406000  0.81761000  0.05181000  1.0
  H  H11  1  0.45403000  0.68244000  0.94818000  1.0
  H  H12  1  0.52475000  0.66076000  0.56824000  1.0
  H  H13  1  0.02480000  0.83922000  0.43177000  1.0
  H  H14  1  0.47517000  0.16078000  0.93177000  1.0
  H  H15  1  0.97519000  0.33924000  0.06823000  1.0
  H  H16  1  0.77718000  0.59255000  0.42702000  1.0
  H  H17  1  0.27720000  0.90745000  0.57299000  1.0
  H  H18  1  0.22280000  0.09253000  0.07299000  1.0
  H  H19  1  0.72280000  0.40749000  0.92701000  1.0
  C  C20  1  0.92025000  0.18720000  0.24349000  1.0
  C  C21  1  0.42026000  0.31278000  0.75651000  1.0
  C  C22  1  0.07979000  0.68716000  0.25651000  1.0
  C  C23  1  0.57978000  0.81280000  0.74348000  1.0
  C  C24  1  0.36165000  0.34713000  0.37420000  1.0
  C  C25  1  0.86163000  0.15285000  0.62580000  1.0
  C  C26  1  0.63839000  0.84714000  0.12579000  1.0
  C  C27  1  0.13836000  0.65289000  0.87421000  1.0
  C  C28  1  0.20738000  0.37948000  0.44757000  1.0
  C  C29  1  0.70737000  0.12049000  0.55243000  1.0
  C  C30  1  0.79263000  0.87951000  0.05243000  1.0
  C  C31  1  0.29261000  0.62053000  0.94758000  1.0
  C  C32  1  0.26315000  0.49547000  0.51864000  1.0
  C  C33  1  0.76316000  0.00450000  0.48136000  1.0
  C  C34  1  0.73684000  0.99551000  0.98135000  1.0
  C  C35  1  0.23683000  0.50452000  0.01865000  1.0
  C  C36  1  0.47325000  0.57321000  0.51310000  1.0
  C  C37  1  0.97327000  0.92677000  0.48690000  1.0
  C  C38  1  0.52672000  0.07323000  0.98690000  1.0
  C  C39  1  0.02673000  0.42680000  0.01310000  1.0
  C  C40  1  0.61477000  0.53336000  0.43633000  1.0
  C  C41  1  0.11478000  0.96663000  0.56368000  1.0
  C  C42  1  0.38522000  0.03335000  0.06367000  1.0
  C  C43  1  0.88521000  0.46667000  0.93633000  1.0
  C  C44  1  0.10517000  0.53559000  0.59220000  1.0
  C  C45  1  0.60519000  0.96438000  0.40779000  1.0
  C  C46  1  0.89481000  0.03564000  0.90779000  1.0
  C  C47  1  0.39481000  0.46440000  0.09221000  1.0
  N  N48  1  0.03873000  0.07310000  0.24632000  1.0
  N  N49  1  0.53879000  0.42688000  0.75368000  1.0
  N  N50  1  0.96126000  0.57310000  0.25370000  1.0
  N  N51  1  0.46123000  0.92688000  0.74631000  1.0
  N  N52  1  0.56187000  0.42258000  0.36787000  1.0
  N  N53  1  0.06186000  0.07741000  0.63214000  1.0
  N  N54  1  0.43816000  0.92258000  0.13213000  1.0
  N  N55  1  0.93813000  0.57744000  0.86787000  1.0
  N  N56  1  0.96527000  0.56945000  0.64851000  1.0
  N  N57  1  0.46529000  0.93053000  0.35148000  1.0
  N  N58  1  0.03473000  0.06948000  0.85149000  1.0
  N  N59  1  0.53473000  0.43055000  0.14851000  1.0
