# generated using pymatgen
data_ZnH10(C2O)4
_symmetry_space_group_name_H-M   'P 1'
_cell_length_a   4.79025000
_cell_length_b   9.39375000
_cell_length_c   10.99090000
_cell_angle_alpha   102.34800000
_cell_angle_beta   102.34600000
_cell_angle_gamma   90.14590000
_symmetry_Int_Tables_number   1
_chemical_formula_structural   ZnH10(C2O)4
_chemical_formula_sum   'Zn2 H20 C16 O8'
_cell_volume   471.35497861
_cell_formula_units_Z   2
loop_
 _symmetry_equiv_pos_site_id
 _symmetry_equiv_pos_as_xyz
  1  'x, y, z'
loop_
 _atom_site_type_symbol
 _atom_site_label
 _atom_site_symmetry_multiplicity
 _atom_site_fract_x
 _atom_site_fract_y
 _atom_site_fract_z
 _atom_site_occupancy
  Zn  Zn0  1  0.91002000  0.54996000  0.75155000  1.0
  Zn  Zn1  1  0.84220000  0.04980000  0.75185000  1.0
  H  H2  1  0.23228000  0.83664000  0.90933000  1.0
  H  H3  1  0.67568000  0.33711000  0.90856000  1.0
  H  H4  1  0.27016000  0.74109000  0.03172000  1.0
  H  H5  1  0.75972000  0.24216000  0.03127000  1.0
  H  H6  1  0.50705000  0.90459000  0.23180000  1.0
  H  H7  1  0.72068000  0.40614000  0.23152000  1.0
  H  H8  1  0.80697000  0.03256000  0.23525000  1.0
  H  H9  1  0.42388000  0.53305000  0.23480000  1.0
  H  H10  1  0.54329000  0.88531000  0.48290000  1.0
  H  H11  1  0.94251000  0.38471000  0.48192000  1.0
  H  H12  1  0.33485000  0.89074000  0.59756000  1.0
  H  H13  1  0.26416000  0.39211000  0.59676000  1.0
  H  H14  1  0.92190000  0.65541000  0.25928000  1.0
  H  H15  1  0.33650000  0.15418000  0.25731000  1.0
  H  H16  1  0.14011000  0.82764000  0.29022000  1.0
  H  H17  1  0.13751000  0.32236000  0.28631000  1.0
  H  H18  1  0.76131000  0.94206000  0.00498000  1.0
  H  H19  1  0.24178000  0.44156000  0.00482000  1.0
  H  H20  1  0.16189000  0.61397000  0.46989000  1.0
  H  H21  1  0.32221000  0.11791000  0.47180000  1.0
  C  C22  1  0.50307000  0.66213000  0.88766000  1.0
  C  C23  1  0.38398000  0.16218000  0.88790000  1.0
  C  C24  1  0.67374000  0.75008000  0.61485000  1.0
  C  C25  1  0.94364000  0.25033000  0.61485000  1.0
  C  C26  1  0.61675000  0.89861000  0.05442000  1.0
  C  C27  1  0.43549000  0.39884000  0.05418000  1.0
  C  C28  1  0.21936000  0.71037000  0.43804000  1.0
  C  C29  1  0.22397000  0.21116000  0.43797000  1.0
  C  C30  1  0.39224000  0.78668000  0.97352000  1.0
  C  C31  1  0.57976000  0.28719000  0.97329000  1.0
  C  C32  1  0.64503000  0.94827000  0.17981000  1.0
  C  C33  1  0.53115000  0.44902000  0.17947000  1.0
  C  C34  1  0.43995000  0.81564000  0.53114000  1.0
  C  C35  1  0.09417000  0.31608000  0.53065000  1.0
  C  C36  1  0.08862000  0.73152000  0.32368000  1.0
  C  C37  1  0.23203000  0.22935000  0.32158000  1.0
  O  O38  1  0.33094000  0.57250000  0.79931000  1.0
  O  O39  1  0.46872000  0.07211000  0.79987000  1.0
  O  O40  1  0.77316000  0.65096000  0.90322000  1.0
  O  O41  1  0.12898000  0.15108000  0.90340000  1.0
  O  O42  1  0.68271000  0.61182000  0.59879000  1.0
  O  O43  1  0.91879000  0.11204000  0.59902000  1.0
  O  O44  1  0.85550000  0.83459000  0.70370000  1.0
  O  O45  1  0.84923000  0.33461000  0.70362000  1.0
