# generated using pymatgen
data_Cu2H3C3I2N3
_symmetry_space_group_name_H-M   'P 1'
_cell_length_a   6.81606000
_cell_length_b   7.61316000
_cell_length_c   8.58144000
_cell_angle_alpha   63.71600000
_cell_angle_beta   89.99940000
_cell_angle_gamma   89.99960000
_symmetry_Int_Tables_number   1
_chemical_formula_structural   Cu2H3C3I2N3
_chemical_formula_sum   'Cu4 H6 C6 I4 N6'
_cell_volume   399.26585454
_cell_formula_units_Z   2
loop_
 _symmetry_equiv_pos_site_id
 _symmetry_equiv_pos_as_xyz
  1  'x, y, z'
loop_
 _atom_site_type_symbol
 _atom_site_label
 _atom_site_symmetry_multiplicity
 _atom_site_fract_x
 _atom_site_fract_y
 _atom_site_fract_z
 _atom_site_occupancy
  Cu  Cu0  1  0.21479000  0.02854000  0.62453000  1.0
  Cu  Cu1  1  0.71479000  0.97145000  0.37546000  1.0
  Cu  Cu2  1  0.71493000  0.34720000  0.62421000  1.0
  Cu  Cu3  1  0.21493000  0.65279000  0.37579000  1.0
  H  H4  1  0.93592000  0.40946000  0.27072000  1.0
  H  H5  1  0.43591000  0.59054000  0.72928000  1.0
  H  H6  1  0.43551000  0.31948000  0.27080000  1.0
  H  H7  1  0.93550000  0.68054000  0.72920000  1.0
  H  H8  1  0.26826000  0.91253000  0.00026000  1.0
  H  H9  1  0.76823000  0.08746000  0.99975000  1.0
  C  C10  1  0.98420000  0.52669000  0.14703000  1.0
  C  C11  1  0.48418000  0.47333000  0.85299000  1.0
  C  C12  1  0.48397000  0.32610000  0.14706000  1.0
  C  C13  1  0.98396000  0.67390000  0.85295000  1.0
  C  C14  1  0.16638000  0.80201000  0.00018000  1.0
  C  C15  1  0.66636000  0.19799000  0.99979000  1.0
  I  I16  1  0.59741000  0.00980000  0.64425000  1.0
  I  I17  1  0.09741000  0.99020000  0.35574000  1.0
  I  I18  1  0.09748000  0.34610000  0.64440000  1.0
  I  I19  1  0.59749000  0.65390000  0.35561000  1.0
  N  N20  1  0.10794000  0.66159000  0.15410000  1.0
  N  N21  1  0.60793000  0.33840000  0.84591000  1.0
  N  N22  1  0.60788000  0.18429000  0.15385000  1.0
  N  N23  1  0.10790000  0.81571000  0.84616000  1.0
  N  N24  1  0.92046000  0.52732000  0.99988000  1.0
  N  N25  1  0.42047000  0.47270000  0.00011000  1.0
