# generated using pymatgen
data_ZnP2H11C3NO7
_symmetry_space_group_name_H-M   'P 1'
_cell_length_a   7.57248000
_cell_length_b   7.90524000
_cell_length_c   8.52608000
_cell_angle_alpha   89.43380000
_cell_angle_beta   64.41740000
_cell_angle_gamma   82.14350000
_symmetry_Int_Tables_number   1
_chemical_formula_structural   ZnP2H11C3NO7
_chemical_formula_sum   'Zn2 P4 H22 C6 N2 O14'
_cell_volume   455.34231990
_cell_formula_units_Z   2
loop_
 _symmetry_equiv_pos_site_id
 _symmetry_equiv_pos_as_xyz
  1  'x, y, z'
loop_
 _atom_site_type_symbol
 _atom_site_label
 _atom_site_symmetry_multiplicity
 _atom_site_fract_x
 _atom_site_fract_y
 _atom_site_fract_z
 _atom_site_occupancy
  Zn  Zn0  1  0.57436000  0.76702000  0.36447000  1.0
  Zn  Zn1  1  0.42564000  0.23298000  0.63553000  1.0
  P  P2  1  0.51440000  0.86135000  0.75057000  1.0
  P  P3  1  0.48560000  0.13864000  0.24943000  1.0
  P  P4  1  0.97227000  0.39010000  0.77815000  1.0
  P  P5  1  0.02773000  0.60990000  0.22185000  1.0
  H  H6  1  0.92643000  0.70292000  0.59120000  1.0
  H  H7  1  0.07357000  0.29708000  0.40880000  1.0
  H  H8  1  0.17587000  0.61398000  0.68597000  1.0
  H  H9  1  0.82413000  0.38602000  0.31403000  1.0
  H  H10  1  0.99654000  0.65267000  0.90613000  1.0
  H  H11  1  0.00346000  0.34733000  0.09387000  1.0
  H  H12  1  0.64100000  0.64430000  0.88838000  1.0
  H  H13  1  0.35900000  0.35570000  0.11162000  1.0
  H  H14  1  0.66346000  0.85047000  0.95270000  1.0
  H  H15  1  0.33654000  0.14953000  0.04730000  1.0
  H  H16  1  0.13296000  0.89106000  0.59639000  1.0
  H  H17  1  0.86704000  0.10894000  0.40361000  1.0
  H  H18  1  0.88788000  0.00703000  0.66950000  1.0
  H  H19  1  0.11212000  0.99297000  0.33049000  1.0
  H  H20  1  0.98298000  0.94437000  0.82451000  1.0
  H  H21  1  0.01702000  0.05564000  0.17549000  1.0
  H  H22  1  0.44880000  0.46964000  0.35199000  1.0
  H  H23  1  0.55120000  0.53035000  0.64802000  1.0
  H  H24  1  0.28702000  0.62458000  0.34600000  1.0
  H  H25  1  0.71298000  0.37542000  0.65400000  1.0
  H  H26  1  0.74531000  0.26741000  0.00879000  1.0
  H  H27  1  0.25470000  0.73259000  0.99121000  1.0
  C  C28  1  0.01983000  0.61175000  0.77533000  1.0
  C  C29  1  0.98017000  0.38825000  0.22467000  1.0
  C  C30  1  0.68430000  0.76886000  0.84075000  1.0
  C  C31  1  0.31570000  0.23114000  0.15925000  1.0
  C  C32  1  0.98236000  0.90919000  0.70099000  1.0
  C  C33  1  0.01764000  0.09081000  0.29901000  1.0
  N  N34  1  0.90066000  0.74393000  0.71849000  1.0
  N  N35  1  0.09934000  0.25607000  0.28151000  1.0
  O  O36  1  0.42830000  0.59394000  0.32887000  1.0
  O  O37  1  0.57170000  0.40605000  0.67113000  1.0
  O  O38  1  0.31142000  0.88002000  0.90535000  1.0
  O  O39  1  0.68859000  0.11998000  0.09466000  1.0
  O  O40  1  0.53979000  0.72855000  0.60575000  1.0
  O  O41  1  0.46021000  0.27145000  0.39425000  1.0
  O  O42  1  0.57721000  0.03024000  0.66968000  1.0
  O  O43  1  0.42279000  0.96975000  0.33032000  1.0
  O  O44  1  0.94030000  0.34671000  0.61958000  1.0
  O  O45  1  0.05970000  0.65330000  0.38041000  1.0
  O  O46  1  0.14757000  0.28155000  0.79274000  1.0
  O  O47  1  0.85242000  0.71845000  0.20726000  1.0
  O  O48  1  0.78078000  0.38785000  0.95089000  1.0
  O  O49  1  0.21922000  0.61215000  0.04911000  1.0
