# generated using pymatgen
data_NaH9C4O7
_symmetry_space_group_name_H-M   'P 1'
_cell_length_a   6.00729000
_cell_length_b   6.29931000
_cell_length_c   11.07580000
_cell_angle_alpha   75.31200000
_cell_angle_beta   89.06900000
_cell_angle_gamma   76.27100000
_symmetry_Int_Tables_number   1
_chemical_formula_structural   NaH9C4O7
_chemical_formula_sum   'Na2 H18 C8 O14'
_cell_volume   393.41716514
_cell_formula_units_Z   2
loop_
 _symmetry_equiv_pos_site_id
 _symmetry_equiv_pos_as_xyz
  1  'x, y, z'
loop_
 _atom_site_type_symbol
 _atom_site_label
 _atom_site_symmetry_multiplicity
 _atom_site_fract_x
 _atom_site_fract_y
 _atom_site_fract_z
 _atom_site_occupancy
  Na  Na0  1  0.73820000  0.03743000  0.56753000  1.0
  Na  Na1  1  0.26180000  0.96257000  0.43249000  1.0
  H  H2  1  0.44146000  0.73681000  0.02160000  1.0
  H  H3  1  0.55852000  0.26318000  0.97841000  1.0
  H  H4  1  0.91184000  0.83045000  0.83970000  1.0
  H  H5  1  0.08815000  0.16955000  0.16028000  1.0
  H  H6  1  0.03667000  0.75379000  0.04785000  1.0
  H  H7  1  0.96334000  0.24620000  0.95215000  1.0
  H  H8  1  0.73692000  0.16045000  0.31868000  1.0
  H  H9  1  0.26305000  0.83955000  0.68132000  1.0
  H  H10  1  0.86419000  0.34175000  0.33407000  1.0
  H  H11  1  0.13581000  0.65825000  0.66593000  1.0
  H  H12  1  0.89160000  0.33973000  0.69951000  1.0
  H  H13  1  0.10843000  0.66026000  0.30050000  1.0
  H  H14  1  0.63225000  0.34252000  0.72204000  1.0
  H  H15  1  0.36779000  0.65748000  0.27796000  1.0
  H  H16  1  0.72072000  0.71211000  0.40374000  1.0
  H  H17  1  0.27928000  0.28789000  0.59627000  1.0
  H  H18  1  0.68816000  0.59660000  0.54469000  1.0
  H  H19  1  0.31185000  0.40339000  0.45532000  1.0
  C  C20  1  0.56070000  0.80637000  0.85400000  1.0
  C  C21  1  0.43928000  0.19362000  0.14600000  1.0
  C  C22  1  0.78735000  0.79531000  0.91050000  1.0
  C  C23  1  0.21265000  0.20470000  0.08948000  1.0
  C  C24  1  0.85949000  0.75038000  0.03104000  1.0
  C  C25  1  0.14051000  0.24963000  0.96896000  1.0
  C  C26  1  0.73591000  0.69236000  0.14818000  1.0
  C  C27  1  0.26408000  0.30765000  0.85180000  1.0
  O  O28  1  0.53631000  0.85133000  0.73805000  1.0
  O  O29  1  0.46366000  0.14868000  0.26195000  1.0
  O  O30  1  0.38857000  0.77142000  0.92495000  1.0
  O  O31  1  0.61142000  0.22858000  0.07505000  1.0
  O  O32  1  0.84887000  0.64158000  0.25157000  1.0
  O  O33  1  0.15115000  0.35843000  0.74843000  1.0
  O  O34  1  0.52233000  0.69394000  0.14263000  1.0
  O  O35  1  0.47769000  0.30607000  0.85736000  1.0
  O  O36  1  0.87203000  0.17876000  0.36211000  1.0
  O  O37  1  0.12796000  0.82124000  0.63789000  1.0
  O  O38  1  0.74686000  0.34202000  0.65660000  1.0
  O  O39  1  0.25314000  0.65796000  0.34341000  1.0
  O  O40  1  0.66401000  0.74628000  0.48197000  1.0
  O  O41  1  0.33599000  0.25371000  0.51804000  1.0
