# generated using pymatgen
data_PrH6C10N5O7
_symmetry_space_group_name_H-M   'P 1'
_cell_length_a   7.98372000
_cell_length_b   7.98373000
_cell_length_c   19.82840000
_cell_angle_alpha   90.00000000
_cell_angle_beta   90.00000000
_cell_angle_gamma   89.98330000
_symmetry_Int_Tables_number   1
_chemical_formula_structural   PrH6C10N5O7
_chemical_formula_sum   'Pr4 H24 C40 N20 O28'
_cell_volume   1263.85948301
_cell_formula_units_Z   4
loop_
 _symmetry_equiv_pos_site_id
 _symmetry_equiv_pos_as_xyz
  1  'x, y, z'
loop_
 _atom_site_type_symbol
 _atom_site_label
 _atom_site_symmetry_multiplicity
 _atom_site_fract_x
 _atom_site_fract_y
 _atom_site_fract_z
 _atom_site_occupancy
  Pr  Pr0  1  0.27867000  0.27868000  0.25000000  1.0
  Pr  Pr1  1  0.22136000  0.77864000  0.00000000  1.0
  Pr  Pr2  1  0.72133000  0.72133000  0.75000000  1.0
  Pr  Pr3  1  0.77864000  0.22136000  0.50000000  1.0
  H  H4  1  0.68233000  0.94741000  0.99733000  1.0
  H  H5  1  0.55247000  0.18297000  0.74749000  1.0
  H  H6  1  0.31767000  0.05259000  0.49733000  1.0
  H  H7  1  0.44753000  0.81703000  0.24749000  1.0
  H  H8  1  0.81703000  0.44753000  0.25251000  1.0
  H  H9  1  0.05259000  0.31767000  0.00267000  1.0
  H  H10  1  0.18297000  0.55246000  0.75251000  1.0
  H  H11  1  0.94741000  0.68233000  0.50267000  1.0
  H  H12  1  0.86456000  0.07582000  0.08728000  1.0
  H  H13  1  0.42419000  0.36483000  0.83758000  1.0
  H  H14  1  0.13544000  0.92418000  0.58728000  1.0
  H  H15  1  0.57581000  0.63518000  0.33758000  1.0
  H  H16  1  0.63517000  0.57581000  0.16242000  1.0
  H  H17  1  0.92418000  0.13544000  0.91272000  1.0
  H  H18  1  0.36482000  0.42419000  0.66242000  1.0
  H  H19  1  0.07582000  0.86456000  0.41272000  1.0
  H  H20  1  0.71717000  0.19953000  0.18921000  1.0
  H  H21  1  0.30053000  0.21705000  0.93946000  1.0
  H  H22  1  0.28283000  0.80047000  0.68921000  1.0
  H  H23  1  0.69947000  0.78295000  0.43946000  1.0
  H  H24  1  0.78295000  0.69947000  0.06054000  1.0
  H  H25  1  0.80047000  0.28283000  0.81079000  1.0
  H  H26  1  0.21705000  0.30053000  0.56054000  1.0
  H  H27  1  0.19953000  0.71717000  0.31079000  1.0
  C  C28  1  0.39492000  0.10267000  0.09574000  1.0
  C  C29  1  0.39727000  0.89519000  0.84568000  1.0
  C  C30  1  0.60508000  0.89733000  0.59574000  1.0
  C  C31  1  0.60273000  0.10481000  0.34568000  1.0
  C  C32  1  0.10481000  0.60273000  0.15432000  1.0
  C  C33  1  0.89733000  0.60508000  0.90426000  1.0
  C  C34  1  0.89519000  0.39727000  0.65432000  1.0
  C  C35  1  0.10267000  0.39492000  0.40426000  1.0
  C  C36  1  0.62797000  0.01127000  0.04069000  1.0
  C  C37  1  0.48866000  0.12842000  0.79082000  1.0
  C  C38  1  0.37204000  0.98873000  0.54069000  1.0
  C  C39  1  0.51134000  0.87158000  0.29082000  1.0
  C  C40  1  0.87158000  0.51134000  0.20918000  1.0
  C  C41  1  0.98873000  0.37204000  0.95931000  1.0
  C  C42  1  0.12842000  0.48866000  0.70918000  1.0
  C  C43  1  0.01127000  0.62797000  0.45931000  1.0
  C  C44  1  0.72839000  0.08110000  0.09078000  1.0
  C  C45  1  0.41891000  0.22866000  0.84102000  1.0
  C  C46  1  0.27162000  0.91890000  0.59078000  1.0
  C  C47  1  0.58109000  0.77135000  0.34102000  1.0
  C  C48  1  0.77135000  0.58109000  0.15898000  1.0
  C  C49  1  0.91890000  0.27162000  0.90922000  1.0
  C  C50  1  0.22865000  0.41890000  0.65898000  1.0
  C  C51  1  0.08110000  0.72838000  0.40922000  1.0
  C  C52  1  0.64755000  0.15351000  0.14570000  1.0
  C  C53  1  0.34653000  0.14762000  0.89588000  1.0
  C  C54  1  0.35245000  0.84649000  0.64569000  1.0
  C  C55  1  0.65347000  0.85238000  0.39589000  1.0
  C  C56  1  0.85238000  0.65347000  0.10411000  1.0
  C  C57  1  0.84649000  0.35245000  0.85431000  1.0
  C  C58  1  0.14762000  0.34653000  0.60411000  1.0
  C  C59  1  0.15351000  0.64755000  0.35431000  1.0
  C  C60  1  0.20737000  0.12698000  0.09527000  1.0
  C  C61  1  0.37294000  0.70767000  0.84514000  1.0
  C  C62  1  0.79263000  0.87302000  0.59527000  1.0
  C  C63  1  0.62706000  0.29233000  0.34514000  1.0
  C  C64  1  0.29233000  0.62706000  0.15486000  1.0
  C  C65  1  0.87302000  0.79263000  0.90474000  1.0
  C  C66  1  0.70767000  0.37294000  0.65486000  1.0
  C  C67  1  0.12698000  0.20737000  0.40474000  1.0
  N  N68  1  0.47977000  0.16868000  0.14760000  1.0
  N  N69  1  0.33138000  0.97984000  0.89764000  1.0
  N  N70  1  0.52023000  0.83133000  0.64760000  1.0
  N  N71  1  0.66863000  0.02016000  0.39764000  1.0
  N  N72  1  0.02016000  0.66863000  0.10236000  1.0
  N  N73  1  0.83132000  0.52023000  0.85240000  1.0
  N  N74  1  0.97983000  0.33137000  0.60236000  1.0
  N  N75  1  0.16867000  0.47976000  0.35240000  1.0
  N  N76  1  0.46031000  0.01730000  0.04403000  1.0
  N  N77  1  0.48259000  0.96075000  0.79401000  1.0
  N  N78  1  0.53969000  0.98270000  0.54403000  1.0
  N  N79  1  0.51741000  0.03925000  0.29401000  1.0
  N  N80  1  0.03925000  0.51741000  0.20599000  1.0
  N  N81  1  0.98270000  0.53969000  0.95597000  1.0
  N  N82  1  0.96075000  0.48259000  0.70599000  1.0
  N  N83  1  0.01730000  0.46031000  0.45597000  1.0
  N  N84  1  0.00989000  0.00989000  0.25000000  1.0
  N  N85  1  0.49026000  0.50974000  0.00000000  1.0
  N  N86  1  0.99011000  0.99011000  0.75000000  1.0
  N  N87  1  0.50974000  0.49026000  0.50000000  1.0
  O  O88  1  0.14679000  0.23219000  0.13610000  1.0
  O  O89  1  0.26795000  0.64705000  0.88605000  1.0
  O  O90  1  0.85321000  0.76781000  0.63610000  1.0
  O  O91  1  0.73205000  0.35295000  0.38605000  1.0
  O  O92  1  0.35296000  0.73205000  0.11395000  1.0
  O  O93  1  0.76781000  0.85320000  0.86390000  1.0
  O  O94  1  0.64704000  0.26795000  0.61395000  1.0
  O  O95  1  0.23219000  0.14679000  0.36390000  1.0
  O  O96  1  0.12422000  0.04241000  0.05260000  1.0
  O  O97  1  0.45733000  0.62453000  0.80239000  1.0
  O  O98  1  0.87578000  0.95759000  0.55260000  1.0
  O  O99  1  0.54267000  0.37547000  0.30239000  1.0
  O  O100  1  0.37547000  0.54267000  0.19761000  1.0
  O  O101  1  0.95759000  0.87578000  0.94740000  1.0
  O  O102  1  0.62453000  0.45733000  0.69761000  1.0
  O  O103  1  0.04241000  0.12422000  0.44740000  1.0
  O  O104  1  0.97526000  0.16375000  0.26330000  1.0
  O  O105  1  0.33641000  0.47514000  0.01326000  1.0
  O  O106  1  0.02474000  0.83625000  0.76330000  1.0
  O  O107  1  0.66359000  0.52486000  0.51326000  1.0
  O  O108  1  0.52486000  0.66359000  0.98674000  1.0
  O  O109  1  0.83625000  0.02474000  0.73670000  1.0
  O  O110  1  0.47514000  0.33641000  0.48674000  1.0
  O  O111  1  0.16375000  0.97526000  0.23670000  1.0
  O  O112  1  0.90033000  0.90033000  0.25000000  1.0
  O  O113  1  0.59985000  0.40015000  1.00000000  1.0
  O  O114  1  0.09967000  0.09967000  0.75000000  1.0
  O  O115  1  0.40015000  0.59985000  0.50000000  1.0
