# generated using pymatgen
data_Cu3H6C10(N2Cl)3
_symmetry_space_group_name_H-M   'P 1'
_cell_length_a   6.51699000
_cell_length_b   7.96833000
_cell_length_c   13.63690000
_cell_angle_alpha   96.07770000
_cell_angle_beta   89.99880000
_cell_angle_gamma   89.99990000
_symmetry_Int_Tables_number   1
_chemical_formula_structural   Cu3H6C10(N2Cl)3
_chemical_formula_sum   'Cu6 H12 C20 N12 Cl6'
_cell_volume   704.17737203
_cell_formula_units_Z   2
loop_
 _symmetry_equiv_pos_site_id
 _symmetry_equiv_pos_as_xyz
  1  'x, y, z'
loop_
 _atom_site_type_symbol
 _atom_site_label
 _atom_site_symmetry_multiplicity
 _atom_site_fract_x
 _atom_site_fract_y
 _atom_site_fract_z
 _atom_site_occupancy
  Cu  Cu0  1  0.75950000  0.99999000  0.25000000  1.0
  Cu  Cu1  1  0.24049000  0.00000000  0.75000000  1.0
  Cu  Cu2  1  0.78263000  0.59715000  0.36985000  1.0
  Cu  Cu3  1  0.21738000  0.59716000  0.86985000  1.0
  Cu  Cu4  1  0.21737000  0.40285000  0.63015000  1.0
  Cu  Cu5  1  0.78262000  0.40285000  0.13015000  1.0
  H  H6  1  0.65476000  0.83604000  0.72471000  1.0
  H  H7  1  0.34522000  0.83603000  0.22471000  1.0
  H  H8  1  0.34523000  0.16397000  0.27530000  1.0
  H  H9  1  0.65477000  0.16397000  0.77529000  1.0
  H  H10  1  0.16996000  0.91490000  0.53437000  1.0
  H  H11  1  0.83004000  0.91490000  0.03438000  1.0
  H  H12  1  0.83005000  0.08509000  0.46562000  1.0
  H  H13  1  0.16997000  0.08510000  0.96563000  1.0
  H  H14  1  0.35429000  0.74529000  0.39607000  1.0
  H  H15  1  0.64572000  0.74531000  0.89608000  1.0
  H  H16  1  0.64572000  0.25470000  0.60393000  1.0
  H  H17  1  0.35429000  0.25469000  0.10393000  1.0
  C  C18  1  0.68742000  0.72373000  0.57459000  1.0
  C  C19  1  0.31258000  0.72375000  0.07459000  1.0
  C  C20  1  0.31258000  0.27626000  0.42541000  1.0
  C  C21  1  0.68741000  0.27627000  0.92541000  1.0
  C  C22  1  0.58456000  0.81802000  0.65187000  1.0
  C  C23  1  0.41542000  0.81802000  0.15188000  1.0
  C  C24  1  0.41544000  0.18197000  0.34812000  1.0
  C  C25  1  0.58459000  0.18199000  0.84812000  1.0
  C  C26  1  0.31975000  0.85963000  0.54591000  1.0
  C  C27  1  0.68025000  0.85962000  0.04592000  1.0
  C  C28  1  0.68025000  0.14037000  0.45408000  1.0
  C  C29  1  0.31975000  0.14038000  0.95409000  1.0
  C  C30  1  0.42278000  0.76704000  0.46923000  1.0
  C  C31  1  0.57722000  0.76706000  0.96924000  1.0
  C  C32  1  0.57722000  0.23295000  0.53076000  1.0
  C  C33  1  0.42278000  0.23296000  0.03077000  1.0
  C  C34  1  0.12633000  0.35830000  0.40632000  1.0
  C  C35  1  0.87367000  0.35832000  0.90632000  1.0
  C  C36  1  0.87368000  0.64169000  0.59367000  1.0
  C  C37  1  0.12632000  0.64169000  0.09368000  1.0
  N  N38  1  0.60854000  0.69806000  0.48175000  1.0
  N  N39  1  0.39146000  0.69807000  0.98175000  1.0
  N  N40  1  0.39146000  0.30193000  0.51825000  1.0
  N  N41  1  0.60854000  0.30194000  0.01825000  1.0
  N  N42  1  0.39959000  0.88636000  0.63805000  1.0
  N  N43  1  0.60040000  0.88636000  0.13807000  1.0
  N  N44  1  0.60041000  0.11364000  0.36194000  1.0
  N  N45  1  0.39960000  0.11364000  0.86194000  1.0
  N  N46  1  0.97894000  0.43223000  0.38763000  1.0
  N  N47  1  0.02106000  0.43225000  0.88763000  1.0
  N  N48  1  0.02106000  0.56777000  0.61237000  1.0
  N  N49  1  0.97894000  0.56776000  0.11237000  1.0
  Cl  Cl50  1  0.53882000  0.50000000  0.25000000  1.0
  Cl  Cl51  1  0.46117000  0.50000000  0.75000000  1.0
  Cl  Cl52  1  0.97879000  0.83023000  0.33202000  1.0
  Cl  Cl53  1  0.02123000  0.83023000  0.83202000  1.0
  Cl  Cl54  1  0.02122000  0.16977000  0.66798000  1.0
  Cl  Cl55  1  0.97877000  0.16977000  0.16798000  1.0
