# generated using pymatgen
data_CrH12C10S2(NO4)2
_symmetry_space_group_name_H-M   'P 1'
_cell_length_a   7.14560000
_cell_length_b   7.77895000
_cell_length_c   12.82860000
_cell_angle_alpha   89.99970000
_cell_angle_beta   89.99910000
_cell_angle_gamma   100.41200000
_symmetry_Int_Tables_number   1
_chemical_formula_structural   CrH12C10S2(NO4)2
_chemical_formula_sum   'Cr2 H24 C20 S4 N4 O16'
_cell_volume   701.33928238
_cell_formula_units_Z   2
loop_
 _symmetry_equiv_pos_site_id
 _symmetry_equiv_pos_as_xyz
  1  'x, y, z'
loop_
 _atom_site_type_symbol
 _atom_site_label
 _atom_site_symmetry_multiplicity
 _atom_site_fract_x
 _atom_site_fract_y
 _atom_site_fract_z
 _atom_site_occupancy
  Cr  Cr0  1  0.50000000  0.50000000  0.50000000  1.0
  Cr  Cr1  1  0.00000000  0.50000000  0.00000000  1.0
  H  H2  1  0.84620000  0.65217000  0.57202000  1.0
  H  H3  1  0.65378000  0.34782000  0.07201000  1.0
  H  H4  1  0.15380000  0.34783000  0.42798000  1.0
  H  H5  1  0.34622000  0.65218000  0.92799000  1.0
  H  H6  1  0.69874000  0.62760000  0.66738000  1.0
  H  H7  1  0.80125000  0.37240000  0.16739000  1.0
  H  H8  1  0.30126000  0.37240000  0.33261000  1.0
  H  H9  1  0.19875000  0.62760000  0.83261000  1.0
  H  H10  1  0.33333333  0.10609000  0.50091000  1.0
  H  H11  1  0.16665000  0.89391000  0.00091000  1.0
  H  H12  1  0.66666667  0.89391000  0.49909000  1.0
  H  H13  1  0.83335000  0.10609000  0.99909000  1.0
  H  H14  1  0.21550000  0.95499000  0.82104000  1.0
  H  H15  1  0.28449000  0.04500000  0.32105000  1.0
  H  H16  1  0.78451000  0.04501000  0.17896000  1.0
  H  H17  1  0.71551000  0.95500000  0.67895000  1.0
  H  H18  1  0.31831000  0.27342000  0.87033000  1.0
  H  H19  1  0.18166000  0.72656000  0.37032000  1.0
  H  H20  1  0.68168000  0.72658000  0.12967000  1.0
  H  H21  1  0.81833000  0.27344000  0.62968000  1.0
  H  H22  1  0.41558000  0.48977000  0.72966000  1.0
  H  H23  1  0.08440000  0.51023000  0.22965000  1.0
  H  H24  1  0.58442000  0.51023000  0.27034000  1.0
  H  H25  1  0.91559000  0.48977000  0.77035000  1.0
  C  C26  1  0.32530000  0.13811000  0.58311000  1.0
  C  C27  1  0.17470000  0.86189000  0.08311000  1.0
  C  C28  1  0.67470000  0.86189000  0.41689000  1.0
  C  C29  1  0.82530000  0.13811000  0.91689000  1.0
  C  C30  1  0.26454000  0.00974000  0.65763000  1.0
  C  C31  1  0.23546000  0.99026000  0.15763000  1.0
  C  C32  1  0.73546000  0.99026000  0.34237000  1.0
  C  C33  1  0.76454000  0.00974000  0.84237000  1.0
  C  C34  1  0.26163000  0.05540000  0.76276000  1.0
  C  C35  1  0.23837000  0.94459000  0.26276000  1.0
  C  C36  1  0.73837000  0.94460000  0.23724000  1.0
  C  C37  1  0.76163000  0.05541000  0.73724000  1.0
  C  C38  1  0.31689000  0.23043000  0.78959000  1.0
  C  C39  1  0.18309000  0.76956000  0.28959000  1.0
  C  C40  1  0.68311000  0.76957000  0.21041000  1.0
  C  C41  1  0.81691000  0.23044000  0.71041000  1.0
  C  C42  1  0.37285000  0.35206000  0.71114000  1.0
  C  C43  1  0.12714000  0.64794000  0.21114000  1.0
  C  C44  1  0.62715000  0.64794000  0.28886000  1.0
  C  C45  1  0.87286000  0.35206000  0.78886000  1.0
  S  S46  1  0.19982000  0.78671000  0.61944000  1.0
  S  S47  1  0.30018000  0.21329000  0.11944000  1.0
  S  S48  1  0.80018000  0.21328000  0.38056000  1.0
  S  S49  1  0.69982000  0.78671000  0.88056000  1.0
  N  N50  1  0.38004000  0.30753000  0.60947000  1.0
  N  N51  1  0.11996000  0.69247000  0.10946000  1.0
  N  N52  1  0.61996000  0.69247000  0.39053000  1.0
  N  N53  1  0.88004000  0.30753000  0.89054000  1.0
  O  O54  1  0.37451000  0.73922000  0.57699000  1.0
  O  O55  1  0.12550000  0.26077000  0.07699000  1.0
  O  O56  1  0.62549000  0.26077000  0.42301000  1.0
  O  O57  1  0.87450000  0.73923000  0.92301000  1.0
  O  O58  1  0.13109000  0.69195000  0.71491000  1.0
  O  O59  1  0.36891000  0.30805000  0.21491000  1.0
  O  O60  1  0.86891000  0.30805000  0.28508000  1.0
  O  O61  1  0.63109000  0.69195000  0.78509000  1.0
  O  O62  1  0.04887000  0.77961000  0.54041000  1.0
  O  O63  1  0.45113000  0.22039000  0.04041000  1.0
  O  O64  1  0.95113000  0.22039000  0.45959000  1.0
  O  O65  1  0.54887000  0.77961000  0.95959000  1.0
  O  O66  1  0.72389000  0.58075000  0.59762000  1.0
  O  O67  1  0.77611000  0.41925000  0.09761000  1.0
  O  O68  1  0.27611000  0.41924000  0.40238000  1.0
  O  O69  1  0.22388000  0.58075000  0.90239000  1.0
