# generated using pymatgen
data_BiH10C13S(OF)3
_symmetry_space_group_name_H-M   'P 1'
_cell_length_a   8.43866000
_cell_length_b   8.98683000
_cell_length_c   18.95000000
_cell_angle_alpha   90.00000000
_cell_angle_beta   90.00000000
_cell_angle_gamma   90.00000000
_symmetry_Int_Tables_number   1
_chemical_formula_structural   BiH10C13S(OF)3
_chemical_formula_sum   'Bi4 H40 C52 S4 O12 F12'
_cell_volume   1437.10741397
_cell_formula_units_Z   4
loop_
 _symmetry_equiv_pos_site_id
 _symmetry_equiv_pos_as_xyz
  1  'x, y, z'
loop_
 _atom_site_type_symbol
 _atom_site_label
 _atom_site_symmetry_multiplicity
 _atom_site_fract_x
 _atom_site_fract_y
 _atom_site_fract_z
 _atom_site_occupancy
  Bi  Bi0  1  0.41611000  0.44676000  0.53148000  1.0
  Bi  Bi1  1  0.58389000  0.94676000  0.46852000  1.0
  Bi  Bi2  1  0.08389000  0.94676000  0.03148000  1.0
  Bi  Bi3  1  0.91611000  0.44677000  0.96853000  1.0
  H  H4  1  0.06681000  0.10029000  0.76395000  1.0
  H  H5  1  0.93319000  0.60028000  0.23605000  1.0
  H  H6  1  0.43318000  0.60028000  0.26395000  1.0
  H  H7  1  0.56682000  0.10028000  0.73605000  1.0
  H  H8  1  0.87376000  0.10075000  0.64240000  1.0
  H  H9  1  0.12624000  0.60076000  0.35760000  1.0
  H  H10  1  0.62624000  0.60076000  0.14240000  1.0
  H  H11  1  0.37376000  0.10076000  0.85760000  1.0
  H  H12  1  0.26433000  0.96813000  0.68965000  1.0
  H  H13  1  0.73566000  0.46813000  0.31035000  1.0
  H  H14  1  0.23566000  0.46813000  0.18964000  1.0
  H  H15  1  0.76434000  0.96813000  0.81036000  1.0
  H  H16  1  0.71262000  0.37944000  0.42753000  1.0
  H  H17  1  0.28738000  0.87944000  0.57247000  1.0
  H  H18  1  0.78738000  0.87944000  0.92753000  1.0
  H  H19  1  0.21262000  0.37944000  0.07247000  1.0
  H  H20  1  0.01686000  0.37133000  0.74511000  1.0
  H  H21  1  0.98314000  0.87133000  0.25489000  1.0
  H  H22  1  0.48313000  0.87133000  0.24511000  1.0
  H  H23  1  0.51687000  0.37132000  0.75489000  1.0
  H  H24  1  0.04309000  0.09339000  0.53446000  1.0
  H  H25  1  0.95691000  0.59339000  0.46554000  1.0
  H  H26  1  0.45692000  0.59339000  0.03446000  1.0
  H  H27  1  0.54308000  0.09339000  0.96554000  1.0
  H  H28  1  0.16057000  0.50677000  0.65103000  1.0
  H  H29  1  0.83944000  0.00677000  0.34897000  1.0
  H  H30  1  0.33943000  0.00677000  0.15103000  1.0
  H  H31  1  0.66056000  0.50676000  0.84897000  1.0
  H  H32  1  0.40990000  0.10292000  0.59650000  1.0
  H  H33  1  0.59010000  0.60292000  0.40350000  1.0
  H  H34  1  0.09010000  0.60293000  0.09650000  1.0
  H  H35  1  0.90990000  0.10293000  0.90350000  1.0
  H  H36  1  0.96259000  0.23796000  0.42818000  1.0
  H  H37  1  0.03741000  0.73797000  0.57182000  1.0
  H  H38  1  0.53741000  0.73796000  0.92818000  1.0
  H  H39  1  0.46259000  0.23796000  0.07181000  1.0
  H  H40  1  0.62727000  0.24719000  0.64347000  1.0
  H  H41  1  0.37273000  0.74719000  0.35653000  1.0
  H  H42  1  0.87273000  0.74719000  0.14347000  1.0
  H  H43  1  0.12726000  0.24719000  0.85653000  1.0
  C  C44  1  0.13113000  0.16101000  0.72318000  1.0
  C  C45  1  0.86887000  0.66101000  0.27682000  1.0
  C  C46  1  0.36886000  0.66101000  0.22318000  1.0
  C  C47  1  0.63114000  0.16101000  0.77682000  1.0
  C  C48  1  0.83856000  0.16136000  0.59522000  1.0
  C  C49  1  0.16144000  0.66136000  0.40478000  1.0
  C  C50  1  0.66144000  0.66136000  0.09522000  1.0
  C  C51  1  0.33856000  0.16136000  0.90478000  1.0
  C  C52  1  0.24082000  0.08605000  0.68103000  1.0
  C  C53  1  0.75918000  0.58605000  0.31897000  1.0
  C  C54  1  0.25918000  0.58605000  0.18102000  1.0
  C  C55  1  0.74082000  0.08605000  0.81898000  1.0
  C  C56  1  0.74646000  0.31916000  0.47511000  1.0
  C  C57  1  0.25355000  0.81916000  0.52489000  1.0
  C  C58  1  0.75355000  0.81916000  0.97511000  1.0
  C  C59  1  0.24645000  0.31915000  0.02489000  1.0
  C  C60  1  0.10313000  0.31266000  0.71246000  1.0
  C  C61  1  0.89687000  0.81266000  0.28754000  1.0
  C  C62  1  0.39687000  0.81266000  0.21246000  1.0
  C  C63  1  0.60313000  0.31266000  0.78754000  1.0
  C  C64  1  0.93346000  0.15749000  0.53483000  1.0
  C  C65  1  0.06654000  0.65749000  0.46517000  1.0
  C  C66  1  0.56654000  0.65749000  0.03483000  1.0
  C  C67  1  0.43345000  0.15749000  0.96517000  1.0
  C  C68  1  0.64934000  0.32140000  0.53531000  1.0
  C  C69  1  0.35066000  0.82140000  0.46469000  1.0
  C  C70  1  0.85066000  0.82140000  0.03531000  1.0
  C  C71  1  0.14934000  0.32140000  0.96469000  1.0
  C  C72  1  0.18420000  0.38874000  0.65924000  1.0
  C  C73  1  0.81580000  0.88874000  0.34076000  1.0
  C  C74  1  0.31579000  0.88874000  0.15924000  1.0
  C  C75  1  0.68420000  0.38874000  0.84076000  1.0
  C  C76  1  0.32275000  0.16255000  0.62814000  1.0
  C  C77  1  0.67725000  0.66255000  0.37186000  1.0
  C  C78  1  0.17725000  0.66255000  0.12814000  1.0
  C  C79  1  0.82275000  0.16255000  0.87186000  1.0
  C  C80  1  0.29514000  0.31425000  0.61699000  1.0
  C  C81  1  0.70487000  0.81425000  0.38301000  1.0
  C  C82  1  0.20486000  0.81425000  0.11699000  1.0
  C  C83  1  0.79513000  0.31425000  0.88301000  1.0
  C  C84  1  0.88793000  0.23796000  0.47503000  1.0
  C  C85  1  0.11207000  0.73796000  0.52497000  1.0
  C  C86  1  0.61207000  0.73796000  0.97503000  1.0
  C  C87  1  0.38793000  0.23795000  0.02497000  1.0
  C  C88  1  0.21905000  0.19823000  0.31899000  1.0
  C  C89  1  0.78096000  0.69823000  0.68101000  1.0
  C  C90  1  0.28095000  0.69823000  0.81899000  1.0
  C  C91  1  0.71904000  0.19823000  0.18101000  1.0
  C  C92  1  0.69836000  0.24407000  0.59561000  1.0
  C  C93  1  0.30164000  0.74407000  0.40439000  1.0
  C  C94  1  0.80164000  0.74407000  0.09561000  1.0
  C  C95  1  0.19836000  0.24407000  0.90439000  1.0
  S  S96  1  0.39387000  0.23424000  0.37699000  1.0
  S  S97  1  0.60614000  0.73424000  0.62301000  1.0
  S  S98  1  0.10613000  0.73425000  0.87699000  1.0
  S  S99  1  0.89386000  0.23424000  0.12301000  1.0
  O  O100  1  0.32491000  0.24472000  0.44872000  1.0
  O  O101  1  0.67509000  0.74472000  0.55128000  1.0
  O  O102  1  0.17509000  0.74472000  0.94872000  1.0
  O  O103  1  0.82491000  0.24472000  0.05128000  1.0
  O  O104  1  0.49024000  0.09820000  0.36783000  1.0
  O  O105  1  0.50977000  0.59820000  0.63217000  1.0
  O  O106  1  0.00976000  0.59820000  0.86783000  1.0
  O  O107  1  0.99024000  0.09820000  0.13217000  1.0
  O  O108  1  0.46296000  0.36957000  0.34983000  1.0
  O  O109  1  0.53705000  0.86956000  0.65017000  1.0
  O  O110  1  0.03705000  0.86956000  0.84983000  1.0
  O  O111  1  0.96295000  0.36957000  0.15017000  1.0
  F  F112  1  0.14504000  0.07119000  0.33784000  1.0
  F  F113  1  0.85496000  0.57119000  0.66216000  1.0
  F  F114  1  0.35496000  0.57119000  0.83784000  1.0
  F  F115  1  0.64504000  0.07119000  0.16216000  1.0
  F  F116  1  0.26774000  0.18709000  0.25132000  1.0
  F  F117  1  0.73227000  0.68709000  0.74868000  1.0
  F  F118  1  0.23226000  0.68709000  0.75132000  1.0
  F  F119  1  0.76774000  0.18710000  0.24868000  1.0
  F  F120  1  0.11486000  0.31259000  0.32390000  1.0
  F  F121  1  0.88514000  0.81258000  0.67610000  1.0
  F  F122  1  0.38514000  0.81259000  0.82390000  1.0
  F  F123  1  0.61485000  0.31259000  0.17610000  1.0
