# generated using pymatgen
data_Al3H10C33O14
_symmetry_space_group_name_H-M   'P 1'
_cell_length_a   12.74270000
_cell_length_b   12.76020000
_cell_length_c   26.87140000
_cell_angle_alpha   83.03640000
_cell_angle_beta   83.06030000
_cell_angle_gamma   62.53400000
_symmetry_Int_Tables_number   1
_chemical_formula_structural   Al3H10C33O14
_chemical_formula_sum   'Al6 H20 C66 O28'
_cell_volume   3837.72777206
_cell_formula_units_Z   2
loop_
 _symmetry_equiv_pos_site_id
 _symmetry_equiv_pos_as_xyz
  1  'x, y, z'
loop_
 _atom_site_type_symbol
 _atom_site_label
 _atom_site_symmetry_multiplicity
 _atom_site_fract_x
 _atom_site_fract_y
 _atom_site_fract_z
 _atom_site_occupancy
  Al  Al0  1  0.59575000  0.59190000  0.48973000  1.0
  Al  Al1  1  0.57624000  0.34755000  0.50408000  1.0
  Al  Al2  1  0.34975000  0.57539000  0.50239000  1.0
  Al  Al3  1  0.06824000  0.07116000  0.02133000  1.0
  Al  Al4  1  0.31568000  0.08533000  0.00439000  1.0
  Al  Al5  1  0.09003000  0.31385000  0.00680000  1.0
  H  H6  1  0.16604000  0.79333000  0.79863000  1.0
  H  H7  1  0.85554000  0.14306000  0.73790000  1.0
  H  H8  1  0.03147000  0.18831000  0.77298000  1.0
  H  H9  1  0.16302000  0.49675000  0.22414000  1.0
  H  H10  1  0.16314000  0.33379000  0.30585000  1.0
  H  H11  1  0.35832000  0.50404000  0.26122000  1.0
  H  H12  1  0.51617000  0.31340000  0.20310000  1.0
  H  H13  1  0.51624000  0.15055000  0.28476000  1.0
  H  H14  1  0.32090000  0.14327000  0.24772000  1.0
  H  H15  1  0.13408000  0.96791000  0.71745000  1.0
  H  H16  1  0.36854000  0.62923000  0.74386000  1.0
  H  H17  1  0.51314000  0.70141000  0.78906000  1.0
  H  H18  1  0.48129000  0.87586000  0.70775000  1.0
  H  H19  1  0.27871000  0.04012000  0.76260000  1.0
  H  H20  1  0.97333000  0.38608000  0.70108000  1.0
  H  H21  1  0.62885000  0.48811000  0.73819000  1.0
  H  H22  1  0.68672000  0.29045000  0.81014000  1.0
  H  H23  1  0.80465000  0.53327000  0.77326000  1.0
  H  H24  1  0.72094000  0.66923000  0.44926000  1.0
  H  H25  1  0.98918000  0.94687000  0.00546000  1.0
  C  C26  1  0.71414000  0.38385000  0.56459000  1.0
  C  C27  1  0.33344000  0.34259000  0.73132000  1.0
  C  C28  1  0.34789000  0.35717000  0.68107000  1.0
  C  C29  1  0.36222000  0.37068000  0.63516000  1.0
  C  C30  1  0.21802000  0.90893000  0.73388000  1.0
  C  C31  1  0.23589000  0.81163000  0.77800000  1.0
  C  C32  1  0.29895000  0.89908000  0.89730000  1.0
  C  C33  1  0.35558000  0.76809000  0.60911000  1.0
  C  C34  1  0.29868000  0.94876000  0.75770000  1.0
  C  C35  1  0.31626000  0.85164000  0.80325000  1.0
  C  C36  1  0.41145000  0.85773000  0.72847000  1.0
  C  C37  1  0.38969000  0.39433000  0.58266000  1.0
  C  C38  1  0.33109000  0.81772000  0.70322000  1.0
  C  C39  1  0.42930000  0.76039000  0.77256000  1.0
  C  C40  1  0.34863000  0.72059000  0.74875000  1.0
  C  C41  1  0.30798000  0.87450000  0.85403000  1.0
  C  C42  1  0.34144000  0.79423000  0.65240000  1.0
  C  C43  1  0.91000000  0.36487000  0.72585000  1.0
  C  C44  1  0.81582000  0.44670000  0.76504000  1.0
  C  C45  1  0.89706000  0.31376000  0.89927000  1.0
  C  C46  1  0.76442000  0.35438000  0.61230000  1.0
  C  C47  1  0.94190000  0.25470000  0.76450000  1.0
  C  C48  1  0.38636000  0.71602000  0.56183000  1.0
  C  C49  1  0.84799000  0.33684000  0.80511000  1.0
  C  C50  1  0.84442000  0.22952000  0.74622000  1.0
  C  C51  1  0.81227000  0.33925000  0.70614000  1.0
  C  C52  1  0.75016000  0.31143000  0.78535000  1.0
  C  C53  1  0.71835000  0.42158000  0.74669000  1.0
  C  C54  1  0.87143000  0.32828000  0.85585000  1.0
  C  C55  1  0.78920000  0.34522000  0.65555000  1.0
  C  C56  1  0.24135000  0.32929000  0.28250000  1.0
  C  C57  1  0.24148000  0.42000000  0.23794000  1.0
  C  C58  1  0.30765000  0.29146000  0.11096000  1.0
  C  C59  1  0.71434000  0.38566000  0.42279000  1.0
  C  C60  1  0.36806000  0.35969000  0.39791000  1.0
  C  C61  1  0.32937000  0.22348000  0.25120000  1.0
  C  C62  1  0.32881000  0.31447000  0.20488000  1.0
  C  C63  1  0.43774000  0.22734000  0.27101000  1.0
  C  C64  1  0.35038000  0.33295000  0.30405000  1.0
  C  C65  1  0.43790000  0.31804000  0.22643000  1.0
  C  C66  1  0.34985000  0.42383000  0.25773000  1.0
  C  C67  1  0.31848000  0.30233000  0.15434000  1.0
  C  C68  1  0.35955000  0.34637000  0.35455000  1.0
  C  C69  1  0.30681000  0.90055000  0.13660000  1.0
  C  C70  1  0.39026000  0.38621000  0.44453000  1.0
  C  C71  1  0.31979000  0.87246000  0.18156000  1.0
  C  C72  1  0.33202000  0.84379000  0.23084000  1.0
  C  C73  1  0.34109000  0.81932000  0.27646000  1.0
  C  C74  1  0.35272000  0.78993000  0.32574000  1.0
  C  C75  1  0.36458000  0.76087000  0.37070000  1.0
  C  C76  1  0.90159000  0.30077000  0.13818000  1.0
  C  C77  1  0.87325000  0.31234000  0.18319000  1.0
  C  C78  1  0.84475000  0.32396000  0.23253000  1.0
  C  C79  1  0.82096000  0.33345000  0.27815000  1.0
  C  C80  1  0.79288000  0.34554000  0.32748000  1.0
  C  C81  1  0.39233000  0.70915000  0.42091000  1.0
  C  C82  1  0.76529000  0.35779000  0.37251000  1.0
  C  C83  1  0.27404000  0.94843000  0.94501000  1.0
  C  C84  1  0.27071000  0.27253000  0.92625000  1.0
  C  C85  1  0.94843000  0.28047000  0.94681000  1.0
  C  C86  1  0.27603000  0.95141000  0.08656000  1.0
  C  C87  1  0.28171000  0.26867000  0.06433000  1.0
  C  C88  1  0.95308000  0.27461000  0.08784000  1.0
  C  C89  1  0.29538000  0.29929000  0.87381000  1.0
  C  C90  1  0.30814000  0.31433000  0.82790000  1.0
  C  C91  1  0.32162000  0.32960000  0.77764000  1.0
  O  O92  1  0.48809000  0.69261000  0.54091000  1.0
  O  O93  1  0.48594000  0.31196000  0.46471000  1.0
  O  O94  1  0.31599000  0.48510000  0.46215000  1.0
  O  O95  1  0.31280000  0.68638000  0.44731000  1.0
  O  O96  1  0.50616000  0.50377000  0.49849000  1.0
  O  O97  1  0.97388000  0.17708000  0.96607000  1.0
  O  O98  1  0.17521000  0.96894000  0.96851000  1.0
  O  O99  1  0.35355000  0.97243000  0.95917000  1.0
  O  O100  1  0.34570000  0.17470000  0.94646000  1.0
  O  O101  1  0.17332000  0.34646000  0.94723000  1.0
  O  O102  1  0.96892000  0.35802000  0.96515000  1.0
  O  O103  1  0.68922000  0.48611000  0.54416000  1.0
  O  O104  1  0.96902000  0.17777000  0.07326000  1.0
  O  O105  1  0.17292000  0.97693000  0.07591000  1.0
  O  O106  1  0.35547000  0.97009000  0.05791000  1.0
  O  O107  1  0.35402000  0.17098000  0.04524000  1.0
  O  O108  1  0.18478000  0.34489000  0.04559000  1.0
  O  O109  1  0.98226000  0.35148000  0.06312000  1.0
  O  O110  1  0.15932000  0.15770000  0.01060000  1.0
  O  O111  1  0.69414000  0.30479000  0.54727000  1.0
  O  O112  1  0.48843000  0.31932000  0.56313000  1.0
  O  O113  1  0.31565000  0.49059000  0.56102000  1.0
  O  O114  1  0.30829000  0.69295000  0.54556000  1.0
  O  O115  1  0.49286000  0.68687000  0.43380000  1.0
  O  O116  1  0.69677000  0.48418000  0.43627000  1.0
  O  O117  1  0.68713000  0.30876000  0.44872000  1.0
  O  O118  1  0.67735000  0.67213000  0.48152000  1.0
  O  O119  1  0.98556000  0.99202000  0.03258000  1.0
