# generated using pymatgen
data_CuH7C7NO7
_symmetry_space_group_name_H-M   'P 1'
_cell_length_a   5.90856000
_cell_length_b   12.26400000
_cell_length_c   12.42750000
_cell_angle_alpha   89.99320000
_cell_angle_beta   89.98630000
_cell_angle_gamma   91.35420000
_symmetry_Int_Tables_number   1
_chemical_formula_structural   CuH7C7NO7
_chemical_formula_sum   'Cu4 H28 C28 N4 O28'
_cell_volume   900.27716105
_cell_formula_units_Z   4
loop_
 _symmetry_equiv_pos_site_id
 _symmetry_equiv_pos_as_xyz
  1  'x, y, z'
loop_
 _atom_site_type_symbol
 _atom_site_label
 _atom_site_symmetry_multiplicity
 _atom_site_fract_x
 _atom_site_fract_y
 _atom_site_fract_z
 _atom_site_occupancy
  Cu  Cu0  1  0.37620000  0.48687000  0.63501000  1.0
  Cu  Cu1  1  0.12409000  0.01318000  0.13504000  1.0
  Cu  Cu2  1  0.62380000  0.51314000  0.36498000  1.0
  Cu  Cu3  1  0.87590000  0.98681000  0.86497000  1.0
  H  H4  1  0.65232000  0.58517000  0.75271000  1.0
  H  H5  1  0.84776000  0.91481000  0.25276000  1.0
  H  H6  1  0.34762000  0.41483000  0.24731000  1.0
  H  H7  1  0.15216000  0.08518000  0.74722000  1.0
  H  H8  1  0.40794000  0.62439000  0.79624000  1.0
  H  H9  1  0.09196000  0.87554000  0.29633000  1.0
  H  H10  1  0.59197000  0.37558000  0.20378000  1.0
  H  H11  1  0.90793000  0.12443000  0.70364000  1.0
  H  H12  1  0.98878000  0.32681000  0.68819000  1.0
  H  H13  1  0.51111000  0.17328000  0.18814000  1.0
  H  H14  1  0.01121000  0.67321000  0.31183000  1.0
  H  H15  1  0.48890000  0.82674000  0.81184000  1.0
  H  H16  1  0.99558000  0.44580000  0.73119000  1.0
  H  H17  1  0.50443000  0.05427000  0.23114000  1.0
  H  H18  1  0.00444000  0.55423000  0.26880000  1.0
  H  H19  1  0.49561000  0.94576000  0.76886000  1.0
  H  H20  1  0.49194000  0.07744000  0.57572000  1.0
  H  H21  1  0.00795000  0.42248000  0.07573000  1.0
  H  H22  1  0.50803000  0.92255000  0.42426000  1.0
  H  H23  1  0.99203000  0.57751000  0.92429000  1.0
  H  H24  1  0.18044000  0.00524000  0.45357000  1.0
  H  H25  1  0.31968000  0.49478000  0.95366000  1.0
  H  H26  1  0.81957000  0.99476000  0.54638000  1.0
  H  H27  1  0.68032000  0.50522000  0.04637000  1.0
  H  H28  1  0.94735000  0.13885000  0.35310000  1.0
  H  H29  1  0.55310000  0.36120000  0.85326000  1.0
  H  H30  1  0.05269000  0.86116000  0.64685000  1.0
  H  H31  1  0.44690000  0.63881000  0.14677000  1.0
  C  C32  1  0.61558000  0.28448000  0.61385000  1.0
  C  C33  1  0.88443000  0.21544000  0.11386000  1.0
  C  C34  1  0.38442000  0.71551000  0.38614000  1.0
  C  C35  1  0.11563000  0.78454000  0.88618000  1.0
  C  C36  1  0.42750000  0.24296000  0.54181000  1.0
  C  C37  1  0.07246000  0.25701000  0.04177000  1.0
  C  C38  1  0.57253000  0.75704000  0.45817000  1.0
  C  C39  1  0.92760000  0.74299000  0.95826000  1.0
  C  C40  1  0.38558000  0.13151000  0.52981000  1.0
  C  C41  1  0.11445000  0.36844000  0.02983000  1.0
  C  C42  1  0.61442000  0.86848000  0.47017000  1.0
  C  C43  1  0.88555000  0.63156000  0.97019000  1.0
  C  C44  1  0.21263000  0.09235000  0.46354000  1.0
  C  C45  1  0.28753000  0.40765000  0.96360000  1.0
  C  C46  1  0.78736000  0.90765000  0.53643000  1.0
  C  C47  1  0.71244000  0.59236000  0.03642000  1.0
  C  C48  1  0.08039000  0.16619000  0.40807000  1.0
  C  C49  1  0.41990000  0.33383000  0.90817000  1.0
  C  C50  1  0.91962000  0.83382000  0.59190000  1.0
  C  C51  1  0.58007000  0.66619000  0.09184000  1.0
  C  C52  1  0.12253000  0.27680000  0.42106000  1.0
  C  C53  1  0.37767000  0.22320000  0.92103000  1.0
  C  C54  1  0.87749000  0.72321000  0.57892000  1.0
  C  C55  1  0.62232000  0.77681000  0.07897000  1.0
  C  C56  1  0.99416000  0.36546000  0.36455000  1.0
  C  C57  1  0.50591000  0.13457000  0.86449000  1.0
  C  C58  1  0.00586000  0.63454000  0.63543000  1.0
  C  C59  1  0.49408000  0.86544000  0.13552000  1.0
  N  N60  1  0.29169000  0.31335000  0.48758000  1.0
  N  N61  1  0.20827000  0.18660000  0.98751000  1.0
  N  N62  1  0.70834000  0.68665000  0.51239000  1.0
  N  N63  1  0.79178000  0.81340000  0.01252000  1.0
  O  O64  1  0.60080000  0.37655000  0.66100000  1.0
  O  O65  1  0.89916000  0.12334000  0.16098000  1.0
  O  O66  1  0.39921000  0.62345000  0.33897000  1.0
  O  O67  1  0.10094000  0.87667000  0.83911000  1.0
  O  O68  1  0.78157000  0.22314000  0.62693000  1.0
  O  O69  1  0.71846000  0.27680000  0.12698000  1.0
  O  O70  1  0.21843000  0.77686000  0.37311000  1.0
  O  O71  1  0.28154000  0.72315000  0.87301000  1.0
  O  O72  1  0.80585000  0.38752000  0.40813000  1.0
  O  O73  1  0.69410000  0.11243000  0.90816000  1.0
  O  O74  1  0.19416000  0.61247000  0.59185000  1.0
  O  O75  1  0.30588000  0.88758000  0.09186000  1.0
  O  O76  1  0.07769000  0.40722000  0.28042000  1.0
  O  O77  1  0.42240000  0.09274000  0.78043000  1.0
  O  O78  1  0.92230000  0.59279000  0.71956000  1.0
  O  O79  1  0.57759000  0.90726000  0.21958000  1.0
  O  O80  1  0.32012000  0.42131000  0.49263000  1.0
  O  O81  1  0.17957000  0.07871000  0.99252000  1.0
  O  O82  1  0.67993000  0.57868000  0.50733000  1.0
  O  O83  1  0.82051000  0.92130000  0.00752000  1.0
  O  O84  1  0.49169000  0.56130000  0.76822000  1.0
  O  O85  1  0.00833000  0.93865000  0.26830000  1.0
  O  O86  1  0.50824000  0.43868000  0.23179000  1.0
  O  O87  1  0.99158000  0.06132000  0.73169000  1.0
  O  O88  1  0.08998000  0.38119000  0.72324000  1.0
  O  O89  1  0.40990000  0.11882000  0.22312000  1.0
  O  O90  1  0.91001000  0.61882000  0.27676000  1.0
  O  O91  1  0.59013000  0.88121000  0.77688000  1.0
