# generated using pymatgen
data_Mn3H8(C6O5)4
_symmetry_space_group_name_H-M   'P 1'
_cell_length_a   9.26226000
_cell_length_b   9.82596000
_cell_length_c   11.12600000
_cell_angle_alpha   73.86800000
_cell_angle_beta   87.46900000
_cell_angle_gamma   82.07910000
_symmetry_Int_Tables_number   1
_chemical_formula_structural   Mn3H8(C6O5)4
_chemical_formula_sum   'Mn3 H8 C24 O20'
_cell_volume   963.41378085
_cell_formula_units_Z   1
loop_
 _symmetry_equiv_pos_site_id
 _symmetry_equiv_pos_as_xyz
  1  'x, y, z'
loop_
 _atom_site_type_symbol
 _atom_site_label
 _atom_site_symmetry_multiplicity
 _atom_site_fract_x
 _atom_site_fract_y
 _atom_site_fract_z
 _atom_site_occupancy
  Mn  Mn0  1  0.02118000  0.08319000  0.16072000  1.0
  Mn  Mn1  1  0.97883000  0.91680000  0.83927000  1.0
  Mn  Mn2  1  0.99999000  0.00000000  0.50001000  1.0
  H  H3  1  0.13715000  0.42935000  0.47912000  1.0
  H  H4  1  0.14047000  0.71499000  0.36636000  1.0
  H  H5  1  0.25833000  0.21059000  0.48836000  1.0
  H  H6  1  0.54982000  0.23571000  0.44283000  1.0
  H  H7  1  0.86284000  0.57067000  0.52088000  1.0
  H  H8  1  0.85952000  0.28503000  0.63362000  1.0
  H  H9  1  0.74167000  0.78940000  0.51164000  1.0
  H  H10  1  0.45018000  0.76429000  0.55717000  1.0
  C  C11  1  0.01424000  0.28872000  0.30781000  1.0
  C  C12  1  0.03914000  0.43476000  0.30106000  1.0
  C  C13  1  0.10021000  0.48923000  0.38603000  1.0
  C  C14  1  0.10327000  0.63619000  0.32759000  1.0
  C  C15  1  0.04414000  0.66254000  0.21017000  1.0
  C  C16  1  0.02038000  0.79527000  0.10869000  1.0
  C  C17  1  0.21710000  0.99733000  0.73163000  1.0
  C  C18  1  0.34227000  0.05576000  0.66115000  1.0
  C  C19  1  0.35066000  0.15679000  0.54743000  1.0
  C  C20  1  0.50024000  0.16900000  0.52420000  1.0
  C  C21  1  0.57435000  0.07424000  0.62510000  1.0
  C  C22  1  0.73101000  0.03005000  0.64718000  1.0
  C  C23  1  0.98576000  0.71128000  0.69219000  1.0
  C  C24  1  0.96085000  0.56524000  0.69894000  1.0
  C  C25  1  0.89979000  0.51079000  0.61396000  1.0
  C  C26  1  0.89673000  0.36382000  0.67239000  1.0
  C  C27  1  0.95585000  0.33746000  0.78982000  1.0
  C  C28  1  0.97961000  0.20473000  0.89130000  1.0
  C  C29  1  0.78291000  0.00266000  0.26839000  1.0
  C  C30  1  0.65773000  0.94424000  0.33885000  1.0
  C  C31  1  0.64934000  0.84321000  0.45258000  1.0
  C  C32  1  0.49976000  0.83100000  0.47580000  1.0
  C  C33  1  0.42565000  0.92576000  0.37491000  1.0
  C  C34  1  0.26899000  0.96995000  0.35282000  1.0
  O  O35  1  0.04017000  0.19805000  0.41510000  1.0
  O  O36  1  0.97345000  0.26444000  0.20915000  1.0
  O  O37  1  0.07679000  0.90031000  0.12584000  1.0
  O  O38  1  0.95031000  0.79565000  0.01310000  1.0
  O  O39  1  0.00485000  0.54009000  0.19301000  1.0
  O  O40  1  0.09235000  0.02499000  0.67271000  1.0
  O  O41  1  0.22432000  0.92690000  0.84469000  1.0
  O  O42  1  0.77521000  0.94539000  0.74987000  1.0
  O  O43  1  0.81162000  0.08429000  0.55222000  1.0
  O  O44  1  0.47851000  0.00616000  0.71030000  1.0
  O  O45  1  0.95984000  0.80196000  0.58492000  1.0
  O  O46  1  0.02657000  0.73555000  0.79086000  1.0
  O  O47  1  0.92320000  0.09969000  0.87414000  1.0
  O  O48  1  0.04967000  0.20434000  0.98689000  1.0
  O  O49  1  0.99515000  0.45990000  0.80699000  1.0
  O  O50  1  0.90765000  0.97500000  0.32731000  1.0
  O  O51  1  0.77569000  0.07309000  0.15532000  1.0
  O  O52  1  0.22479000  0.05460000  0.25013000  1.0
  O  O53  1  0.18839000  0.91573000  0.44779000  1.0
  O  O54  1  0.52149000  0.99384000  0.28971000  1.0
