# generated using pymatgen
data_HgH14C14(BrN2)2
_symmetry_space_group_name_H-M   'P 1'
_cell_length_a   4.21445000
_cell_length_b   18.80020000
_cell_length_c   20.09020000
_cell_angle_alpha   98.42930000
_cell_angle_beta   90.00000000
_cell_angle_gamma   90.00000000
_symmetry_Int_Tables_number   1
_chemical_formula_structural   HgH14C14(BrN2)2
_chemical_formula_sum   'Hg4 H56 C56 Br8 N16'
_cell_volume   1574.60144345
_cell_formula_units_Z   4
loop_
 _symmetry_equiv_pos_site_id
 _symmetry_equiv_pos_as_xyz
  1  'x, y, z'
loop_
 _atom_site_type_symbol
 _atom_site_label
 _atom_site_symmetry_multiplicity
 _atom_site_fract_x
 _atom_site_fract_y
 _atom_site_fract_z
 _atom_site_occupancy
  Hg  Hg0  1  0.05851000  0.25000000  0.25000000  1.0
  Hg  Hg1  1  0.94145000  0.75000000  0.75000000  1.0
  Hg  Hg2  1  0.92709000  0.75000000  0.25000000  1.0
  Hg  Hg3  1  0.07290000  0.25000000  0.75001000  1.0
  H  H4  1  0.13586000  0.20559000  0.39582000  1.0
  H  H5  1  0.13587000  0.29441000  0.10418000  1.0
  H  H6  1  0.86412000  0.79441000  0.60418000  1.0
  H  H7  1  0.86413000  0.70560000  0.89582000  1.0
  H  H8  1  0.33478000  0.25045000  0.51346000  1.0
  H  H9  1  0.33479000  0.24955000  0.98654000  1.0
  H  H10  1  0.66522000  0.74955000  0.48654000  1.0
  H  H11  1  0.66524000  0.75045000  0.01346000  1.0
  H  H12  1  0.63652000  0.36599000  0.53315000  1.0
  H  H13  1  0.63650000  0.13401000  0.96684000  1.0
  H  H14  1  0.36350000  0.63401000  0.46684000  1.0
  H  H15  1  0.36350000  0.86599000  0.03316000  1.0
  H  H16  1  0.46831000  0.38682000  0.32473000  1.0
  H  H17  1  0.46830000  0.11317000  0.17527000  1.0
  H  H18  1  0.53168000  0.61317000  0.67527000  1.0
  H  H19  1  0.53169000  0.88683000  0.82474000  1.0
  H  H20  1  0.87822000  0.55170000  0.40174000  1.0
  H  H21  1  0.87822000  0.94830000  0.09826000  1.0
  H  H22  1  0.12176000  0.44830000  0.59825000  1.0
  H  H23  1  0.12177000  0.05171000  0.90175000  1.0
  H  H24  1  0.49054000  0.51778000  0.37958000  1.0
  H  H25  1  0.49055000  0.98222000  0.12042000  1.0
  H  H26  1  0.50944000  0.48222000  0.62042000  1.0
  H  H27  1  0.50945000  0.01778000  0.87959000  1.0
  H  H28  1  0.82566000  0.47486000  0.33827000  1.0
  H  H29  1  0.82567000  0.02514000  0.16173000  1.0
  H  H30  1  0.17432000  0.52514000  0.66172000  1.0
  H  H31  1  0.17433000  0.97486000  0.83828000  1.0
  H  H32  1  0.64812000  0.89168000  0.19826000  1.0
  H  H33  1  0.64812000  0.60831000  0.30174000  1.0
  H  H34  1  0.35189000  0.10832000  0.80174000  1.0
  H  H35  1  0.35189000  0.39169000  0.69825000  1.0
  H  H36  1  0.33289000  0.00546000  0.23764000  1.0
  H  H37  1  0.33288000  0.49453000  0.26236000  1.0
  H  H38  1  0.66711000  0.99454000  0.76236000  1.0
  H  H39  1  0.66713000  0.50547000  0.73764000  1.0
  H  H40  1  0.14663000  0.02763000  0.35621000  1.0
  H  H41  1  0.14661000  0.47237000  0.14379000  1.0
  H  H42  1  0.85338000  0.97237000  0.64379000  1.0
  H  H43  1  0.85338000  0.52763000  0.85621000  1.0
  H  H44  1  0.60178000  0.82852000  0.38606000  1.0
  H  H45  1  0.60180000  0.67148000  0.11394000  1.0
  H  H46  1  0.39821000  0.17148000  0.61394000  1.0
  H  H47  1  0.39821000  0.32853000  0.88606000  1.0
  H  H48  1  0.22806000  0.90177000  0.54693000  1.0
  H  H49  1  0.22808000  0.59823000  0.95307000  1.0
  H  H50  1  0.77191000  0.09823000  0.45307000  1.0
  H  H51  1  0.77191000  0.40177000  0.04692000  1.0
  H  H52  1  0.58637000  0.88275000  0.50073000  1.0
  H  H53  1  0.58638000  0.61725000  0.99927000  1.0
  H  H54  1  0.41360000  0.11725000  0.49927000  1.0
  H  H55  1  0.41361000  0.38275000  0.00073000  1.0
  H  H56  1  0.24022000  0.83250000  0.47527000  1.0
  H  H57  1  0.24024000  0.66750000  0.02473000  1.0
  H  H58  1  0.75975000  0.16750000  0.52473000  1.0
  H  H59  1  0.75976000  0.33250000  0.97527000  1.0
  C  C60  1  0.26143000  0.25661000  0.40811000  1.0
  C  C61  1  0.26143000  0.24338000  0.09189000  1.0
  C  C62  1  0.73856000  0.74338000  0.59189000  1.0
  C  C63  1  0.73857000  0.75662000  0.90811000  1.0
  C  C64  1  0.37582000  0.28126000  0.47246000  1.0
  C  C65  1  0.37581000  0.21874000  0.02754000  1.0
  C  C66  1  0.62419000  0.71874000  0.52754000  1.0
  C  C67  1  0.62421000  0.78127000  0.97246000  1.0
  C  C68  1  0.53953000  0.34593000  0.48374000  1.0
  C  C69  1  0.53953000  0.15406000  0.01626000  1.0
  C  C70  1  0.46048000  0.65406000  0.51626000  1.0
  C  C71  1  0.46048000  0.84594000  0.98374000  1.0
  C  C72  1  0.58035000  0.38625000  0.43068000  1.0
  C  C73  1  0.58032000  0.11375000  0.06932000  1.0
  C  C74  1  0.41967000  0.61375000  0.56931000  1.0
  C  C75  1  0.41967000  0.88626000  0.93069000  1.0
  C  C76  1  0.44739000  0.35867000  0.36824000  1.0
  C  C77  1  0.44737000  0.14132000  0.13176000  1.0
  C  C78  1  0.55262000  0.64132000  0.63176000  1.0
  C  C79  1  0.55263000  0.85868000  0.86824000  1.0
  C  C80  1  0.75625000  0.45484000  0.44006000  1.0
  C  C81  1  0.75623000  0.04516000  0.05994000  1.0
  C  C82  1  0.24375000  0.54515000  0.55993000  1.0
  C  C83  1  0.24375000  0.95485000  0.94007000  1.0
  C  C84  1  0.73923000  0.50282000  0.38694000  1.0
  C  C85  1  0.73923000  0.99718000  0.11306000  1.0
  C  C86  1  0.26076000  0.49718000  0.61305000  1.0
  C  C87  1  0.26077000  0.00282000  0.88695000  1.0
  C  C88  1  0.56196000  0.90509000  0.24974000  1.0
  C  C89  1  0.56196000  0.59491000  0.25026000  1.0
  C  C90  1  0.43806000  0.09491000  0.75027000  1.0
  C  C91  1  0.43806000  0.40510000  0.74973000  1.0
  C  C92  1  0.38835000  0.96721000  0.27172000  1.0
  C  C93  1  0.38835000  0.53278000  0.22828000  1.0
  C  C94  1  0.61165000  0.03278000  0.72829000  1.0
  C  C95  1  0.61166000  0.46722000  0.77171000  1.0
  C  C96  1  0.28478000  0.97982000  0.33790000  1.0
  C  C97  1  0.28478000  0.52018000  0.16210000  1.0
  C  C98  1  0.71521000  0.02018000  0.66210000  1.0
  C  C99  1  0.71522000  0.47982000  0.83790000  1.0
  C  C100  1  0.35586000  0.93000000  0.38156000  1.0
  C  C101  1  0.35587000  0.57000000  0.11844000  1.0
  C  C102  1  0.64413000  0.07000000  0.61844000  1.0
  C  C103  1  0.64413000  0.43001000  0.88156000  1.0
  C  C104  1  0.53571000  0.86958000  0.35556000  1.0
  C  C105  1  0.53572000  0.63041000  0.14444000  1.0
  C  C106  1  0.46429000  0.13041000  0.64444000  1.0
  C  C107  1  0.46429000  0.36959000  0.85556000  1.0
  C  C108  1  0.23880000  0.93980000  0.45135000  1.0
  C  C109  1  0.23881000  0.56020000  0.04865000  1.0
  C  C110  1  0.76119000  0.06020000  0.54866000  1.0
  C  C111  1  0.76119000  0.43980000  0.95134000  1.0
  C  C112  1  0.32693000  0.88631000  0.49657000  1.0
  C  C113  1  0.32694000  0.61368000  0.00343000  1.0
  C  C114  1  0.67305000  0.11369000  0.50343000  1.0
  C  C115  1  0.67306000  0.38632000  0.99657000  1.0
  Br  Br116  1  0.83576000  0.13331000  0.28759000  1.0
  Br  Br117  1  0.83583000  0.36670000  0.21242000  1.0
  Br  Br118  1  0.16427000  0.86668000  0.71241000  1.0
  Br  Br119  1  0.16418000  0.63331000  0.78759000  1.0
  Br  Br120  1  0.08426000  0.71312000  0.36423000  1.0
  Br  Br121  1  0.08426000  0.78690000  0.13577000  1.0
  Br  Br122  1  0.91576000  0.28689000  0.63578000  1.0
  Br  Br123  1  0.91580000  0.21311000  0.86423000  1.0
  N  N124  1  0.29700000  0.29509000  0.35733000  1.0
  N  N125  1  0.29699000  0.20491000  0.14267000  1.0
  N  N126  1  0.70300000  0.70491000  0.64266000  1.0
  N  N127  1  0.70301000  0.79510000  0.85734000  1.0
  N  N128  1  0.91714000  0.46818000  0.49597000  1.0
  N  N129  1  0.91712000  0.03182000  0.00403000  1.0
  N  N130  1  0.08288000  0.53181000  0.50402000  1.0
  N  N131  1  0.08287000  0.96819000  0.99598000  1.0
  N  N132  1  0.63340000  0.85777000  0.29141000  1.0
  N  N133  1  0.63342000  0.64223000  0.20859000  1.0
  N  N134  1  0.36661000  0.14223000  0.70859000  1.0
  N  N135  1  0.36660000  0.35778000  0.79140000  1.0
  N  N136  1  0.05635000  0.99573000  0.46767000  1.0
  N  N137  1  0.05634000  0.50427000  0.03233000  1.0
  N  N138  1  0.94365000  0.00427000  0.53234000  1.0
  N  N139  1  0.94365000  0.49573000  0.96767000  1.0
