# generated using pymatgen
data_HgH16C26S2N4(ClO2)2
_symmetry_space_group_name_H-M   'P 1'
_cell_length_a   8.27498000
_cell_length_b   12.16850000
_cell_length_c   13.08680000
_cell_angle_alpha   89.99920000
_cell_angle_beta   81.38700000
_cell_angle_gamma   89.99960000
_symmetry_Int_Tables_number   1
_chemical_formula_structural   HgH16C26S2N4(ClO2)2
_chemical_formula_sum   'Hg2 H32 C52 S4 N8 Cl4 O8'
_cell_volume   1302.90229731
_cell_formula_units_Z   2
loop_
 _symmetry_equiv_pos_site_id
 _symmetry_equiv_pos_as_xyz
  1  'x, y, z'
loop_
 _atom_site_type_symbol
 _atom_site_label
 _atom_site_symmetry_multiplicity
 _atom_site_fract_x
 _atom_site_fract_y
 _atom_site_fract_z
 _atom_site_occupancy
  Hg  Hg0  1  0.50000000  0.00000000  1.00000000  1.0
  Hg  Hg1  1  0.50000000  0.50000000  0.50000000  1.0
  H  H2  1  0.50079000  0.71625000  0.77415000  1.0
  H  H3  1  0.49921000  0.21625000  0.72585000  1.0
  H  H4  1  0.49920000  0.28375000  0.22586000  1.0
  H  H5  1  0.50080000  0.78375000  0.27414000  1.0
  H  H6  1  0.46272000  0.88462000  0.67451000  1.0
  H  H7  1  0.53728000  0.38462000  0.82549000  1.0
  H  H8  1  0.53728000  0.11537000  0.32549000  1.0
  H  H9  1  0.46272000  0.61538000  0.17450000  1.0
  H  H10  1  0.26806000  0.03047000  0.75268000  1.0
  H  H11  1  0.73194000  0.53047000  0.74732000  1.0
  H  H12  1  0.73193000  0.96952000  0.24732000  1.0
  H  H13  1  0.26806000  0.46953000  0.25268000  1.0
  H  H14  1  0.11842000  0.00659000  0.93016000  1.0
  H  H15  1  0.88158000  0.50659000  0.56983000  1.0
  H  H16  1  0.88158000  0.99340000  0.06984000  1.0
  H  H17  1  0.11842000  0.49341000  0.43016000  1.0
  H  H18  1  0.99848000  0.69161000  0.18666000  1.0
  H  H19  1  0.00151000  0.19161000  0.31335000  1.0
  H  H20  1  0.00151000  0.30839000  0.81335000  1.0
  H  H21  1  0.99849000  0.80840000  0.68665000  1.0
  H  H22  1  0.82065000  0.64789000  0.35466000  1.0
  H  H23  1  0.17935000  0.14788000  0.14535000  1.0
  H  H24  1  0.17936000  0.35211000  0.64535000  1.0
  H  H25  1  0.82065000  0.85212000  0.85465000  1.0
  H  H26  1  0.90567000  0.97290000  0.46489000  1.0
  H  H27  1  0.09433000  0.47289000  0.03511000  1.0
  H  H28  1  0.09433000  0.02710000  0.53511000  1.0
  H  H29  1  0.90566000  0.52710000  0.96489000  1.0
  H  H30  1  0.09470000  0.01245000  0.30198000  1.0
  H  H31  1  0.90530000  0.51245000  0.19801000  1.0
  H  H32  1  0.90530000  0.98755000  0.69802000  1.0
  H  H33  1  0.09470000  0.48755000  0.80198000  1.0
  C  C34  1  0.22364000  0.84806000  0.95409000  1.0
  C  C35  1  0.77637000  0.34806000  0.54591000  1.0
  C  C36  1  0.77636000  0.15194000  0.04592000  1.0
  C  C37  1  0.22364000  0.65194000  0.45408000  1.0
  C  C38  1  0.33165000  0.76631000  0.90728000  1.0
  C  C39  1  0.66836000  0.26631000  0.59272000  1.0
  C  C40  1  0.66835000  0.23369000  0.09272000  1.0
  C  C41  1  0.33165000  0.73369000  0.40728000  1.0
  C  C42  1  0.41672000  0.77997000  0.80767000  1.0
  C  C43  1  0.58328000  0.27997000  0.69233000  1.0
  C  C44  1  0.58328000  0.22003000  0.19233000  1.0
  C  C45  1  0.41672000  0.72003000  0.30767000  1.0
  C  C46  1  0.39364000  0.87466000  0.75148000  1.0
  C  C47  1  0.60636000  0.37466000  0.74852000  1.0
  C  C48  1  0.60636000  0.12534000  0.24852000  1.0
  C  C49  1  0.39364000  0.62534000  0.25148000  1.0
  C  C50  1  0.28549000  0.95564000  0.79536000  1.0
  C  C51  1  0.71451000  0.45564000  0.70464000  1.0
  C  C52  1  0.71451000  0.04436000  0.20464000  1.0
  C  C53  1  0.28549000  0.54436000  0.29536000  1.0
  C  C54  1  0.20154000  0.94281000  0.89539000  1.0
  C  C55  1  0.79846000  0.44281000  0.60461000  1.0
  C  C56  1  0.79846000  0.05719000  0.10461000  1.0
  C  C57  1  0.20154000  0.55719000  0.39539000  1.0
  C  C58  1  0.17021000  0.87584000  0.13566000  1.0
  C  C59  1  0.82979000  0.37584000  0.36434000  1.0
  C  C60  1  0.82978000  0.12415000  0.86434000  1.0
  C  C61  1  0.17021000  0.62415000  0.63566000  1.0
  C  C62  1  0.05889000  0.85369000  0.23419000  1.0
  C  C63  1  0.94110000  0.35369000  0.26581000  1.0
  C  C64  1  0.94111000  0.14631000  0.76581000  1.0
  C  C65  1  0.05889000  0.64631000  0.73419000  1.0
  C  C66  1  0.97882000  0.75195000  0.24862000  1.0
  C  C67  1  0.02118000  0.25195000  0.25138000  1.0
  C  C68  1  0.02118000  0.24805000  0.75138000  1.0
  C  C69  1  0.97882000  0.74806000  0.74862000  1.0
  C  C70  1  0.88013000  0.72762000  0.34153000  1.0
  C  C71  1  0.11987000  0.22762000  0.15848000  1.0
  C  C72  1  0.11987000  0.27238000  0.65848000  1.0
  C  C73  1  0.88013000  0.77238000  0.84152000  1.0
  C  C74  1  0.85936000  0.80782000  0.41875000  1.0
  C  C75  1  0.14063000  0.30782000  0.08125000  1.0
  C  C76  1  0.14064000  0.19218000  0.58125000  1.0
  C  C77  1  0.85936000  0.69218000  0.91875000  1.0
  C  C78  1  0.93124000  0.91139000  0.40449000  1.0
  C  C79  1  0.06876000  0.41138000  0.09551000  1.0
  C  C80  1  0.06876000  0.08861000  0.59551000  1.0
  C  C81  1  0.93124000  0.58862000  0.90449000  1.0
  C  C82  1  0.03368000  0.93319000  0.31278000  1.0
  C  C83  1  0.96631000  0.43319000  0.18722000  1.0
  C  C84  1  0.96631000  0.06681000  0.68722000  1.0
  C  C85  1  0.03368000  0.56681000  0.81278000  1.0
  S  S86  1  0.33894000  0.95555000  0.15972000  1.0
  S  S87  1  0.66106000  0.45555000  0.34028000  1.0
  S  S88  1  0.66107000  0.04445000  0.84028000  1.0
  S  S89  1  0.33893000  0.54445000  0.65972000  1.0
  N  N90  1  0.13407000  0.83336000  0.05190000  1.0
  N  N91  1  0.86593000  0.33333333  0.44810000  1.0
  N  N92  1  0.86593000  0.16664000  0.94811000  1.0
  N  N93  1  0.13407000  0.66666667  0.55190000  1.0
  N  N94  1  0.76391000  0.78305000  0.51956000  1.0
  N  N95  1  0.23608000  0.28304000  0.98044000  1.0
  N  N96  1  0.23609000  0.21696000  0.48044000  1.0
  N  N97  1  0.76392000  0.71696000  0.01956000  1.0
  Cl  Cl98  1  0.36025000  0.64708000  0.97493000  1.0
  Cl  Cl99  1  0.63976000  0.14708000  0.52507000  1.0
  Cl  Cl100  1  0.63975000  0.35292000  0.02507000  1.0
  Cl  Cl101  1  0.36025000  0.85292000  0.47493000  1.0
  O  O102  1  0.74707000  0.85680000  0.58603000  1.0
  O  O103  1  0.25293000  0.35679000  0.91398000  1.0
  O  O104  1  0.25293000  0.14320000  0.41397000  1.0
  O  O105  1  0.74708000  0.64320000  0.08602000  1.0
  O  O106  1  0.70644000  0.68908000  0.53473000  1.0
  O  O107  1  0.29356000  0.18907000  0.96527000  1.0
  O  O108  1  0.29356000  0.31092000  0.46527000  1.0
  O  O109  1  0.70644000  0.81093000  0.03473000  1.0
