# generated using pymatgen
data_CuReH4C4(NO2)2
_symmetry_space_group_name_H-M   'P 1'
_cell_length_a   7.90999000
_cell_length_b   8.37953000
_cell_length_c   11.94170000
_cell_angle_alpha   89.99970000
_cell_angle_beta   90.00000000
_cell_angle_gamma   101.94000000
_symmetry_Int_Tables_number   1
_chemical_formula_structural   CuReH4C4(NO2)2
_chemical_formula_sum   'Cu4 Re4 H16 C16 N8 O16'
_cell_volume   774.39504490
_cell_formula_units_Z   4
loop_
 _symmetry_equiv_pos_site_id
 _symmetry_equiv_pos_as_xyz
  1  'x, y, z'
loop_
 _atom_site_type_symbol
 _atom_site_label
 _atom_site_symmetry_multiplicity
 _atom_site_fract_x
 _atom_site_fract_y
 _atom_site_fract_z
 _atom_site_occupancy
  Cu  Cu0  1  0.66131000  0.16933000  0.03752000  1.0
  Cu  Cu1  1  0.83869000  0.33066000  0.53752000  1.0
  Cu  Cu2  1  0.33869000  0.83066000  0.96248000  1.0
  Cu  Cu3  1  0.16130000  0.66934000  0.46247000  1.0
  Re  Re4  1  0.37114000  0.95974000  0.25314000  1.0
  Re  Re5  1  0.12887000  0.54026000  0.75313000  1.0
  Re  Re6  1  0.62886000  0.04025000  0.74686000  1.0
  Re  Re7  1  0.87114000  0.45975000  0.24686000  1.0
  H  H8  1  0.70238000  0.42162000  0.86804000  1.0
  H  H9  1  0.79762000  0.07837000  0.36805000  1.0
  H  H10  1  0.29763000  0.57836000  0.13196000  1.0
  H  H11  1  0.20238000  0.92162000  0.63196000  1.0
  H  H12  1  0.41362000  0.32607000  0.16214000  1.0
  H  H13  1  0.08639000  0.17392000  0.66215000  1.0
  H  H14  1  0.58639000  0.67392000  0.83786000  1.0
  H  H15  1  0.91361000  0.82608000  0.33786000  1.0
  H  H16  1  0.74423000  0.85369000  0.09738000  1.0
  H  H17  1  0.75576000  0.64631000  0.59738000  1.0
  H  H18  1  0.25576000  0.14632000  0.90262000  1.0
  H  H19  1  0.24422000  0.35369000  0.40262000  1.0
  H  H20  1  0.01021000  0.28350000  0.94925000  1.0
  H  H21  1  0.48977000  0.21650000  0.44925000  1.0
  H  H22  1  0.98978000  0.71649000  0.05075000  1.0
  H  H23  1  0.51021000  0.78351000  0.55075000  1.0
  C  C24  1  0.61045000  0.45560000  0.92643000  1.0
  C  C25  1  0.88955000  0.04439000  0.42644000  1.0
  C  C26  1  0.38956000  0.54439000  0.07357000  1.0
  C  C27  1  0.11045000  0.95561000  0.57357000  1.0
  C  C28  1  0.45279000  0.40386000  0.08969000  1.0
  C  C29  1  0.04722000  0.09613000  0.58969000  1.0
  C  C30  1  0.54721000  0.59613000  0.91031000  1.0
  C  C31  1  0.95279000  0.90387000  0.41032000  1.0
  C  C32  1  0.85824000  0.91873000  0.05325000  1.0
  C  C33  1  0.64176000  0.58127000  0.55325000  1.0
  C  C34  1  0.14176000  0.08127000  0.94675000  1.0
  C  C35  1  0.35823000  0.41873000  0.44675000  1.0
  C  C36  1  0.00565000  0.15673000  0.97133000  1.0
  C  C37  1  0.49434000  0.34327000  0.47133000  1.0
  C  C38  1  0.99435000  0.84326000  0.02867000  1.0
  C  C39  1  0.50565000  0.65674000  0.52866000  1.0
  N  N40  1  0.56434000  0.35808000  0.01642000  1.0
  N  N41  1  0.93565000  0.14192000  0.51642000  1.0
  N  N42  1  0.43565000  0.64191000  0.98358000  1.0
  N  N43  1  0.06434000  0.85809000  0.48358000  1.0
  N  N44  1  0.86250000  0.07538000  0.02447000  1.0
  N  N45  1  0.63750000  0.42462000  0.52447000  1.0
  N  N46  1  0.13751000  0.92462000  0.97553000  1.0
  N  N47  1  0.36250000  0.57538000  0.47553000  1.0
  O  O48  1  0.78478000  0.22287000  0.75103000  1.0
  O  O49  1  0.71523000  0.27714000  0.25103000  1.0
  O  O50  1  0.21523000  0.77714000  0.24897000  1.0
  O  O51  1  0.28479000  0.72288000  0.74897000  1.0
  O  O52  1  0.51303000  0.01962000  0.87607000  1.0
  O  O53  1  0.98697000  0.48037000  0.37607000  1.0
  O  O54  1  0.48696000  0.98037000  0.12393000  1.0
  O  O55  1  0.01303000  0.51963000  0.62393000  1.0
  O  O56  1  0.49111000  0.04872000  0.63367000  1.0
  O  O57  1  0.00889000  0.45129000  0.13368000  1.0
  O  O58  1  0.50890000  0.95128000  0.36632000  1.0
  O  O59  1  0.99110000  0.54873000  0.86632000  1.0
  O  O60  1  0.73324000  0.87662000  0.72911000  1.0
  O  O61  1  0.76677000  0.62338000  0.22911000  1.0
  O  O62  1  0.26677000  0.12337000  0.27089000  1.0
  O  O63  1  0.23324000  0.37662000  0.77089000  1.0
