# generated using pymatgen
data_BaCuH13C15S2NO10
_symmetry_space_group_name_H-M   'P 1'
_cell_length_a   12.48280000
_cell_length_b   13.82170000
_cell_length_c   14.97090000
_cell_angle_alpha   90.00050000
_cell_angle_beta   90.00090000
_cell_angle_gamma   89.99930000
_symmetry_Int_Tables_number   1
_chemical_formula_structural   BaCuH13C15S2NO10
_chemical_formula_sum   'Ba4 Cu4 H52 C60 S8 N4 O40'
_cell_volume   2582.98202545
_cell_formula_units_Z   4
loop_
 _symmetry_equiv_pos_site_id
 _symmetry_equiv_pos_as_xyz
  1  'x, y, z'
loop_
 _atom_site_type_symbol
 _atom_site_label
 _atom_site_symmetry_multiplicity
 _atom_site_fract_x
 _atom_site_fract_y
 _atom_site_fract_z
 _atom_site_occupancy
  Ba  Ba0  1  0.30852000  0.19605000  0.41862000  1.0
  Ba  Ba1  1  0.19148000  0.80394000  0.91863000  1.0
  Ba  Ba2  1  0.69151000  0.69605000  0.08136000  1.0
  Ba  Ba3  1  0.80851000  0.30394000  0.58136000  1.0
  Cu  Cu4  1  0.50913000  0.36702000  0.48412000  1.0
  Cu  Cu5  1  0.99086000  0.63298000  0.98410000  1.0
  Cu  Cu6  1  0.49085000  0.86701000  0.01590000  1.0
  Cu  Cu7  1  0.00914000  0.13299000  0.51587000  1.0
  H  H8  1  0.76422000  0.56432000  0.71715000  1.0
  H  H9  1  0.73579000  0.43571000  0.21712000  1.0
  H  H10  1  0.23578000  0.06431000  0.78286000  1.0
  H  H11  1  0.26422000  0.93568000  0.28286000  1.0
  H  H12  1  0.70884000  0.68525000  0.84802000  1.0
  H  H13  1  0.79115000  0.31481000  0.34803000  1.0
  H  H14  1  0.29116000  0.18521000  0.65197000  1.0
  H  H15  1  0.20885000  0.81477000  0.15197000  1.0
  H  H16  1  0.79943000  0.10206000  0.37437000  1.0
  H  H17  1  0.70057000  0.89796000  0.87435000  1.0
  H  H18  1  0.20057000  0.60204000  0.12562000  1.0
  H  H19  1  0.29947000  0.39796000  0.62565000  1.0
  H  H20  1  0.78979000  0.96391000  0.25096000  1.0
  H  H21  1  0.71018000  0.03610000  0.75093000  1.0
  H  H22  1  0.21019000  0.46390000  0.24905000  1.0
  H  H23  1  0.28982000  0.53611000  0.74907000  1.0
  H  H24  1  0.36105000  0.96204000  0.56621000  1.0
  H  H25  1  0.13893000  0.03795000  0.06621000  1.0
  H  H26  1  0.63895000  0.46205000  0.93379000  1.0
  H  H27  1  0.86105000  0.53796000  0.43377000  1.0
  H  H28  1  0.62170000  0.01894000  0.47743000  1.0
  H  H29  1  0.87827000  0.98105000  0.97745000  1.0
  H  H30  1  0.37830000  0.51893000  0.02259000  1.0
  H  H31  1  0.12171000  0.48106000  0.52256000  1.0
  H  H32  1  0.67921000  0.91298000  0.52689000  1.0
  H  H33  1  0.82078000  0.08702000  0.02690000  1.0
  H  H34  1  0.32080000  0.41298000  0.97312000  1.0
  H  H35  1  0.17921000  0.58701000  0.47311000  1.0
  H  H36  1  0.67248000  0.02313000  0.58879000  1.0
  H  H37  1  0.82751000  0.97688000  0.08880000  1.0
  H  H38  1  0.32752000  0.52313000  0.91124000  1.0
  H  H39  1  0.17249000  0.47688000  0.41122000  1.0
  H  H40  1  0.43563000  0.86412000  0.65897000  1.0
  H  H41  1  0.06438000  0.13587000  0.15899000  1.0
  H  H42  1  0.56437000  0.36410000  0.84104000  1.0
  H  H43  1  0.93563000  0.63588000  0.34102000  1.0
  H  H44  1  0.55889000  0.90754000  0.70369000  1.0
  H  H45  1  0.94111000  0.09245000  0.20369000  1.0
  H  H46  1  0.44111000  0.40752000  0.79632000  1.0
  H  H47  1  0.05889000  0.59247000  0.29632000  1.0
  H  H48  1  0.55938000  0.81181000  0.62352000  1.0
  H  H49  1  0.94063000  0.18818000  0.12352000  1.0
  H  H50  1  0.44063000  0.31180000  0.87650000  1.0
  H  H51  1  0.05936000  0.68820000  0.37649000  1.0
  H  H52  1  0.28517000  0.13067000  0.18822000  1.0
  H  H53  1  0.21482000  0.86934000  0.68822000  1.0
  H  H54  1  0.71485000  0.63067000  0.31179000  1.0
  H  H55  1  0.78517000  0.36932000  0.81179000  1.0
  H  H56  1  0.20166000  0.19524000  0.24148000  1.0
  H  H57  1  0.29832000  0.80477000  0.74149000  1.0
  H  H58  1  0.79835000  0.69521000  0.25849000  1.0
  H  H59  1  0.70166000  0.30478000  0.75851000  1.0
  C  C60  1  0.59667000  0.49479000  0.60164000  1.0
  C  C61  1  0.90335000  0.50520000  0.10163000  1.0
  C  C62  1  0.40332000  0.99480000  0.89838000  1.0
  C  C63  1  0.09668000  0.00521000  0.39836000  1.0
  C  C64  1  0.59716000  0.56518000  0.67630000  1.0
  C  C65  1  0.90286000  0.43482000  0.17628000  1.0
  C  C66  1  0.40284000  0.06520000  0.82373000  1.0
  C  C67  1  0.09716000  0.93481000  0.32371000  1.0
  C  C68  1  0.68361000  0.59150000  0.72917000  1.0
  C  C69  1  0.81640000  0.40852000  0.22916000  1.0
  C  C70  1  0.31639000  0.09150000  0.77084000  1.0
  C  C71  1  0.18362000  0.90848000  0.27084000  1.0
  C  C72  1  0.65436000  0.65560000  0.79839000  1.0
  C  C73  1  0.84563000  0.34444000  0.29839000  1.0
  C  C74  1  0.34564000  0.15558000  0.70162000  1.0
  C  C75  1  0.15438000  0.84441000  0.20161000  1.0
  C  C76  1  0.54629000  0.67869000  0.79684000  1.0
  C  C77  1  0.95371000  0.32135000  0.29686000  1.0
  C  C78  1  0.45371000  0.17866000  0.70316000  1.0
  C  C79  1  0.04630000  0.82133000  0.20315000  1.0
  C  C80  1  0.48638000  0.74361000  0.85751000  1.0
  C  C81  1  0.01361000  0.25642000  0.35753000  1.0
  C  C82  1  0.51362000  0.24358000  0.64249000  1.0
  C  C83  1  0.98638000  0.75641000  0.14248000  1.0
  C  C84  1  0.61464000  0.22327000  0.39494000  1.0
  C  C85  1  0.88534000  0.77674000  0.89495000  1.0
  C  C86  1  0.38535000  0.72324000  0.10505000  1.0
  C  C87  1  0.11468000  0.27674000  0.60504000  1.0
  C  C88  1  0.63851000  0.14399000  0.33274000  1.0
  C  C89  1  0.86148000  0.85603000  0.83274000  1.0
  C  C90  1  0.36148000  0.64396000  0.16724000  1.0
  C  C91  1  0.13854000  0.35604000  0.66723000  1.0
  C  C92  1  0.73181000  0.08927000  0.32991000  1.0
  C  C93  1  0.76820000  0.91076000  0.82990000  1.0
  C  C94  1  0.26820000  0.58923000  0.17006000  1.0
  C  C95  1  0.23183000  0.41075000  0.67009000  1.0
  C  C96  1  0.72684000  0.01623000  0.26441000  1.0
  C  C97  1  0.77314000  0.98377000  0.76438000  1.0
  C  C98  1  0.27314000  0.51621000  0.23558000  1.0
  C  C99  1  0.22688000  0.48378000  0.73561000  1.0
  C  C100  1  0.63074000  0.01643000  0.21790000  1.0
  C  C101  1  0.86922000  0.98356000  0.71785000  1.0
  C  C102  1  0.36923000  0.51642000  0.28210000  1.0
  C  C103  1  0.13078000  0.48357000  0.78212000  1.0
  C  C104  1  0.59927000  0.95135000  0.14427000  1.0
  C  C105  1  0.90072000  0.04863000  0.64424000  1.0
  C  C106  1  0.40069000  0.45136000  0.35575000  1.0
  C  C107  1  0.09929000  0.54864000  0.85574000  1.0
  C  C108  1  0.43648000  0.99005000  0.53692000  1.0
  C  C109  1  0.06352000  0.00995000  0.03692000  1.0
  C  C110  1  0.56353000  0.49004000  0.96308000  1.0
  C  C111  1  0.93647000  0.50995000  0.46305000  1.0
  C  C112  1  0.63072000  0.97795000  0.53945000  1.0
  C  C113  1  0.86927000  0.02205000  0.03946000  1.0
  C  C114  1  0.36928000  0.47795000  0.96056000  1.0
  C  C115  1  0.13071000  0.52205000  0.46055000  1.0
  C  C116  1  0.51968000  0.87953000  0.64322000  1.0
  C  C117  1  0.98033000  0.12046000  0.14322000  1.0
  C  C118  1  0.48033000  0.37952000  0.85680000  1.0
  C  C119  1  0.01967000  0.62048000  0.35679000  1.0
  S  S120  1  0.48089000  0.62078000  0.71075000  1.0
  S  S121  1  0.01912000  0.37922000  0.21075000  1.0
  S  S122  1  0.51911000  0.12078000  0.78926000  1.0
  S  S123  1  0.98089000  0.87922000  0.28924000  1.0
  S  S124  1  0.54648000  0.10628000  0.25458000  1.0
  S  S125  1  0.95350000  0.89372000  0.75456000  1.0
  S  S126  1  0.45350000  0.60625000  0.24541000  1.0
  S  S127  1  0.04651000  0.39375000  0.74541000  1.0
  N  N128  1  0.52505000  0.94967000  0.57122000  1.0
  N  N129  1  0.97494000  0.05032000  0.07124000  1.0
  N  N130  1  0.47495000  0.44966000  0.92878000  1.0
  N  N131  1  0.02504000  0.55033000  0.42877000  1.0
  O  O132  1  0.50282000  0.46846000  0.57473000  1.0
  O  O133  1  0.99720000  0.53153000  0.07472000  1.0
  O  O134  1  0.49717000  0.96849000  0.92531000  1.0
  O  O135  1  0.00282000  0.03155000  0.42528000  1.0
  O  O136  1  0.27838000  0.18164000  0.23254000  1.0
  O  O137  1  0.22161000  0.81838000  0.73255000  1.0
  O  O138  1  0.72163000  0.68161000  0.26745000  1.0
  O  O139  1  0.77838000  0.31838000  0.76745000  1.0
  O  O140  1  0.68428000  0.46436000  0.57091000  1.0
  O  O141  1  0.81576000  0.53564000  0.07089000  1.0
  O  O142  1  0.31572000  0.96435000  0.92910000  1.0
  O  O143  1  0.18427000  0.03563000  0.42910000  1.0
  O  O144  1  0.39255000  0.76974000  0.83658000  1.0
  O  O145  1  0.10742000  0.23027000  0.33658000  1.0
  O  O146  1  0.60744000  0.26972000  0.66342000  1.0
  O  O147  1  0.89257000  0.73027000  0.16342000  1.0
  O  O148  1  0.53666000  0.76802000  0.92922000  1.0
  O  O149  1  0.96332000  0.23201000  0.42923000  1.0
  O  O150  1  0.46332000  0.26799000  0.57079000  1.0
  O  O151  1  0.03666000  0.73200000  0.07076000  1.0
  O  O152  1  0.51984000  0.26081000  0.39201000  1.0
  O  O153  1  0.98014000  0.73919000  0.89201000  1.0
  O  O154  1  0.48014000  0.76078000  0.10796000  1.0
  O  O155  1  0.01989000  0.23919000  0.60797000  1.0
  O  O156  1  0.68655000  0.25230000  0.44760000  1.0
  O  O157  1  0.81343000  0.74775000  0.94761000  1.0
  O  O158  1  0.31343000  0.75227000  0.05239000  1.0
  O  O159  1  0.18660000  0.24773000  0.55238000  1.0
  O  O160  1  0.50337000  0.96223000  0.11352000  1.0
  O  O161  1  0.99663000  0.03775000  0.61349000  1.0
  O  O162  1  0.49658000  0.46227000  0.38653000  1.0
  O  O163  1  0.00338000  0.53775000  0.88649000  1.0
  O  O164  1  0.66641000  0.89044000  0.11511000  1.0
  O  O165  1  0.83360000  0.10956000  0.61507000  1.0
  O  O166  1  0.33357000  0.39042000  0.38490000  1.0
  O  O167  1  0.16642000  0.60956000  0.88491000  1.0
  O  O168  1  0.43604000  0.05309000  0.47736000  1.0
  O  O169  1  0.06395000  0.94690000  0.97736000  1.0
  O  O170  1  0.56394000  0.55310000  0.02263000  1.0
  O  O171  1  0.93605000  0.44690000  0.52263000  1.0
