# generated using pymatgen
data_CoH28C26(NO)4
_symmetry_space_group_name_H-M   'P 1'
_cell_length_a   9.59200000
_cell_length_b   11.82510000
_cell_length_c   12.49927497
_cell_angle_alpha   107.09406008
_cell_angle_beta   112.24193910
_cell_angle_gamma   100.92760000
_symmetry_Int_Tables_number   1
_chemical_formula_structural   CoH28C26(NO)4
_chemical_formula_sum   'Co2 H56 C52 N8 O8'
_cell_volume   1179.54746886
_cell_formula_units_Z   2
loop_
 _symmetry_equiv_pos_site_id
 _symmetry_equiv_pos_as_xyz
  1  'x, y, z'
loop_
 _atom_site_type_symbol
 _atom_site_label
 _atom_site_symmetry_multiplicity
 _atom_site_fract_x
 _atom_site_fract_y
 _atom_site_fract_z
 _atom_site_occupancy
  Co  Co0  1  0.01387000  0.73556000  0.79444000  1.0
  Co  Co1  1  0.98613000  0.26445000  0.20556000  1.0
  H  H2  1  0.26814000  0.94844000  0.05478000  1.0
  H  H3  1  0.73185000  0.05155000  0.94521000  1.0
  H  H4  1  0.80130000  0.52200000  0.51549000  1.0
  H  H5  1  0.19870000  0.47801000  0.48451000  1.0
  H  H6  1  0.55590000  0.33705000  0.35597000  1.0
  H  H7  1  0.44410000  0.66296000  0.64403000  1.0
  H  H8  1  0.68011000  0.41108000  0.30359000  1.0
  H  H9  1  0.31988000  0.58892000  0.69640000  1.0
  H  H10  1  0.32267000  0.25701000  0.14022000  1.0
  H  H11  1  0.67732000  0.74299000  0.85978000  1.0
  H  H12  1  0.44553000  0.33569000  0.09069000  1.0
  H  H13  1  0.55447000  0.66430000  0.90931000  1.0
  H  H14  1  0.34731000  0.68839000  0.37005000  1.0
  H  H15  1  0.65270000  0.31161000  0.62996000  1.0
  H  H16  1  0.84291000  0.94614000  0.78860000  1.0
  H  H17  1  0.15709000  0.05386000  0.21140000  1.0
  H  H18  1  0.61574000  0.20513000  0.11995000  1.0
  H  H19  1  0.38426000  0.79488000  0.88006000  1.0
  H  H20  1  0.51693000  0.13451000  0.19089000  1.0
  H  H21  1  0.48308000  0.86549000  0.80912000  1.0
  H  H22  1  0.42548000  0.19035000  0.68146000  1.0
  H  H23  1  0.57453000  0.80965000  0.31855000  1.0
  H  H24  1  0.13325000  0.21931000  0.90018000  1.0
  H  H25  1  0.86674000  0.78068000  0.09981000  1.0
  H  H26  1  0.18826000  0.41568000  0.68743000  1.0
  H  H27  1  0.81174000  0.58432000  0.31257000  1.0
  H  H28  1  0.91305000  0.25208000  0.58802000  1.0
  H  H29  1  0.08695000  0.74792000  0.41198000  1.0
  H  H30  1  0.07592000  0.20801000  0.66733000  1.0
  H  H31  1  0.92407000  0.79199000  0.33267000  1.0
  H  H32  1  0.25247000  0.44070000  0.05479000  1.0
  H  H33  1  0.74751000  0.55930000  0.94520000  1.0
  H  H34  1  0.09065000  0.47718000  0.96349000  1.0
  H  H35  1  0.90934000  0.52281000  0.03651000  1.0
  H  H36  1  0.54306000  0.23816000  0.91160000  1.0
  H  H37  1  0.45695000  0.76185000  0.08841000  1.0
  H  H38  1  0.37519000  0.90071000  0.50953000  1.0
  H  H39  1  0.62481000  0.09929000  0.49048000  1.0
  H  H40  1  0.32314000  0.38303000  0.87689000  1.0
  H  H41  1  0.67686000  0.61697000  0.12311000  1.0
  H  H42  1  0.32240000  0.53993000  0.92164000  1.0
  H  H43  1  0.67759000  0.46006000  0.07835000  1.0
  H  H44  1  0.04247000  0.86421000  0.59475000  1.0
  H  H45  1  0.95753000  0.13579000  0.40525000  1.0
  H  H46  1  0.61660000  0.02699000  0.71415000  1.0
  H  H47  1  0.38339000  0.97301000  0.28585000  1.0
  H  H48  1  0.84823000  0.29260000  0.76538000  1.0
  H  H49  1  0.15177000  0.70740000  0.23462000  1.0
  H  H50  1  0.86041000  0.14042000  0.71896000  1.0
  H  H51  1  0.13958000  0.85958000  0.28103000  1.0
  H  H52  1  0.17885000  0.00991000  0.52663000  1.0
  H  H53  1  0.82116000  0.99010000  0.47338000  1.0
  H  H54  1  0.49932000  0.53881000  0.25201000  1.0
  H  H55  1  0.50067000  0.46120000  0.74798000  1.0
  H  H56  1  0.38110000  0.46816000  0.30992000  1.0
  H  H57  1  0.61890000  0.53185000  0.69008000  1.0
  C  C58  1  0.58538000  0.70384000  0.50006000  1.0
  C  C59  1  0.41462000  0.29616000  0.49994000  1.0
  C  C60  1  0.26969000  0.97616000  0.97963000  1.0
  C  C61  1  0.73032000  0.02384000  0.02037000  1.0
  C  C62  1  0.35100000  0.08032000  0.88096000  1.0
  C  C63  1  0.64901000  0.91969000  0.11904000  1.0
  C  C64  1  0.75409000  0.59816000  0.53026000  1.0
  C  C65  1  0.24592000  0.40184000  0.46974000  1.0
  C  C66  1  0.72345000  0.77407000  0.61821000  1.0
  C  C67  1  0.27656000  0.22593000  0.38179000  1.0
  C  C68  1  0.55697000  0.38263000  0.29101000  1.0
  C  C69  1  0.44302000  0.61738000  0.70898000  1.0
  C  C70  1  0.21304000  0.97311000  0.79241000  1.0
  C  C71  1  0.78697000  0.02689000  0.20759000  1.0
  C  C72  1  0.03644000  0.50354000  0.73773000  1.0
  C  C73  1  0.96355000  0.49646000  0.26226000  1.0
  C  C74  1  0.44649000  0.28902000  0.15521000  1.0
  C  C75  1  0.55350000  0.71098000  0.84478000  1.0
  C  C76  1  0.45649000  0.74593000  0.45802000  1.0
  C  C77  1  0.54350000  0.25407000  0.54198000  1.0
  C  C78  1  0.73693000  0.89166000  0.69756000  1.0
  C  C79  1  0.26307000  0.10834000  0.30244000  1.0
  C  C80  1  0.97691000  0.25484000  0.97959000  1.0
  C  C81  1  0.02307000  0.74515000  0.02040000  1.0
  C  C82  1  0.50104000  0.17664000  0.12150000  1.0
  C  C83  1  0.49896000  0.82336000  0.87850000  1.0
  C  C84  1  0.36592000  0.13198000  0.71524000  1.0
  C  C85  1  0.63409000  0.86803000  0.28477000  1.0
  C  C86  1  0.05522000  0.27730000  0.89832000  1.0
  C  C87  1  0.94478000  0.72270000  0.10168000  1.0
  C  C88  1  0.12209000  0.40694000  0.74162000  1.0
  C  C89  1  0.87791000  0.59306000  0.25838000  1.0
  C  C90  1  0.00747000  0.27104000  0.68184000  1.0
  C  C91  1  0.99253000  0.72895000  0.31816000  1.0
  C  C92  1  0.16349000  0.41616000  0.95748000  1.0
  C  C93  1  0.83649000  0.58383000  0.04251000  1.0
  C  C94  1  0.43162000  0.16040000  0.84425000  1.0
  C  C95  1  0.56838000  0.83960000  0.15575000  1.0
  C  C96  1  0.47207000  0.86330000  0.53814000  1.0
  C  C97  1  0.52793000  0.13670000  0.46187000  1.0
  C  C98  1  0.24556000  0.44079000  0.87882000  1.0
  C  C99  1  0.75443000  0.55920000  0.12117000  1.0
  C  C100  1  0.14847000  0.94625000  0.66327000  1.0
  C  C101  1  0.85154000  0.05374000  0.33673000  1.0
  C  C102  1  0.60967000  0.93518000  0.65533000  1.0
  C  C103  1  0.39033000  0.06483000  0.34467000  1.0
  C  C104  1  0.93128000  0.24103000  0.76228000  1.0
  C  C105  1  0.06871000  0.75897000  0.23771000  1.0
  C  C106  1  0.22604000  0.02780000  0.62655000  1.0
  C  C107  1  0.77396000  0.97221000  0.37345000  1.0
  C  C108  1  0.50300000  0.49579000  0.31983000  1.0
  C  C109  1  0.49700000  0.50422000  0.68017000  1.0
  N  N110  1  0.38223000  0.07884000  0.99852000  1.0
  N  N111  1  0.61777000  0.92116000  0.00148000  1.0
  N  N112  1  0.82598000  0.70435000  0.63440000  1.0
  N  N113  1  0.17402000  0.29565000  0.36560000  1.0
  N  N114  1  0.60984000  0.59325000  0.44663000  1.0
  N  N115  1  0.39017000  0.40675000  0.55337000  1.0
  N  N116  1  0.16671000  0.90895000  0.85764000  1.0
  N  N117  1  0.83330000  0.09105000  0.14236000  1.0
  O  O118  1  0.12686000  0.61692000  0.76707000  1.0
  O  O119  1  0.87313000  0.38308000  0.23292000  1.0
  O  O120  1  0.07542000  0.26192000  0.08943000  1.0
  O  O121  1  0.92458000  0.73809000  0.91057000  1.0
  O  O122  1  0.83027000  0.23383000  0.94375000  1.0
  O  O123  1  0.16973000  0.76616000  0.05625000  1.0
  O  O124  1  0.89117000  0.47680000  0.70978000  1.0
  O  O125  1  0.10883000  0.52320000  0.29022000  1.0
