# generated using pymatgen
data_AgH2C7O3F5
_symmetry_space_group_name_H-M   'P 1'
_cell_length_a   3.53196000
_cell_length_b   13.64700000
_cell_length_c   18.38940000
_cell_angle_alpha   69.15700000
_cell_angle_beta   89.99960000
_cell_angle_gamma   89.99980000
_symmetry_Int_Tables_number   1
_chemical_formula_structural   AgH2C7O3F5
_chemical_formula_sum   'Ag4 H8 C28 O12 F20'
_cell_volume   828.37543023
_cell_formula_units_Z   4
loop_
 _symmetry_equiv_pos_site_id
 _symmetry_equiv_pos_as_xyz
  1  'x, y, z'
loop_
 _atom_site_type_symbol
 _atom_site_label
 _atom_site_symmetry_multiplicity
 _atom_site_fract_x
 _atom_site_fract_y
 _atom_site_fract_z
 _atom_site_occupancy
  Ag  Ag0  1  0.63629000  0.16065000  0.02039000  1.0
  Ag  Ag1  1  0.13629000  0.33935000  0.97962000  1.0
  Ag  Ag2  1  0.36371000  0.83935000  0.97961000  1.0
  Ag  Ag3  1  0.86372000  0.66065000  0.02038000  1.0
  H  H4  1  0.26245000  0.94674000  0.09735000  1.0
  H  H5  1  0.76245000  0.55326000  0.90265000  1.0
  H  H6  1  0.73755000  0.05326000  0.90265000  1.0
  H  H7  1  0.23755000  0.44674000  0.09735000  1.0
  H  H8  1  0.12141000  0.02808000  0.13427000  1.0
  H  H9  1  0.62142000  0.47192000  0.86573000  1.0
  H  H10  1  0.87859000  0.97192000  0.86573000  1.0
  H  H11  1  0.37859000  0.52808000  0.13427000  1.0
  C  C12  1  0.40792000  0.20177000  0.73268000  1.0
  C  C13  1  0.90792000  0.29823000  0.26732000  1.0
  C  C14  1  0.59209000  0.79823000  0.26732000  1.0
  C  C15  1  0.09207000  0.70177000  0.73268000  1.0
  C  C16  1  0.49169000  0.28081000  0.76205000  1.0
  C  C17  1  0.99168000  0.21919000  0.23795000  1.0
  C  C18  1  0.50831000  0.71920000  0.23795000  1.0
  C  C19  1  0.00831000  0.78081000  0.76205000  1.0
  C  C20  1  0.61029000  0.37754000  0.70829000  1.0
  C  C21  1  0.11028000  0.12246000  0.29171000  1.0
  C  C22  1  0.38971000  0.62246000  0.29171000  1.0
  C  C23  1  0.88971000  0.87754000  0.70829000  1.0
  C  C24  1  0.44931000  0.26441000  0.84721000  1.0
  C  C25  1  0.94931000  0.23559000  0.15279000  1.0
  C  C26  1  0.55069000  0.73559000  0.15279000  1.0
  C  C27  1  0.05070000  0.76441000  0.84721000  1.0
  C  C28  1  0.65187000  0.39400000  0.62936000  1.0
  C  C29  1  0.15188000  0.10600000  0.37065000  1.0
  C  C30  1  0.34812000  0.60600000  0.37065000  1.0
  C  C31  1  0.84812000  0.89400000  0.62935000  1.0
  C  C32  1  0.56434000  0.31351000  0.60199000  1.0
  C  C33  1  0.06434000  0.18649000  0.39801000  1.0
  C  C34  1  0.43566000  0.68649000  0.39801000  1.0
  C  C35  1  0.93566000  0.81351000  0.60199000  1.0
  C  C36  1  0.43734000  0.21716000  0.65380000  1.0
  C  C37  1  0.93734000  0.28283000  0.34620000  1.0
  C  C38  1  0.56267000  0.78284000  0.34620000  1.0
  C  C39  1  0.06265000  0.71716000  0.65380000  1.0
  O  O40  1  0.58291000  0.17993000  0.89593000  1.0
  O  O41  1  0.08291000  0.32007000  0.10407000  1.0
  O  O42  1  0.41709000  0.82007000  0.10407000  1.0
  O  O43  1  0.91709000  0.67993000  0.89593000  1.0
  O  O44  1  0.18062000  0.02027000  0.08483000  1.0
  O  O45  1  0.68062000  0.47973000  0.91517000  1.0
  O  O46  1  0.81938000  0.97973000  0.91517000  1.0
  O  O47  1  0.31938000  0.52027000  0.08483000  1.0
  O  O48  1  0.28495000  0.33748000  0.86187000  1.0
  O  O49  1  0.78495000  0.16252000  0.13813000  1.0
  O  O50  1  0.71505000  0.66252000  0.13813000  1.0
  O  O51  1  0.21505000  0.83748000  0.86187000  1.0
  F  F52  1  0.70092000  0.45758000  0.73169000  1.0
  F  F53  1  0.20091000  0.04242000  0.26831000  1.0
  F  F54  1  0.29909000  0.54242000  0.26831000  1.0
  F  F55  1  0.79907000  0.95758000  0.73169000  1.0
  F  F56  1  0.28339000  0.10716000  0.78048000  1.0
  F  F57  1  0.78338000  0.39284000  0.21952000  1.0
  F  F58  1  0.71661000  0.89284000  0.21952000  1.0
  F  F59  1  0.21662000  0.60716000  0.78048000  1.0
  F  F60  1  0.34106000  0.14064000  0.62730000  1.0
  F  F61  1  0.84106000  0.35936000  0.37269000  1.0
  F  F62  1  0.65893000  0.85936000  0.37269000  1.0
  F  F63  1  0.15894000  0.64064000  0.62731000  1.0
  F  F64  1  0.60456000  0.32863000  0.52625000  1.0
  F  F65  1  0.10456000  0.17137000  0.47375000  1.0
  F  F66  1  0.39544000  0.67137000  0.47375000  1.0
  F  F67  1  0.89543000  0.82863000  0.52625000  1.0
  F  F68  1  0.77993000  0.48612000  0.57934000  1.0
  F  F69  1  0.27993000  0.01388000  0.42065000  1.0
  F  F70  1  0.22007000  0.51388000  0.42066000  1.0
  F  F71  1  0.72008000  0.98612000  0.57935000  1.0
