# generated using pymatgen
data_CdH18C20(NO)4
_symmetry_space_group_name_H-M   'P 1'
_cell_length_a   9.52053000
_cell_length_b   9.73843000
_cell_length_c   10.72490000
_cell_angle_alpha   89.99990000
_cell_angle_beta   89.99990000
_cell_angle_gamma   65.91000000
_symmetry_Int_Tables_number   1
_chemical_formula_structural   CdH18C20(NO)4
_chemical_formula_sum   'Cd2 H36 C40 N8 O8'
_cell_volume   907.75597194
_cell_formula_units_Z   2
loop_
 _symmetry_equiv_pos_site_id
 _symmetry_equiv_pos_as_xyz
  1  'x, y, z'
loop_
 _atom_site_type_symbol
 _atom_site_label
 _atom_site_symmetry_multiplicity
 _atom_site_fract_x
 _atom_site_fract_y
 _atom_site_fract_z
 _atom_site_occupancy
  Cd  Cd0  1  0.50000000  0.50000000  0.50000000  1.0
  Cd  Cd1  1  0.00000000  0.00000000  0.00000000  1.0
  H  H2  1  0.78554000  0.59003000  0.40957000  1.0
  H  H3  1  0.71446000  0.90997000  0.90957000  1.0
  H  H4  1  0.21446000  0.40997000  0.59043000  1.0
  H  H5  1  0.28554000  0.09003000  0.09043000  1.0
  H  H6  1  0.59129000  0.03666000  0.25157000  1.0
  H  H7  1  0.90871000  0.46334000  0.75157000  1.0
  H  H8  1  0.40871000  0.96334000  0.74843000  1.0
  H  H9  1  0.09129000  0.53666000  0.24843000  1.0
  H  H10  1  0.33873000  0.06668000  0.33900000  1.0
  H  H11  1  0.16127000  0.43332000  0.83900000  1.0
  H  H12  1  0.66127000  0.93331000  0.66100000  1.0
  H  H13  1  0.83873000  0.56668000  0.16100000  1.0
  H  H14  1  0.31899000  0.85179000  0.45628000  1.0
  H  H15  1  0.18101000  0.64821000  0.95628000  1.0
  H  H16  1  0.68101000  0.14821000  0.54372000  1.0
  H  H17  1  0.81899000  0.35179000  0.04372000  1.0
  H  H18  1  0.87401000  0.24285000  0.77216000  1.0
  H  H19  1  0.62599000  0.25715000  0.27216000  1.0
  H  H20  1  0.12599000  0.75715000  0.22784000  1.0
  H  H21  1  0.37401000  0.74285000  0.72784000  1.0
  H  H22  1  0.38590000  0.50353000  0.81023000  1.0
  H  H23  1  0.11410000  0.99647000  0.31023000  1.0
  H  H24  1  0.61410000  0.49647000  0.18977000  1.0
  H  H25  1  0.88590000  0.00353000  0.68977000  1.0
  H  H26  1  0.38854000  0.32953000  0.98511000  1.0
  H  H27  1  0.11146000  0.17047000  0.48511000  1.0
  H  H28  1  0.61146000  0.67047000  0.01489000  1.0
  H  H29  1  0.88853000  0.82953000  0.51489000  1.0
  H  H30  1  0.63936000  0.12410000  0.04842000  1.0
  H  H31  1  0.86064000  0.37590000  0.54842000  1.0
  H  H32  1  0.36064000  0.87590000  0.95158000  1.0
  H  H33  1  0.13936000  0.62410000  0.45158000  1.0
  H  H34  1  0.85379000  0.87946000  0.24069000  1.0
  H  H35  1  0.64621000  0.62054000  0.74069000  1.0
  H  H36  1  0.14621000  0.12054000  0.75931000  1.0
  H  H37  1  0.35379000  0.37946000  0.25931000  1.0
  C  C38  1  0.68824000  0.69730000  0.39327000  1.0
  C  C39  1  0.81176000  0.80270000  0.89327000  1.0
  C  C40  1  0.31176000  0.30270000  0.60673000  1.0
  C  C41  1  0.18824000  0.19730000  0.10673000  1.0
  C  C42  1  0.70979000  0.81100000  0.32540000  1.0
  C  C43  1  0.79021000  0.68900000  0.82541000  1.0
  C  C44  1  0.29021000  0.18900000  0.67459000  1.0
  C  C45  1  0.20979000  0.31100000  0.17459000  1.0
  C  C46  1  0.58064000  0.94604000  0.30449000  1.0
  C  C47  1  0.91935000  0.55396000  0.80449000  1.0
  C  C48  1  0.41936000  0.05396000  0.69551000  1.0
  C  C49  1  0.08064000  0.44604000  0.19551000  1.0
  C  C50  1  0.43948000  0.96183000  0.35258000  1.0
  C  C51  1  0.06052000  0.53817000  0.85258000  1.0
  C  C52  1  0.56052000  0.03817000  0.64742000  1.0
  C  C53  1  0.93948000  0.46183000  0.14742000  1.0
  C  C54  1  0.42800000  0.84363000  0.41824000  1.0
  C  C55  1  0.07200000  0.65637000  0.91824000  1.0
  C  C56  1  0.57200000  0.15637000  0.58176000  1.0
  C  C57  1  0.92800000  0.34363000  0.08176000  1.0
  C  C58  1  0.76397000  0.26614000  0.81743000  1.0
  C  C59  1  0.73603000  0.23386000  0.31743000  1.0
  C  C60  1  0.23603000  0.73386000  0.18257000  1.0
  C  C61  1  0.26397000  0.76614000  0.68257000  1.0
  C  C62  1  0.63018000  0.38978000  0.77743000  1.0
  C  C63  1  0.86982000  0.11022000  0.27743000  1.0
  C  C64  1  0.36982000  0.61022000  0.22257000  1.0
  C  C65  1  0.13018000  0.88978000  0.72257000  1.0
  C  C66  1  0.49192000  0.41077000  0.83921000  1.0
  C  C67  1  0.00808000  0.08924000  0.33921000  1.0
  C  C68  1  0.50808000  0.58923000  0.16079000  1.0
  C  C69  1  0.99192000  0.91077000  0.66079000  1.0
  C  C70  1  0.49326000  0.31445000  0.93507000  1.0
  C  C71  1  0.00674000  0.18555000  0.43507000  1.0
  C  C72  1  0.50674000  0.68555000  0.06493000  1.0
  C  C73  1  0.99326000  0.81445000  0.56493000  1.0
  C  C74  1  0.63157000  0.19817000  0.97019000  1.0
  C  C75  1  0.86843000  0.30183000  0.47019000  1.0
  C  C76  1  0.36843000  0.80183000  0.02981000  1.0
  C  C77  1  0.13157000  0.69817000  0.52981000  1.0
  N  N78  1  0.55062000  0.71317000  0.43752000  1.0
  N  N79  1  0.94938000  0.78683000  0.93752000  1.0
  N  N80  1  0.44938000  0.28683000  0.56248000  1.0
  N  N81  1  0.05062000  0.21317000  0.06248000  1.0
  N  N82  1  0.76441000  0.17466000  0.91132000  1.0
  N  N83  1  0.73559000  0.32534000  0.41132000  1.0
  N  N84  1  0.23559000  0.82534000  0.08868000  1.0
  N  N85  1  0.26441000  0.67466000  0.58868000  1.0
  O  O86  1  0.85167000  0.78462000  0.28331000  1.0
  O  O87  1  0.64833000  0.71538000  0.78331000  1.0
  O  O88  1  0.14833000  0.21538000  0.71669000  1.0
  O  O89  1  0.35167000  0.28462000  0.21669000  1.0
  O  O90  1  0.63706000  0.48092000  0.68758000  1.0
  O  O91  1  0.86294000  0.01908000  0.18758000  1.0
  O  O92  1  0.36294000  0.51908000  0.31242000  1.0
  O  O93  1  0.13706000  0.98092000  0.81242000  1.0
