# generated using pymatgen
data_HgH9C11N3Cl2O
_symmetry_space_group_name_H-M   'P 1'
_cell_length_a   7.95483000
_cell_length_b   12.00000000
_cell_length_c   13.41610000
_cell_angle_alpha   90.00000000
_cell_angle_beta   90.00000000
_cell_angle_gamma   95.35160000
_symmetry_Int_Tables_number   1
_chemical_formula_structural   HgH9C11N3Cl2O
_chemical_formula_sum   'Hg4 H36 C44 N12 Cl8 O4'
_cell_volume   1275.09121745
_cell_formula_units_Z   4
loop_
 _symmetry_equiv_pos_site_id
 _symmetry_equiv_pos_as_xyz
  1  'x, y, z'
loop_
 _atom_site_type_symbol
 _atom_site_label
 _atom_site_symmetry_multiplicity
 _atom_site_fract_x
 _atom_site_fract_y
 _atom_site_fract_z
 _atom_site_occupancy
  Hg  Hg0  1  0.83135000  0.17758000  0.61905000  1.0
  Hg  Hg1  1  0.66865000  0.32242000  0.11905000  1.0
  Hg  Hg2  1  0.16865000  0.82241000  0.38095000  1.0
  Hg  Hg3  1  0.33135000  0.67758000  0.88095000  1.0
  H  H4  1  0.47682000  0.20221000  0.49839000  1.0
  H  H5  1  0.02318000  0.29779000  0.99839000  1.0
  H  H6  1  0.52318000  0.79779000  0.50161000  1.0
  H  H7  1  0.97682000  0.70221000  0.00161000  1.0
  H  H8  1  0.50212000  0.50947000  0.32907000  1.0
  H  H9  1  0.99787000  0.99053000  0.82907000  1.0
  H  H10  1  0.49788000  0.49053000  0.67093000  1.0
  H  H11  1  0.00213000  0.00947000  0.17093000  1.0
  H  H12  1  0.81091000  0.54027000  0.37456000  1.0
  H  H13  1  0.68909000  0.95974000  0.87456000  1.0
  H  H14  1  0.18909000  0.45973000  0.62545000  1.0
  H  H15  1  0.31091000  0.04027000  0.12544000  1.0
  H  H16  1  0.93251000  0.39819000  0.48402000  1.0
  H  H17  1  0.56749000  0.10181000  0.98402000  1.0
  H  H18  1  0.06749000  0.60180000  0.51598000  1.0
  H  H19  1  0.43251000  0.89819000  0.01598000  1.0
  H  H20  1  0.03884000  0.04511000  0.42931000  1.0
  H  H21  1  0.46116000  0.45490000  0.92931000  1.0
  H  H22  1  0.96116000  0.95489000  0.57069000  1.0
  H  H23  1  0.53884000  0.54511000  0.07069000  1.0
  H  H24  1  0.74305000  0.98061000  0.37485000  1.0
  H  H25  1  0.75695000  0.51939000  0.87485000  1.0
  H  H26  1  0.25695000  0.01939000  0.62515000  1.0
  H  H27  1  0.24305000  0.48061000  0.12515000  1.0
  H  H28  1  0.59703000  0.10124000  0.25623000  1.0
  H  H29  1  0.90297000  0.39876000  0.75623000  1.0
  H  H30  1  0.40297000  0.89876000  0.74377000  1.0
  H  H31  1  0.09704000  0.60123000  0.24378000  1.0
  H  H32  1  0.01158000  0.33861000  0.24661000  1.0
  H  H33  1  0.48842000  0.16140000  0.74661000  1.0
  H  H34  1  0.98842000  0.66139000  0.75339000  1.0
  H  H35  1  0.51158000  0.83860000  0.25339000  1.0
  H  H36  1  0.28472000  0.16585000  0.38918000  1.0
  H  H37  1  0.21528000  0.33415000  0.88918000  1.0
  H  H38  1  0.71528000  0.83415000  0.61082000  1.0
  H  H39  1  0.78472000  0.66585000  0.11082000  1.0
  C  C40  1  0.54447000  0.27841000  0.46859000  1.0
  C  C41  1  0.95553000  0.22160000  0.96859000  1.0
  C  C42  1  0.45553000  0.72159000  0.53141000  1.0
  C  C43  1  0.04447000  0.77840000  0.03141000  1.0
  C  C44  1  0.46622000  0.35300000  0.40794000  1.0
  C  C45  1  0.03378000  0.14701000  0.90794000  1.0
  C  C46  1  0.53378000  0.64701000  0.59206000  1.0
  C  C47  1  0.96622000  0.85299000  0.09206000  1.0
  C  C48  1  0.56262000  0.44976000  0.37493000  1.0
  C  C49  1  0.93737000  0.05024000  0.87492000  1.0
  C  C50  1  0.43738000  0.55024000  0.62508000  1.0
  C  C51  1  0.06263000  0.94976000  0.12507000  1.0
  C  C52  1  0.73225000  0.46674000  0.40047000  1.0
  C  C53  1  0.76775000  0.03326000  0.90047000  1.0
  C  C54  1  0.26776000  0.53326000  0.59953000  1.0
  C  C55  1  0.23225000  0.96674000  0.09953000  1.0
  C  C56  1  0.80012000  0.38839000  0.46168000  1.0
  C  C57  1  0.69988000  0.11161000  0.96168000  1.0
  C  C58  1  0.19988000  0.61161000  0.53833000  1.0
  C  C59  1  0.30012000  0.88839000  0.03832000  1.0
  C  C60  1  0.28411000  0.33825000  0.37822000  1.0
  C  C61  1  0.21589000  0.16175000  0.87822000  1.0
  C  C62  1  0.71589000  0.66175000  0.62178000  1.0
  C  C63  1  0.78411000  0.83824000  0.12178000  1.0
  C  C64  1  0.04813000  0.19655000  0.34260000  1.0
  C  C65  1  0.45187000  0.30346000  0.84260000  1.0
  C  C66  1  0.95187000  0.80346000  0.65740000  1.0
  C  C67  1  0.54813000  0.69654000  0.15740000  1.0
  C  C68  1  0.96973000  0.09478000  0.37833000  1.0
  C  C69  1  0.53028000  0.40522000  0.87834000  1.0
  C  C70  1  0.03027000  0.90522000  0.62167000  1.0
  C  C71  1  0.46972000  0.59478000  0.12166000  1.0
  C  C72  1  0.80652000  0.05916000  0.34815000  1.0
  C  C73  1  0.69348000  0.44084000  0.84815000  1.0
  C  C74  1  0.19348000  0.94084000  0.65185000  1.0
  C  C75  1  0.30652000  0.55916000  0.15185000  1.0
  C  C76  1  0.72461000  0.12590000  0.28248000  1.0
  C  C77  1  0.77539000  0.37410000  0.78248000  1.0
  C  C78  1  0.27540000  0.87410000  0.71752000  1.0
  C  C79  1  0.22461000  0.62590000  0.21752000  1.0
  C  C80  1  0.95766000  0.25900000  0.27659000  1.0
  C  C81  1  0.54234000  0.24101000  0.77660000  1.0
  C  C82  1  0.04234000  0.74101000  0.72341000  1.0
  C  C83  1  0.45766000  0.75899000  0.22341000  1.0
  N  N84  1  0.70750000  0.29690000  0.49549000  1.0
  N  N85  1  0.79250000  0.20310000  0.99549000  1.0
  N  N86  1  0.29250000  0.70310000  0.50451000  1.0
  N  N87  1  0.20750000  0.79690000  0.00451000  1.0
  N  N88  1  0.80027000  0.22297000  0.24809000  1.0
  N  N89  1  0.69973000  0.27704000  0.74809000  1.0
  N  N90  1  0.19973000  0.77703000  0.75191000  1.0
  N  N91  1  0.30027000  0.72296000  0.25191000  1.0
  N  N92  1  0.21385000  0.23012000  0.37142000  1.0
  N  N93  1  0.28615000  0.26988000  0.87142000  1.0
  N  N94  1  0.78615000  0.76988000  0.62858000  1.0
  N  N95  1  0.71385000  0.73012000  0.12858000  1.0
  Cl  Cl96  1  0.62794000  0.01301000  0.61105000  1.0
  Cl  Cl97  1  0.87206000  0.48699000  0.11105000  1.0
  Cl  Cl98  1  0.37206000  0.98698000  0.38895000  1.0
  Cl  Cl99  1  0.12794000  0.51301000  0.88895000  1.0
  Cl  Cl100  1  0.12787000  0.23845000  0.62407000  1.0
  Cl  Cl101  1  0.37212000  0.26155000  0.12407000  1.0
  Cl  Cl102  1  0.87213000  0.76154000  0.37593000  1.0
  Cl  Cl103  1  0.62787000  0.73846000  0.87593000  1.0
  O  O104  1  0.20582000  0.42062000  0.36067000  1.0
  O  O105  1  0.29418000  0.07938000  0.86067000  1.0
  O  O106  1  0.79418000  0.57938000  0.63933000  1.0
  O  O107  1  0.70582000  0.92062000  0.13933000  1.0
