# generated using pymatgen
data_NiH8C10NO5
_symmetry_space_group_name_H-M   'P 1'
_cell_length_a   5.79854000
_cell_length_b   8.06548000
_cell_length_c   27.61310000
_cell_angle_alpha   90.00250000
_cell_angle_beta   89.99900000
_cell_angle_gamma   89.99840000
_symmetry_Int_Tables_number   1
_chemical_formula_structural   NiH8C10NO5
_chemical_formula_sum   'Ni4 H32 C40 N4 O20'
_cell_volume   1291.40969080
_cell_formula_units_Z   4
loop_
 _symmetry_equiv_pos_site_id
 _symmetry_equiv_pos_as_xyz
  1  'x, y, z'
loop_
 _atom_site_type_symbol
 _atom_site_label
 _atom_site_symmetry_multiplicity
 _atom_site_fract_x
 _atom_site_fract_y
 _atom_site_fract_z
 _atom_site_occupancy
  Ni  Ni0  1  0.52107000  0.25374000  0.71770000  1.0
  Ni  Ni1  1  0.47890000  0.25357000  0.28229000  1.0
  Ni  Ni2  1  0.97895000  0.74626000  0.21770000  1.0
  Ni  Ni3  1  0.02107000  0.74644000  0.78229000  1.0
  H  H4  1  0.63427000  0.44380000  0.54473000  1.0
  H  H5  1  0.36572000  0.44375000  0.45527000  1.0
  H  H6  1  0.86573000  0.55618000  0.04472000  1.0
  H  H7  1  0.13427000  0.55624000  0.95527000  1.0
  H  H8  1  0.43472000  0.37096000  0.84087000  1.0
  H  H9  1  0.56525000  0.37073000  0.15912000  1.0
  H  H10  1  0.06529000  0.62908000  0.34087000  1.0
  H  H11  1  0.93476000  0.62923000  0.65912000  1.0
  H  H12  1  0.17905000  0.14336000  0.60645000  1.0
  H  H13  1  0.82097000  0.14325000  0.39356000  1.0
  H  H14  1  0.32096000  0.85663000  0.10645000  1.0
  H  H15  1  0.67900000  0.85678000  0.89357000  1.0
  H  H16  1  0.42997000  0.42050000  0.62482000  1.0
  H  H17  1  0.57007000  0.42039000  0.37518000  1.0
  H  H18  1  0.07004000  0.57948000  0.12481000  1.0
  H  H19  1  0.92990000  0.57960000  0.87518000  1.0
  H  H20  1  0.94838000  0.13027000  0.68218000  1.0
  H  H21  1  0.05164000  0.13012000  0.31784000  1.0
  H  H22  1  0.55166000  0.86970000  0.18218000  1.0
  H  H23  1  0.44828000  0.86991000  0.81785000  1.0
  H  H24  1  0.23739000  0.28388000  0.52487000  1.0
  H  H25  1  0.76262000  0.28384000  0.47514000  1.0
  H  H26  1  0.26258000  0.71610000  0.02488000  1.0
  H  H27  1  0.73736000  0.71617000  0.97514000  1.0
  H  H28  1  0.64503000  0.12954000  0.86104000  1.0
  H  H29  1  0.35497000  0.12930000  0.13895000  1.0
  H  H30  1  0.85503000  0.87055000  0.36103000  1.0
  H  H31  1  0.14506000  0.87065000  0.63896000  1.0
  H  H32  1  0.87291000  0.26296000  0.84323000  1.0
  H  H33  1  0.12711000  0.26271000  0.15676000  1.0
  H  H34  1  0.62712000  0.73710000  0.34323000  1.0
  H  H35  1  0.37295000  0.73724000  0.65677000  1.0
  C  C36  1  0.92239000  0.28964000  0.56773000  1.0
  C  C37  1  0.07761000  0.28958000  0.43227000  1.0
  C  C38  1  0.57762000  0.71035000  0.06773000  1.0
  C  C39  1  0.42237000  0.71042000  0.93227000  1.0
  C  C40  1  0.70822000  0.36947000  0.57383000  1.0
  C  C41  1  0.29179000  0.36943000  0.42616000  1.0
  C  C42  1  0.79180000  0.63050000  0.07383000  1.0
  C  C43  1  0.20820000  0.63057000  0.92616000  1.0
  C  C44  1  0.53581000  0.32067000  0.81023000  1.0
  C  C45  1  0.46419000  0.32045000  0.18976000  1.0
  C  C46  1  0.96421000  0.67936000  0.31023000  1.0
  C  C47  1  0.03580000  0.67951000  0.68977000  1.0
  C  C48  1  0.01160000  0.20455000  0.60777000  1.0
  C  C49  1  0.98845000  0.20441000  0.39225000  1.0
  C  C50  1  0.48841000  0.79544000  0.10777000  1.0
  C  C51  1  0.51151000  0.79563000  0.89226000  1.0
  C  C52  1  0.59411000  0.35921000  0.61786000  1.0
  C  C53  1  0.40590000  0.35914000  0.38213000  1.0
  C  C54  1  0.90591000  0.64076000  0.11786000  1.0
  C  C55  1  0.09406000  0.64086000  0.88213000  1.0
  C  C56  1  0.88618000  0.19695000  0.65058000  1.0
  C  C57  1  0.11385000  0.19679000  0.34944000  1.0
  C  C58  1  0.61383000  0.80303000  0.15057000  1.0
  C  C59  1  0.38608000  0.80324000  0.84945000  1.0
  C  C60  1  0.79809000  0.07175000  0.79246000  1.0
  C  C61  1  0.20191000  0.07155000  0.20754000  1.0
  C  C62  1  0.70192000  0.92827000  0.29245000  1.0
  C  C63  1  0.29810000  0.92842000  0.70754000  1.0
  C  C64  1  0.04951000  0.29283000  0.52211000  1.0
  C  C65  1  0.95049000  0.29280000  0.47789000  1.0
  C  C66  1  0.45048000  0.70717000  0.02211000  1.0
  C  C67  1  0.54950000  0.70720000  0.97789000  1.0
  C  C68  1  0.71757000  0.19767000  0.83021000  1.0
  C  C69  1  0.28248000  0.19748000  0.16979000  1.0
  C  C70  1  0.78247000  0.80236000  0.33020000  1.0
  C  C71  1  0.21758000  0.80250000  0.66979000  1.0
  C  C72  1  0.66125000  0.46395000  0.78525000  1.0
  C  C73  1  0.33871000  0.46376000  0.21475000  1.0
  C  C74  1  0.83875000  0.53607000  0.28524000  1.0
  C  C75  1  0.16128000  0.53623000  0.71476000  1.0
  N  N76  1  0.68131000  0.27271000  0.65545000  1.0
  N  N77  1  0.31872000  0.27259000  0.34455000  1.0
  N  N78  1  0.81871000  0.72727000  0.15545000  1.0
  N  N79  1  0.18124000  0.72742000  0.84456000  1.0
  O  O80  1  0.38448000  0.24431000  0.77775000  1.0
  O  O81  1  0.61550000  0.24414000  0.22224000  1.0
  O  O82  1  0.11555000  0.75569000  0.27775000  1.0
  O  O83  1  0.88449000  0.75587000  0.72224000  1.0
  O  O84  1  0.78759000  0.10088000  0.74787000  1.0
  O  O85  1  0.21238000  0.10070000  0.25213000  1.0
  O  O86  1  0.71242000  0.89912000  0.24786000  1.0
  O  O87  1  0.28760000  0.89928000  0.75213000  1.0
  O  O88  1  0.74983000  0.58032000  0.80920000  1.0
  O  O89  1  0.25011000  0.58011000  0.19080000  1.0
  O  O90  1  0.75012000  0.41972000  0.30920000  1.0
  O  O91  1  0.24990000  0.41987000  0.69081000  1.0
  O  O92  1  0.67524000  0.44824000  0.73891000  1.0
  O  O93  1  0.32473000  0.44803000  0.26108000  1.0
  O  O94  1  0.82477000  0.55177000  0.23891000  1.0
  O  O95  1  0.17523000  0.55197000  0.76109000  1.0
  O  O96  1  0.87687000  0.93789000  0.81175000  1.0
  O  O97  1  0.12313000  0.93771000  0.18824000  1.0
  O  O98  1  0.62314000  0.06213000  0.31175000  1.0
  O  O99  1  0.37688000  0.06224000  0.68824000  1.0
