# generated using pymatgen
data_Zn3H42C66(N3O4)4
_symmetry_space_group_name_H-M   'P 1'
_cell_length_a   10.33550000
_cell_length_b   10.56300000
_cell_length_c   14.96630000
_cell_angle_alpha   99.87420000
_cell_angle_beta   99.02530000
_cell_angle_gamma   112.36800000
_symmetry_Int_Tables_number   1
_chemical_formula_structural   Zn3H42C66(N3O4)4
_chemical_formula_sum   'Zn3 H42 C66 N12 O16'
_cell_volume   1443.68383738
_cell_formula_units_Z   1
loop_
 _symmetry_equiv_pos_site_id
 _symmetry_equiv_pos_as_xyz
  1  'x, y, z'
loop_
 _atom_site_type_symbol
 _atom_site_label
 _atom_site_symmetry_multiplicity
 _atom_site_fract_x
 _atom_site_fract_y
 _atom_site_fract_z
 _atom_site_occupancy
  Zn  Zn0  1  0.61310000  0.41264000  0.03615000  1.0
  Zn  Zn1  1  0.38690000  0.58736000  0.96385000  1.0
  Zn  Zn2  1  0.50000000  0.50000000  0.50000000  1.0
  H  H3  1  0.58971000  0.89133000  0.07454000  1.0
  H  H4  1  0.41029000  0.10867000  0.92546000  1.0
  H  H5  1  0.15272000  0.25173000  0.76771000  1.0
  H  H6  1  0.84728000  0.74827000  0.23229000  1.0
  H  H7  1  0.88197000  0.26960000  0.81753000  1.0
  H  H8  1  0.11803000  0.73041000  0.18247000  1.0
  H  H9  1  0.56304000  0.42320000  0.69701000  1.0
  H  H10  1  0.43696000  0.57680000  0.30299000  1.0
  H  H11  1  0.42923000  0.02610000  0.78849000  1.0
  H  H12  1  0.57077000  0.97390000  0.21151000  1.0
  H  H13  1  0.60431000  0.30661000  0.20406000  1.0
  H  H14  1  0.39569000  0.69339000  0.79594000  1.0
  H  H15  1  0.11787000  0.49218000  0.20267000  1.0
  H  H16  1  0.88213000  0.50782000  0.79733000  1.0
  H  H17  1  0.93088000  0.48767000  0.07452000  1.0
  H  H18  1  0.06912000  0.51233000  0.92548000  1.0
  H  H19  1  0.43835000  0.82812000  0.67430000  1.0
  H  H20  1  0.56165000  0.17188000  0.32570000  1.0
  H  H21  1  0.41604000  0.31550000  0.80690000  1.0
  H  H22  1  0.58396000  0.68450000  0.19310000  1.0
  H  H23  1  0.88655000  0.06968000  0.70062000  1.0
  H  H24  1  0.11346000  0.93032000  0.29938000  1.0
  H  H25  1  0.06162000  0.11120000  0.23642000  1.0
  H  H26  1  0.93837000  0.88879000  0.76358000  1.0
  H  H27  1  0.97911000  0.08036000  0.39034000  1.0
  H  H28  1  0.02089000  0.91964000  0.60966000  1.0
  H  H29  1  0.77680000  0.30536000  0.33855000  1.0
  H  H30  1  0.22321000  0.69464000  0.66145000  1.0
  H  H31  1  0.29199000  0.25433000  0.19912000  1.0
  H  H32  1  0.70801000  0.74567000  0.80088000  1.0
  H  H33  1  0.04075000  0.29514000  0.62157000  1.0
  H  H34  1  0.95925000  0.70486000  0.37843000  1.0
  H  H35  1  0.05359000  0.24781000  0.93455000  1.0
  H  H36  1  0.94641000  0.75219000  0.06545000  1.0
  H  H37  1  0.82312000  0.09762000  0.96873000  1.0
  H  H38  1  0.17688000  0.90238000  0.03127000  1.0
  H  H39  1  0.59986000  0.98305000  0.50150000  1.0
  H  H40  1  0.40014000  0.01694000  0.49850000  1.0
  H  H41  1  0.75840000  0.89854000  0.42230000  1.0
  H  H42  1  0.24160000  0.10146000  0.57770000  1.0
  H  H43  1  0.66415000  0.24419000  0.54567000  1.0
  H  H44  1  0.33586000  0.75581000  0.45433000  1.0
  C  C45  1  0.65766000  0.15867000  0.81303000  1.0
  C  C46  1  0.34234000  0.84133000  0.18697000  1.0
  C  C47  1  0.66284000  0.93624000  0.68305000  1.0
  C  C48  1  0.33716000  0.06376000  0.31695000  1.0
  C  C49  1  0.21789000  0.29764000  0.72131000  1.0
  C  C50  1  0.78211000  0.70235000  0.27869000  1.0
  C  C51  1  0.07517000  0.40939000  0.35996000  1.0
  C  C52  1  0.92483000  0.59061000  0.64004000  1.0
  C  C53  1  0.78545000  0.17185000  0.78604000  1.0
  C  C54  1  0.21456000  0.82815000  0.21397000  1.0
  C  C55  1  0.96370000  0.39852000  0.28271000  1.0
  C  C56  1  0.03630000  0.60148000  0.71729000  1.0
  C  C57  1  0.32243000  0.34111000  0.03994000  1.0
  C  C58  1  0.67757000  0.65889000  0.96007000  1.0
  C  C59  1  0.44666000  0.39172000  0.68289000  1.0
  C  C60  1  0.55334000  0.60827000  0.31711000  1.0
  C  C61  1  0.53079000  0.03521000  0.77176000  1.0
  C  C62  1  0.46921000  0.96479000  0.22824000  1.0
  C  C63  1  0.92867000  0.09473000  0.10447000  1.0
  C  C64  1  0.07133000  0.90526000  0.89553000  1.0
  C  C65  1  0.93004000  0.25109000  0.45263000  1.0
  C  C66  1  0.06996000  0.74891000  0.54737000  1.0
  C  C67  1  0.19430000  0.40275000  0.49200000  1.0
  C  C68  1  0.80570000  0.59725000  0.50800000  1.0
  C  C69  1  0.71914000  0.34576000  0.20666000  1.0
  C  C70  1  0.28086000  0.65424000  0.79334000  1.0
  C  C71  1  0.00558000  0.45025000  0.20636000  1.0
  C  C72  1  0.99442000  0.54975000  0.79364000  1.0
  C  C73  1  0.90208000  0.44882000  0.13473000  1.0
  C  C74  1  0.09792000  0.55118000  0.86527000  1.0
  C  C75  1  0.53458000  0.92535000  0.70748000  1.0
  C  C76  1  0.46542000  0.07465000  0.29252000  1.0
  C  C77  1  0.36559000  0.33359000  0.74378000  1.0
  C  C78  1  0.63441000  0.66641000  0.25622000  1.0
  C  C79  1  0.66344000  0.27531000  0.88766000  1.0
  C  C80  1  0.33656000  0.72469000  0.11234000  1.0
  C  C81  1  0.24335000  0.37541000  0.58081000  1.0
  C  C82  1  0.75665000  0.62459000  0.41919000  1.0
  C  C83  1  0.78807000  0.06181000  0.72170000  1.0
  C  C84  1  0.21193000  0.93819000  0.27830000  1.0
  C  C85  1  0.18600000  0.25882000  0.06422000  1.0
  C  C86  1  0.81400000  0.74118000  0.93578000  1.0
  C  C87  1  0.06052000  0.14034000  0.16997000  1.0
  C  C88  1  0.93948000  0.85966000  0.83003000  1.0
  C  C89  1  0.90438000  0.10933000  0.42352000  1.0
  C  C90  1  0.09562000  0.89067000  0.57648000  1.0
  C  C91  1  0.66749000  0.81454000  0.61560000  1.0
  C  C92  1  0.33252000  0.18546000  0.38440000  1.0
  C  C93  1  0.81634000  0.34410000  0.28116000  1.0
  C  C94  1  0.18366000  0.65589000  0.71884000  1.0
  C  C95  1  0.18882000  0.22071000  0.14957000  1.0
  C  C96  1  0.81119000  0.77929000  0.85043000  1.0
  C  C97  1  0.15526000  0.31981000  0.63931000  1.0
  C  C98  1  0.84474000  0.68019000  0.36069000  1.0
  C  C99  1  0.05368000  0.21678000  0.00021000  1.0
  C  C100  1  0.94633000  0.78322000  0.99979000  1.0
  C  C101  1  0.79441000  0.00225000  0.12683000  1.0
  C  C102  1  0.20558000  0.99775000  0.87317000  1.0
  C  C103  1  0.92552000  0.13386000  0.01953000  1.0
  C  C104  1  0.07448000  0.86614000  0.98047000  1.0
  C  C105  1  0.69453000  0.05773000  0.48572000  1.0
  C  C106  1  0.30547000  0.94227000  0.51428000  1.0
  C  C107  1  0.78276000  0.01057000  0.44154000  1.0
  C  C108  1  0.21724000  0.98943000  0.55846000  1.0
  C  C109  1  0.73052000  0.20261000  0.51122000  1.0
  C  C110  1  0.26949000  0.79739000  0.48878000  1.0
  N  N111  1  0.76075000  0.39870000  0.13506000  1.0
  N  N112  1  0.23925000  0.60130000  0.86494000  1.0
  N  N113  1  0.38699000  0.41089000  0.60308000  1.0
  N  N114  1  0.61301000  0.58911000  0.39692000  1.0
  N  N115  1  0.28755000  0.47864000  0.44881000  1.0
  N  N116  1  0.71245000  0.52136000  0.55119000  1.0
  N  N117  1  0.05794000  0.35694000  0.43817000  1.0
  N  N118  1  0.94206000  0.64307000  0.56183000  1.0
  N  N119  1  0.21512000  0.48221000  0.36684000  1.0
  N  N120  1  0.78488000  0.51779000  0.63316000  1.0
  N  N121  1  0.84799000  0.29954000  0.49537000  1.0
  N  N122  1  0.15201000  0.70046000  0.50463000  1.0
  O  O123  1  0.44163000  0.35968000  0.09234000  1.0
  O  O124  1  0.55837000  0.64032000  0.90766000  1.0
  O  O125  1  0.31399000  0.38640000  0.96594000  1.0
  O  O126  1  0.68601000  0.61360000  0.03407000  1.0
  O  O127  1  0.55019000  0.25157000  0.92322000  1.0
  O  O128  1  0.44981000  0.74843000  0.07678000  1.0
  O  O129  1  0.54776000  0.70344000  0.58444000  1.0
  O  O130  1  0.45225000  0.29656000  0.41556000  1.0
  O  O131  1  0.67493000  0.96344000  0.05905000  1.0
  O  O132  1  0.32507000  0.03656000  0.94095000  1.0
  O  O133  1  0.78607000  0.83207000  0.59595000  1.0
  O  O134  1  0.21393000  0.16793000  0.40404000  1.0
  O  O135  1  0.77273000  0.39042000  0.91718000  1.0
  O  O136  1  0.22727000  0.60958000  0.08282000  1.0
  O  O137  1  0.79380000  0.96458000  0.20034000  1.0
  O  O138  1  0.20620000  0.03542000  0.79966000  1.0
