# generated using pymatgen
data_ZnH7C8N5O2
_symmetry_space_group_name_H-M   'P 1'
_cell_length_a   9.84947000
_cell_length_b   12.01140000
_cell_length_c   12.01140000
_cell_angle_alpha   88.24880000
_cell_angle_beta   69.26570000
_cell_angle_gamma   69.26590000
_symmetry_Int_Tables_number   1
_chemical_formula_structural   ZnH7C8N5O2
_chemical_formula_sum   'Zn4 H28 C32 N20 O8'
_cell_volume   1235.59102533
_cell_formula_units_Z   4
loop_
 _symmetry_equiv_pos_site_id
 _symmetry_equiv_pos_as_xyz
  1  'x, y, z'
loop_
 _atom_site_type_symbol
 _atom_site_label
 _atom_site_symmetry_multiplicity
 _atom_site_fract_x
 _atom_site_fract_y
 _atom_site_fract_z
 _atom_site_occupancy
  Zn  Zn0  1  0.85492000  0.84198000  0.62661000  1.0
  Zn  Zn1  1  0.64508000  0.37339000  0.15802000  1.0
  Zn  Zn2  1  0.14508000  0.15802000  0.37339000  1.0
  Zn  Zn3  1  0.35492000  0.62661000  0.84198000  1.0
  H  H4  1  0.70527000  0.72090000  0.50948000  1.0
  H  H5  1  0.79473000  0.49052000  0.27910000  1.0
  H  H6  1  0.29473000  0.27910000  0.49052000  1.0
  H  H7  1  0.20528000  0.50948000  0.72090000  1.0
  H  H8  1  0.50052000  0.75123000  0.57060000  1.0
  H  H9  1  0.99948000  0.42940000  0.24877000  1.0
  H  H10  1  0.49948000  0.24877000  0.42940000  1.0
  H  H11  1  0.00053000  0.57059000  0.75123000  1.0
  H  H12  1  0.63268000  0.60330000  0.55936000  1.0
  H  H13  1  0.86732000  0.44064000  0.39670000  1.0
  H  H14  1  0.36732000  0.39670000  0.44064000  1.0
  H  H15  1  0.13269000  0.55936000  0.60330000  1.0
  H  H16  1  0.64798000  0.01890000  0.84520000  1.0
  H  H17  1  0.85201000  0.15480000  0.98111000  1.0
  H  H18  1  0.35200000  0.98111000  0.15480000  1.0
  H  H19  1  0.14799000  0.84520000  0.01889000  1.0
  H  H20  1  0.50741000  0.24166000  0.89049000  1.0
  H  H21  1  0.99259000  0.10950000  0.75835000  1.0
  H  H22  1  0.49258000  0.75834000  0.10951000  1.0
  H  H23  1  0.00742000  0.89049000  0.24166000  1.0
  H  H24  1  0.68889000  0.26882000  0.51189000  1.0
  H  H25  1  0.81110000  0.48810000  0.73118000  1.0
  H  H26  1  0.31111000  0.73118000  0.48811000  1.0
  H  H27  1  0.18890000  0.51189000  0.26882000  1.0
  H  H28  1  0.82406000  0.04276000  0.48012000  1.0
  H  H29  1  0.67594000  0.51988000  0.95723000  1.0
  H  H30  1  0.17594000  0.95724000  0.51988000  1.0
  H  H31  1  0.32407000  0.48012000  0.04277000  1.0
  C  C32  1  0.61075000  0.72192000  0.69817000  1.0
  C  C33  1  0.88925000  0.30183000  0.27809000  1.0
  C  C34  1  0.38925000  0.27808000  0.30183000  1.0
  C  C35  1  0.11075000  0.69817000  0.72192000  1.0
  C  C36  1  0.61339000  0.69783000  0.57703000  1.0
  C  C37  1  0.88661000  0.42297000  0.30217000  1.0
  C  C38  1  0.38661000  0.30217000  0.42297000  1.0
  C  C39  1  0.11339000  0.57702000  0.69783000  1.0
  C  C40  1  0.65288000  0.07760000  0.77390000  1.0
  C  C41  1  0.84712000  0.22610000  0.92241000  1.0
  C  C42  1  0.34711000  0.92241000  0.22610000  1.0
  C  C43  1  0.15289000  0.77390000  0.07759000  1.0
  C  C44  1  0.57406000  0.20083000  0.79837000  1.0
  C  C45  1  0.92593000  0.20162000  0.79918000  1.0
  C  C46  1  0.42593000  0.79918000  0.20162000  1.0
  C  C47  1  0.07407000  0.79838000  0.20083000  1.0
  C  C48  1  0.58624000  0.27085000  0.70272000  1.0
  C  C49  1  0.91375000  0.29727000  0.72916000  1.0
  C  C50  1  0.41375000  0.72916000  0.29727000  1.0
  C  C51  1  0.08625000  0.70273000  0.27085000  1.0
  C  C52  1  0.67700000  0.21459000  0.58649000  1.0
  C  C53  1  0.82299000  0.41350000  0.78541000  1.0
  C  C54  1  0.32300000  0.78542000  0.41351000  1.0
  C  C55  1  0.17701000  0.58649000  0.21459000  1.0
  C  C56  1  0.75208000  0.09103000  0.56896000  1.0
  C  C57  1  0.74792000  0.43104000  0.90897000  1.0
  C  C58  1  0.24792000  0.90897000  0.43104000  1.0
  C  C59  1  0.25209000  0.56896000  0.09103000  1.0
  C  C60  1  0.50889000  0.40528000  0.72120000  1.0
  C  C61  1  0.99111000  0.27879000  0.59473000  1.0
  C  C62  1  0.49111000  0.59473000  0.27879000  1.0
  C  C63  1  0.00889000  0.72121000  0.40527000  1.0
  N  N64  1  0.69795000  0.77386000  0.72389000  1.0
  N  N65  1  0.80205000  0.27611000  0.22614000  1.0
  N  N66  1  0.30205000  0.22614000  0.27611000  1.0
  N  N67  1  0.19795000  0.72389000  0.77387000  1.0
  N  N68  1  0.66031000  0.78069000  0.84466000  1.0
  N  N69  1  0.83970000  0.15534000  0.21930000  1.0
  N  N70  1  0.33970000  0.21931000  0.15534000  1.0
  N  N71  1  0.16030000  0.84466000  0.78070000  1.0
  N  N72  1  0.55456000  0.73427000  0.89111000  1.0
  N  N73  1  0.94544000  0.10890000  0.26573000  1.0
  N  N74  1  0.44544000  0.26573000  0.10890000  1.0
  N  N75  1  0.05456000  0.89110000  0.73427000  1.0
  N  N76  1  0.52128000  0.69635000  0.80171000  1.0
  N  N77  1  0.97872000  0.19830000  0.30364000  1.0
  N  N78  1  0.47873000  0.30365000  0.19829000  1.0
  N  N79  1  0.02128000  0.80170000  0.69636000  1.0
  N  N80  1  0.73990000  0.02373000  0.66142000  1.0
  N  N81  1  0.76009000  0.33858000  0.97627000  1.0
  N  N82  1  0.26009000  0.97628000  0.33858000  1.0
  N  N83  1  0.23991000  0.66142000  0.02373000  1.0
  O  O84  1  0.42368000  0.45109000  0.83151000  1.0
  O  O85  1  0.07632000  0.16848000  0.54892000  1.0
  O  O86  1  0.57632000  0.54892000  0.16848000  1.0
  O  O87  1  0.92369000  0.83152000  0.45109000  1.0
  O  O88  1  0.52970000  0.46433000  0.63388000  1.0
  O  O89  1  0.97028000  0.36611000  0.53567000  1.0
  O  O90  1  0.47029000  0.53567000  0.36612000  1.0
  O  O91  1  0.02970000  0.63388000  0.46434000  1.0
