# generated using pymatgen
data_NiH9C5(NO2)3
_symmetry_space_group_name_H-M   'P 1'
_cell_length_a   7.56163000
_cell_length_b   8.30365000
_cell_length_c   14.61840000
_cell_angle_alpha   90.00020000
_cell_angle_beta   90.00000000
_cell_angle_gamma   89.99950000
_symmetry_Int_Tables_number   1
_chemical_formula_structural   NiH9C5(NO2)3
_chemical_formula_sum   'Ni4 H36 C20 N12 O24'
_cell_volume   917.87660259
_cell_formula_units_Z   4
loop_
 _symmetry_equiv_pos_site_id
 _symmetry_equiv_pos_as_xyz
  1  'x, y, z'
loop_
 _atom_site_type_symbol
 _atom_site_label
 _atom_site_symmetry_multiplicity
 _atom_site_fract_x
 _atom_site_fract_y
 _atom_site_fract_z
 _atom_site_occupancy
  Ni  Ni0  1  0.69045000  0.36069000  0.32715000  1.0
  Ni  Ni1  1  0.19045000  0.13931000  0.67285000  1.0
  Ni  Ni2  1  0.30955000  0.86069000  0.17285000  1.0
  Ni  Ni3  1  0.80955000  0.63932000  0.82715000  1.0
  H  H4  1  0.76884000  0.43481000  0.67395000  1.0
  H  H5  1  0.26884000  0.06519000  0.32605000  1.0
  H  H6  1  0.23116000  0.93481000  0.82605000  1.0
  H  H7  1  0.73116000  0.56519000  0.17395000  1.0
  H  H8  1  0.82431000  0.85962000  0.51742000  1.0
  H  H9  1  0.32431000  0.64038000  0.48258000  1.0
  H  H10  1  0.17570000  0.35962000  0.98258000  1.0
  H  H11  1  0.67569000  0.14038000  0.01742000  1.0
  H  H12  1  0.35853000  0.39421000  0.27161000  1.0
  H  H13  1  0.85853000  0.10579000  0.72839000  1.0
  H  H14  1  0.64147000  0.89420000  0.22839000  1.0
  H  H15  1  0.14147000  0.60580000  0.77161000  1.0
  H  H16  1  0.35301000  0.34493000  0.37542000  1.0
  H  H17  1  0.85301000  0.15507000  0.62459000  1.0
  H  H18  1  0.64699000  0.84493000  0.12459000  1.0
  H  H19  1  0.14699000  0.65507000  0.87542000  1.0
  H  H20  1  0.02263000  0.28660000  0.36891000  1.0
  H  H21  1  0.52262000  0.21340000  0.63109000  1.0
  H  H22  1  0.97737000  0.78660000  0.13109000  1.0
  H  H23  1  0.47737000  0.71340000  0.86891000  1.0
  H  H24  1  0.01608000  0.34007000  0.26052000  1.0
  H  H25  1  0.51608000  0.15993000  0.73948000  1.0
  H  H26  1  0.98392000  0.84007000  0.23948000  1.0
  H  H27  1  0.48392000  0.65993000  0.76052000  1.0
  H  H28  1  0.93760000  0.16529000  0.29143000  1.0
  H  H29  1  0.43759000  0.33471000  0.70857000  1.0
  H  H30  1  0.06240000  0.66529000  0.20858000  1.0
  H  H31  1  0.56240000  0.83471000  0.79142000  1.0
  H  H32  1  0.65983000  0.16185000  0.45160000  1.0
  H  H33  1  0.15983000  0.33815000  0.54841000  1.0
  H  H34  1  0.34017000  0.66185000  0.04840000  1.0
  H  H35  1  0.84017000  0.83815000  0.95160000  1.0
  H  H36  1  0.68447000  0.03290000  0.37110000  1.0
  H  H37  1  0.18446000  0.46710000  0.62890000  1.0
  H  H38  1  0.31554000  0.53289000  0.12890000  1.0
  H  H39  1  0.81553000  0.96711000  0.87110000  1.0
  C  C40  1  0.73490000  0.40313000  0.53520000  1.0
  C  C41  1  0.23490000  0.09687000  0.46480000  1.0
  C  C42  1  0.26511000  0.90312000  0.96480000  1.0
  C  C43  1  0.76511000  0.59688000  0.03520000  1.0
  C  C44  1  0.80107000  0.65746000  0.61227000  1.0
  C  C45  1  0.30107000  0.84254000  0.38773000  1.0
  C  C46  1  0.19893000  0.15745000  0.88772000  1.0
  C  C47  1  0.69892000  0.34255000  0.11228000  1.0
  C  C48  1  0.79632000  0.73182000  0.52369000  1.0
  C  C49  1  0.29632000  0.76818000  0.47631000  1.0
  C  C50  1  0.20368000  0.23182000  0.97631000  1.0
  C  C51  1  0.70368000  0.26819000  0.02369000  1.0
  C  C52  1  0.76019000  0.63725000  0.44872000  1.0
  C  C53  1  0.26019000  0.86274000  0.55128000  1.0
  C  C54  1  0.23981000  0.13725000  0.05128000  1.0
  C  C55  1  0.73981000  0.36275000  0.94872000  1.0
  C  C56  1  0.75851000  0.70429000  0.35242000  1.0
  C  C57  1  0.25851000  0.79570000  0.64758000  1.0
  C  C58  1  0.24149000  0.20429000  0.14758000  1.0
  C  C59  1  0.74149000  0.29571000  0.85242000  1.0
  N  N60  1  0.94536000  0.28325000  0.31101000  1.0
  N  N61  1  0.44536000  0.21675000  0.68899000  1.0
  N  N62  1  0.05464000  0.78325000  0.18899000  1.0
  N  N63  1  0.55464000  0.71675000  0.81101000  1.0
  N  N64  1  0.72989000  0.47513000  0.45275000  1.0
  N  N65  1  0.22989000  0.02487000  0.54725000  1.0
  N  N66  1  0.27011000  0.97513000  0.04725000  1.0
  N  N67  1  0.77011000  0.52487000  0.95275000  1.0
  N  N68  1  0.76091000  0.49502000  0.61185000  1.0
  N  N69  1  0.26091000  0.00498000  0.38815000  1.0
  N  N70  1  0.23910000  0.99502000  0.88815000  1.0
  N  N71  1  0.73909000  0.50498000  0.11185000  1.0
  O  O72  1  0.62250000  0.13399000  0.38752000  1.0
  O  O73  1  0.12250000  0.36601000  0.61248000  1.0
  O  O74  1  0.37750000  0.63399000  0.11248000  1.0
  O  O75  1  0.87750000  0.86601000  0.88752000  1.0
  O  O76  1  0.41739000  0.41342000  0.33080000  1.0
  O  O77  1  0.91739000  0.08658000  0.66920000  1.0
  O  O78  1  0.58262000  0.91342000  0.16920000  1.0
  O  O79  1  0.08261000  0.58658000  0.83080000  1.0
  O  O80  1  0.74397000  0.59994000  0.28864000  1.0
  O  O81  1  0.24397000  0.90006000  0.71136000  1.0
  O  O82  1  0.25603000  0.09994000  0.21137000  1.0
  O  O83  1  0.75603000  0.40006000  0.78864000  1.0
  O  O84  1  0.71557000  0.25107000  0.54551000  1.0
  O  O85  1  0.21557000  0.24893000  0.45449000  1.0
  O  O86  1  0.28444000  0.75107000  0.95448000  1.0
  O  O87  1  0.78443000  0.74893000  0.04551000  1.0
  O  O88  1  0.83885000  0.72763000  0.68624000  1.0
  O  O89  1  0.33886000  0.77237000  0.31376000  1.0
  O  O90  1  0.16114000  0.22763000  0.81376000  1.0
  O  O91  1  0.66114000  0.27238000  0.18624000  1.0
  O  O92  1  0.77730000  0.85369000  0.33772000  1.0
  O  O93  1  0.27729000  0.64631000  0.66228000  1.0
  O  O94  1  0.22270000  0.35368000  0.16228000  1.0
  O  O95  1  0.72270000  0.14632000  0.83772000  1.0
