# generated using pymatgen
data_Nd2Cu3P6H24C30(NO3)6
_symmetry_space_group_name_H-M   'P 1'
_cell_length_a   10.39650000
_cell_length_b   11.44440000
_cell_length_c   11.44560000
_cell_angle_alpha   111.25400000
_cell_angle_beta   107.62700000
_cell_angle_gamma   107.62100000
_symmetry_Int_Tables_number   1
_chemical_formula_structural   Nd2Cu3P6H24C30(NO3)6
_chemical_formula_sum   'Nd2 Cu3 P6 H24 C30 N6 O18'
_cell_volume   1071.25107266
_cell_formula_units_Z   1
loop_
 _symmetry_equiv_pos_site_id
 _symmetry_equiv_pos_as_xyz
  1  'x, y, z'
loop_
 _atom_site_type_symbol
 _atom_site_label
 _atom_site_symmetry_multiplicity
 _atom_site_fract_x
 _atom_site_fract_y
 _atom_site_fract_z
 _atom_site_occupancy
  Nd  Nd0  1  0.50000000  0.00000000  0.00000000  1.0
  Nd  Nd1  1  0.00001000  0.00000000  0.00000000  1.0
  Cu  Cu2  1  0.00000000  0.50000000  0.00000000  1.0
  Cu  Cu3  1  0.00000000  0.00000000  0.50000000  1.0
  Cu  Cu4  1  0.50001000  0.50001000  0.50001000  1.0
  P  P5  1  0.82724000  0.23668000  0.98505000  1.0
  P  P6  1  0.84222000  0.01494000  0.25159000  1.0
  P  P7  1  0.59065000  0.74845000  0.76339000  1.0
  P  P8  1  0.17276000  0.76332000  0.01494000  1.0
  P  P9  1  0.15778000  0.98506000  0.74841000  1.0
  P  P10  1  0.40936000  0.25156000  0.23662000  1.0
  H  H11  1  0.66424000  0.98087000  0.68856000  1.0
  H  H12  1  0.97567000  0.31136000  0.29230000  1.0
  H  H13  1  0.68347000  0.70774000  0.01917000  1.0
  H  H14  1  0.33575000  0.01912000  0.31144000  1.0
  H  H15  1  0.02433000  0.68864000  0.70770000  1.0
  H  H16  1  0.31653000  0.29226000  0.98085000  1.0
  H  H17  1  0.62814000  0.97328000  0.45644000  1.0
  H  H18  1  0.17167000  0.54353000  0.51679000  1.0
  H  H19  1  0.65485000  0.48317000  0.02670000  1.0
  H  H20  1  0.37186000  0.02671000  0.54355000  1.0
  H  H21  1  0.82832000  0.45647000  0.48322000  1.0
  H  H22  1  0.34514000  0.51683000  0.97330000  1.0
  H  H23  1  0.74398000  0.19898000  0.45810000  1.0
  H  H24  1  0.28593000  0.54192000  0.74087000  1.0
  H  H25  1  0.54495000  0.25911000  0.80102000  1.0
  H  H26  1  0.25602000  0.80101000  0.54190000  1.0
  H  H27  1  0.71407000  0.45807000  0.25913000  1.0
  H  H28  1  0.45505000  0.74090000  0.19898000  1.0
  H  H29  1  0.91457000  0.42646000  0.69604000  1.0
  H  H30  1  0.21856000  0.30400000  0.73042000  1.0
  H  H31  1  0.48806000  0.26958000  0.57354000  1.0
  H  H32  1  0.08544000  0.57353000  0.30396000  1.0
  H  H33  1  0.78144000  0.69600000  0.26957000  1.0
  H  H34  1  0.51195000  0.73043000  0.42646000  1.0
  C  C35  1  0.80323000  0.20696000  0.80970000  1.0
  C  C36  1  0.99359000  0.19027000  0.39726000  1.0
  C  C37  1  0.59638000  0.60281000  0.79310000  1.0
  C  C38  1  0.19677000  0.79304000  0.19030000  1.0
  C  C39  1  0.00641000  0.80973000  0.60274000  1.0
  C  C40  1  0.40363000  0.39720000  0.20691000  1.0
  C  C41  1  0.71526000  0.07658000  0.68415000  1.0
  C  C42  1  0.03112000  0.31581000  0.39243000  1.0
  C  C43  1  0.63876000  0.60762000  0.92346000  1.0
  C  C44  1  0.28474000  0.92342000  0.31585000  1.0
  C  C45  1  0.96887000  0.68419000  0.60757000  1.0
  C  C46  1  0.36124000  0.39238000  0.07654000  1.0
  C  C47  1  0.69532000  0.07293000  0.55656000  1.0
  C  C48  1  0.13875000  0.44344000  0.51636000  1.0
  C  C49  1  0.62238000  0.48362000  0.92705000  1.0
  C  C50  1  0.30468000  0.92706000  0.44344000  1.0
  C  C51  1  0.86124000  0.55656000  0.48363000  1.0
  C  C52  1  0.37762000  0.51638000  0.07295000  1.0
  C  C53  1  0.76229000  0.19907000  0.55705000  1.0
  C  C54  1  0.20528000  0.44298000  0.64202000  1.0
  C  C55  1  0.56315000  0.35795000  0.80090000  1.0
  C  C56  1  0.23771000  0.80092000  0.44295000  1.0
  C  C57  1  0.79472000  0.55702000  0.35798000  1.0
  C  C58  1  0.43685000  0.64206000  0.19910000  1.0
  C  C59  1  0.85389000  0.32460000  0.68621000  1.0
  C  C60  1  0.16770000  0.31381000  0.63838000  1.0
  C  C61  1  0.52925000  0.36162000  0.67539000  1.0
  C  C62  1  0.14612000  0.67539000  0.31379000  1.0
  C  C63  1  0.83230000  0.68619000  0.36161000  1.0
  C  C64  1  0.47076000  0.63838000  0.32461000  1.0
  N  N65  1  0.87358000  0.32713000  0.80907000  1.0
  N  N66  1  0.06455000  0.19092000  0.51806000  1.0
  N  N67  1  0.54650000  0.48200000  0.67291000  1.0
  N  N68  1  0.12643000  0.67287000  0.19093000  1.0
  N  N69  1  0.93545000  0.80908000  0.48194000  1.0
  N  N70  1  0.45352000  0.51801000  0.32710000  1.0
  O  O71  1  0.88996000  0.39923000  0.07109000  1.0
  O  O72  1  0.81888000  0.92890000  0.32809000  1.0
  O  O73  1  0.49084000  0.67192000  0.60084000  1.0
  O  O74  1  0.11003000  0.60077000  0.92890000  1.0
  O  O75  1  0.18112000  0.07109000  0.67190000  1.0
  O  O76  1  0.50917000  0.32809000  0.39917000  1.0
  O  O77  1  0.94226000  0.18924000  0.04171000  1.0
  O  O78  1  0.90060000  0.95828000  0.14752000  1.0
  O  O79  1  0.75309000  0.85255000  0.81081000  1.0
  O  O80  1  0.05774000  0.81076000  0.95829000  1.0
  O  O81  1  0.09939000  0.04173000  0.85248000  1.0
  O  O82  1  0.24692000  0.14746000  0.18920000  1.0
  O  O83  1  0.66911000  0.15697000  0.96587000  1.0
  O  O84  1  0.70332000  0.03417000  0.19102000  1.0
  O  O85  1  0.51221000  0.80901000  0.84307000  1.0
  O  O86  1  0.33089000  0.84303000  0.03413000  1.0
  O  O87  1  0.29668000  0.96583000  0.80898000  1.0
  O  O88  1  0.48780000  0.19100000  0.15694000  1.0
