# generated using pymatgen
data_Sr2H10C6O11
_symmetry_space_group_name_H-M   'P 1'
_cell_length_a   7.15912000
_cell_length_b   8.02116000
_cell_length_c   11.58800000
_cell_angle_alpha   104.37600000
_cell_angle_beta   90.01220000
_cell_angle_gamma   116.50000000
_symmetry_Int_Tables_number   1
_chemical_formula_structural   Sr2H10C6O11
_chemical_formula_sum   'Sr4 H20 C12 O22'
_cell_volume   572.12479908
_cell_formula_units_Z   2
loop_
 _symmetry_equiv_pos_site_id
 _symmetry_equiv_pos_as_xyz
  1  'x, y, z'
loop_
 _atom_site_type_symbol
 _atom_site_label
 _atom_site_symmetry_multiplicity
 _atom_site_fract_x
 _atom_site_fract_y
 _atom_site_fract_z
 _atom_site_occupancy
  Sr  Sr0  1  0.22750000  0.82623000  0.58078000  1.0
  Sr  Sr1  1  0.40121000  0.17369000  0.91920000  1.0
  Sr  Sr2  1  0.77250000  0.17377000  0.41922000  1.0
  Sr  Sr3  1  0.59879000  0.82631000  0.08080000  1.0
  H  H4  1  0.60004000  0.90920000  0.77787000  1.0
  H  H5  1  0.69082000  0.09065000  0.72207000  1.0
  H  H6  1  0.39996000  0.09080000  0.22212000  1.0
  H  H7  1  0.30917000  0.90935000  0.27794000  1.0
  H  H8  1  0.94780000  0.02200000  0.63903000  1.0
  H  H9  1  0.92578000  0.97799000  0.86094000  1.0
  H  H10  1  0.05220000  0.97800000  0.36097000  1.0
  H  H11  1  0.07422000  0.02201000  0.13906000  1.0
  H  H12  1  0.77255000  0.83661000  0.55336000  1.0
  H  H13  1  0.93585000  0.16330000  0.94668000  1.0
  H  H14  1  0.22745000  0.16339000  0.44664000  1.0
  H  H15  1  0.06415000  0.83670000  0.05332000  1.0
  H  H16  1  0.95568000  0.43095000  0.86341000  1.0
  H  H17  1  0.52491000  0.56903000  0.63648000  1.0
  H  H18  1  0.04432000  0.56905000  0.13659000  1.0
  H  H19  1  0.47509000  0.43098000  0.36352000  1.0
  H  H20  1  0.20734000  0.45729000  0.84314000  1.0
  H  H21  1  0.75003000  0.54244000  0.65695000  1.0
  H  H22  1  0.79266000  0.54271000  0.15686000  1.0
  H  H23  1  0.24997000  0.45756000  0.34305000  1.0
  C  C24  1  0.17145000  0.71469000  0.85982000  1.0
  C  C25  1  0.45664000  0.28522000  0.64015000  1.0
  C  C26  1  0.82855000  0.28531000  0.14018000  1.0
  C  C27  1  0.54336000  0.71478000  0.35985000  1.0
  C  C28  1  0.08968000  0.49699000  0.81512000  1.0
  C  C29  1  0.59263000  0.50290000  0.68486000  1.0
  C  C30  1  0.91032000  0.50301000  0.18488000  1.0
  C  C31  1  0.40737000  0.49710000  0.31514000  1.0
  C  C32  1  0.02411000  0.40187000  0.68116000  1.0
  C  C33  1  0.62212000  0.59796000  0.81881000  1.0
  C  C34  1  0.97589000  0.59813000  0.31884000  1.0
  C  C35  1  0.37788000  0.40204000  0.18119000  1.0
  O  O36  1  0.56243000  0.99993000  0.74995000  1.0
  O  O37  1  0.43757000  0.00007000  0.25005000  1.0
  O  O38  1  0.90647000  0.88391000  0.60375000  1.0
  O  O39  1  0.02254000  0.11603000  0.89636000  1.0
  O  O40  1  0.09353000  0.11609000  0.39625000  1.0
  O  O41  1  0.97746000  0.88397000  0.10364000  1.0
  O  O42  1  0.13773000  0.80595000  0.79437000  1.0
  O  O43  1  0.33163000  0.19395000  0.70556000  1.0
  O  O44  1  0.86227000  0.19405000  0.20563000  1.0
  O  O45  1  0.66837000  0.80605000  0.29444000  1.0
  O  O46  1  0.26630000  0.79938000  0.96773000  1.0
  O  O47  1  0.46689000  0.20052000  0.53228000  1.0
  O  O48  1  0.73370000  0.20062000  0.03227000  1.0
  O  O49  1  0.53311000  0.79948000  0.46772000  1.0
  O  O50  1  0.87247000  0.22864000  0.64843000  1.0
  O  O51  1  0.64366000  0.77117000  0.85156000  1.0
  O  O52  1  0.12753000  0.77136000  0.35157000  1.0
  O  O53  1  0.35634000  0.22883000  0.14844000  1.0
  O  O54  1  0.11824000  0.48883000  0.60493000  1.0
  O  O55  1  0.62930000  0.51092000  0.89499000  1.0
  O  O56  1  0.88176000  0.51117000  0.39507000  1.0
  O  O57  1  0.37070000  0.48908000  0.10501000  1.0
