# generated using pymatgen
data_Zn4H28C28N8O5
_symmetry_space_group_name_H-M   'P 1'
_cell_length_a   11.56560000
_cell_length_b   11.56560000
_cell_length_c   26.01000000
_cell_angle_alpha   90.00000000
_cell_angle_beta   90.00010000
_cell_angle_gamma   90.00000000
_symmetry_Int_Tables_number   1
_chemical_formula_structural   Zn4H28C28N8O5
_chemical_formula_sum   'Zn8 H56 C56 N16 O10'
_cell_volume   3479.17831839
_cell_formula_units_Z   2
loop_
 _symmetry_equiv_pos_site_id
 _symmetry_equiv_pos_as_xyz
  1  'x, y, z'
loop_
 _atom_site_type_symbol
 _atom_site_label
 _atom_site_symmetry_multiplicity
 _atom_site_fract_x
 _atom_site_fract_y
 _atom_site_fract_z
 _atom_site_occupancy
  Zn  Zn0  1  0.59916000  0.59916000  0.79205000  1.0
  Zn  Zn1  1  0.40084000  0.40084000  0.79205000  1.0
  Zn  Zn2  1  0.40084000  0.59916000  0.29205000  1.0
  Zn  Zn3  1  0.59916000  0.40084000  0.29205000  1.0
  Zn  Zn4  1  0.40084000  0.59916000  0.70795000  1.0
  Zn  Zn5  1  0.59916000  0.40084000  0.70795000  1.0
  Zn  Zn6  1  0.59916000  0.59916000  0.20795000  1.0
  Zn  Zn7  1  0.40084000  0.40084000  0.20795000  1.0
  H  H8  1  0.91192000  0.72832000  0.81212000  1.0
  H  H9  1  0.81994000  0.64771000  0.85370000  1.0
  H  H10  1  0.96856000  0.61035000  0.84725000  1.0
  H  H11  1  0.08808000  0.27168000  0.81212000  1.0
  H  H12  1  0.18006000  0.35229000  0.85370000  1.0
  H  H13  1  0.03144000  0.38965000  0.84725000  1.0
  H  H14  1  0.27168000  0.91192000  0.31212000  1.0
  H  H15  1  0.35229000  0.81994000  0.35370000  1.0
  H  H16  1  0.38965000  0.96856000  0.34725000  1.0
  H  H17  1  0.72832000  0.08808000  0.31212000  1.0
  H  H18  1  0.64771000  0.18006000  0.35370000  1.0
  H  H19  1  0.61035000  0.03144000  0.34725000  1.0
  H  H20  1  0.08808000  0.72832000  0.68788000  1.0
  H  H21  1  0.18006000  0.64771000  0.64630000  1.0
  H  H22  1  0.03144000  0.61035000  0.65275000  1.0
  H  H23  1  0.91192000  0.27168000  0.68788000  1.0
  H  H24  1  0.81994000  0.35229000  0.64630000  1.0
  H  H25  1  0.96856000  0.38965000  0.65275000  1.0
  H  H26  1  0.72832000  0.91192000  0.18788000  1.0
  H  H27  1  0.64771000  0.81994000  0.14630000  1.0
  H  H28  1  0.61035000  0.96856000  0.15275000  1.0
  H  H29  1  0.27168000  0.08808000  0.18788000  1.0
  H  H30  1  0.35229000  0.18006000  0.14630000  1.0
  H  H31  1  0.38965000  0.03144000  0.15275000  1.0
  H  H32  1  0.08808000  0.27168000  0.18788000  1.0
  H  H33  1  0.18006000  0.35229000  0.14630000  1.0
  H  H34  1  0.03144000  0.38965000  0.15275000  1.0
  H  H35  1  0.91192000  0.72832000  0.18788000  1.0
  H  H36  1  0.81994000  0.64771000  0.14630000  1.0
  H  H37  1  0.96856000  0.61035000  0.15275000  1.0
  H  H38  1  0.72832000  0.08808000  0.68788000  1.0
  H  H39  1  0.64771000  0.18006000  0.64630000  1.0
  H  H40  1  0.61035000  0.03144000  0.65275000  1.0
  H  H41  1  0.27168000  0.91192000  0.68788000  1.0
  H  H42  1  0.35229000  0.81994000  0.64630000  1.0
  H  H43  1  0.38965000  0.96856000  0.65275000  1.0
  H  H44  1  0.91192000  0.27168000  0.31212000  1.0
  H  H45  1  0.81994000  0.35229000  0.35370000  1.0
  H  H46  1  0.96856000  0.38965000  0.34725000  1.0
  H  H47  1  0.08808000  0.72832000  0.31212000  1.0
  H  H48  1  0.18006000  0.64771000  0.35370000  1.0
  H  H49  1  0.03144000  0.61035000  0.34725000  1.0
  H  H50  1  0.27168000  0.08808000  0.81212000  1.0
  H  H51  1  0.35229000  0.18006000  0.85370000  1.0
  H  H52  1  0.38965000  0.03144000  0.84725000  1.0
  H  H53  1  0.72832000  0.91192000  0.81212000  1.0
  H  H54  1  0.64771000  0.81994000  0.85370000  1.0
  H  H55  1  0.61035000  0.96856000  0.84725000  1.0
  H  H56  1  0.63114000  0.63114000  0.95162000  1.0
  H  H57  1  0.36886000  0.36886000  0.95162000  1.0
  H  H58  1  0.36886000  0.63114000  0.45162000  1.0
  H  H59  1  0.63114000  0.36886000  0.45162000  1.0
  H  H60  1  0.36886000  0.63114000  0.54838000  1.0
  H  H61  1  0.63114000  0.36886000  0.54838000  1.0
  H  H62  1  0.63114000  0.63114000  0.04838000  1.0
  H  H63  1  0.36886000  0.36886000  0.04838000  1.0
  C  C64  1  0.89196000  0.64086000  0.82630000  1.0
  C  C65  1  0.86247000  0.56062000  0.78338000  1.0
  C  C66  1  0.10805000  0.35914000  0.82631000  1.0
  C  C67  1  0.13753000  0.43939000  0.78338000  1.0
  C  C68  1  0.35914000  0.89195000  0.32630000  1.0
  C  C69  1  0.43938000  0.86247000  0.28337000  1.0
  C  C70  1  0.64086000  0.10804000  0.32630000  1.0
  C  C71  1  0.56061000  0.13753000  0.28337000  1.0
  C  C72  1  0.10805000  0.64087000  0.67369000  1.0
  C  C73  1  0.13753000  0.56061000  0.71662000  1.0
  C  C74  1  0.89195000  0.35914000  0.67370000  1.0
  C  C75  1  0.86247000  0.43939000  0.71662000  1.0
  C  C76  1  0.64087000  0.89195000  0.17369000  1.0
  C  C77  1  0.56061000  0.86247000  0.21662000  1.0
  C  C78  1  0.35914000  0.10805000  0.17369000  1.0
  C  C79  1  0.43939000  0.13753000  0.21662000  1.0
  C  C80  1  0.10805000  0.35913000  0.17369000  1.0
  C  C81  1  0.13753000  0.43939000  0.21662000  1.0
  C  C82  1  0.89195000  0.64086000  0.17370000  1.0
  C  C83  1  0.86247000  0.56061000  0.21662000  1.0
  C  C84  1  0.64086000  0.10805000  0.67370000  1.0
  C  C85  1  0.56061000  0.13753000  0.71663000  1.0
  C  C86  1  0.35914000  0.89196000  0.67370000  1.0
  C  C87  1  0.43938000  0.86247000  0.71663000  1.0
  C  C88  1  0.89195000  0.35914000  0.32630000  1.0
  C  C89  1  0.86247000  0.43939000  0.28337000  1.0
  C  C90  1  0.10804000  0.64086000  0.32630000  1.0
  C  C91  1  0.13753000  0.56061000  0.28337000  1.0
  C  C92  1  0.35913000  0.10805000  0.82631000  1.0
  C  C93  1  0.43939000  0.13753000  0.78338000  1.0
  C  C94  1  0.64086000  0.89195000  0.82631000  1.0
  C  C95  1  0.56061000  0.86247000  0.78338000  1.0
  C  C96  1  0.57414000  0.57413000  0.97327000  1.0
  C  C97  1  0.42587000  0.42587000  0.97327000  1.0
  C  C98  1  0.42586000  0.57413000  0.47327000  1.0
  C  C99  1  0.57413000  0.42587000  0.47327000  1.0
  C  C100  1  0.42587000  0.57413000  0.52673000  1.0
  C  C101  1  0.57413000  0.42586000  0.52673000  1.0
  C  C102  1  0.57413000  0.57413000  0.02673000  1.0
  C  C103  1  0.42587000  0.42587000  0.02673000  1.0
  C  C104  1  0.93674000  0.50000000  0.75000000  1.0
  C  C105  1  0.06327000  0.50000000  0.75000000  1.0
  C  C106  1  0.50000000  0.93673000  0.25000000  1.0
  C  C107  1  0.50000000  0.06327000  0.25000000  1.0
  C  C108  1  0.06327000  0.50000000  0.25000000  1.0
  C  C109  1  0.93673000  0.50000000  0.25000000  1.0
  C  C110  1  0.50000000  0.06327000  0.75000000  1.0
  C  C111  1  0.50000000  0.93673000  0.75000000  1.0
  C  C112  1  0.50000000  0.50000000  0.88853000  1.0
  C  C113  1  0.50000000  0.50000000  0.94616000  1.0
  C  C114  1  0.50000000  0.50000000  0.38853000  1.0
  C  C115  1  0.50000000  0.50000000  0.44616000  1.0
  C  C116  1  0.50000000  0.50000000  0.61147000  1.0
  C  C117  1  0.50000000  0.50000000  0.55384000  1.0
  C  C118  1  0.50000000  0.50000000  0.11147000  1.0
  C  C119  1  0.50000000  0.50000000  0.05384000  1.0
  N  N120  1  0.75193000  0.53727000  0.77053000  1.0
  N  N121  1  0.24807000  0.46273000  0.77053000  1.0
  N  N122  1  0.46273000  0.75193000  0.27053000  1.0
  N  N123  1  0.53727000  0.24807000  0.27053000  1.0
  N  N124  1  0.24807000  0.53727000  0.72947000  1.0
  N  N125  1  0.75193000  0.46273000  0.72947000  1.0
  N  N126  1  0.53727000  0.75193000  0.22947000  1.0
  N  N127  1  0.46273000  0.24807000  0.22947000  1.0
  N  N128  1  0.24807000  0.46273000  0.22947000  1.0
  N  N129  1  0.75193000  0.53727000  0.22947000  1.0
  N  N130  1  0.53727000  0.24807000  0.72947000  1.0
  N  N131  1  0.46273000  0.75193000  0.72947000  1.0
  N  N132  1  0.75193000  0.46273000  0.27053000  1.0
  N  N133  1  0.24807000  0.53727000  0.27053000  1.0
  N  N134  1  0.46273000  0.24807000  0.77053000  1.0
  N  N135  1  0.53727000  0.75193000  0.77053000  1.0
  O  O136  1  0.56981000  0.56981000  0.86658000  1.0
  O  O137  1  0.43019000  0.43019000  0.86658000  1.0
  O  O138  1  0.43019000  0.56981000  0.36658000  1.0
  O  O139  1  0.56981000  0.43019000  0.36658000  1.0
  O  O140  1  0.43019000  0.56981000  0.63342000  1.0
  O  O141  1  0.56981000  0.43019000  0.63342000  1.0
  O  O142  1  0.56981000  0.56981000  0.13342000  1.0
  O  O143  1  0.43019000  0.43019000  0.13342000  1.0
  O  O144  1  0.50000000  0.50000000  0.75000000  1.0
  O  O145  1  0.50000000  0.50000000  0.25000000  1.0
