# generated using pymatgen
data_GdH6C7O9
_symmetry_space_group_name_H-M   'P 1'
_cell_length_a   7.41224000
_cell_length_b   9.43370000
_cell_length_c   14.61320000
_cell_angle_alpha   89.99990000
_cell_angle_beta   102.73100000
_cell_angle_gamma   90.00000000
_symmetry_Int_Tables_number   1
_chemical_formula_structural   GdH6C7O9
_chemical_formula_sum   'Gd4 H24 C28 O36'
_cell_volume   996.70467154
_cell_formula_units_Z   4
loop_
 _symmetry_equiv_pos_site_id
 _symmetry_equiv_pos_as_xyz
  1  'x, y, z'
loop_
 _atom_site_type_symbol
 _atom_site_label
 _atom_site_symmetry_multiplicity
 _atom_site_fract_x
 _atom_site_fract_y
 _atom_site_fract_z
 _atom_site_occupancy
  Gd  Gd0  1  0.37922000  0.44723000  0.64638000  1.0
  Gd  Gd1  1  0.12078000  0.94723000  0.85362000  1.0
  Gd  Gd2  1  0.62077000  0.55277000  0.35361000  1.0
  Gd  Gd3  1  0.87923000  0.05277000  0.14639000  1.0
  H  H4  1  0.27801000  0.96124000  0.36432000  1.0
  H  H5  1  0.22199000  0.46125000  0.13568000  1.0
  H  H6  1  0.72200000  0.03876000  0.63567000  1.0
  H  H7  1  0.77800000  0.53876000  0.86432000  1.0
  H  H8  1  0.16818000  0.19334000  0.44994000  1.0
  H  H9  1  0.33181000  0.69335000  0.05006000  1.0
  H  H10  1  0.83183000  0.80666000  0.55007000  1.0
  H  H11  1  0.66817000  0.30666000  0.94993000  1.0
  H  H12  1  0.80062000  0.44636000  0.71157000  1.0
  H  H13  1  0.69939000  0.94638000  0.78843000  1.0
  H  H14  1  0.19938000  0.55365000  0.28843000  1.0
  H  H15  1  0.30061000  0.05364000  0.21157000  1.0
  H  H16  1  0.73241000  0.55759000  0.63310000  1.0
  H  H17  1  0.76759000  0.05760000  0.86691000  1.0
  H  H18  1  0.26758000  0.44241000  0.36689000  1.0
  H  H19  1  0.23242000  0.94241000  0.13310000  1.0
  H  H20  1  0.47046000  0.21813000  0.80700000  1.0
  H  H21  1  0.02952000  0.71813000  0.69300000  1.0
  H  H22  1  0.52954000  0.78187000  0.19300000  1.0
  H  H23  1  0.97047000  0.28188000  0.30700000  1.0
  H  H24  1  0.62409000  0.20321000  0.75166000  1.0
  H  H25  1  0.87591000  0.70322000  0.74835000  1.0
  H  H26  1  0.37592000  0.79678000  0.24835000  1.0
  H  H27  1  0.12408000  0.29678000  0.25164000  1.0
  C  C28  1  0.39879000  0.72867000  0.50200000  1.0
  C  C29  1  0.10122000  0.22868000  0.99801000  1.0
  C  C30  1  0.60121000  0.27132000  0.49800000  1.0
  C  C31  1  0.89879000  0.77132000  0.00200000  1.0
  C  C32  1  0.31217000  0.86804000  0.50460000  1.0
  C  C33  1  0.18785000  0.36804000  0.99540000  1.0
  C  C34  1  0.68783000  0.13196000  0.49539000  1.0
  C  C35  1  0.81216000  0.63196000  0.00460000  1.0
  C  C36  1  0.26849000  0.97171000  0.43689000  1.0
  C  C37  1  0.23153000  0.47171000  0.06312000  1.0
  C  C38  1  0.73153000  0.02830000  0.56312000  1.0
  C  C39  1  0.76847000  0.52829000  0.93688000  1.0
  C  C40  1  0.21004000  0.09118000  0.48097000  1.0
  C  C41  1  0.28996000  0.59118000  0.01903000  1.0
  C  C42  1  0.78996000  0.90882000  0.51903000  1.0
  C  C43  1  0.71003000  0.40882000  0.98097000  1.0
  C  C44  1  0.21831000  0.05328000  0.57293000  1.0
  C  C45  1  0.28171000  0.55328000  0.92708000  1.0
  C  C46  1  0.78171000  0.94671000  0.42707000  1.0
  C  C47  1  0.71829000  0.44672000  0.07292000  1.0
  C  C48  1  0.17000000  0.13139000  0.65154000  1.0
  C  C49  1  0.33001000  0.63139000  0.84846000  1.0
  C  C50  1  0.83001000  0.86860000  0.34846000  1.0
  C  C51  1  0.66999000  0.36861000  0.15153000  1.0
  C  C52  1  0.03657000  0.46159000  0.46103000  1.0
  C  C53  1  0.46344000  0.96159000  0.03898000  1.0
  C  C54  1  0.96342000  0.53841000  0.53897000  1.0
  C  C55  1  0.53656000  0.03841000  0.96103000  1.0
  O  O56  1  0.20707000  0.43075000  0.47869000  1.0
  O  O57  1  0.29292000  0.93075000  0.02131000  1.0
  O  O58  1  0.79290000  0.56925000  0.52130000  1.0
  O  O59  1  0.70708000  0.06925000  0.97870000  1.0
  O  O60  1  0.43636000  0.65497000  0.57634000  1.0
  O  O61  1  0.06363000  0.15497000  0.92366000  1.0
  O  O62  1  0.56363000  0.34503000  0.42365000  1.0
  O  O63  1  0.93636000  0.84503000  0.07634000  1.0
  O  O64  1  0.71873000  0.52821000  0.69705000  1.0
  O  O65  1  0.78128000  0.02823000  0.80295000  1.0
  O  O66  1  0.28126000  0.47180000  0.30295000  1.0
  O  O67  1  0.21873000  0.97178000  0.19705000  1.0
  O  O68  1  0.43310000  0.69346000  0.42331000  1.0
  O  O69  1  0.06691000  0.19347000  0.07669000  1.0
  O  O70  1  0.56690000  0.30654000  0.57667000  1.0
  O  O71  1  0.93310000  0.80654000  0.92332000  1.0
  O  O72  1  0.53393000  0.27174000  0.76524000  1.0
  O  O73  1  0.96607000  0.77175000  0.73476000  1.0
  O  O74  1  0.46608000  0.72826000  0.23476000  1.0
  O  O75  1  0.03393000  0.22825000  0.26525000  1.0
  O  O76  1  0.27895000  0.91602000  0.58805000  1.0
  O  O77  1  0.22109000  0.41602000  0.91196000  1.0
  O  O78  1  0.72106000  0.08397000  0.41195000  1.0
  O  O79  1  0.77894000  0.58398000  0.08804000  1.0
  O  O80  1  0.16309000  0.26621000  0.64562000  1.0
  O  O81  1  0.33691000  0.76621000  0.85439000  1.0
  O  O82  1  0.83691000  0.73378000  0.35438000  1.0
  O  O83  1  0.66309000  0.23379000  0.14561000  1.0
  O  O84  1  0.13688000  0.06039000  0.71955000  1.0
  O  O85  1  0.36312000  0.56040000  0.78045000  1.0
  O  O86  1  0.86312000  0.93960000  0.28045000  1.0
  O  O87  1  0.63688000  0.43960000  0.21955000  1.0
  O  O88  1  0.92166000  0.43532000  0.38500000  1.0
  O  O89  1  0.57834000  0.93533000  0.11500000  1.0
  O  O90  1  0.07832000  0.56466000  0.61500000  1.0
  O  O91  1  0.42166000  0.06467000  0.88500000  1.0
