# generated using pymatgen
data_TlH7C8O3
_symmetry_space_group_name_H-M   'P 1'
_cell_length_a   4.09497000
_cell_length_b   7.54979000
_cell_length_c   13.81710000
_cell_angle_alpha   87.51740000
_cell_angle_beta   86.15680000
_cell_angle_gamma   74.90000000
_symmetry_Int_Tables_number   1
_chemical_formula_structural   TlH7C8O3
_chemical_formula_sum   'Tl2 H14 C16 O6'
_cell_volume   411.34690980
_cell_formula_units_Z   2
loop_
 _symmetry_equiv_pos_site_id
 _symmetry_equiv_pos_as_xyz
  1  'x, y, z'
loop_
 _atom_site_type_symbol
 _atom_site_label
 _atom_site_symmetry_multiplicity
 _atom_site_fract_x
 _atom_site_fract_y
 _atom_site_fract_z
 _atom_site_occupancy
  Tl  Tl0  1  0.95513000  0.77119000  0.08682000  1.0
  Tl  Tl1  1  0.04488000  0.22880000  0.91318000  1.0
  H  H2  1  0.19172000  0.76551000  0.51954000  1.0
  H  H3  1  0.80828000  0.23450000  0.48047000  1.0
  H  H4  1  0.31988000  0.05069000  0.57086000  1.0
  H  H5  1  0.68011000  0.94932000  0.42915000  1.0
  H  H6  1  0.52972000  0.06089000  0.73622000  1.0
  H  H7  1  0.47027000  0.93912000  0.26378000  1.0
  H  H8  1  0.46968000  0.53922000  0.87762000  1.0
  H  H9  1  0.53030000  0.46078000  0.12238000  1.0
  H  H10  1  0.18955000  0.44885000  0.54821000  1.0
  H  H11  1  0.81048000  0.55115000  0.45179000  1.0
  H  H12  1  0.01744000  0.41291000  0.66718000  1.0
  H  H13  1  0.98257000  0.58710000  0.33281000  1.0
  H  H14  1  0.45542000  0.32855000  0.63892000  1.0
  H  H15  1  0.54460000  0.67145000  0.36108000  1.0
  C  C16  1  0.59735000  0.80019000  0.87854000  1.0
  C  C17  1  0.40266000  0.19980000  0.12146000  1.0
  C  C18  1  0.47876000  0.79289000  0.77971000  1.0
  C  C19  1  0.52125000  0.20711000  0.22029000  1.0
  C  C20  1  0.27042000  0.77324000  0.59287000  1.0
  C  C21  1  0.72957000  0.22676000  0.40713000  1.0
  C  C22  1  0.34320000  0.93404000  0.62149000  1.0
  C  C23  1  0.65680000  0.06596000  0.37851000  1.0
  C  C24  1  0.45383000  0.94154000  0.71366000  1.0
  C  C25  1  0.54617000  0.05846000  0.28634000  1.0
  C  C26  1  0.39113000  0.63449000  0.75068000  1.0
  C  C27  1  0.60885000  0.36551000  0.24932000  1.0
  C  C28  1  0.29690000  0.62090000  0.65558000  1.0
  C  C29  1  0.70310000  0.37910000  0.34442000  1.0
  C  C30  1  0.23497000  0.44442000  0.62560000  1.0
  C  C31  1  0.76504000  0.55558000  0.37439000  1.0
  O  O32  1  0.58634000  0.66352000  0.93855000  1.0
  O  O33  1  0.41366000  0.33648000  0.06144000  1.0
  O  O34  1  0.70082000  0.93533000  0.90232000  1.0
  O  O35  1  0.29921000  0.06466000  0.09768000  1.0
  O  O36  1  0.40322000  0.49052000  0.81403000  1.0
  O  O37  1  0.59672000  0.50949000  0.18597000  1.0
