# generated using pymatgen
data_UH6(CO2)4
_symmetry_space_group_name_H-M   'P 1'
_cell_length_a   5.48717000
_cell_length_b   7.49588000
_cell_length_c   9.78347000
_cell_angle_alpha   89.99910000
_cell_angle_beta   91.02980000
_cell_angle_gamma   89.99990000
_symmetry_Int_Tables_number   1
_chemical_formula_structural   UH6(CO2)4
_chemical_formula_sum   'U2 H12 C8 O16'
_cell_volume   402.34055134
_cell_formula_units_Z   2
loop_
 _symmetry_equiv_pos_site_id
 _symmetry_equiv_pos_as_xyz
  1  'x, y, z'
loop_
 _atom_site_type_symbol
 _atom_site_label
 _atom_site_symmetry_multiplicity
 _atom_site_fract_x
 _atom_site_fract_y
 _atom_site_fract_z
 _atom_site_occupancy
  U  U0  1  0.99999000  0.00000000  0.00001000  1.0
  U  U1  1  0.50002000  0.50001000  0.49999000  1.0
  H  H2  1  0.72141000  0.15908000  0.74792000  1.0
  H  H3  1  0.77859000  0.65908000  0.75207000  1.0
  H  H4  1  0.27860000  0.84092000  0.25210000  1.0
  H  H5  1  0.22141000  0.34092000  0.24791000  1.0
  H  H6  1  0.54227000  0.01788000  0.81964000  1.0
  H  H7  1  0.95773000  0.51788000  0.68036000  1.0
  H  H8  1  0.45773000  0.98212000  0.18035000  1.0
  H  H9  1  0.04226000  0.48213000  0.31964000  1.0
  H  H10  1  0.65376000  0.40910000  0.11481000  1.0
  H  H11  1  0.84624000  0.90910000  0.38518000  1.0
  H  H12  1  0.34624000  0.59088000  0.88518000  1.0
  H  H13  1  0.15373000  0.09090000  0.61482000  1.0
  C  C14  1  0.77224000  0.65611000  0.01408000  1.0
  C  C15  1  0.72776000  0.15611000  0.48590000  1.0
  C  C16  1  0.22776000  0.34388000  0.98591000  1.0
  C  C17  1  0.27225000  0.84389000  0.51410000  1.0
  C  C18  1  0.60502000  0.50610000  0.03596000  1.0
  C  C19  1  0.89497000  0.00611000  0.46402000  1.0
  C  C20  1  0.39497000  0.49388000  0.96402000  1.0
  C  C21  1  0.10501000  0.99390000  0.53598000  1.0
  O  O22  1  0.22106000  0.93921000  0.87243000  1.0
  O  O23  1  0.27894000  0.43921000  0.62757000  1.0
  O  O24  1  0.77892000  0.06079000  0.12759000  1.0
  O  O25  1  0.72109000  0.56080000  0.37242000  1.0
  O  O26  1  0.94017000  0.69403000  0.10058000  1.0
  O  O27  1  0.55983000  0.19404000  0.39941000  1.0
  O  O28  1  0.05982000  0.30596000  0.89942000  1.0
  O  O29  1  0.44019000  0.80598000  0.60059000  1.0
  O  O30  1  0.74442000  0.75764000  0.90797000  1.0
  O  O31  1  0.75558000  0.25765000  0.59203000  1.0
  O  O32  1  0.25557000  0.24235000  0.09204000  1.0
  O  O33  1  0.24444000  0.74237000  0.40797000  1.0
  O  O34  1  0.68594000  0.09456000  0.83408000  1.0
  O  O35  1  0.81407000  0.59456000  0.66593000  1.0
  O  O36  1  0.31404000  0.90544000  0.16593000  1.0
  O  O37  1  0.18597000  0.40546000  0.33407000  1.0
