# generated using pymatgen
data_HgH11C13(BrN)2
_symmetry_space_group_name_H-M   'P 1'
_cell_length_a   10.40050000
_cell_length_b   11.29410000
_cell_length_c   13.23300000
_cell_angle_alpha   72.77260000
_cell_angle_beta   74.93380000
_cell_angle_gamma   72.94110000
_symmetry_Int_Tables_number   1
_chemical_formula_structural   HgH11C13(BrN)2
_chemical_formula_sum   'Hg4 H44 C52 Br8 N8'
_cell_volume   1393.62631052
_cell_formula_units_Z   4
loop_
 _symmetry_equiv_pos_site_id
 _symmetry_equiv_pos_as_xyz
  1  'x, y, z'
loop_
 _atom_site_type_symbol
 _atom_site_label
 _atom_site_symmetry_multiplicity
 _atom_site_fract_x
 _atom_site_fract_y
 _atom_site_fract_z
 _atom_site_occupancy
  Hg  Hg0  1  0.29971000  0.28503000  0.18366000  1.0
  Hg  Hg1  1  0.70029000  0.71497000  0.81634000  1.0
  Hg  Hg2  1  0.16664000  0.99398000  0.54256000  1.0
  Hg  Hg3  1  0.83336000  0.00602000  0.45744000  1.0
  H  H4  1  0.96256000  0.30110000  0.24596000  1.0
  H  H5  1  0.03744000  0.69890000  0.75404000  1.0
  H  H6  1  0.73811000  0.44830000  0.21307000  1.0
  H  H7  1  0.26189000  0.55171000  0.78692000  1.0
  H  H8  1  0.73595000  0.67021000  0.09356000  1.0
  H  H9  1  0.26405000  0.32979000  0.90644000  1.0
  H  H10  1  0.95845000  0.73572000  0.02258000  1.0
  H  H11  1  0.04155000  0.26428000  0.97741000  1.0
  H  H12  1  0.26854000  0.71906000  0.84881000  1.0
  H  H13  1  0.73146000  0.28094000  0.15119000  1.0
  H  H14  1  0.26167000  0.94754000  0.77729000  1.0
  H  H15  1  0.73833000  0.05247000  0.22271000  1.0
  H  H16  1  0.20172000  0.09160000  0.90245000  1.0
  H  H17  1  0.79828000  0.90840000  0.09755000  1.0
  H  H18  1  0.14149000  0.00419000  0.10062000  1.0
  H  H19  1  0.85851000  0.99581000  0.89938000  1.0
  H  H20  1  0.14043000  0.77523000  0.17268000  1.0
  H  H21  1  0.85957000  0.22476000  0.82733000  1.0
  H  H22  1  0.49857000  0.49587000  0.11684000  1.0
  H  H23  1  0.50143000  0.50413000  0.88316000  1.0
  H  H24  1  0.45129000  0.63742000  0.01622000  1.0
  H  H25  1  0.54871000  0.36257000  0.98378000  1.0
  H  H26  1  0.87886000  0.19813000  0.56000000  1.0
  H  H27  1  0.12115000  0.80187000  0.44000000  1.0
  H  H28  1  0.77381000  0.41598000  0.59323000  1.0
  H  H29  1  0.22619000  0.58402000  0.40677000  1.0
  H  H30  1  0.91345000  0.52048000  0.65220000  1.0
  H  H31  1  0.08656000  0.47952000  0.34780000  1.0
  H  H32  1  0.15491000  0.40580000  0.67086000  1.0
  H  H33  1  0.84509000  0.59420000  0.32914000  1.0
  H  H34  1  0.34653000  0.41876000  0.54224000  1.0
  H  H35  1  0.65347000  0.58123000  0.45776000  1.0
  H  H36  1  0.48929000  0.50533000  0.61247000  1.0
  H  H37  1  0.51071000  0.49467000  0.38753000  1.0
  H  H38  1  0.61227000  0.36844000  0.75957000  1.0
  H  H39  1  0.38773000  0.63156000  0.24043000  1.0
  H  H40  1  0.59185000  0.14223000  0.83671000  1.0
  H  H41  1  0.40815000  0.85777000  0.16329000  1.0
  H  H42  1  0.44664000  0.05725000  0.77009000  1.0
  H  H43  1  0.55336000  0.94275000  0.22991000  1.0
  H  H44  1  0.49432000  0.91708000  0.61487000  1.0
  H  H45  1  0.50569000  0.08292000  0.38513000  1.0
  H  H46  1  0.55075000  0.06253000  0.56687000  1.0
  H  H47  1  0.44925000  0.93747000  0.43312000  1.0
  C  C48  1  0.95745000  0.39828000  0.19640000  1.0
  C  C49  1  0.04255000  0.60172000  0.80359000  1.0
  C  C50  1  0.83218000  0.48084000  0.17669000  1.0
  C  C51  1  0.16782000  0.51916000  0.82330000  1.0
  C  C52  1  0.83115000  0.60343000  0.11264000  1.0
  C  C53  1  0.16885000  0.39657000  0.88736000  1.0
  C  C54  1  0.95510000  0.64049000  0.07286000  1.0
  C  C55  1  0.04490000  0.35951000  0.92713000  1.0
  C  C56  1  0.07647000  0.55402000  0.09805000  1.0
  C  C57  1  0.92352000  0.44598000  0.90195000  1.0
  C  C58  1  0.20965000  0.59297000  0.06063000  1.0
  C  C59  1  0.79034000  0.40703000  0.93937000  1.0
  C  C60  1  0.20492000  0.73170000  0.01588000  1.0
  C  C61  1  0.79508000  0.26830000  0.98412000  1.0
  C  C62  1  0.23938000  0.78091000  0.90456000  1.0
  C  C63  1  0.76062000  0.21909000  0.09544000  1.0
  C  C64  1  0.23583000  0.91057000  0.86415000  1.0
  C  C65  1  0.76417000  0.08943000  0.13585000  1.0
  C  C66  1  0.20092000  0.99101000  0.93420000  1.0
  C  C67  1  0.79908000  0.00899000  0.06580000  1.0
  C  C68  1  0.16705000  0.94231000  0.04523000  1.0
  C  C69  1  0.83295000  0.05769000  0.95477000  1.0
  C  C70  1  0.16743000  0.81334000  0.08598000  1.0
  C  C71  1  0.83257000  0.18666000  0.91402000  1.0
  C  C72  1  0.45418000  0.53473000  0.04321000  1.0
  C  C73  1  0.54582000  0.46527000  0.95679000  1.0
  C  C74  1  0.93777000  0.24865000  0.58227000  1.0
  C  C75  1  0.06223000  0.75136000  0.41773000  1.0
  C  C76  1  0.87931000  0.36960000  0.60181000  1.0
  C  C77  1  0.12069000  0.63040000  0.39818000  1.0
  C  C78  1  0.95770000  0.42699000  0.63448000  1.0
  C  C79  1  0.04230000  0.57301000  0.36552000  1.0
  C  C80  1  0.09240000  0.36335000  0.64422000  1.0
  C  C81  1  0.90760000  0.63665000  0.35578000  1.0
  C  C82  1  0.14772000  0.24528000  0.61743000  1.0
  C  C83  1  0.85228000  0.75472000  0.38257000  1.0
  C  C84  1  0.29611000  0.17921000  0.61402000  1.0
  C  C85  1  0.70389000  0.82079000  0.38598000  1.0
  C  C86  1  0.38395000  0.23294000  0.65258000  1.0
  C  C87  1  0.61605000  0.76706000  0.34743000  1.0
  C  C88  1  0.39832000  0.35883000  0.60803000  1.0
  C  C89  1  0.60168000  0.64117000  0.39197000  1.0
  C  C90  1  0.48013000  0.40694000  0.64661000  1.0
  C  C91  1  0.51987000  0.59306000  0.35339000  1.0
  C  C92  1  0.54897000  0.32985000  0.72955000  1.0
  C  C93  1  0.45103000  0.67015000  0.27045000  1.0
  C  C94  1  0.53767000  0.20383000  0.77280000  1.0
  C  C95  1  0.46234000  0.79617000  0.22720000  1.0
  C  C96  1  0.45564000  0.15549000  0.73453000  1.0
  C  C97  1  0.54436000  0.84451000  0.26548000  1.0
  C  C98  1  0.48136000  0.01110000  0.55731000  1.0
  C  C99  1  0.51864000  0.98890000  0.44269000  1.0
  Br  Br100  1  0.39432000  0.13838000  0.05707000  1.0
  Br  Br101  1  0.60568000  0.86162000  0.94292000  1.0
  Br  Br102  1  0.35955000  0.33378000  0.34043000  1.0
  Br  Br103  1  0.64045000  0.66622000  0.65957000  1.0
  Br  Br104  1  0.12005000  0.06657000  0.33826000  1.0
  Br  Br105  1  0.87995000  0.93345000  0.66174000  1.0
  Br  Br106  1  0.28220000  0.75564000  0.59153000  1.0
  Br  Br107  1  0.71780000  0.24436000  0.40846000  1.0
  N  N108  1  0.32061000  0.50610000  0.07087000  1.0
  N  N109  1  0.67939000  0.49389000  0.92913000  1.0
  N  N110  1  0.07609000  0.43409000  0.15786000  1.0
  N  N111  1  0.92390000  0.56592000  0.84214000  1.0
  N  N112  1  0.06795000  0.18958000  0.58956000  1.0
  N  N113  1  0.93205000  0.81042000  0.41044000  1.0
  N  N114  1  0.33961000  0.07853000  0.57677000  1.0
  N  N115  1  0.66039000  0.92147000  0.42323000  1.0
