# generated using pymatgen
data_RbH3(CO)4
_symmetry_space_group_name_H-M   'P 1'
_cell_length_a   4.55576000
_cell_length_b   8.05229000
_cell_length_c   16.69120000
_cell_angle_alpha   90.00010000
_cell_angle_beta   90.00020000
_cell_angle_gamma   90.00000000
_symmetry_Int_Tables_number   1
_chemical_formula_structural   RbH3(CO)4
_chemical_formula_sum   'Rb4 H12 C16 O16'
_cell_volume   612.30499968
_cell_formula_units_Z   4
loop_
 _symmetry_equiv_pos_site_id
 _symmetry_equiv_pos_as_xyz
  1  'x, y, z'
loop_
 _atom_site_type_symbol
 _atom_site_label
 _atom_site_symmetry_multiplicity
 _atom_site_fract_x
 _atom_site_fract_y
 _atom_site_fract_z
 _atom_site_occupancy
  Rb  Rb0  1  0.76100000  0.24936000  0.99882000  1.0
  Rb  Rb1  1  0.23900000  0.75064000  0.49882000  1.0
  Rb  Rb2  1  0.23900000  0.74936000  0.99882000  1.0
  Rb  Rb3  1  0.76100000  0.25064000  0.49882000  1.0
  H  H4  1  0.57374000  0.56558000  0.81918000  1.0
  H  H5  1  0.42626000  0.43442000  0.31918000  1.0
  H  H6  1  0.42626000  0.06558000  0.81918000  1.0
  H  H7  1  0.57374000  0.93442000  0.31918000  1.0
  H  H8  1  0.57474000  0.56679000  0.67907000  1.0
  H  H9  1  0.42525000  0.43322000  0.17907000  1.0
  H  H10  1  0.42525000  0.06678000  0.67907000  1.0
  H  H11  1  0.57475000  0.93321000  0.17906000  1.0
  H  H12  1  0.01529000  0.29190000  0.74790000  1.0
  H  H13  1  0.98471000  0.70810000  0.24790000  1.0
  H  H14  1  0.98471000  0.79190000  0.74790000  1.0
  H  H15  1  0.01529000  0.20810000  0.24790000  1.0
  C  C16  1  0.22128000  0.39604000  0.84672000  1.0
  C  C17  1  0.77872000  0.60396000  0.34672000  1.0
  C  C18  1  0.77872000  0.89604000  0.84672000  1.0
  C  C19  1  0.22128000  0.10396000  0.34672000  1.0
  C  C20  1  0.41057000  0.48841000  0.78922000  1.0
  C  C21  1  0.58943000  0.51159000  0.28922000  1.0
  C  C22  1  0.58943000  0.98841000  0.78922000  1.0
  C  C23  1  0.41057000  0.01159000  0.28922000  1.0
  C  C24  1  0.41127000  0.48908000  0.70859000  1.0
  C  C25  1  0.58873000  0.51092000  0.20859000  1.0
  C  C26  1  0.58872000  0.98908000  0.70859000  1.0
  C  C27  1  0.41127000  0.01092000  0.20859000  1.0
  C  C28  1  0.22354000  0.39762000  0.65046000  1.0
  C  C29  1  0.77646000  0.60238000  0.15046000  1.0
  C  C30  1  0.77646000  0.89762000  0.65046000  1.0
  C  C31  1  0.22354000  0.10238000  0.15046000  1.0
  O  O32  1  0.26439000  0.41913000  0.92024000  1.0
  O  O33  1  0.73561000  0.58087000  0.42024000  1.0
  O  O34  1  0.73561000  0.91913000  0.92024000  1.0
  O  O35  1  0.26439000  0.08087000  0.42024000  1.0
  O  O36  1  0.02151000  0.29382000  0.82042000  1.0
  O  O37  1  0.97849000  0.70618000  0.32042000  1.0
  O  O38  1  0.97849000  0.79382000  0.82042000  1.0
  O  O39  1  0.02151000  0.20617000  0.32042000  1.0
  O  O40  1  0.02355000  0.29450000  0.67596000  1.0
  O  O41  1  0.97645000  0.70550000  0.17596000  1.0
  O  O42  1  0.97645000  0.79450000  0.67596000  1.0
  O  O43  1  0.02355000  0.20550000  0.17596000  1.0
  O  O44  1  0.26772000  0.42190000  0.57712000  1.0
  O  O45  1  0.73228000  0.57810000  0.07712000  1.0
  O  O46  1  0.73228000  0.92190000  0.57712000  1.0
  O  O47  1  0.26772000  0.07810000  0.07712000  1.0
