# generated using pymatgen
data_ZnH21C22NO7
_symmetry_space_group_name_H-M   'P 1'
_cell_length_a   8.84411000
_cell_length_b   16.55630000
_cell_length_c   17.70850000
_cell_angle_alpha   84.95690000
_cell_angle_beta   86.86960000
_cell_angle_gamma   79.48250000
_symmetry_Int_Tables_number   1
_chemical_formula_structural   ZnH21C22NO7
_chemical_formula_sum   'Zn2 H42 C44 N2 O14'
_cell_volume   2537.57756459
_cell_formula_units_Z   2
loop_
 _symmetry_equiv_pos_site_id
 _symmetry_equiv_pos_as_xyz
  1  'x, y, z'
loop_
 _atom_site_type_symbol
 _atom_site_label
 _atom_site_symmetry_multiplicity
 _atom_site_fract_x
 _atom_site_fract_y
 _atom_site_fract_z
 _atom_site_occupancy
  Zn  Zn0  1  0.50135000  0.58601000  0.50143000  1.0
  Zn  Zn1  1  0.53234000  0.41234000  0.50410000  1.0
  H  H2  1  0.33707000  0.62981000  0.87047000  1.0
  H  H3  1  0.45233000  0.37049000  0.14410000  1.0
  H  H4  1  0.40101000  0.62639000  0.73149000  1.0
  H  H5  1  0.50942000  0.37959000  0.27951000  1.0
  H  H6  1  0.47437000  0.36487000  0.89495000  1.0
  H  H7  1  0.34845000  0.63644000  0.11658000  1.0
  H  H8  1  0.66860000  0.86227000  0.40382000  1.0
  H  H9  1  0.29046000  0.15095000  0.56528000  1.0
  H  H10  1  0.32776000  0.72457000  0.57982000  1.0
  H  H11  1  0.70115000  0.27247000  0.42502000  1.0
  H  H12  1  0.30826000  0.87856000  0.57994000  1.0
  H  H13  1  0.69116000  0.12322000  0.41199000  1.0
  H  H14  1  0.90100000  0.43133000  0.35849000  1.0
  H  H15  1  0.91939000  0.33111000  0.40581000  1.0
  H  H16  1  0.18999000  0.29558000  0.34882000  1.0
  H  H17  1  0.05232000  0.32381000  0.27701000  1.0
  H  H18  1  0.16848000  0.39524000  0.29971000  1.0
  H  H19  1  0.86624000  0.65735000  0.51489000  1.0
  H  H20  1  0.03867000  0.67173000  0.55713000  1.0
  H  H21  1  0.90562000  0.66112000  0.68647000  1.0
  H  H22  1  0.80173000  0.74279000  0.62728000  1.0
  H  H23  1  0.73523000  0.64688000  0.64351000  1.0
  H  H24  1  0.77597000  0.32202000  0.77694000  1.0
  H  H25  1  0.72540000  0.38211000  0.68992000  1.0
  H  H26  1  0.65577000  0.26251000  0.63530000  1.0
  H  H27  1  0.84708000  0.23613000  0.66707000  1.0
  H  H28  1  0.69439000  0.20007000  0.72213000  1.0
  H  H29  1  0.21317000  0.64159000  0.32670000  1.0
  H  H30  1  0.16254000  0.70590000  0.24158000  1.0
  H  H31  1  0.30556000  0.81167000  0.29100000  1.0
  H  H32  1  0.14105000  0.79477000  0.34848000  1.0
  H  H33  1  0.32818000  0.74748000  0.37770000  1.0
  H  H34  1  0.85926000  0.76570000  0.37988000  1.0
  H  H35  1  0.89161000  0.66354000  0.35132000  1.0
  H  H36  1  0.83665000  0.76063000  0.23710000  1.0
  H  H37  1  0.68164000  0.70505000  0.25655000  1.0
  H  H38  1  0.65959000  0.80902000  0.27923000  1.0
  H  H39  1  0.21494000  0.22727000  0.65727000  1.0
  H  H40  1  0.09269000  0.28635000  0.58652000  1.0
  H  H41  1  0.09690000  0.41482000  0.65215000  1.0
  H  H42  1  0.03122000  0.33904000  0.71662000  1.0
  H  H43  1  0.22421000  0.35643000  0.71972000  1.0
  C  C44  1  0.50191000  0.50904000  0.35630000  1.0
  C  C45  1  0.50021000  0.50081000  0.65028000  1.0
  C  C46  1  0.38177000  0.49850000  0.97259000  1.0
  C  C47  1  0.38127000  0.50001000  0.04144000  1.0
  C  C48  1  0.59294000  0.83333000  0.44364000  1.0
  C  C49  1  0.38254000  0.17614000  0.53390000  1.0
  C  C50  1  0.59560000  0.74818000  0.44799000  1.0
  C  C51  1  0.40053000  0.25789000  0.53960000  1.0
  C  C52  1  0.40070000  0.75832000  0.54234000  1.0
  C  C53  1  0.61364000  0.24217000  0.45537000  1.0
  C  C54  1  0.39005000  0.84285000  0.54209000  1.0
  C  C55  1  0.60711000  0.16037000  0.44777000  1.0
  C  C56  1  0.48845000  0.88157000  0.49133000  1.0
  C  C57  1  0.48943000  0.12609000  0.48881000  1.0
  C  C58  1  0.48357000  0.96769000  0.48838000  1.0
  C  C59  1  0.48301000  0.04149000  0.48700000  1.0
  C  C60  1  0.81462000  0.46615000  0.49911000  1.0
  C  C61  1  0.22378000  0.51892000  0.50979000  1.0
  C  C62  1  0.98582000  0.46217000  0.48727000  1.0
  C  C63  1  0.05820000  0.51372000  0.52260000  1.0
  C  C64  1  0.37947000  0.57163000  0.84560000  1.0
  C  C65  1  0.44120000  0.43008000  0.16756000  1.0
  C  C66  1  0.41560000  0.56962000  0.76855000  1.0
  C  C67  1  0.47262000  0.43518000  0.24264000  1.0
  C  C68  1  0.47195000  0.49569000  0.73481000  1.0
  C  C69  1  0.46046000  0.51099000  0.27476000  1.0
  C  C70  1  0.49137000  0.42130000  0.78214000  1.0
  C  C71  1  0.41114000  0.58371000  0.22776000  1.0
  C  C72  1  0.45523000  0.42288000  0.85976000  1.0
  C  C73  1  0.38178000  0.57921000  0.15179000  1.0
  C  C74  1  0.40097000  0.49752000  0.89282000  1.0
  C  C75  1  0.39828000  0.50289000  0.12006000  1.0
  C  C76  1  0.98447000  0.37886000  0.38230000  1.0
  C  C77  1  0.10610000  0.34667000  0.32343000  1.0
  C  C78  1  0.93367000  0.64476000  0.56639000  1.0
  C  C79  1  0.83823000  0.67548000  0.63512000  1.0
  C  C80  1  0.70107000  0.32944000  0.72788000  1.0
  C  C81  1  0.72553000  0.25224000  0.68571000  1.0
  C  C82  1  0.24676000  0.69088000  0.28698000  1.0
  C  C83  1  0.25641000  0.76575000  0.32845000  1.0
  C  C84  1  0.80532000  0.72004000  0.35458000  1.0
  C  C85  1  0.74156000  0.75067000  0.27744000  1.0
  C  C86  1  0.18209000  0.28854000  0.62695000  1.0
  C  C87  1  0.13093000  0.35391000  0.68207000  1.0
  N  N88  1  0.50028000  0.71195000  0.49647000  1.0
  N  N89  1  0.51471000  0.28969000  0.50051000  1.0
  O  O90  1  0.46543000  0.57538000  0.38950000  1.0
  O  O91  1  0.49659000  0.43662000  0.61635000  1.0
  O  O92  1  0.56990000  0.43998000  0.38645000  1.0
  O  O93  1  0.52133000  0.57025000  0.61853000  1.0
  O  O94  1  0.73188000  0.53671000  0.48859000  1.0
  O  O95  1  0.31000000  0.45741000  0.48256000  1.0
  O  O96  1  0.76747000  0.39796000  0.51489000  1.0
  O  O97  1  0.26858000  0.58413000  0.52672000  1.0
  O  O98  1  0.06437000  0.40416000  0.44306000  1.0
  O  O99  1  0.97668000  0.55622000  0.57987000  1.0
  O  O100  1  0.54304000  0.34466000  0.75652000  1.0
  O  O101  1  0.39650000  0.66163000  0.25266000  1.0
  O  O102  1  0.68869000  0.69448000  0.40687000  1.0
  O  O103  1  0.31500000  0.31035000  0.58415000  1.0
