# generated using pymatgen
data_Cu3H12C15(N15O2)2
_symmetry_space_group_name_H-M   'P 1'
_cell_length_a   12.64820000
_cell_length_b   12.91960000
_cell_length_c   13.14360000
_cell_angle_alpha   117.52700000
_cell_angle_beta   107.24400000
_cell_angle_gamma   92.42190000
_symmetry_Int_Tables_number   1
_chemical_formula_structural   Cu3H12C15(N15O2)2
_chemical_formula_sum   'Cu6 H24 C30 N60 O8'
_cell_volume   1777.82106517
_cell_formula_units_Z   2
loop_
 _symmetry_equiv_pos_site_id
 _symmetry_equiv_pos_as_xyz
  1  'x, y, z'
loop_
 _atom_site_type_symbol
 _atom_site_label
 _atom_site_symmetry_multiplicity
 _atom_site_fract_x
 _atom_site_fract_y
 _atom_site_fract_z
 _atom_site_occupancy
  Cu  Cu0  1  0.76266000  0.75298000  0.73015000  1.0
  Cu  Cu1  1  0.23726000  0.24684000  0.26960000  1.0
  Cu  Cu2  1  0.00022000  0.00010000  0.00023000  1.0
  Cu  Cu3  1  0.49993000  0.49972000  0.50000000  1.0
  Cu  Cu4  1  0.76030000  0.24773000  0.72443000  1.0
  Cu  Cu5  1  0.23991000  0.75241000  0.27592000  1.0
  H  H6  1  0.55968000  0.26947000  0.76673000  1.0
  H  H7  1  0.44016000  0.73063000  0.23306000  1.0
  H  H8  1  0.53168000  0.17067000  0.62861000  1.0
  H  H9  1  0.46827000  0.82940000  0.37121000  1.0
  H  H10  1  0.87572000  0.38786000  0.97210000  1.0
  H  H11  1  0.12533000  0.61148000  0.02751000  1.0
  H  H12  1  0.76055000  0.43234000  0.93640000  1.0
  H  H13  1  0.24074000  0.56759000  0.06374000  1.0
  H  H14  1  0.01678000  0.26982000  0.84642000  1.0
  H  H15  1  0.98415000  0.73066000  0.15394000  1.0
  H  H16  1  0.06334000  0.31095000  0.77081000  1.0
  H  H17  1  0.93657000  0.69002000  0.22918000  1.0
  H  H18  1  0.91639000  0.11111000  0.61853000  1.0
  H  H19  1  0.08389000  0.88915000  0.38204000  1.0
  H  H20  1  0.91150000  0.02709000  0.46317000  1.0
  H  H21  1  0.08850000  0.97299000  0.53725000  1.0
  H  H22  1  0.86437000  0.95119000  0.52953000  1.0
  H  H23  1  0.13552000  0.04909000  0.47107000  1.0
  H  H24  1  0.59228000  0.97259000  0.32780000  1.0
  H  H25  1  0.40785000  0.02819000  0.67310000  1.0
  H  H26  1  0.68711000  0.87219000  0.33034000  1.0
  H  H27  1  0.31282000  0.12848000  0.67035000  1.0
  H  H28  1  0.71477000  0.97791000  0.28687000  1.0
  H  H29  1  0.28523000  0.02281000  0.71394000  1.0
  C  C30  1  0.79087000  0.49054000  0.73863000  1.0
  C  C31  1  0.20971000  0.50935000  0.26129000  1.0
  C  C32  1  0.89727000  0.54127000  0.83558000  1.0
  C  C33  1  0.10348000  0.45874000  0.16408000  1.0
  C  C34  1  0.62653000  0.63139000  0.36615000  1.0
  C  C35  1  0.37316000  0.36856000  0.63361000  1.0
  C  C36  1  0.53469000  0.57385000  0.25246000  1.0
  C  C37  1  0.46493000  0.42609000  0.74741000  1.0
  C  C38  1  0.45534000  0.80148000  0.75991000  1.0
  C  C39  1  0.54439000  0.19816000  0.23990000  1.0
  C  C40  1  0.38647000  0.87363000  0.81746000  1.0
  C  C41  1  0.61334000  0.12621000  0.18237000  1.0
  C  C42  1  0.73533000  0.01255000  0.71981000  1.0
  C  C43  1  0.26432000  0.98733000  0.28003000  1.0
  C  C44  1  0.63291000  0.95501000  0.61855000  1.0
  C  C45  1  0.36675000  0.04503000  0.38130000  1.0
  C  C46  1  0.85022000  0.90666000  0.10209000  1.0
  C  C47  1  0.14958000  0.09324000  0.89777000  1.0
  C  C48  1  0.90417000  0.99932000  0.22491000  1.0
  C  C49  1  0.09548000  0.00046000  0.77505000  1.0
  C  C50  1  0.08395000  0.70015000  0.77743000  1.0
  C  C51  1  0.91603000  0.29986000  0.22249000  1.0
  C  C52  1  0.16224000  0.62468000  0.75425000  1.0
  C  C53  1  0.83775000  0.37547000  0.24551000  1.0
  C  C54  1  0.86848000  0.03553000  0.52720000  1.0
  C  C55  1  0.13157000  0.96477000  0.47336000  1.0
  C  C56  1  0.75184000  0.04994000  0.47789000  1.0
  C  C57  1  0.24828000  0.95055000  0.52282000  1.0
  C  C58  1  0.68046000  0.96323000  0.34799000  1.0
  C  C59  1  0.31959000  0.03744000  0.65278000  1.0
  N  N60  1  0.73044000  0.54836000  0.68777000  1.0
  N  N61  1  0.27004000  0.45135000  0.31189000  1.0
  N  N62  1  0.63636000  0.46760000  0.60452000  1.0
  N  N63  1  0.36394000  0.53224000  0.39561000  1.0
  N  N64  1  0.63672000  0.36413000  0.60159000  1.0
  N  N65  1  0.36351000  0.63599000  0.39900000  1.0
  N  N66  1  0.73361000  0.37647000  0.68575000  1.0
  N  N67  1  0.26678000  0.62367000  0.31475000  1.0
  N  N68  1  0.98415000  0.58137000  0.91634000  1.0
  N  N69  1  0.01674000  0.41838000  0.08308000  1.0
  N  N70  1  0.63129000  0.61974000  0.46395000  1.0
  N  N71  1  0.36862000  0.37999000  0.53574000  1.0
  N  N72  1  0.72436000  0.69952000  0.55196000  1.0
  N  N73  1  0.27547000  0.30039000  0.44774000  1.0
  N  N74  1  0.77428000  0.75748000  0.51091000  1.0
  N  N75  1  0.22525000  0.24269000  0.48882000  1.0
  N  N76  1  0.71391000  0.71586000  0.39336000  1.0
  N  N77  1  0.28551000  0.28435000  0.60640000  1.0
  N  N78  1  0.45521000  0.53754000  0.16276000  1.0
  N  N79  1  0.54435000  0.46232000  0.83717000  1.0
  N  N80  1  0.41828000  0.68533000  0.67173000  1.0
  N  N81  1  0.58146000  0.31429000  0.32819000  1.0
  N  N82  1  0.50843000  0.65535000  0.64395000  1.0
  N  N83  1  0.49128000  0.34428000  0.35588000  1.0
  N  N84  1  0.59630000  0.74922000  0.71175000  1.0
  N  N85  1  0.40339000  0.25040000  0.28791000  1.0
  N  N86  1  0.56551000  0.84268000  0.78579000  1.0
  N  N87  1  0.43417000  0.15698000  0.21388000  1.0
  N  N88  1  0.33035000  0.93504000  0.86366000  1.0
  N  N89  1  0.66954000  0.06482000  0.13629000  1.0
  N  N90  1  0.79075000  0.95955000  0.77977000  1.0
  N  N91  1  0.20903000  0.04028000  0.21998000  1.0
  N  N92  1  0.88698000  0.03824000  0.85973000  1.0
  N  N93  1  0.11273000  0.96164000  0.14010000  1.0
  N  N94  1  0.89247000  0.13585000  0.85101000  1.0
  N  N95  1  0.10715000  0.86405000  0.14893000  1.0
  N  N96  1  0.79755000  0.12178000  0.76306000  1.0
  N  N97  1  0.20207000  0.87811000  0.23685000  1.0
  N  N98  1  0.55300000  0.90133000  0.53014000  1.0
  N  N99  1  0.44674000  0.09855000  0.46966000  1.0
  N  N100  1  0.86383000  0.90577000  0.00384000  1.0
  N  N101  1  0.13615000  0.09423000  0.99614000  1.0
  N  N102  1  0.79544000  0.80426000  0.90883000  1.0
  N  N103  1  0.20446000  0.19556000  0.09095000  1.0
  N  N104  1  0.74320000  0.74534000  0.94644000  1.0
  N  N105  1  0.25669000  0.25452000  0.05330000  1.0
  N  N106  1  0.77674000  0.80782000  0.06851000  1.0
  N  N107  1  0.22299000  0.19208000  0.93124000  1.0
  N  N108  1  0.94698000  0.07407000  0.32741000  1.0
  N  N109  1  0.05254000  0.92579000  0.67254000  1.0
  N  N110  1  0.01358000  0.84394000  0.86857000  1.0
  N  N111  1  0.98660000  0.15625000  0.13137000  1.0
  N  N112  1  0.11053000  0.80888000  0.87864000  1.0
  N  N113  1  0.88944000  0.19103000  0.12134000  1.0
  N  N114  1  0.93106000  0.76005000  0.76533000  1.0
  N  N115  1  0.06893000  0.23997000  0.23432000  1.0
  N  N116  1  0.97294000  0.66830000  0.70609000  1.0
  N  N117  1  0.02708000  0.33174000  0.29380000  1.0
  N  N118  1  0.22596000  0.56128000  0.73914000  1.0
  N  N119  1  0.77380000  0.43862000  0.26078000  1.0
  O  O120  1  0.58173000  0.19807000  0.71430000  1.0
  O  O121  1  0.41832000  0.80215000  0.28553000  1.0
  O  O122  1  0.79765000  0.36486000  0.91138000  1.0
  O  O123  1  0.20310000  0.63463000  0.08870000  1.0
  O  O124  1  0.99667000  0.30252000  0.79118000  1.0
  O  O125  1  0.00314000  0.69665000  0.20807000  1.0
  O  O126  1  0.70994000  0.13097000  0.54082000  1.0
  O  O127  1  0.29019000  0.86950000  0.46002000  1.0
