# generated using pymatgen
data_AlH9C24(OF)6
_symmetry_space_group_name_H-M   'P 1'
_cell_length_a   3.97549000
_cell_length_b   28.68740000
_cell_length_c   28.68740000
_cell_angle_alpha   60.00000000
_cell_angle_beta   89.99980000
_cell_angle_gamma   89.99950000
_symmetry_Int_Tables_number   1
_chemical_formula_structural   AlH9C24(OF)6
_chemical_formula_sum   'Al2 H18 C48 O12 F12'
_cell_volume   2833.37250395
_cell_formula_units_Z   2
loop_
 _symmetry_equiv_pos_site_id
 _symmetry_equiv_pos_as_xyz
  1  'x, y, z'
loop_
 _atom_site_type_symbol
 _atom_site_label
 _atom_site_symmetry_multiplicity
 _atom_site_fract_x
 _atom_site_fract_y
 _atom_site_fract_z
 _atom_site_occupancy
  Al  Al0  1  0.00033000  0.00000000  0.50000000  1.0
  Al  Al1  1  0.00033000  0.66666000  0.16667000  1.0
  H  H2  1  0.49947000  0.41384000  0.35704000  1.0
  H  H3  1  0.50013000  0.42308000  0.20109000  1.0
  H  H4  1  0.50016000  0.24358000  0.46560000  1.0
  H  H5  1  0.49947000  0.25284000  0.30964000  1.0
  H  H6  1  0.50002000  0.33751000  0.27773000  1.0
  H  H7  1  0.50003000  0.32915000  0.38896000  1.0
  H  H8  1  0.49948000  0.85704000  0.22912000  1.0
  H  H9  1  0.50015000  0.70109000  0.37583000  1.0
  H  H10  1  0.50016000  0.96561000  0.29082000  1.0
  H  H11  1  0.49949000  0.80964000  0.43752000  1.0
  H  H12  1  0.50002000  0.77773000  0.38476000  1.0
  H  H13  1  0.50003000  0.88895000  0.28189000  1.0
  H  H14  1  0.49947000  0.72912000  0.91384000  1.0
  H  H15  1  0.50014000  0.87583000  0.92308000  1.0
  H  H16  1  0.50016000  0.79083000  0.74357000  1.0
  H  H17  1  0.49949000  0.93752000  0.75284000  1.0
  H  H18  1  0.50002000  0.88476000  0.83751000  1.0
  H  H19  1  0.50003000  0.78188000  0.82916000  1.0
  C  C20  1  0.50022000  0.95502000  0.58229000  1.0
  C  C21  1  0.50021000  0.08229000  0.46269000  1.0
  C  C22  1  0.50022000  0.96269000  0.45502000  1.0
  C  C23  1  0.50021000  0.58438000  0.20398000  1.0
  C  C24  1  0.50021000  0.70398000  0.21165000  1.0
  C  C25  1  0.50021000  0.71164000  0.08438000  1.0
  C  C26  1  0.50015000  0.52440000  0.23100000  1.0
  C  C27  1  0.49435000  0.49166000  0.28722000  1.0
  C  C28  1  0.49768000  0.43604000  0.31324000  1.0
  C  C29  1  0.49982000  0.40994000  0.28271000  1.0
  C  C30  1  0.50212000  0.44165000  0.22620000  1.0
  C  C31  1  0.50576000  0.49729000  0.20183000  1.0
  C  C32  1  0.49971000  0.35164000  0.30676000  1.0
  C  C33  1  0.49972000  0.31503000  0.35993000  1.0
  C  C34  1  0.50213000  0.22501000  0.44048000  1.0
  C  C35  1  0.49982000  0.25672000  0.38398000  1.0
  C  C36  1  0.49768000  0.23063000  0.35344000  1.0
  C  C37  1  0.49436000  0.17501000  0.37945000  1.0
  C  C38  1  0.50017000  0.14227000  0.43567000  1.0
  C  C39  1  0.50577000  0.16937000  0.46485000  1.0
  C  C40  1  0.50016000  0.73100000  0.24460000  1.0
  C  C41  1  0.49436000  0.78722000  0.22112000  1.0
  C  C42  1  0.49769000  0.81324000  0.25072000  1.0
  C  C43  1  0.49983000  0.78271000  0.30735000  1.0
  C  C44  1  0.50213000  0.72620000  0.33215000  1.0
  C  C45  1  0.50577000  0.70182000  0.30088000  1.0
  C  C46  1  0.49972000  0.80676000  0.34160000  1.0
  C  C47  1  0.49972000  0.85993000  0.32504000  1.0
  C  C48  1  0.50213000  0.94048000  0.33451000  1.0
  C  C49  1  0.49983000  0.88397000  0.35930000  1.0
  C  C50  1  0.49770000  0.85344000  0.41593000  1.0
  C  C51  1  0.49436000  0.87945000  0.44554000  1.0
  C  C52  1  0.50017000  0.93567000  0.42206000  1.0
  C  C53  1  0.50577000  0.96485000  0.36578000  1.0
  C  C54  1  0.50016000  0.74460000  0.02440000  1.0
  C  C55  1  0.49435000  0.72112000  0.99166000  1.0
  C  C56  1  0.49768000  0.75072000  0.93604000  1.0
  C  C57  1  0.49982000  0.80735000  0.90994000  1.0
  C  C58  1  0.50213000  0.83214000  0.94165000  1.0
  C  C59  1  0.50576000  0.80087000  0.99730000  1.0
  C  C60  1  0.49971000  0.84160000  0.85164000  1.0
  C  C61  1  0.49972000  0.82504000  0.81503000  1.0
  C  C62  1  0.50213000  0.83451000  0.72501000  1.0
  C  C63  1  0.49983000  0.85929000  0.75673000  1.0
  C  C64  1  0.49770000  0.91593000  0.73063000  1.0
  C  C65  1  0.49436000  0.94553000  0.67501000  1.0
  C  C66  1  0.50016000  0.92206000  0.64227000  1.0
  C  C67  1  0.50576000  0.86578000  0.66937000  1.0
  O  O68  1  0.73641000  0.99590000  0.44644000  1.0
  O  O69  1  0.73641000  0.94645000  0.55766000  1.0
  O  O70  1  0.73641000  0.05766000  0.49589000  1.0
  O  O71  1  0.26405000  0.95051000  0.48904000  1.0
  O  O72  1  0.26404000  0.06045000  0.45051000  1.0
  O  O73  1  0.26404000  0.98904000  0.56045000  1.0
  O  O74  1  0.73641000  0.72022000  0.10900000  1.0
  O  O75  1  0.73642000  0.60900000  0.17078000  1.0
  O  O76  1  0.73641000  0.67078000  0.22022000  1.0
  O  O77  1  0.26405000  0.67762000  0.10622000  1.0
  O  O78  1  0.26405000  0.71616000  0.17762000  1.0
  O  O79  1  0.26405000  0.60622000  0.21616000  1.0
  F  F80  1  0.50501000  0.52663000  0.14731000  1.0
  F  F81  1  0.49496000  0.51582000  0.31754000  1.0
  F  F82  1  0.49495000  0.15086000  0.34913000  1.0
  F  F83  1  0.50504000  0.14003000  0.51937000  1.0
  F  F84  1  0.50503000  0.64731000  0.32606000  1.0
  F  F85  1  0.49497000  0.81754000  0.16664000  1.0
  F  F86  1  0.49496000  0.84913000  0.50001000  1.0
  F  F87  1  0.50504000  0.01937000  0.34060000  1.0
  F  F88  1  0.50502000  0.82606000  0.02663000  1.0
  F  F89  1  0.49496000  0.66664000  0.01582000  1.0
  F  F90  1  0.49496000  0.00001000  0.65086000  1.0
  F  F91  1  0.50503000  0.84060000  0.64003000  1.0
