# generated using pymatgen
data_CdH6C4N2O7
_symmetry_space_group_name_H-M   'P 1'
_cell_length_a   7.26907000
_cell_length_b   7.29819000
_cell_length_c   14.61760000
_cell_angle_alpha   90.00030000
_cell_angle_beta   89.99960000
_cell_angle_gamma   89.99960000
_symmetry_Int_Tables_number   1
_chemical_formula_structural   CdH6C4N2O7
_chemical_formula_sum   'Cd4 H24 C16 N8 O28'
_cell_volume   775.47908666
_cell_formula_units_Z   4
loop_
 _symmetry_equiv_pos_site_id
 _symmetry_equiv_pos_as_xyz
  1  'x, y, z'
loop_
 _atom_site_type_symbol
 _atom_site_label
 _atom_site_symmetry_multiplicity
 _atom_site_fract_x
 _atom_site_fract_y
 _atom_site_fract_z
 _atom_site_occupancy
  Cd  Cd0  1  0.05265000  0.00374000  0.79335000  1.0
  Cd  Cd1  1  0.44735000  0.99627000  0.29335000  1.0
  Cd  Cd2  1  0.94736000  0.50373000  0.70665000  1.0
  Cd  Cd3  1  0.55265000  0.49626000  0.20665000  1.0
  H  H4  1  0.68227000  0.59791000  0.98398000  1.0
  H  H5  1  0.81774000  0.40209000  0.48398000  1.0
  H  H6  1  0.31773000  0.09791000  0.51602000  1.0
  H  H7  1  0.18228000  0.90208000  0.01603000  1.0
  H  H8  1  0.54743000  0.79591000  0.96851000  1.0
  H  H9  1  0.95257000  0.20409000  0.46851000  1.0
  H  H10  1  0.45258000  0.29591000  0.53148000  1.0
  H  H11  1  0.04742000  0.70409000  0.03149000  1.0
  H  H12  1  0.35911000  0.52098000  0.96762000  1.0
  H  H13  1  0.14089000  0.47902000  0.46762000  1.0
  H  H14  1  0.64088000  0.02098000  0.53238000  1.0
  H  H15  1  0.85911000  0.97902000  0.03238000  1.0
  H  H16  1  0.54694000  0.28910000  0.90606000  1.0
  H  H17  1  0.95307000  0.71091000  0.40606000  1.0
  H  H18  1  0.45306000  0.78909000  0.59394000  1.0
  H  H19  1  0.04694000  0.21090000  0.09394000  1.0
  H  H20  1  0.58948000  0.41193000  0.81057000  1.0
  H  H21  1  0.91052000  0.58808000  0.31057000  1.0
  H  H22  1  0.41052000  0.91191000  0.68943000  1.0
  H  H23  1  0.08948000  0.08808000  0.18943000  1.0
  H  H24  1  0.37979000  0.32163000  0.82774000  1.0
  H  H25  1  0.12020000  0.67837000  0.32774000  1.0
  H  H26  1  0.62021000  0.82162000  0.67226000  1.0
  H  H27  1  0.87980000  0.17838000  0.17226000  1.0
  C  C28  1  0.72970000  0.73234000  0.85839000  1.0
  C  C29  1  0.77028000  0.26766000  0.35840000  1.0
  C  C30  1  0.27029000  0.23236000  0.64160000  1.0
  C  C31  1  0.22971000  0.76763000  0.14160000  1.0
  C  C32  1  0.59913000  0.67338000  0.93357000  1.0
  C  C33  1  0.90087000  0.32662000  0.43357000  1.0
  C  C34  1  0.40087000  0.17338000  0.56643000  1.0
  C  C35  1  0.09912000  0.82662000  0.06643000  1.0
  C  C36  1  0.43560000  0.55753000  0.90521000  1.0
  C  C37  1  0.06440000  0.44247000  0.40520000  1.0
  C  C38  1  0.56440000  0.05753000  0.59480000  1.0
  C  C39  1  0.93560000  0.94247000  0.09480000  1.0
  C  C40  1  0.29301000  0.65129000  0.84264000  1.0
  C  C41  1  0.20699000  0.34871000  0.34264000  1.0
  C  C42  1  0.70699000  0.15128000  0.65736000  1.0
  C  C43  1  0.79302000  0.84872000  0.15736000  1.0
  N  N44  1  0.49198000  0.38161000  0.85999000  1.0
  N  N45  1  0.00803000  0.61839000  0.35999000  1.0
  N  N46  1  0.50802000  0.88160000  0.64001000  1.0
  N  N47  1  0.99198000  0.11840000  0.14001000  1.0
  N  N48  1  0.99799000  0.29940000  0.92710000  1.0
  N  N49  1  0.50202000  0.70060000  0.42710000  1.0
  N  N50  1  0.00202000  0.79940000  0.57290000  1.0
  N  N51  1  0.49799000  0.20060000  0.07291000  1.0
  O  O52  1  0.85132000  0.84762000  0.88111000  1.0
  O  O53  1  0.64867000  0.15239000  0.38111000  1.0
  O  O54  1  0.14869000  0.34763000  0.61888000  1.0
  O  O55  1  0.35130000  0.65237000  0.11889000  1.0
  O  O56  1  0.71254000  0.65892000  0.77879000  1.0
  O  O57  1  0.78744000  0.34107000  0.27880000  1.0
  O  O58  1  0.28744000  0.15894000  0.72121000  1.0
  O  O59  1  0.21254000  0.84107000  0.22121000  1.0
  O  O60  1  0.29763000  0.82401000  0.83558000  1.0
  O  O61  1  0.20236000  0.17599000  0.33557000  1.0
  O  O62  1  0.70237000  0.32400000  0.66442000  1.0
  O  O63  1  0.79763000  0.67599000  0.16442000  1.0
  O  O64  1  0.17938000  0.54089000  0.80716000  1.0
  O  O65  1  0.32062000  0.45910000  0.30716000  1.0
  O  O66  1  0.82060000  0.04087000  0.69285000  1.0
  O  O67  1  0.67938000  0.95912000  0.19284000  1.0
  O  O68  1  0.88478000  0.30037000  0.86046000  1.0
  O  O69  1  0.61523000  0.69965000  0.36047000  1.0
  O  O70  1  0.11524000  0.80038000  0.63953000  1.0
  O  O71  1  0.38477000  0.19963000  0.13954000  1.0
  O  O72  1  0.12547000  0.17738000  0.92727000  1.0
  O  O73  1  0.37452000  0.82261000  0.42727000  1.0
  O  O74  1  0.87454000  0.67737000  0.57273000  1.0
  O  O75  1  0.62548000  0.32261000  0.07273000  1.0
  O  O76  1  0.98676000  0.41010000  0.99177000  1.0
  O  O77  1  0.51325000  0.58990000  0.49177000  1.0
  O  O78  1  0.01323000  0.91011000  0.50823000  1.0
  O  O79  1  0.48676000  0.08989000  0.00823000  1.0
