# generated using pymatgen
data_Cu2PH14C17I2N
_symmetry_space_group_name_H-M   'P 1'
_cell_length_a   7.67646000
_cell_length_b   8.42991000
_cell_length_c   14.22460000
_cell_angle_alpha   77.19560000
_cell_angle_beta   86.35300000
_cell_angle_gamma   86.41090000
_symmetry_Int_Tables_number   1
_chemical_formula_structural   Cu2PH14C17I2N
_chemical_formula_sum   'Cu4 P2 H28 C34 I4 N2'
_cell_volume   894.67863406
_cell_formula_units_Z   2
loop_
 _symmetry_equiv_pos_site_id
 _symmetry_equiv_pos_as_xyz
  1  'x, y, z'
loop_
 _atom_site_type_symbol
 _atom_site_label
 _atom_site_symmetry_multiplicity
 _atom_site_fract_x
 _atom_site_fract_y
 _atom_site_fract_z
 _atom_site_occupancy
  Cu  Cu0  1  0.92357000  0.45536000  0.58618000  1.0
  Cu  Cu1  1  0.07643000  0.54464000  0.41382000  1.0
  Cu  Cu2  1  0.28832000  0.47228000  0.55406000  1.0
  Cu  Cu3  1  0.71168000  0.52772000  0.44593000  1.0
  P  P4  1  0.02561000  0.30030000  0.72032000  1.0
  P  P5  1  0.97439000  0.69970000  0.27968000  1.0
  H  H6  1  0.12606000  0.94239000  0.78827000  1.0
  H  H7  1  0.87394000  0.05761000  0.21172000  1.0
  H  H8  1  0.36321000  0.77066000  0.72500000  1.0
  H  H9  1  0.63679000  0.22934000  0.27500000  1.0
  H  H10  1  0.57662000  0.90713000  0.59634000  1.0
  H  H11  1  0.42338000  0.09288000  0.40366000  1.0
  H  H12  1  0.53877000  0.20858000  0.53248000  1.0
  H  H13  1  0.46123000  0.79142000  0.46752000  1.0
  H  H14  1  0.80611000  0.05622000  0.68562000  1.0
  H  H15  1  0.19388000  0.94378000  0.31438000  1.0
  H  H16  1  0.93592000  0.23582000  0.93233000  1.0
  H  H17  1  0.06408000  0.76418000  0.06767000  1.0
  H  H18  1  0.75161000  0.03002000  0.03940000  1.0
  H  H19  1  0.24839000  0.96998000  0.96060000  1.0
  H  H20  1  0.60391000  0.83104000  0.97044000  1.0
  H  H21  1  0.39609000  0.16896000  0.02956000  1.0
  H  H22  1  0.63354000  0.84308000  0.79368000  1.0
  H  H23  1  0.36645000  0.15692000  0.20632000  1.0
  H  H24  1  0.89313000  0.57368000  0.79587000  1.0
  H  H25  1  0.10687000  0.42632000  0.20414000  1.0
  H  H26  1  0.37200000  0.27287000  0.81297000  1.0
  H  H27  1  0.62800000  0.72713000  0.18703000  1.0
  H  H28  1  0.48945000  0.43475000  0.91723000  1.0
  H  H29  1  0.51056000  0.56525000  0.08277000  1.0
  H  H30  1  0.30491000  0.65822000  0.96836000  1.0
  H  H31  1  0.69509000  0.34177000  0.03164000  1.0
  H  H32  1  0.00448000  0.72515000  0.90832000  1.0
  H  H33  1  0.99552000  0.27484000  0.09169000  1.0
  C  C34  1  0.20237000  0.16297000  0.68967000  1.0
  C  C35  1  0.79763000  0.83703000  0.31033000  1.0
  C  C36  1  0.21860000  0.99681000  0.73101000  1.0
  C  C37  1  0.78140000  0.00319000  0.26899000  1.0
  C  C38  1  0.35123000  0.90167000  0.69614000  1.0
  C  C39  1  0.64877000  0.09834000  0.30385000  1.0
  C  C40  1  0.46935000  0.97733000  0.62426000  1.0
  C  C41  1  0.53065000  0.02267000  0.37574000  1.0
  C  C42  1  0.44817000  0.14410000  0.58804000  1.0
  C  C43  1  0.55183000  0.85591000  0.41196000  1.0
  C  C44  1  0.79514000  0.04996000  0.76328000  1.0
  C  C45  1  0.20486000  0.95005000  0.23672000  1.0
  C  C46  1  0.88381000  0.15945000  0.80227000  1.0
  C  C47  1  0.11619000  0.84055000  0.19773000  1.0
  C  C48  1  0.86640000  0.15198000  0.90180000  1.0
  C  C49  1  0.13360000  0.84802000  0.09820000  1.0
  C  C50  1  0.76370000  0.03576000  0.96187000  1.0
  C  C51  1  0.23630000  0.96424000  0.03813000  1.0
  C  C52  1  0.68057000  0.92401000  0.92316000  1.0
  C  C53  1  0.31943000  0.07599000  0.07684000  1.0
  C  C54  1  0.69718000  0.93097000  0.82395000  1.0
  C  C55  1  0.30282000  0.06903000  0.17606000  1.0
  C  C56  1  0.02199000  0.54049000  0.82490000  1.0
  C  C57  1  0.97801000  0.45951000  0.17510000  1.0
  C  C58  1  0.12278000  0.40989000  0.79928000  1.0
  C  C59  1  0.87723000  0.59011000  0.20072000  1.0
  C  C60  1  0.29076000  0.37159000  0.83367000  1.0
  C  C61  1  0.70924000  0.62841000  0.16633000  1.0
  C  C62  1  0.35668000  0.46265000  0.89316000  1.0
  C  C63  1  0.64333000  0.53735000  0.10683000  1.0
  C  C64  1  0.25407000  0.58879000  0.92085000  1.0
  C  C65  1  0.74593000  0.41120000  0.07915000  1.0
  C  C66  1  0.08613000  0.62710000  0.88701000  1.0
  C  C67  1  0.91387000  0.37289000  0.11300000  1.0
  I  I68  1  0.91114000  0.26279000  0.45735000  1.0
  I  I69  1  0.08885000  0.73721000  0.54265000  1.0
  I  I70  1  0.40445000  0.46342000  0.36569000  1.0
  I  I71  1  0.59555000  0.53658000  0.63431000  1.0
  N  N72  1  0.31432000  0.23535000  0.61760000  1.0
  N  N73  1  0.68568000  0.76465000  0.38240000  1.0
