# generated using pymatgen
data_Cu2H15C21N10
_symmetry_space_group_name_H-M   'P 1'
_cell_length_a   8.20460000
_cell_length_b   10.04670000
_cell_length_c   13.79730000
_cell_angle_alpha   98.81410000
_cell_angle_beta   92.49960000
_cell_angle_gamma   102.28500000
_symmetry_Int_Tables_number   1
_chemical_formula_structural   Cu2H15C21N10
_chemical_formula_sum   'Cu4 H30 C42 N20'
_cell_volume   1094.70759543
_cell_formula_units_Z   2
loop_
 _symmetry_equiv_pos_site_id
 _symmetry_equiv_pos_as_xyz
  1  'x, y, z'
loop_
 _atom_site_type_symbol
 _atom_site_label
 _atom_site_symmetry_multiplicity
 _atom_site_fract_x
 _atom_site_fract_y
 _atom_site_fract_z
 _atom_site_occupancy
  Cu  Cu0  1  0.82194000  0.18579000  0.40108000  1.0
  Cu  Cu1  1  0.17806000  0.81421000  0.59892000  1.0
  Cu  Cu2  1  0.40593000  0.73207000  0.13585000  1.0
  Cu  Cu3  1  0.59407000  0.26793000  0.86415000  1.0
  H  H4  1  0.79934000  0.45595000  0.52691000  1.0
  H  H5  1  0.20066000  0.54404000  0.47309000  1.0
  H  H6  1  0.90358000  0.58420000  0.69347000  1.0
  H  H7  1  0.09642000  0.41580000  0.30653000  1.0
  H  H8  1  0.13683000  0.24648000  0.73597000  1.0
  H  H9  1  0.86317000  0.75352000  0.26403000  1.0
  H  H10  1  0.01809000  0.13140000  0.56834000  1.0
  H  H11  1  0.98191000  0.86860000  0.43166000  1.0
  H  H12  1  0.24350000  0.81880000  0.96486000  1.0
  H  H13  1  0.75650000  0.18120000  0.03514000  1.0
  H  H14  1  0.11073000  0.70559000  0.79926000  1.0
  H  H15  1  0.88927000  0.29441000  0.20074000  1.0
  H  H16  1  0.10712000  0.31279000  0.89207000  1.0
  H  H17  1  0.89288000  0.68721000  0.10793000  1.0
  H  H18  1  0.24425000  0.44310000  0.05245000  1.0
  H  H19  1  0.75575000  0.55690000  0.94755000  1.0
  H  H20  1  0.55173000  0.73612000  0.93601000  1.0
  H  H21  1  0.44826000  0.26388000  0.06399000  1.0
  H  H22  1  0.81205000  0.84500000  0.87339000  1.0
  H  H23  1  0.18795000  0.15500000  0.12661000  1.0
  H  H24  1  0.96814000  0.06262000  0.17132000  1.0
  H  H25  1  0.03186000  0.93737000  0.82868000  1.0
  H  H26  1  0.69781000  0.94847000  0.21964000  1.0
  H  H27  1  0.30220000  0.05153000  0.78037000  1.0
  H  H28  1  0.46408000  0.77261000  0.50363000  1.0
  H  H29  1  0.53592000  0.22739000  0.49637000  1.0
  H  H30  1  0.62155000  0.69252000  0.45039000  1.0
  H  H31  1  0.37844000  0.30748000  0.54961000  1.0
  H  H32  1  0.45137000  0.71371000  0.37278000  1.0
  H  H33  1  0.54862000  0.28629000  0.62722000  1.0
  C  C34  1  0.15179000  0.12064000  0.33859000  1.0
  C  C35  1  0.84821000  0.87936000  0.66141000  1.0
  C  C36  1  0.30858000  0.96734000  0.27835000  1.0
  C  C37  1  0.69142000  0.03267000  0.72165000  1.0
  C  C38  1  0.57242000  0.32956000  0.30645000  1.0
  C  C39  1  0.42758000  0.67044000  0.69355000  1.0
  C  C40  1  0.45691000  0.47999000  0.23020000  1.0
  C  C41  1  0.54309000  0.52001000  0.76980000  1.0
  C  C42  1  0.87366000  0.41280000  0.57636000  1.0
  C  C43  1  0.12633000  0.58720000  0.42364000  1.0
  C  C44  1  0.93280000  0.48403000  0.66984000  1.0
  C  C45  1  0.06720000  0.51597000  0.33016000  1.0
  C  C46  1  0.02871000  0.42564000  0.73125000  1.0
  C  C47  1  0.97128000  0.57436000  0.26874000  1.0
  C  C48  1  0.05988000  0.29623000  0.69338000  1.0
  C  C49  1  0.94012000  0.70376000  0.30662000  1.0
  C  C50  1  0.99527000  0.23186000  0.59923000  1.0
  C  C51  1  0.00474000  0.76813000  0.40077000  1.0
  C  C52  1  0.21085000  0.70654000  0.94567000  1.0
  C  C53  1  0.78915000  0.29346000  0.05433000  1.0
  C  C54  1  0.13462000  0.64259000  0.85359000  1.0
  C  C55  1  0.86537000  0.35741000  0.14641000  1.0
  C  C56  1  0.09840000  0.49775000  0.82998000  1.0
  C  C57  1  0.90160000  0.50224000  0.17002000  1.0
  C  C58  1  0.13699000  0.42522000  0.90400000  1.0
  C  C59  1  0.86301000  0.57478000  0.09600000  1.0
  C  C60  1  0.21215000  0.49711000  0.99419000  1.0
  C  C61  1  0.78785000  0.50289000  0.00581000  1.0
  C  C62  1  0.64745000  0.80963000  0.98610000  1.0
  C  C63  1  0.35255000  0.19037000  0.01390000  1.0
  C  C64  1  0.79624000  0.87155000  0.95141000  1.0
  C  C65  1  0.20376000  0.12845000  0.04859000  1.0
  C  C66  1  0.92018000  0.96536000  0.01652000  1.0
  C  C67  1  0.07982000  0.03464000  0.98348000  1.0
  C  C68  1  0.88205000  0.99094000  0.11517000  1.0
  C  C69  1  0.11795000  0.00906000  0.88483000  1.0
  C  C70  1  0.72930000  0.92635000  0.14368000  1.0
  C  C71  1  0.27071000  0.07364000  0.85632000  1.0
  C  C72  1  0.63024000  0.89353000  0.42477000  1.0
  C  C73  1  0.36976000  0.10648000  0.57523000  1.0
  C  C74  1  0.53622000  0.76045000  0.43875000  1.0
  C  C75  1  0.46378000  0.23955000  0.56125000  1.0
  N  N76  1  0.28547000  0.07255000  0.33886000  1.0
  N  N77  1  0.71453000  0.92745000  0.66115000  1.0
  N  N78  1  0.03496000  0.17256000  0.34422000  1.0
  N  N79  1  0.96505000  0.82744000  0.65578000  1.0
  N  N80  1  0.34172000  0.87264000  0.22782000  1.0
  N  N81  1  0.65827000  0.12736000  0.77217000  1.0
  N  N82  1  0.44801000  0.36627000  0.26504000  1.0
  N  N83  1  0.55200000  0.63373000  0.73496000  1.0
  N  N84  1  0.67582000  0.28552000  0.34498000  1.0
  N  N85  1  0.32419000  0.71449000  0.65503000  1.0
  N  N86  1  0.44768000  0.57931000  0.19629000  1.0
  N  N87  1  0.55231000  0.42069000  0.80372000  1.0
  N  N88  1  0.90298000  0.28821000  0.54056000  1.0
  N  N89  1  0.09702000  0.71179000  0.45944000  1.0
  N  N90  1  0.25199000  0.63642000  0.01570000  1.0
  N  N91  1  0.74801000  0.36358000  0.98430000  1.0
  N  N92  1  0.61206000  0.83483000  0.08091000  1.0
  N  N93  1  0.38794000  0.16517000  0.91909000  1.0
  N  N94  1  0.70483000  0.00109000  0.41217000  1.0
  N  N95  1  0.29516000  0.99891000  0.58783000  1.0
