# generated using pymatgen
data_ZnH14C13N4Cl2O
_symmetry_space_group_name_H-M   'P 1'
_cell_length_a   8.97095000
_cell_length_b   12.89880000
_cell_length_c   18.15400000
_cell_angle_alpha   103.11000000
_cell_angle_beta   90.00000000
_cell_angle_gamma   110.35000000
_symmetry_Int_Tables_number   1
_chemical_formula_structural   ZnH14C13N4Cl2O
_chemical_formula_sum   'Zn4 H56 C52 N16 Cl8 O4'
_cell_volume   1911.06462170
_cell_formula_units_Z   4
loop_
 _symmetry_equiv_pos_site_id
 _symmetry_equiv_pos_as_xyz
  1  'x, y, z'
loop_
 _atom_site_type_symbol
 _atom_site_label
 _atom_site_symmetry_multiplicity
 _atom_site_fract_x
 _atom_site_fract_y
 _atom_site_fract_z
 _atom_site_occupancy
  Zn  Zn0  1  0.49575000  0.75741000  0.90735000  1.0
  Zn  Zn1  1  0.73825000  0.24279000  0.59266000  1.0
  Zn  Zn2  1  0.50426000  0.24259000  0.09265000  1.0
  Zn  Zn3  1  0.26175000  0.75721000  0.40734000  1.0
  H  H4  1  0.40008000  0.53199000  0.94215000  1.0
  H  H5  1  0.86785000  0.46811000  0.55768000  1.0
  H  H6  1  0.59993000  0.46800000  0.05785000  1.0
  H  H7  1  0.13212000  0.53190000  0.44232000  1.0
  H  H8  1  0.28808000  0.44145000  0.04972000  1.0
  H  H9  1  0.84594000  0.55843000  0.45009000  1.0
  H  H10  1  0.71192000  0.55855000  0.95028000  1.0
  H  H11  1  0.15403000  0.44158000  0.54992000  1.0
  H  H12  1  0.24929000  0.56621000  0.16981000  1.0
  H  H13  1  0.68243000  0.43344000  0.33001000  1.0
  H  H14  1  0.75070000  0.43379000  0.83019000  1.0
  H  H15  1  0.31755000  0.56657000  0.67000000  1.0
  H  H16  1  0.43615000  0.85229000  0.06833000  1.0
  H  H17  1  0.58396000  0.14759000  0.43166000  1.0
  H  H18  1  0.56385000  0.14770000  0.93166000  1.0
  H  H19  1  0.41606000  0.85241000  0.56834000  1.0
  H  H20  1  0.20118000  0.81227000  0.18982000  1.0
  H  H21  1  0.38867000  0.18730000  0.31018000  1.0
  H  H22  1  0.79882000  0.18773000  0.81018000  1.0
  H  H23  1  0.61134000  0.81271000  0.68981000  1.0
  H  H24  1  0.28677000  0.74774000  0.24453000  1.0
  H  H25  1  0.53866000  0.25166000  0.25535000  1.0
  H  H26  1  0.71322000  0.25227000  0.75546000  1.0
  H  H27  1  0.46136000  0.74834000  0.74465000  1.0
  H  H28  1  0.55462000  0.90859000  0.22808000  1.0
  H  H29  1  0.64579000  0.09093000  0.27201000  1.0
  H  H30  1  0.44536000  0.09140000  0.77192000  1.0
  H  H31  1  0.35421000  0.90906000  0.72799000  1.0
  H  H32  1  0.34069000  0.92795000  0.91496000  1.0
  H  H33  1  0.41259000  0.07238000  0.58519000  1.0
  H  H34  1  0.65931000  0.07205000  0.08504000  1.0
  H  H35  1  0.58741000  0.92762000  0.41481000  1.0
  H  H36  1  0.86930000  0.75266000  0.79870000  1.0
  H  H37  1  0.11674000  0.24791000  0.70137000  1.0
  H  H38  1  0.13071000  0.24733000  0.20131000  1.0
  H  H39  1  0.88327000  0.75209000  0.29863000  1.0
  H  H40  1  0.93494000  0.57407000  0.76729000  1.0
  H  H41  1  0.36095000  0.42654000  0.73251000  1.0
  H  H42  1  0.06507000  0.42593000  0.23271000  1.0
  H  H43  1  0.63905000  0.57347000  0.26747000  1.0
  H  H44  1  0.20262000  0.58271000  0.81350000  1.0
  H  H45  1  0.61994000  0.41778000  0.68627000  1.0
  H  H46  1  0.79739000  0.41729000  0.18650000  1.0
  H  H47  1  0.38005000  0.58223000  0.31371000  1.0
  H  H48  1  0.98074000  0.96270000  0.91923000  1.0
  H  H49  1  0.01803000  0.03756000  0.58104000  1.0
  H  H50  1  0.01926000  0.03729000  0.08078000  1.0
  H  H51  1  0.98197000  0.96243000  0.41896000  1.0
  H  H52  1  0.18070000  0.03628000  0.90289000  1.0
  H  H53  1  0.14462000  0.96417000  0.59741000  1.0
  H  H54  1  0.81930000  0.96372000  0.09712000  1.0
  H  H55  1  0.85539000  0.03583000  0.40260000  1.0
  H  H56  1  0.88992000  0.98566000  0.80828000  1.0
  H  H57  1  0.90440000  0.01467000  0.69201000  1.0
  H  H58  1  0.11008000  0.01434000  0.19173000  1.0
  H  H59  1  0.09561000  0.98533000  0.30800000  1.0
  C  C60  1  0.37978000  0.58145000  0.99591000  1.0
  C  C61  1  0.79802000  0.41856000  0.50396000  1.0
  C  C62  1  0.62022000  0.41855000  0.00408000  1.0
  C  C63  1  0.20196000  0.58144000  0.49604000  1.0
  C  C64  1  0.31718000  0.53229000  0.05507000  1.0
  C  C65  1  0.78436000  0.46759000  0.44477000  1.0
  C  C66  1  0.68282000  0.46771000  0.94493000  1.0
  C  C67  1  0.21562000  0.53242000  0.55523000  1.0
  C  C68  1  0.29651000  0.60197000  0.12203000  1.0
  C  C69  1  0.69405000  0.39778000  0.37782000  1.0
  C  C70  1  0.70348000  0.39803000  0.87796000  1.0
  C  C71  1  0.30593000  0.60223000  0.62218000  1.0
  C  C72  1  0.33748000  0.71881000  0.12839000  1.0
  C  C73  1  0.61845000  0.28092000  0.37151000  1.0
  C  C74  1  0.66252000  0.28119000  0.87161000  1.0
  C  C75  1  0.38155000  0.71909000  0.62849000  1.0
  C  C76  1  0.40107000  0.76162000  0.06647000  1.0
  C  C77  1  0.63939000  0.23826000  0.43349000  1.0
  C  C78  1  0.59892000  0.23837000  0.93353000  1.0
  C  C79  1  0.36061000  0.76175000  0.56651000  1.0
  C  C80  1  0.31004000  0.79432000  0.19934000  1.0
  C  C81  1  0.51548000  0.20524000  0.30062000  1.0
  C  C82  1  0.68995000  0.20568000  0.80065000  1.0
  C  C83  1  0.48452000  0.79476000  0.69937000  1.0
  C  C84  1  0.40612000  0.99977000  0.25002000  1.0
  C  C85  1  0.59386000  0.00023000  0.74998000  1.0
  C  C86  1  0.24630000  0.85168000  0.88238000  1.0
  C  C87  1  0.39458000  0.14874000  0.61771000  1.0
  C  C88  1  0.75371000  0.14832000  0.11763000  1.0
  C  C89  1  0.60542000  0.85125000  0.38229000  1.0
  C  C90  1  0.10033000  0.85531000  0.85916000  1.0
  C  C91  1  0.24503000  0.14515000  0.64098000  1.0
  C  C92  1  0.89967000  0.14469000  0.14085000  1.0
  C  C93  1  0.75498000  0.85484000  0.35902000  1.0
  C  C94  1  0.98540000  0.75388000  0.81770000  1.0
  C  C95  1  0.23158000  0.24666000  0.68233000  1.0
  C  C96  1  0.01460000  0.24611000  0.18231000  1.0
  C  C97  1  0.76842000  0.75334000  0.31766000  1.0
  C  C98  1  0.02014000  0.65424000  0.80074000  1.0
  C  C99  1  0.36595000  0.34632000  0.69914000  1.0
  C  C100  1  0.97987000  0.34576000  0.19927000  1.0
  C  C101  1  0.63404000  0.65368000  0.30085000  1.0
  C  C102  1  0.16876000  0.65798000  0.82589000  1.0
  C  C103  1  0.51080000  0.34253000  0.67397000  1.0
  C  C104  1  0.83125000  0.34203000  0.17412000  1.0
  C  C105  1  0.48920000  0.65747000  0.32602000  1.0
  C  C106  1  0.06967000  0.96612000  0.87724000  1.0
  C  C107  1  0.10364000  0.03429000  0.62302000  1.0
  C  C108  1  0.93033000  0.03388000  0.12277000  1.0
  C  C109  1  0.89637000  0.96570000  0.37698000  1.0
  C  C110  1  0.09008000  0.00029000  0.75015000  1.0
  C  C111  1  0.90994000  0.99971000  0.24986000  1.0
  N  N112  1  0.42164000  0.69431000  0.00187000  1.0
  N  N113  1  0.72725000  0.30568000  0.49806000  1.0
  N  N114  1  0.57836000  0.30569000  0.99813000  1.0
  N  N115  1  0.27274000  0.69432000  0.50194000  1.0
  N  N116  1  0.43826000  0.90314000  0.22244000  1.0
  N  N117  1  0.53488000  0.09639000  0.27766000  1.0
  N  N118  1  0.56175000  0.09686000  0.77756000  1.0
  N  N119  1  0.46513000  0.90361000  0.72234000  1.0
  N  N120  1  0.27979000  0.75532000  0.86625000  1.0
  N  N121  1  0.52440000  0.24510000  0.63371000  1.0
  N  N122  1  0.72023000  0.24468000  0.13376000  1.0
  N  N123  1  0.47559000  0.75490000  0.36628000  1.0
  N  N124  1  0.00492000  0.98770000  0.81159000  1.0
  N  N125  1  0.01741000  0.01273000  0.68869000  1.0
  N  N126  1  0.99507000  0.01229000  0.18842000  1.0
  N  N127  1  0.98259000  0.98727000  0.31131000  1.0
  Cl  Cl128  1  0.66525000  0.93630000  0.93906000  1.0
  Cl  Cl129  1  0.72893000  0.06391000  0.56096000  1.0
  Cl  Cl130  1  0.33476000  0.06370000  0.06095000  1.0
  Cl  Cl131  1  0.27107000  0.93609000  0.43904000  1.0
  Cl  Cl132  1  0.55513000  0.61960000  0.82663000  1.0
  Cl  Cl133  1  0.93539000  0.38075000  0.67335000  1.0
  Cl  Cl134  1  0.44487000  0.38040000  0.17337000  1.0
  Cl  Cl135  1  0.06460000  0.61924000  0.32664000  1.0
  O  O136  1  0.26622000  0.99979000  0.24995000  1.0
  O  O137  1  0.73380000  0.00022000  0.75005000  1.0
  O  O138  1  0.23088000  0.00036000  0.75017000  1.0
  O  O139  1  0.76911000  0.99963000  0.24984000  1.0
