# generated using pymatgen
data_Cu3H16C24(N4O7)2
_symmetry_space_group_name_H-M   'P 1'
_cell_length_a   8.41045000
_cell_length_b   8.43988000
_cell_length_c   10.09430000
_cell_angle_alpha   71.49460000
_cell_angle_beta   87.60710000
_cell_angle_gamma   83.00750000
_symmetry_Int_Tables_number   1
_chemical_formula_structural   Cu3H16C24(N4O7)2
_chemical_formula_sum   'Cu3 H16 C24 N8 O14'
_cell_volume   674.41917688
_cell_formula_units_Z   1
loop_
 _symmetry_equiv_pos_site_id
 _symmetry_equiv_pos_as_xyz
  1  'x, y, z'
loop_
 _atom_site_type_symbol
 _atom_site_label
 _atom_site_symmetry_multiplicity
 _atom_site_fract_x
 _atom_site_fract_y
 _atom_site_fract_z
 _atom_site_occupancy
  Cu  Cu0  1  0.50001000  0.49999000  0.00001000  1.0
  Cu  Cu1  1  0.02238000  0.50157000  0.34920000  1.0
  Cu  Cu2  1  0.97764000  0.49838000  0.65082000  1.0
  H  H3  1  0.57903000  0.74006000  0.26973000  1.0
  H  H4  1  0.42097000  0.25996000  0.73027000  1.0
  H  H5  1  0.12564000  0.39868000  0.07907000  1.0
  H  H6  1  0.87439000  0.60132000  0.92093000  1.0
  H  H7  1  0.49103000  0.77934000  0.68239000  1.0
  H  H8  1  0.50895000  0.22067000  0.31761000  1.0
  H  H9  1  0.57120000  0.10987000  0.08052000  1.0
  H  H10  1  0.42881000  0.89008000  0.91949000  1.0
  H  H11  1  0.95087000  0.16240000  0.15222000  1.0
  H  H12  1  0.04913000  0.83762000  0.84776000  1.0
  H  H13  1  0.05576000  0.98547000  0.27614000  1.0
  H  H14  1  0.94422000  0.01455000  0.72385000  1.0
  H  H15  1  0.90514000  0.88965000  0.12107000  1.0
  H  H16  1  0.09486000  0.11035000  0.87893000  1.0
  H  H17  1  0.11095000  0.84776000  0.08762000  1.0
  H  H18  1  0.88905000  0.15224000  0.91239000  1.0
  C  C19  1  0.36262000  0.65146000  0.36773000  1.0
  C  C20  1  0.63739000  0.34856000  0.63226000  1.0
  C  C21  1  0.50341000  0.72428000  0.36189000  1.0
  C  C22  1  0.49659000  0.27574000  0.63810000  1.0
  C  C23  1  0.31228000  0.67349000  0.60426000  1.0
  C  C24  1  0.68770000  0.32652000  0.39574000  1.0
  C  C25  1  0.26282000  0.62705000  0.48909000  1.0
  C  C26  1  0.73717000  0.37296000  0.51088000  1.0
  C  C27  1  0.21915000  0.29606000  0.08737000  1.0
  C  C28  1  0.78087000  0.70392000  0.91263000  1.0
  C  C29  1  0.45372000  0.74699000  0.59323000  1.0
  C  C30  1  0.54626000  0.25302000  0.40676000  1.0
  C  C31  1  0.23027000  0.63863000  0.74472000  1.0
  C  C32  1  0.76975000  0.36136000  0.25530000  1.0
  C  C33  1  0.54822000  0.77187000  0.47348000  1.0
  C  C34  1  0.45177000  0.22816000  0.52653000  1.0
  C  C35  1  0.44407000  0.14450000  0.09049000  1.0
  C  C36  1  0.55593000  0.85547000  0.90952000  1.0
  C  C37  1  0.04663000  0.05827000  0.16477000  1.0
  C  C38  1  0.95337000  0.94173000  0.83523000  1.0
  C  C39  1  0.01284000  0.94947000  0.07680000  1.0
  C  C40  1  0.98716000  0.05053000  0.92320000  1.0
  C  C41  1  0.33118000  0.59633000  0.24488000  1.0
  C  C42  1  0.66882000  0.40367000  0.75513000  1.0
  N  N43  1  0.37650000  0.30681000  0.06704000  1.0
  N  N44  1  0.62351000  0.69317000  0.93296000  1.0
  N  N45  1  0.19557000  0.13374000  0.12310000  1.0
  N  N46  1  0.80443000  0.86625000  0.87690000  1.0
  N  N47  1  0.70183000  0.83623000  0.46793000  1.0
  N  N48  1  0.29815000  0.16380000  0.53208000  1.0
  N  N49  1  0.33716000  0.03521000  0.12533000  1.0
  N  N50  1  0.66283000  0.96477000  0.87467000  1.0
  O  O51  1  0.19491000  0.55567000  0.22302000  1.0
  O  O52  1  0.80508000  0.44425000  0.77700000  1.0
  O  O53  1  0.12749000  0.55702000  0.49580000  1.0
  O  O54  1  0.87251000  0.44301000  0.50412000  1.0
  O  O55  1  0.28812000  0.68434000  0.83705000  1.0
  O  O56  1  0.71185000  0.31573000  0.16294000  1.0
  O  O57  1  0.10289000  0.55998000  0.77236000  1.0
  O  O58  1  0.89721000  0.43991000  0.22767000  1.0
  O  O59  1  0.44824000  0.59331000  0.16228000  1.0
  O  O60  1  0.55172000  0.40674000  0.83771000  1.0
  O  O61  1  0.74922000  0.85973000  0.57478000  1.0
  O  O62  1  0.25080000  0.14025000  0.42524000  1.0
  O  O63  1  0.78066000  0.86116000  0.35723000  1.0
  O  O64  1  0.21929000  0.13894000  0.64276000  1.0
