# generated using pymatgen
data_KH11C14O3
_symmetry_space_group_name_H-M   'P 1'
_cell_length_a   8.99717000
_cell_length_b   10.26120000
_cell_length_c   13.96347729
_cell_angle_alpha   69.96476428
_cell_angle_beta   89.99982471
_cell_angle_gamma   89.99990000
_symmetry_Int_Tables_number   1
_chemical_formula_structural   KH11C14O3
_chemical_formula_sum   'K4 H44 C56 O12'
_cell_volume   1211.11720973
_cell_formula_units_Z   4
loop_
 _symmetry_equiv_pos_site_id
 _symmetry_equiv_pos_as_xyz
  1  'x, y, z'
loop_
 _atom_site_type_symbol
 _atom_site_label
 _atom_site_symmetry_multiplicity
 _atom_site_fract_x
 _atom_site_fract_y
 _atom_site_fract_z
 _atom_site_occupancy
  K  K0  1  0.02839000  0.78738000  0.02369000  1.0
  K  K1  1  0.47161000  0.28738000  0.02369000  1.0
  K  K2  1  0.97161000  0.21262000  0.97631000  1.0
  K  K3  1  0.52839000  0.71262000  0.97631000  1.0
  H  H4  1  0.19573000  0.76115000  0.86456000  1.0
  H  H5  1  0.30427000  0.26115000  0.86456000  1.0
  H  H6  1  0.80427000  0.23885000  0.13544000  1.0
  H  H7  1  0.69573000  0.73885000  0.13544000  1.0
  H  H8  1  0.39372000  0.51596000  0.74528000  1.0
  H  H9  1  0.10628000  0.01596000  0.74528000  1.0
  H  H10  1  0.60628000  0.48405000  0.25472000  1.0
  H  H11  1  0.89371000  0.98406000  0.25471000  1.0
  H  H12  1  0.53440000  0.62311000  0.58564000  1.0
  H  H13  1  0.96559000  0.12311000  0.58564000  1.0
  H  H14  1  0.46560000  0.37689000  0.41436000  1.0
  H  H15  1  0.03440000  0.87689000  0.41436000  1.0
  H  H16  1  0.44943000  0.84579000  0.45771000  1.0
  H  H17  1  0.05057000  0.34579000  0.45771000  1.0
  H  H18  1  0.55057000  0.15422000  0.54229000  1.0
  H  H19  1  0.94943000  0.65421000  0.54229000  1.0
  H  H20  1  0.22212000  0.96125000  0.49252000  1.0
  H  H21  1  0.27788000  0.46125000  0.49252000  1.0
  H  H22  1  0.77788000  0.03876000  0.50748000  1.0
  H  H23  1  0.72212000  0.53876000  0.50748000  1.0
  H  H24  1  0.07852000  0.85148000  0.65153000  1.0
  H  H25  1  0.42148000  0.35149000  0.65153000  1.0
  H  H26  1  0.92148000  0.14851000  0.34847000  1.0
  H  H27  1  0.57852000  0.64852000  0.34847000  1.0
  H  H28  1  0.85830000  0.63054000  0.88525000  1.0
  H  H29  1  0.64170000  0.13054000  0.88525000  1.0
  H  H30  1  0.14170000  0.36946000  0.11475000  1.0
  H  H31  1  0.35830000  0.86947000  0.11474000  1.0
  H  H32  1  0.62532000  0.52079000  0.85565000  1.0
  H  H33  1  0.87468000  0.02078000  0.85566000  1.0
  H  H34  1  0.37468000  0.47922000  0.14434000  1.0
  H  H35  1  0.12532000  0.97922000  0.14434000  1.0
  H  H36  1  0.62733000  0.37027000  0.74874000  1.0
  H  H37  1  0.87267000  0.87026000  0.74875000  1.0
  H  H38  1  0.37267000  0.62974000  0.25125000  1.0
  H  H39  1  0.12733000  0.12973000  0.25126000  1.0
  H  H40  1  0.86543000  0.33561000  0.66750000  1.0
  H  H41  1  0.63457000  0.83560000  0.66751000  1.0
  H  H42  1  0.13457000  0.66440000  0.33249000  1.0
  H  H43  1  0.36543000  0.16439000  0.33250000  1.0
  H  H44  1  0.09537000  0.45047000  0.69314000  1.0
  H  H45  1  0.40463000  0.95047000  0.69314000  1.0
  H  H46  1  0.90463000  0.54952000  0.30686000  1.0
  H  H47  1  0.59537000  0.04953000  0.30686000  1.0
  C  C48  1  0.23603000  0.50445000  0.89030000  1.0
  C  C49  1  0.26397000  0.00446000  0.89030000  1.0
  C  C50  1  0.76397000  0.49554000  0.10970000  1.0
  C  C51  1  0.73603000  0.99554000  0.10970000  1.0
  C  C52  1  0.13739000  0.61479000  0.80890000  1.0
  C  C53  1  0.36261000  0.11479000  0.80890000  1.0
  C  C54  1  0.86261000  0.38521000  0.19110000  1.0
  C  C55  1  0.63739000  0.88521000  0.19110000  1.0
  C  C56  1  0.22609000  0.67633000  0.70981000  1.0
  C  C57  1  0.27391000  0.17633000  0.70981000  1.0
  C  C58  1  0.77391000  0.32367000  0.29019000  1.0
  C  C59  1  0.72609000  0.82367000  0.29019000  1.0
  C  C60  1  0.35438000  0.61301000  0.68984000  1.0
  C  C61  1  0.14562000  0.11301000  0.68984000  1.0
  C  C62  1  0.64563000  0.38699000  0.31016000  1.0
  C  C63  1  0.85437000  0.88699000  0.31016000  1.0
  C  C64  1  0.43364000  0.67300000  0.59936000  1.0
  C  C65  1  0.06637000  0.17300000  0.59936000  1.0
  C  C66  1  0.56636000  0.32701000  0.40064000  1.0
  C  C67  1  0.93364000  0.82700000  0.40064000  1.0
  C  C68  1  0.38654000  0.79805000  0.52774000  1.0
  C  C69  1  0.11346000  0.29805000  0.52774000  1.0
  C  C70  1  0.61346000  0.20195000  0.47226000  1.0
  C  C71  1  0.88654000  0.70195000  0.47226000  1.0
  C  C72  1  0.25840000  0.86215000  0.54710000  1.0
  C  C73  1  0.24160000  0.36215000  0.54710000  1.0
  C  C74  1  0.74160000  0.13785000  0.45290000  1.0
  C  C75  1  0.75840000  0.63785000  0.45290000  1.0
  C  C76  1  0.17814000  0.80094000  0.63682000  1.0
  C  C77  1  0.32186000  0.30095000  0.63681000  1.0
  C  C78  1  0.82186000  0.19906000  0.36319000  1.0
  C  C79  1  0.67814000  0.69907000  0.36318000  1.0
  C  C80  1  0.99268000  0.55052000  0.78999000  1.0
  C  C81  1  0.50732000  0.05052000  0.78999000  1.0
  C  C82  1  0.00732000  0.44948000  0.21001000  1.0
  C  C83  1  0.49268000  0.94948000  0.21001000  1.0
  C  C84  1  0.85949000  0.56789000  0.83618000  1.0
  C  C85  1  0.64051000  0.06790000  0.83618000  1.0
  C  C86  1  0.14051000  0.43210000  0.16382000  1.0
  C  C87  1  0.35949000  0.93210000  0.16382000  1.0
  C  C88  1  0.72849000  0.50466000  0.82017000  1.0
  C  C89  1  0.77151000  0.00467000  0.82017000  1.0
  C  C90  1  0.27151000  0.49533000  0.17983000  1.0
  C  C91  1  0.22849000  0.99534000  0.17983000  1.0
  C  C92  1  0.72916000  0.42122000  0.75942000  1.0
  C  C93  1  0.77084000  0.92122000  0.75942000  1.0
  C  C94  1  0.27084000  0.57878000  0.24058000  1.0
  C  C95  1  0.22916000  0.07878000  0.24058000  1.0
  C  C96  1  0.86232000  0.40166000  0.71421000  1.0
  C  C97  1  0.63768000  0.90166000  0.71421000  1.0
  C  C98  1  0.13768000  0.59834000  0.28579000  1.0
  C  C99  1  0.36232000  0.09834000  0.28579000  1.0
  C  C100  1  0.99247000  0.46658000  0.72881000  1.0
  C  C101  1  0.50753000  0.96658000  0.72881000  1.0
  C  C102  1  0.00753000  0.53342000  0.27119000  1.0
  C  C103  1  0.49247000  0.03342000  0.27119000  1.0
  O  O104  1  0.10137000  0.72241000  0.84913000  1.0
  O  O105  1  0.39863000  0.22242000  0.84912000  1.0
  O  O106  1  0.89863000  0.27758000  0.15088000  1.0
  O  O107  1  0.60137000  0.77758000  0.15088000  1.0
  O  O108  1  0.20327000  0.37643000  0.91508000  1.0
  O  O109  1  0.29672000  0.87643000  0.91508000  1.0
  O  O110  1  0.79672000  0.62357000  0.08492000  1.0
  O  O111  1  0.70327000  0.12357000  0.08492000  1.0
  O  O112  1  0.34371000  0.55214000  0.92581000  1.0
  O  O113  1  0.15629000  0.05213000  0.92581000  1.0
  O  O114  1  0.65629000  0.44786000  0.07419000  1.0
  O  O115  1  0.84371000  0.94787000  0.07419000  1.0
