# generated using pymatgen
data_Zn4H36C53(N2O5)4
_symmetry_space_group_name_H-M   'P 1'
_cell_length_a   17.44504052
_cell_length_b   17.44500000
_cell_length_c   17.44520000
_cell_angle_alpha   118.54400000
_cell_angle_beta   92.54054150
_cell_angle_gamma   118.54449343
_symmetry_Int_Tables_number   1
_chemical_formula_structural   Zn4H36C53(N2O5)4
_chemical_formula_sum   'Zn8 H72 C106 N16 O40'
_cell_volume   3832.60961765
_cell_formula_units_Z   2
loop_
 _symmetry_equiv_pos_site_id
 _symmetry_equiv_pos_as_xyz
  1  'x, y, z'
loop_
 _atom_site_type_symbol
 _atom_site_label
 _atom_site_symmetry_multiplicity
 _atom_site_fract_x
 _atom_site_fract_y
 _atom_site_fract_z
 _atom_site_occupancy
  Zn  Zn0  1  0.22061000  0.68483000  0.24316000  1.0
  Zn  Zn1  1  0.55834000  0.81518000  0.03579000  1.0
  Zn  Zn2  1  0.74315000  0.52254000  0.05833000  1.0
  Zn  Zn3  1  0.53579000  0.97746000  0.72061000  1.0
  Zn  Zn4  1  0.77939000  0.31518000  0.75684000  1.0
  Zn  Zn5  1  0.44166000  0.18482000  0.96421000  1.0
  Zn  Zn6  1  0.25685000  0.47746000  0.94167000  1.0
  Zn  Zn7  1  0.46421000  0.02254000  0.27939000  1.0
  H  H8  1  0.06445000  0.58733000  0.92677000  1.0
  H  H9  1  0.33944000  0.91267000  0.97712000  1.0
  H  H10  1  0.42677000  0.36232000  0.83945000  1.0
  H  H11  1  0.47713000  0.13768000  0.56445000  1.0
  H  H12  1  0.93555000  0.41267000  0.07323000  1.0
  H  H13  1  0.66056000  0.08733000  0.02288000  1.0
  H  H14  1  0.57323000  0.63768000  0.16056000  1.0
  H  H15  1  0.52287000  0.86232000  0.43555000  1.0
  H  H16  1  0.97445000  0.66876000  0.98781000  1.0
  H  H17  1  0.31904000  0.83123000  0.80569000  1.0
  H  H18  1  0.48781000  0.51336000  0.81904000  1.0
  H  H19  1  0.30569000  0.98664000  0.47445000  1.0
  H  H20  1  0.02555000  0.33124000  0.01219000  1.0
  H  H21  1  0.68095000  0.16876000  0.19430000  1.0
  H  H22  1  0.51219000  0.48664000  0.18096000  1.0
  H  H23  1  0.69431000  0.01336000  0.52554000  1.0
  H  H24  1  0.99123000  0.75282000  0.15463000  1.0
  H  H25  1  0.40180000  0.74718000  0.73841000  1.0
  H  H26  1  0.65463000  0.66339000  0.90180000  1.0
  H  H27  1  0.23841000  0.83661000  0.49123000  1.0
  H  H28  1  0.00877000  0.24718000  0.84537000  1.0
  H  H29  1  0.59820000  0.25282000  0.26159000  1.0
  H  H30  1  0.34537000  0.33660000  0.09819000  1.0
  H  H31  1  0.76159000  0.16339000  0.50876000  1.0
  H  H32  1  0.18670000  0.64980000  0.39108000  1.0
  H  H33  1  0.74129000  0.85020000  0.03690000  1.0
  H  H34  1  0.89108000  0.70438000  0.24128000  1.0
  H  H35  1  0.53690000  0.79562000  0.68670000  1.0
  H  H36  1  0.81330000  0.35020000  0.60892000  1.0
  H  H37  1  0.25871000  0.14980000  0.96310000  1.0
  H  H38  1  0.10892000  0.29562000  0.75872000  1.0
  H  H39  1  0.46310000  0.20438000  0.31330000  1.0
  H  H40  1  0.16806000  0.52354000  0.42671000  1.0
  H  H41  1  0.90317000  0.97646000  0.14452000  1.0
  H  H42  1  0.92671000  0.75865000  0.40317000  1.0
  H  H43  1  0.64452000  0.74135000  0.66806000  1.0
  H  H44  1  0.83194000  0.47646000  0.57329000  1.0
  H  H45  1  0.09683000  0.02354000  0.85548000  1.0
  H  H46  1  0.07329000  0.24135000  0.59683000  1.0
  H  H47  1  0.35548000  0.25865000  0.33194000  1.0
  H  H48  1  0.16498000  0.33136000  0.14890000  1.0
  H  H49  1  0.81753000  0.16864000  0.33362000  1.0
  H  H50  1  0.64889000  0.48391000  0.31753000  1.0
  H  H51  1  0.83362000  0.01609000  0.66498000  1.0
  H  H52  1  0.83502000  0.66864000  0.85110000  1.0
  H  H53  1  0.18247000  0.83136000  0.66638000  1.0
  H  H54  1  0.35111000  0.51609000  0.68247000  1.0
  H  H55  1  0.16638000  0.98391000  0.33502000  1.0
  H  H56  1  0.18855000  0.47239000  0.12761000  1.0
  H  H57  1  0.65522000  0.02761000  0.21616000  1.0
  H  H58  1  0.62761000  0.43905000  0.15522000  1.0
  H  H59  1  0.71616000  0.06094000  0.68855000  1.0
  H  H60  1  0.81145000  0.52762000  0.87239000  1.0
  H  H61  1  0.34478000  0.97239000  0.78384000  1.0
  H  H62  1  0.37239000  0.56095000  0.84478000  1.0
  H  H63  1  0.28384000  0.93906000  0.31145000  1.0
  H  H64  1  0.08425000  0.35615000  0.39625000  1.0
  H  H65  1  0.04010000  0.14385000  0.22810000  1.0
  H  H66  1  0.89625000  0.81200000  0.54010000  1.0
  H  H67  1  0.72810000  0.68800000  0.58425000  1.0
  H  H68  1  0.91575000  0.64385000  0.60375000  1.0
  H  H69  1  0.95990000  0.85615000  0.77190000  1.0
  H  H70  1  0.10375000  0.18800000  0.45990000  1.0
  H  H71  1  0.27190000  0.31200000  0.41575000  1.0
  H  H72  1  0.20776000  0.42088000  0.44281000  1.0
  H  H73  1  0.02193000  0.07912000  0.28688000  1.0
  H  H74  1  0.94281000  0.73505000  0.52193000  1.0
  H  H75  1  0.78688000  0.76495000  0.70776000  1.0
  H  H76  1  0.79224000  0.57912000  0.55719000  1.0
  H  H77  1  0.97807000  0.92088000  0.71312000  1.0
  H  H78  1  0.05719000  0.26495000  0.47807000  1.0
  H  H79  1  0.21312000  0.23505000  0.29224000  1.0
  C  C80  1  0.18531000  0.58542000  0.03809000  1.0
  C  C81  1  0.45266000  0.91457000  0.09989000  1.0
  C  C82  1  0.53808000  0.35277000  0.95266000  1.0
  C  C83  1  0.59989000  0.14723000  0.68531000  1.0
  C  C84  1  0.81469000  0.41458000  0.96191000  1.0
  C  C85  1  0.54734000  0.08543000  0.90012000  1.0
  C  C86  1  0.46191000  0.64722000  0.04733000  1.0
  C  C87  1  0.40011000  0.85277000  0.31469000  1.0
  C  C88  1  0.12833000  0.63095000  0.06214000  1.0
  C  C89  1  0.43118000  0.86905000  0.99738000  1.0
  C  C90  1  0.56213000  0.43380000  0.93118000  1.0
  C  C91  1  0.49739000  0.06620000  0.62833000  1.0
  C  C92  1  0.87167000  0.36905000  0.93787000  1.0
  C  C93  1  0.56882000  0.13095000  0.00262000  1.0
  C  C94  1  0.43787000  0.56620000  0.06882000  1.0
  C  C95  1  0.50262000  0.93380000  0.37168000  1.0
  C  C96  1  0.07035000  0.62610000  0.99973000  1.0
  C  C97  1  0.37362000  0.87390000  0.94425000  1.0
  C  C98  1  0.49972000  0.42938000  0.87362000  1.0
  C  C99  1  0.44425000  0.07063000  0.57035000  1.0
  C  C100  1  0.92965000  0.37390000  0.00028000  1.0
  C  C101  1  0.62638000  0.12610000  0.05575000  1.0
  C  C102  1  0.50028000  0.57063000  0.12638000  1.0
  C  C103  1  0.55575000  0.92937000  0.42965000  1.0
  C  C104  1  0.02113000  0.67121000  0.03396000  1.0
  C  C105  1  0.36274000  0.82879000  0.84992000  1.0
  C  C106  1  0.53396000  0.51283000  0.86274000  1.0
  C  C107  1  0.34992000  0.98718000  0.52114000  1.0
  C  C108  1  0.97887000  0.32879000  0.96604000  1.0
  C  C109  1  0.63726000  0.17121000  0.15008000  1.0
  C  C110  1  0.46604000  0.48717000  0.13726000  1.0
  C  C111  1  0.65008000  0.01282000  0.47886000  1.0
  C  C112  1  0.03055000  0.71916000  0.12802000  1.0
  C  C113  1  0.40886000  0.78084000  0.81140000  1.0
  C  C114  1  0.62802000  0.59746000  0.90885000  1.0
  C  C115  1  0.31139000  0.90253000  0.53055000  1.0
  C  C116  1  0.96945000  0.28084000  0.87198000  1.0
  C  C117  1  0.59114000  0.21916000  0.18860000  1.0
  C  C118  1  0.37198000  0.40254000  0.09114000  1.0
  C  C119  1  0.68861000  0.09747000  0.46945000  1.0
  C  C120  1  0.08964000  0.72062000  0.18618000  1.0
  C  C121  1  0.46556000  0.77939000  0.86903000  1.0
  C  C122  1  0.68617000  0.59652000  0.96555000  1.0
  C  C123  1  0.36904000  0.90348000  0.58965000  1.0
  C  C124  1  0.91036000  0.27939000  0.81383000  1.0
  C  C125  1  0.53444000  0.22061000  0.13097000  1.0
  C  C126  1  0.31383000  0.40347000  0.03444000  1.0
  C  C127  1  0.63096000  0.09652000  0.41035000  1.0
  C  C128  1  0.10791000  0.76973000  0.29037000  1.0
  C  C129  1  0.52064000  0.73028000  0.83818000  1.0
  C  C130  1  0.79036000  0.68245000  0.02063000  1.0
  C  C131  1  0.33818000  0.81754000  0.60790000  1.0
  C  C132  1  0.89209000  0.23027000  0.70963000  1.0
  C  C133  1  0.47936000  0.26972000  0.16182000  1.0
  C  C134  1  0.20963000  0.31753000  0.97935000  1.0
  C  C135  1  0.66182000  0.18246000  0.39210000  1.0
  C  C136  1  0.18058000  0.57800000  0.33856000  1.0
  C  C137  1  0.76056000  0.92200000  0.10258000  1.0
  C  C138  1  0.83855000  0.65797000  0.26055000  1.0
  C  C139  1  0.60258000  0.84203000  0.68058000  1.0
  C  C140  1  0.81942000  0.42200000  0.66145000  1.0
  C  C141  1  0.23944000  0.07800000  0.89742000  1.0
  C  C142  1  0.16145000  0.34203000  0.73945000  1.0
  C  C143  1  0.39742000  0.15798000  0.31942000  1.0
  C  C144  1  0.16943000  0.50577000  0.35815000  1.0
  C  C145  1  0.85239000  0.99424000  0.16367000  1.0
  C  C146  1  0.85815000  0.68872000  0.35238000  1.0
  C  C147  1  0.66366000  0.81128000  0.66943000  1.0
  C  C148  1  0.83057000  0.49423000  0.64185000  1.0
  C  C149  1  0.14761000  0.00576000  0.83633000  1.0
  C  C150  1  0.14185000  0.31128000  0.64762000  1.0
  C  C151  1  0.33634000  0.18872000  0.33057000  1.0
  C  C152  1  0.16243000  0.41478000  0.28889000  1.0
  C  C153  1  0.87411000  0.08521000  0.24765000  1.0
  C  C154  1  0.78889000  0.62646000  0.37410000  1.0
  C  C155  1  0.74765000  0.87354000  0.66244000  1.0
  C  C156  1  0.83757000  0.58522000  0.71110000  1.0
  C  C157  1  0.12589000  0.91478000  0.75235000  1.0
  C  C158  1  0.21111000  0.37354000  0.62590000  1.0
  C  C159  1  0.25235000  0.12646000  0.33757000  1.0
  C  C160  1  0.16875000  0.40056000  0.20373000  1.0
  C  C161  1  0.80316000  0.09943000  0.26818000  1.0
  C  C162  1  0.70373000  0.53497000  0.30316000  1.0
  C  C163  1  0.76819000  0.96503000  0.66876000  1.0
  C  C164  1  0.83125000  0.59944000  0.79628000  1.0
  C  C165  1  0.19684000  0.90057000  0.73181000  1.0
  C  C166  1  0.29627000  0.46503000  0.69683000  1.0
  C  C167  1  0.23181000  0.03497000  0.33125000  1.0
  C  C168  1  0.18090000  0.47748000  0.19118000  1.0
  C  C169  1  0.71370000  0.02252000  0.20342000  1.0
  C  C170  1  0.69118000  0.51027000  0.21370000  1.0
  C  C171  1  0.70343000  0.98973000  0.68091000  1.0
  C  C172  1  0.81910000  0.52253000  0.80883000  1.0
  C  C173  1  0.28630000  0.97748000  0.79658000  1.0
  C  C174  1  0.30882000  0.48973000  0.78630000  1.0
  C  C175  1  0.29657000  0.01027000  0.31909000  1.0
  C  C176  1  0.14282000  0.34938000  0.38439000  1.0
  C  C177  1  0.03501000  0.15063000  0.29344000  1.0
  C  C178  1  0.88438000  0.74157000  0.53501000  1.0
  C  C179  1  0.79344000  0.75843000  0.64281000  1.0
  C  C180  1  0.85719000  0.65063000  0.61562000  1.0
  C  C181  1  0.96499000  0.84937000  0.70655000  1.0
  C  C182  1  0.11562000  0.25843000  0.46499000  1.0
  C  C183  1  0.20656000  0.24157000  0.35719000  1.0
  C  C184  1  0.12500000  0.25000000  0.37500000  1.0
  C  C185  1  0.87500000  0.75000000  0.62500000  1.0
  N  N186  1  0.18564000  0.56449000  0.25674000  1.0
  N  N187  1  0.69226000  0.93552000  0.12115000  1.0
  N  N188  1  0.75674000  0.57110000  0.19226000  1.0
  N  N189  1  0.62116000  0.92890000  0.68564000  1.0
  N  N190  1  0.81437000  0.43553000  0.74327000  1.0
  N  N191  1  0.30774000  0.06448000  0.87885000  1.0
  N  N192  1  0.24326000  0.42890000  0.80774000  1.0
  N  N193  1  0.37884000  0.07110000  0.31436000  1.0
  N  N194  1  0.13620000  0.67709000  0.15195000  1.0
  N  N195  1  0.47486000  0.82292000  0.95912000  1.0
  N  N196  1  0.65194000  0.51574000  0.97486000  1.0
  N  N197  1  0.45912000  0.98427000  0.63620000  1.0
  N  N198  1  0.86380000  0.32291000  0.84806000  1.0
  N  N199  1  0.52515000  0.17709000  0.04089000  1.0
  N  N200  1  0.34806000  0.48426000  0.02514000  1.0
  N  N201  1  0.54088000  0.01573000  0.36380000  1.0
  O  O202  1  0.23620000  0.59889000  0.10346000  1.0
  O  O203  1  0.50456000  0.90111000  0.13731000  1.0
  O  O204  1  0.60344000  0.36724000  0.00456000  1.0
  O  O205  1  0.63732000  0.13275000  0.73620000  1.0
  O  O206  1  0.76380000  0.40111000  0.89655000  1.0
  O  O207  1  0.49544000  0.09889000  0.86269000  1.0
  O  O208  1  0.39655000  0.63275000  0.99544000  1.0
  O  O209  1  0.36268000  0.86725000  0.26380000  1.0
  O  O210  1  0.17742000  0.53397000  0.95266000  1.0
  O  O211  1  0.41869000  0.96603000  0.14345000  1.0
  O  O212  1  0.45265000  0.27524000  0.91870000  1.0
  O  O213  1  0.64346000  0.22476000  0.67741000  1.0
  O  O214  1  0.82258000  0.46603000  0.04734000  1.0
  O  O215  1  0.58131000  0.03396000  0.85655000  1.0
  O  O216  1  0.54734000  0.72475000  0.08130000  1.0
  O  O217  1  0.35654000  0.77524000  0.32259000  1.0
  O  O218  1  0.16444000  0.76101000  0.33042000  1.0
  O  O219  1  0.56942000  0.73901000  0.90345000  1.0
  O  O220  1  0.83041000  0.66596000  0.06940000  1.0
  O  O221  1  0.40345000  0.83403000  0.66445000  1.0
  O  O222  1  0.83556000  0.23900000  0.66958000  1.0
  O  O223  1  0.43059000  0.26100000  0.09657000  1.0
  O  O224  1  0.16959000  0.33403000  0.93059000  1.0
  O  O225  1  0.59655000  0.16597000  0.33555000  1.0
  O  O226  1  0.06898000  0.81454000  0.32791000  1.0
  O  O227  1  0.51338000  0.68547000  0.75445000  1.0
  O  O228  1  0.82790000  0.75892000  0.01337000  1.0
  O  O229  1  0.25447000  0.74108000  0.56898000  1.0
  O  O230  1  0.93102000  0.18547000  0.67209000  1.0
  O  O231  1  0.48663000  0.31453000  0.24555000  1.0
  O  O232  1  0.17210000  0.24108000  0.98662000  1.0
  O  O233  1  0.74553000  0.25891000  0.43102000  1.0
  O  O234  1  0.15016000  0.33745000  0.29821000  1.0
  O  O235  1  0.96076000  0.16255000  0.31271000  1.0
  O  O236  1  0.79821000  0.64805000  0.46076000  1.0
  O  O237  1  0.81271000  0.85195000  0.65016000  1.0
  O  O238  1  0.84984000  0.66255000  0.70179000  1.0
  O  O239  1  0.03924000  0.83745000  0.68729000  1.0
  O  O240  1  0.20179000  0.35195000  0.53924000  1.0
  O  O241  1  0.18729000  0.14805000  0.34984000  1.0
