# generated using pymatgen
data_Zn8H26C40S5O47
_symmetry_space_group_name_H-M   'P 1'
_cell_length_a   18.48270000
_cell_length_b   18.48990000
_cell_length_c   18.51059543
_cell_angle_alpha   90.67960451
_cell_angle_beta   119.37000495
_cell_angle_gamma   119.52000000
_symmetry_Int_Tables_number   1
_chemical_formula_structural   Zn8H26C40S5O47
_chemical_formula_sum   'Zn8 H26 C40 S5 O47'
_cell_volume   4521.15140647
_cell_formula_units_Z   1
loop_
 _symmetry_equiv_pos_site_id
 _symmetry_equiv_pos_as_xyz
  1  'x, y, z'
loop_
 _atom_site_type_symbol
 _atom_site_label
 _atom_site_symmetry_multiplicity
 _atom_site_fract_x
 _atom_site_fract_y
 _atom_site_fract_z
 _atom_site_occupancy
  Zn  Zn0  1  0.08043000  0.94384000  0.53550000  1.0
  Zn  Zn1  1  0.09306000  0.12100000  0.54229000  1.0
  Zn  Zn2  1  0.90971000  0.94827000  0.53785000  1.0
  Zn  Zn3  1  0.91357000  0.94871000  0.36789000  1.0
  Zn  Zn4  1  0.90703000  0.54079000  0.96207000  1.0
  Zn  Zn5  1  0.07680000  0.53786000  0.95229000  1.0
  Zn  Zn6  1  0.90636000  0.36909000  0.95504000  1.0
  Zn  Zn7  1  0.08598000  0.53851000  0.12893000  1.0
  H  H8  1  0.83923000  0.59905000  0.16213000  1.0
  H  H9  1  0.59256000  0.18814000  0.81212000  1.0
  H  H10  1  0.57125000  0.34404000  0.80722000  1.0
  H  H11  1  0.04196000  0.81695000  0.15544000  1.0
  H  H12  1  0.16276000  0.88786000  0.34302000  1.0
  H  H13  1  0.95980000  0.66951000  0.34908000  1.0
  H  H14  1  0.99955000  0.67802000  0.75890000  1.0
  H  H15  1  0.20545000  0.95475000  0.73859000  1.0
  H  H16  1  0.63955000  0.80143000  0.21315000  1.0
  H  H17  1  0.29930000  0.44648000  0.43700000  1.0
  H  H18  1  0.87378000  0.08001000  0.22054000  1.0
  H  H19  1  0.40159000  0.71641000  0.30143000  1.0
  H  H20  1  0.84969000  0.10073000  0.77657000  1.0
  H  H21  1  0.11028000  0.28218000  0.68224000  1.0
  H  H22  1  0.44658000  0.11074000  0.82689000  1.0
  H  H23  1  0.30589000  0.22112000  0.48868000  1.0
  H  H24  1  0.18577000  0.75533000  0.50205000  1.0
  H  H25  1  0.96329000  0.90454000  0.86447000  1.0
  H  H26  1  0.83445000  0.75819000  0.72222000  1.0
  H  H27  1  0.41061000  0.69899000  0.14058000  1.0
  H  H28  1  0.58619000  0.80711000  0.39433000  1.0
  H  H29  1  0.14067000  0.38753000  0.29217000  1.0
  H  H30  1  0.92465000  0.23001000  0.14799000  1.0
  H  H31  1  0.86743000  0.76433000  0.15343000  1.0
  H  H32  1  0.04267000  0.33850000  0.78375000  1.0
  H  H33  1  0.90431000  0.09223000  0.70486000  1.0
  C  C34  1  0.00042000  0.12758000  0.35962000  1.0
  C  C35  1  0.03644000  0.84681000  0.72926000  1.0
  C  C36  1  0.43982000  0.72797000  0.26842000  1.0
  C  C37  1  0.01749000  0.87734000  0.65261000  1.0
  C  C38  1  0.37992000  0.69033000  0.17949000  1.0
  C  C39  1  0.54851000  0.78116000  0.32372000  1.0
  C  C40  1  0.61168000  0.80272000  0.29750000  1.0
  C  C41  1  0.07426000  0.32005000  0.26551000  1.0
  C  C42  1  0.99401000  0.29592000  0.18324000  1.0
  C  C43  1  0.08114000  0.26622000  0.32098000  1.0
  C  C44  1  0.00287000  0.18194000  0.30035000  1.0
  C  C45  1  0.02295000  0.78519000  0.19872000  1.0
  C  C46  1  0.94351000  0.21265000  0.77909000  1.0
  C  C47  1  0.99370000  0.30247000  0.80491000  1.0
  C  C48  1  0.95229000  0.16413000  0.72549000  1.0
  C  C49  1  0.27173000  0.11873000  0.61414000  1.0
  C  C50  1  0.01239000  0.19480000  0.69561000  1.0
  C  C51  1  0.55310000  0.22056000  0.79338000  1.0
  C  C52  1  0.60719000  0.30890000  0.82294000  1.0
  C  C53  1  0.44238000  0.16445000  0.73768000  1.0
  C  C54  1  0.38353000  0.17140000  0.66092000  1.0
  C  C55  1  0.26860000  0.63469000  0.12941000  1.0
  C  C56  1  0.09024000  0.82377000  0.30149000  1.0
  C  C57  1  0.71945000  0.36383000  0.87537000  1.0
  C  C58  1  0.98518000  0.63196000  0.86265000  1.0
  C  C59  1  0.99719000  0.35813000  0.13362000  1.0
  C  C60  1  0.98852000  0.35623000  0.85807000  1.0
  C  C61  1  0.72375000  0.85702000  0.36006000  1.0
  C  C62  1  0.00543000  0.63657000  0.14572000  1.0
  C  C63  1  0.00813000  0.13229000  0.63921000  1.0
  C  C64  1  0.98962000  0.84781000  0.35517000  1.0
  C  C65  1  0.92628000  0.75478000  0.19670000  1.0
  C  C66  1  0.91046000  0.66425000  0.20263000  1.0
  C  C67  1  0.07392000  0.73309000  0.30737000  1.0
  C  C68  1  0.00742000  0.69437000  0.20416000  1.0
  C  C69  1  0.97724000  0.70212000  0.30545000  1.0
  C  C70  1  0.99223000  0.79247000  0.29944000  1.0
  C  C71  1  0.97465000  0.75636000  0.81245000  1.0
  C  C72  1  0.98591000  0.69050000  0.80739000  1.0
  C  C73  1  0.96462000  0.80201000  0.74636000  1.0
  S  S74  1  0.15830000  0.86479000  0.80007000  1.0
  S  S75  1  0.20304000  0.31281000  0.42252000  1.0
  S  S76  1  0.43476000  0.24410000  0.61111000  1.0
  S  S77  1  0.17196000  0.72302000  0.38225000  1.0
  S  S78  1  0.94883000  0.78579000  0.88565000  1.0
  O  O79  1  0.99799000  0.99199000  0.49612000  1.0
  O  O80  1  0.92128000  0.32328000  0.05325000  1.0
  O  O81  1  0.04014000  0.43943000  0.87017000  1.0
  O  O82  1  0.92614000  0.04581000  0.31838000  1.0
  O  O83  1  0.05546000  0.60394000  0.18107000  1.0
  O  O84  1  0.93537000  0.31925000  0.88861000  1.0
  O  O85  1  0.94940000  0.62408000  0.06411000  1.0
  O  O86  1  0.91474000  0.59924000  0.87435000  1.0
  O  O87  1  0.07256000  0.43909000  0.17282000  1.0
  O  O88  1  0.22159000  0.60655000  0.04560000  1.0
  O  O89  1  0.76223000  0.32422000  0.88620000  1.0
  O  O90  1  0.22400000  0.03523000  0.59036000  1.0
  O  O91  1  0.08549000  0.90564000  0.63624000  1.0
  O  O92  1  0.23380000  0.16311000  0.60247000  1.0
  O  O93  1  0.76540000  0.88443000  0.44246000  1.0
  O  O94  1  0.06900000  0.17088000  0.61593000  1.0
  O  O95  1  0.94667000  0.88618000  0.31799000  1.0
  O  O96  1  0.94747000  0.04980000  0.61925000  1.0
  O  O97  1  0.03130000  0.85309000  0.43609000  1.0
  O  O98  1  0.18558000  0.87701000  0.88852000  1.0
  O  O99  1  0.15785000  0.79930000  0.75655000  1.0
  O  O100  1  0.23184000  0.95965000  0.80141000  1.0
  O  O101  1  0.76958000  0.87104000  0.32181000  1.0
  O  O102  1  0.57791000  0.77647000  0.21211000  1.0
  O  O103  1  0.21248000  0.35397000  0.49582000  1.0
  O  O104  1  0.22690000  0.24903000  0.42463000  1.0
  O  O105  1  0.27685000  0.38993000  0.40311000  1.0
  O  O106  1  0.91476000  0.13987000  0.22002000  1.0
  O  O107  1  0.88009000  0.16270000  0.80274000  1.0
  O  O108  1  0.07845000  0.28091000  0.71256000  1.0
  O  O109  1  0.39610000  0.10158000  0.76709000  1.0
  O  O110  1  0.45071000  0.32722000  0.63737000  1.0
  O  O111  1  0.51492000  0.24110000  0.62042000  1.0
  O  O112  1  0.06465000  0.16503000  0.44143000  1.0
  O  O113  1  0.34117000  0.19111000  0.51085000  1.0
  O  O114  1  0.12981000  0.63554000  0.38800000  1.0
  O  O115  1  0.25091000  0.76389000  0.36829000  1.0
  O  O116  1  0.21591000  0.79038000  0.47327000  1.0
  O  O117  1  0.84135000  0.74907000  0.83085000  1.0
  O  O118  1  0.99577000  0.77315000  0.96763000  1.0
  O  O119  1  0.00924000  0.89127000  0.90731000  1.0
  O  O120  1  0.87576000  0.79373000  0.70082000  1.0
  O  O121  1  0.93662000  0.87379000  0.60691000  1.0
  O  O122  1  0.99409000  0.49879000  0.99982000  1.0
  O  O123  1  0.22796000  0.61830000  0.17195000  1.0
  O  O124  1  0.76269000  0.44692000  0.90395000  1.0
  O  O125  1  0.05420000  0.61941000  0.88860000  1.0
