# generated using pymatgen
data_Zn4H22C47O19
_symmetry_space_group_name_H-M   'P 1'
_cell_length_a   15.09600000
_cell_length_b   15.15360000
_cell_length_c   17.91290000
_cell_angle_alpha   81.85110000
_cell_angle_beta   80.79070000
_cell_angle_gamma   89.46820000
_symmetry_Int_Tables_number   1
_chemical_formula_structural   Zn4H22C47O19
_chemical_formula_sum   'Zn4 H22 C47 O19'
_cell_volume   4003.69594394
_cell_formula_units_Z   1
loop_
 _symmetry_equiv_pos_site_id
 _symmetry_equiv_pos_as_xyz
  1  'x, y, z'
loop_
 _atom_site_type_symbol
 _atom_site_label
 _atom_site_symmetry_multiplicity
 _atom_site_fract_x
 _atom_site_fract_y
 _atom_site_fract_z
 _atom_site_occupancy
  Zn  Zn0  1  0.44104000  0.44348000  0.42816000  1.0
  Zn  Zn1  1  0.55519000  0.40932000  0.56546000  1.0
  Zn  Zn2  1  0.40888000  0.56126000  0.56811000  1.0
  Zn  Zn3  1  0.58783000  0.58647000  0.44224000  1.0
  H  H4  1  0.28981000  0.31013000  0.93891000  1.0
  H  H5  1  0.86765000  0.56959000  0.41034000  1.0
  H  H6  1  0.80914000  0.41055000  0.63138000  1.0
  H  H7  1  0.02639000  0.60798000  0.35212000  1.0
  H  H8  1  0.97193000  0.40866000  0.64278000  1.0
  H  H9  1  0.12923000  0.45493000  0.58789000  1.0
  H  H10  1  0.50940000  0.18980000  0.35972000  1.0
  H  H11  1  0.52209000  0.02842000  0.34605000  1.0
  H  H12  1  0.48476000  0.80349000  0.64870000  1.0
  H  H13  1  0.52688000  0.87241000  0.40424000  1.0
  H  H14  1  0.32436000  0.33295000  0.79692000  1.0
  H  H15  1  0.32003000  0.34226000  0.06239000  1.0
  H  H16  1  0.77215000  0.61372000  0.06939000  1.0
  H  H17  1  0.47783000  0.48057000  0.19567000  1.0
  H  H18  1  0.64178000  0.51509000  0.86782000  1.0
  H  H19  1  0.40967000  0.41520000  0.13880000  1.0
  H  H20  1  0.77413000  0.56349000  0.86491000  1.0
  H  H21  1  0.17624000  0.63909000  0.30998000  1.0
  H  H22  1  0.47872000  0.08488000  0.65736000  1.0
  H  H23  1  0.48158000  0.91856000  0.71718000  1.0
  H  H24  1  0.53966000  0.60991000  0.83158000  1.0
  H  H25  1  0.74855000  0.57665000  0.27732000  1.0
  C  C26  1  0.73251000  0.49397000  0.51458000  1.0
  C  C27  1  0.68220000  0.58067000  0.17476000  1.0
  C  C28  1  0.54216000  0.50841000  0.16602000  1.0
  C  C29  1  0.56601000  0.51147000  0.08636000  1.0
  C  C30  1  0.65107000  0.55054000  0.05059000  1.0
  C  C31  1  0.50657000  0.47566000  0.04166000  1.0
  C  C32  1  0.52968000  0.48665000  0.96069000  1.0
  C  C33  1  0.61750000  0.51909000  0.92804000  1.0
  C  C34  1  0.67749000  0.54930000  0.96972000  1.0
  C  C35  1  0.42774000  0.42553000  0.07688000  1.0
  C  C36  1  0.37692000  0.38510000  0.03427000  1.0
  C  C37  1  0.26620000  0.52090000  0.48216000  1.0
  C  C38  1  0.39588000  0.39831000  0.95295000  1.0
  C  C39  1  0.46843000  0.45614000  0.91514000  1.0
  C  C40  1  0.34425000  0.35515000  0.90918000  1.0
  C  C41  1  0.36257000  0.36854000  0.83031000  1.0
  C  C42  1  0.47809000  0.47884000  0.83396000  1.0
  C  C43  1  0.82993000  0.49129000  0.52005000  1.0
  C  C44  1  0.16850000  0.52664000  0.47591000  1.0
  C  C45  1  0.04906000  0.57318000  0.40331000  1.0
  C  C46  1  0.13939000  0.57001000  0.40837000  1.0
  C  C47  1  0.10622000  0.48723000  0.53612000  1.0
  C  C48  1  0.49856000  0.26568000  0.48619000  1.0
  C  C49  1  0.01349000  0.48673000  0.53181000  1.0
  C  C50  1  0.98437000  0.53180000  0.46409000  1.0
  C  C51  1  0.89142000  0.53411000  0.46053000  1.0
  C  C52  1  0.85910000  0.44448000  0.58604000  1.0
  C  C53  1  0.94889000  0.44335000  0.59185000  1.0
  C  C54  1  0.49995000  0.16823000  0.48210000  1.0
  C  C55  1  0.50615000  0.82932000  0.52497000  1.0
  C  C56  1  0.49204000  0.94402000  0.60661000  1.0
  C  C57  1  0.49294000  0.85495000  0.59875000  1.0
  C  C58  1  0.51643000  0.89302000  0.46083000  1.0
  C  C59  1  0.50520000  0.73269000  0.51730000  1.0
  C  C60  1  0.51048000  0.98490000  0.46776000  1.0
  C  C61  1  0.49905000  0.01250000  0.54232000  1.0
  C  C62  1  0.49460000  0.10587000  0.54831000  1.0
  C  C63  1  0.50770000  0.13920000  0.40970000  1.0
  C  C64  1  0.51435000  0.05025000  0.40217000  1.0
  C  C65  1  0.44136000  0.44914000  0.70647000  1.0
  C  C66  1  0.56380000  0.53672000  0.29392000  1.0
  C  C67  1  0.59787000  0.54156000  0.21020000  1.0
  C  C68  1  0.42800000  0.43205000  0.79248000  1.0
  C  C69  1  0.70697000  0.58495000  0.09612000  1.0
  C  C70  1  0.76762000  0.57411000  0.92619000  1.0
  C  C71  1  0.52785000  0.56009000  0.79385000  1.0
  C  C72  1  0.75004000  0.61143000  0.21822000  1.0
  O  O73  1  0.49720000  0.50070000  0.50081000  1.0
  O  O74  1  0.45168000  0.31329000  0.44249000  1.0
  O  O75  1  0.55631000  0.70826000  0.46015000  1.0
  O  O76  1  0.68103000  0.44029000  0.56375000  1.0
  O  O77  1  0.29055000  0.55655000  0.53607000  1.0
  O  O78  1  0.70804000  0.54951000  0.46116000  1.0
  O  O79  1  0.31475000  0.47871000  0.43453000  1.0
  O  O80  1  0.54595000  0.29393000  0.53087000  1.0
  O  O81  1  0.45229000  0.68299000  0.56860000  1.0
  O  O82  1  0.49864000  0.39949000  0.67367000  1.0
  O  O83  1  0.59878000  0.59033000  0.33011000  1.0
  O  O84  1  0.39039000  0.50580000  0.67614000  1.0
  O  O85  1  0.50161000  0.47956000  0.32198000  1.0
  O  O86  1  0.83162000  0.60273000  0.95029000  1.0
  O  O87  1  0.20465000  0.60941000  0.35169000  1.0
  O  O88  1  0.48145000  0.13622000  0.61675000  1.0
  O  O89  1  0.48368000  0.97067000  0.67834000  1.0
  O  O90  1  0.55021000  0.57729000  0.72437000  1.0
  O  O91  1  0.80669000  0.66916000  0.19034000  1.0
