# generated using pymatgen
data_H6Pd(CO)4
_symmetry_space_group_name_H-M   'P 1'
_cell_length_a   5.90267000
_cell_length_b   7.29146000
_cell_length_c   7.84350000
_cell_angle_alpha   98.26990000
_cell_angle_beta   89.99910000
_cell_angle_gamma   89.99940000
_symmetry_Int_Tables_number   1
_chemical_formula_structural   H6Pd(CO)4
_chemical_formula_sum   'H12 Pd2 C8 O8'
_cell_volume   334.06674264
_cell_formula_units_Z   2
loop_
 _symmetry_equiv_pos_site_id
 _symmetry_equiv_pos_as_xyz
  1  'x, y, z'
loop_
 _atom_site_type_symbol
 _atom_site_label
 _atom_site_symmetry_multiplicity
 _atom_site_fract_x
 _atom_site_fract_y
 _atom_site_fract_z
 _atom_site_occupancy
  H  H0  1  0.25004000  0.54872000  0.86184000  1.0
  H  H1  1  0.74998000  0.45129000  0.13816000  1.0
  H  H2  1  0.09909000  0.61102000  0.68247000  1.0
  H  H3  1  0.40087000  0.61106000  0.68242000  1.0
  H  H4  1  0.90091000  0.38897000  0.31752000  1.0
  H  H5  1  0.59915000  0.38895000  0.31756000  1.0
  H  H6  1  0.25002000  0.34313000  0.07548000  1.0
  H  H7  1  0.74994000  0.65687000  0.92451000  1.0
  H  H8  1  0.09849000  0.15154000  0.96214000  1.0
  H  H9  1  0.40148000  0.15152000  0.96211000  1.0
  H  H10  1  0.90147000  0.84845000  0.03787000  1.0
  H  H11  1  0.59848000  0.84847000  0.03789000  1.0
  Pd  Pd12  1  0.50001000  0.00002000  0.49999000  1.0
  Pd  Pd13  1  0.00002000  0.99999000  0.50000000  1.0
  C  C14  1  0.25006000  0.34015000  0.64063000  1.0
  C  C15  1  0.74997000  0.65983000  0.35937000  1.0
  C  C16  1  0.25000000  0.54021000  0.72067000  1.0
  C  C17  1  0.75001000  0.45979000  0.27932000  1.0
  C  C18  1  0.25001000  0.10686000  0.20264000  1.0
  C  C19  1  0.74995000  0.89315000  0.79736000  1.0
  C  C20  1  0.25000000  0.19166000  0.03873000  1.0
  C  C21  1  0.74996000  0.80834000  0.96127000  1.0
  O  O22  1  0.44426000  0.26458000  0.61077000  1.0
  O  O23  1  0.05577000  0.26453000  0.61082000  1.0
  O  O24  1  0.55577000  0.73544000  0.38922000  1.0
  O  O25  1  0.94427000  0.73546000  0.38920000  1.0
  O  O26  1  0.44401000  0.07734000  0.26577000  1.0
  O  O27  1  0.05605000  0.07734000  0.26579000  1.0
  O  O28  1  0.55602000  0.92269000  0.73424000  1.0
  O  O29  1  0.94397000  0.92263000  0.73423000  1.0
