# generated using pymatgen
data_CdH12C14(SeN4)2
_symmetry_space_group_name_H-M   'P 1'
_cell_length_a   12.36170000
_cell_length_b   12.72640000
_cell_length_c   13.02710000
_cell_angle_alpha   63.25770000
_cell_angle_beta   87.58410000
_cell_angle_gamma   86.04540000
_symmetry_Int_Tables_number   1
_chemical_formula_structural   CdH12C14(SeN4)2
_chemical_formula_sum   'Cd4 H48 C56 Se8 N32'
_cell_volume   1825.71521149
_cell_formula_units_Z   4
loop_
 _symmetry_equiv_pos_site_id
 _symmetry_equiv_pos_as_xyz
  1  'x, y, z'
loop_
 _atom_site_type_symbol
 _atom_site_label
 _atom_site_symmetry_multiplicity
 _atom_site_fract_x
 _atom_site_fract_y
 _atom_site_fract_z
 _atom_site_occupancy
  Cd  Cd0  1  0.00000000  0.50000000  0.50000000  1.0
  Cd  Cd1  1  0.25249000  0.25423000  0.25453000  1.0
  Cd  Cd2  1  0.74751000  0.74577000  0.74547000  1.0
  Cd  Cd3  1  0.50000000  0.00000000  0.00000000  1.0
  H  H4  1  0.90203000  0.90626000  0.13865000  1.0
  H  H5  1  0.09797000  0.09373000  0.86136000  1.0
  H  H6  1  0.09078000  0.96816000  0.06712000  1.0
  H  H7  1  0.90922000  0.03184000  0.93288000  1.0
  H  H8  1  0.24885000  0.82957000  0.17861000  1.0
  H  H9  1  0.75115000  0.17043000  0.82139000  1.0
  H  H10  1  0.19984000  0.64135000  0.35198000  1.0
  H  H11  1  0.80016000  0.35865000  0.64802000  1.0
  H  H12  1  0.16737000  0.87284000  0.62794000  1.0
  H  H13  1  0.83263000  0.12715000  0.37206000  1.0
  H  H14  1  0.00495000  0.94570000  0.70777000  1.0
  H  H15  1  0.99505000  0.05430000  0.29223000  1.0
  H  H16  1  0.93434000  0.15753000  0.58824000  1.0
  H  H17  1  0.06567000  0.84247000  0.41176000  1.0
  H  H18  1  0.03714000  0.27879000  0.40743000  1.0
  H  H19  1  0.96287000  0.72121000  0.59258000  1.0
  H  H20  1  0.32731000  0.64258000  0.88125000  1.0
  H  H21  1  0.67269000  0.35742000  0.11875000  1.0
  H  H22  1  0.46984000  0.56718000  0.78265000  1.0
  H  H23  1  0.53016000  0.43281000  0.21735000  1.0
  H  H24  1  0.53808000  0.35148000  0.89257000  1.0
  H  H25  1  0.46193000  0.64852000  0.10744000  1.0
  H  H26  1  0.44944000  0.23128000  0.08265000  1.0
  H  H27  1  0.55056000  0.76872000  0.91735000  1.0
  H  H28  1  0.31617000  0.96526000  0.35121000  1.0
  H  H29  1  0.68383000  0.03474000  0.64878000  1.0
  H  H30  1  0.48191000  0.82499000  0.41983000  1.0
  H  H31  1  0.51809000  0.17501000  0.58017000  1.0
  H  H32  1  0.66154000  0.91417000  0.40925000  1.0
  H  H33  1  0.33846000  0.08583000  0.59075000  1.0
  H  H34  1  0.65912000  0.13639000  0.33085000  1.0
  H  H35  1  0.34088000  0.86361000  0.66916000  1.0
  H  H36  1  0.85026000  0.36759000  0.14657000  1.0
  H  H37  1  0.14974000  0.63241000  0.85344000  1.0
  H  H38  1  0.84116000  0.58927000  0.07898000  1.0
  H  H39  1  0.15884000  0.41073000  0.92103000  1.0
  H  H40  1  0.01516000  0.68028000  0.08423000  1.0
  H  H41  1  0.98484000  0.31971000  0.91578000  1.0
  H  H42  1  0.18110000  0.54163000  0.16329000  1.0
  H  H43  1  0.81890000  0.45837000  0.83671000  1.0
  H  H44  1  0.41896000  0.60464000  0.36931000  1.0
  H  H45  1  0.58104000  0.39537000  0.63069000  1.0
  H  H46  1  0.61117000  0.53010000  0.43359000  1.0
  H  H47  1  0.38883000  0.46991000  0.56641000  1.0
  H  H48  1  0.76236000  0.66470000  0.32121000  1.0
  H  H49  1  0.23764000  0.33531000  0.67878000  1.0
  H  H50  1  0.70491000  0.85605000  0.15075000  1.0
  H  H51  1  0.29509000  0.14396000  0.84924000  1.0
  C  C52  1  0.81507000  0.37964000  0.41150000  1.0
  C  C53  1  0.18490000  0.62037000  0.58849000  1.0
  C  C54  1  0.24253000  0.39391000  0.42499000  1.0
  C  C55  1  0.75747000  0.60609000  0.57501000  1.0
  C  C56  1  0.26099000  0.09166000  0.09649000  1.0
  C  C57  1  0.73901000  0.90834000  0.90351000  1.0
  C  C58  1  0.68921000  0.12936000  0.07772000  1.0
  C  C59  1  0.31079000  0.87064000  0.92228000  1.0
  C  C60  1  0.97322000  0.84946000  0.18049000  1.0
  C  C61  1  0.02678000  0.15054000  0.81952000  1.0
  C  C62  1  0.07814000  0.88442000  0.14166000  1.0
  C  C63  1  0.92186000  0.11558000  0.85834000  1.0
  C  C64  1  0.16436000  0.80941000  0.20241000  1.0
  C  C65  1  0.83565000  0.19059000  0.79759000  1.0
  C  C66  1  0.13813000  0.70526000  0.29763000  1.0
  C  C67  1  0.86188000  0.29474000  0.70237000  1.0
  C  C68  1  0.13456000  0.96390000  0.58411000  1.0
  C  C69  1  0.86544000  0.03610000  0.41589000  1.0
  C  C70  1  0.04441000  0.00421000  0.62776000  1.0
  C  C71  1  0.95559000  0.99579000  0.37224000  1.0
  C  C72  1  0.00627000  0.11957000  0.56344000  1.0
  C  C73  1  0.99374000  0.88043000  0.43656000  1.0
  C  C74  1  0.06247000  0.18727000  0.46191000  1.0
  C  C75  1  0.93754000  0.81273000  0.53809000  1.0
  C  C76  1  0.35787000  0.55044000  0.92059000  1.0
  C  C77  1  0.64213000  0.44956000  0.07941000  1.0
  C  C78  1  0.43764000  0.50846000  0.86671000  1.0
  C  C79  1  0.56236000  0.49154000  0.13329000  1.0
  C  C80  1  0.47384000  0.39142000  0.92556000  1.0
  C  C81  1  0.52616000  0.60858000  0.07444000  1.0
  C  C82  1  0.42523000  0.32404000  0.03210000  1.0
  C  C83  1  0.57477000  0.67596000  0.96790000  1.0
  C  C84  1  0.39657000  0.99645000  0.34846000  1.0
  C  C85  1  0.60344000  0.00355000  0.65153000  1.0
  C  C86  1  0.48867000  0.91964000  0.38626000  1.0
  C  C87  1  0.51134000  0.08036000  0.61373000  1.0
  C  C88  1  0.58651000  0.96841000  0.38057000  1.0
  C  C89  1  0.41350000  0.03159000  0.61943000  1.0
  C  C90  1  0.58551000  0.09098000  0.33811000  1.0
  C  C91  1  0.41449000  0.90902000  0.66189000  1.0
  C  C92  1  0.92047000  0.41387000  0.14866000  1.0
  C  C93  1  0.07953000  0.58613000  0.85134000  1.0
  C  C94  1  0.91599000  0.53573000  0.11160000  1.0
  C  C95  1  0.08401000  0.46427000  0.88840000  1.0
  C  C96  1  0.01072000  0.58569000  0.11516000  1.0
  C  C97  1  0.98928000  0.41431000  0.88484000  1.0
  C  C98  1  0.10276000  0.51009000  0.15830000  1.0
  C  C99  1  0.89724000  0.48991000  0.84170000  1.0
  C  C100  1  0.48796000  0.65626000  0.32452000  1.0
  C  C101  1  0.51204000  0.34374000  0.67548000  1.0
  C  C102  1  0.59437000  0.61590000  0.36097000  1.0
  C  C103  1  0.40563000  0.38410000  0.63903000  1.0
  C  C104  1  0.67696000  0.68768000  0.29911000  1.0
  C  C105  1  0.32304000  0.31233000  0.70088000  1.0
  C  C106  1  0.64611000  0.79374000  0.20496000  1.0
  C  C107  1  0.35389000  0.20626000  0.79504000  1.0
  Se  Se108  1  0.69370000  0.30638000  0.42353000  1.0
  Se  Se109  1  0.30625000  0.69367000  0.57643000  1.0
  Se  Se110  1  0.36622000  0.35117000  0.37241000  1.0
  Se  Se111  1  0.63378000  0.64883000  0.62758000  1.0
  Se  Se112  1  0.14254000  0.16561000  0.12532000  1.0
  Se  Se113  1  0.85746000  0.83439000  0.87469000  1.0
  Se  Se114  1  0.82068000  0.16132000  0.10439000  1.0
  Se  Se115  1  0.17931000  0.83868000  0.89561000  1.0
  N  N116  1  0.89624000  0.42766000  0.40313000  1.0
  N  N117  1  0.10375000  0.57232000  0.59689000  1.0
  N  N118  1  0.16143000  0.41922000  0.46148000  1.0
  N  N119  1  0.83857000  0.58078000  0.53852000  1.0
  N  N120  1  0.33829000  0.04274000  0.07815000  1.0
  N  N121  1  0.66171000  0.95726000  0.92185000  1.0
  N  N122  1  0.60155000  0.10814000  0.06119000  1.0
  N  N123  1  0.39845000  0.89186000  0.93881000  1.0
  N  N124  1  0.03554000  0.67602000  0.32915000  1.0
  N  N125  1  0.96446000  0.32398000  0.67085000  1.0
  N  N126  1  0.95206000  0.74731000  0.27116000  1.0
  N  N127  1  0.04794000  0.25269000  0.72884000  1.0
  N  N128  1  0.14925000  0.14345000  0.42612000  1.0
  N  N129  1  0.85075000  0.85655000  0.57388000  1.0
  N  N130  1  0.18569000  0.03117000  0.48626000  1.0
  N  N131  1  0.81431000  0.96883000  0.51375000  1.0
  N  N132  1  0.34777000  0.36956000  0.07768000  1.0
  N  N133  1  0.65223000  0.63044000  0.92232000  1.0
  N  N134  1  0.31409000  0.48318000  0.02319000  1.0
  N  N135  1  0.68591000  0.51682000  0.97681000  1.0
  N  N136  1  0.40161000  0.11268000  0.30963000  1.0
  N  N137  1  0.59839000  0.88733000  0.69036000  1.0
  N  N138  1  0.49549000  0.16115000  0.30443000  1.0
  N  N139  1  0.50451000  0.83885000  0.69557000  1.0
  N  N140  1  0.10091000  0.39410000  0.19330000  1.0
  N  N141  1  0.89909000  0.60590000  0.80671000  1.0
  N  N142  1  0.01065000  0.34508000  0.18763000  1.0
  N  N143  1  0.98935000  0.65492000  0.81238000  1.0
  N  N144  1  0.54265000  0.82614000  0.17347000  1.0
  N  N145  1  0.45735000  0.17387000  0.82653000  1.0
  N  N146  1  0.46234000  0.75843000  0.23300000  1.0
  N  N147  1  0.53766000  0.24158000  0.76700000  1.0
