# generated using pymatgen
data_CuH4C6(ClO3)2
_symmetry_space_group_name_H-M   'P 1'
_cell_length_a   4.64574000
_cell_length_b   8.08498000
_cell_length_c   12.47920000
_cell_angle_alpha   101.13600000
_cell_angle_beta   89.99910000
_cell_angle_gamma   89.99950000
_symmetry_Int_Tables_number   1
_chemical_formula_structural   CuH4C6(ClO3)2
_chemical_formula_sum   'Cu2 H8 C12 Cl4 O12'
_cell_volume   459.90223776
_cell_formula_units_Z   2
loop_
 _symmetry_equiv_pos_site_id
 _symmetry_equiv_pos_as_xyz
  1  'x, y, z'
loop_
 _atom_site_type_symbol
 _atom_site_label
 _atom_site_symmetry_multiplicity
 _atom_site_fract_x
 _atom_site_fract_y
 _atom_site_fract_z
 _atom_site_occupancy
  Cu  Cu0  1  1.00000000  0.50001000  0.49999000  1.0
  Cu  Cu1  1  0.50001000  0.00000000  0.00001000  1.0
  H  H2  1  0.76390000  0.56061000  0.69093000  1.0
  H  H3  1  0.26393000  0.93938000  0.80905000  1.0
  H  H4  1  0.23603000  0.43933000  0.30904000  1.0
  H  H5  1  0.73609000  0.06065000  0.19096000  1.0
  H  H6  1  0.55489000  0.64733000  0.61434000  1.0
  H  H7  1  0.05490000  0.85267000  0.88565000  1.0
  H  H8  1  0.44510000  0.35265000  0.38564000  1.0
  H  H9  1  0.94511000  0.14733000  0.11435000  1.0
  C  C10  1  0.13777000  0.87195000  0.54969000  1.0
  C  C11  1  0.63779000  0.62805000  0.95030000  1.0
  C  C12  1  0.86222000  0.12806000  0.45030000  1.0
  C  C13  1  0.36225000  0.37196000  0.04970000  1.0
  C  C14  1  0.21662000  0.04170000  0.58422000  1.0
  C  C15  1  0.71665000  0.45829000  0.91578000  1.0
  C  C16  1  0.78335000  0.95829000  0.41578000  1.0
  C  C17  1  0.28339000  0.54171000  0.08423000  1.0
  C  C18  1  0.08965000  0.17095000  0.54032000  1.0
  C  C19  1  0.58968000  0.32906000  0.95969000  1.0
  C  C20  1  0.91032000  0.82905000  0.45968000  1.0
  C  C21  1  0.41036000  0.67096000  0.04033000  1.0
  Cl  Cl22  1  0.47279000  0.09108000  0.68546000  1.0
  Cl  Cl23  1  0.97277000  0.40891000  0.81453000  1.0
  Cl  Cl24  1  0.52719000  0.90892000  0.31455000  1.0
  Cl  Cl25  1  0.02720000  0.59109000  0.18546000  1.0
  O  O26  1  0.23946000  0.75057000  0.58809000  1.0
  O  O27  1  0.73944000  0.74943000  0.91189000  1.0
  O  O28  1  0.76055000  0.24943000  0.41189000  1.0
  O  O29  1  0.26053000  0.25058000  0.08809000  1.0
  O  O30  1  0.15457000  0.32540000  0.57295000  1.0
  O  O31  1  0.65461000  0.17459000  0.92706000  1.0
  O  O32  1  0.84544000  0.67458000  0.42705000  1.0
  O  O33  1  0.34544000  0.82542000  0.07296000  1.0
  O  O34  1  0.69435000  0.55498000  0.61628000  1.0
  O  O35  1  0.19437000  0.94501000  0.88372000  1.0
  O  O36  1  0.30564000  0.44499000  0.38370000  1.0
  O  O37  1  0.80564000  0.05500000  0.11631000  1.0
