# generated using pymatgen
data_BiH27C24(SO3)2
_symmetry_space_group_name_H-M   'P 1'
_cell_length_a   9.97222000
_cell_length_b   10.90560000
_cell_length_c   12.14300000
_cell_angle_alpha   114.70100000
_cell_angle_beta   89.99990000
_cell_angle_gamma   89.99980000
_symmetry_Int_Tables_number   1
_chemical_formula_structural   BiH27C24(SO3)2
_chemical_formula_sum   'Bi2 H54 C48 S4 O12'
_cell_volume   1199.75554217
_cell_formula_units_Z   2
loop_
 _symmetry_equiv_pos_site_id
 _symmetry_equiv_pos_as_xyz
  1  'x, y, z'
loop_
 _atom_site_type_symbol
 _atom_site_label
 _atom_site_symmetry_multiplicity
 _atom_site_fract_x
 _atom_site_fract_y
 _atom_site_fract_z
 _atom_site_occupancy
  Bi  Bi0  1  0.69822000  0.95520000  0.00454000  1.0
  Bi  Bi1  1  0.19822000  0.04479000  0.99547000  1.0
  H  H2  1  0.79566000  0.65606000  0.96302000  1.0
  H  H3  1  0.29566000  0.34393000  0.03697000  1.0
  H  H4  1  0.69152000  0.43400000  0.92047000  1.0
  H  H5  1  0.19153000  0.56599000  0.07952000  1.0
  H  H6  1  0.44469000  0.41008000  0.91798000  1.0
  H  H7  1  0.94469000  0.58992000  0.08202000  1.0
  H  H8  1  0.29890000  0.61109000  0.95559000  1.0
  H  H9  1  0.79891000  0.38892000  0.04442000  1.0
  H  H10  1  0.40105000  0.83081000  0.99496000  1.0
  H  H11  1  0.90105000  0.16920000  0.00505000  1.0
  H  H12  1  0.91373000  0.28856000  0.57752000  1.0
  H  H13  1  0.41373000  0.71144000  0.42248000  1.0
  H  H14  1  0.16407000  0.95653000  0.54818000  1.0
  H  H15  1  0.66407000  0.04348000  0.45182000  1.0
  H  H16  1  0.81495000  0.30468000  0.42116000  1.0
  H  H17  1  0.31496000  0.69531000  0.57883000  1.0
  H  H18  1  0.75260000  0.14854000  0.31287000  1.0
  H  H19  1  0.25261000  0.85146000  0.68713000  1.0
  H  H20  1  0.88872000  0.22697000  0.27481000  1.0
  H  H21  1  0.38872000  0.77302000  0.72519000  1.0
  H  H22  1  0.04211000  0.30132000  0.75384000  1.0
  H  H23  1  0.54211000  0.69868000  0.24616000  1.0
  H  H24  1  0.16207000  0.17355000  0.73883000  1.0
  H  H25  1  0.66206000  0.82645000  0.26117000  1.0
  H  H26  1  0.99083000  0.14725000  0.75687000  1.0
  H  H27  1  0.49082000  0.85276000  0.24313000  1.0
  H  H28  1  0.08962000  0.73303000  0.25797000  1.0
  H  H29  1  0.58962000  0.26697000  0.74203000  1.0
  H  H30  1  0.20797000  0.78421000  0.37808000  1.0
  H  H31  1  0.70797000  0.21579000  0.62192000  1.0
  H  H32  1  0.23389000  0.82273000  0.25074000  1.0
  H  H33  1  0.73389000  0.17727000  0.74926000  1.0
  H  H34  1  0.16662000  0.44086000  0.57602000  1.0
  H  H35  1  0.66666667  0.55914000  0.42397000  1.0
  H  H36  1  0.95675000  0.58063000  0.34234000  1.0
  H  H37  1  0.45674000  0.41938000  0.65766000  1.0
  H  H38  1  0.15540000  0.54067000  0.77591000  1.0
  H  H39  1  0.65541000  0.45933000  0.22409000  1.0
  H  H40  1  0.01712000  0.64605000  0.85127000  1.0
  H  H41  1  0.51712000  0.35395000  0.14873000  1.0
  H  H42  1  0.16792000  0.71857000  0.83296000  1.0
  H  H43  1  0.66792000  0.28143000  0.16704000  1.0
  H  H44  1  0.07309000  0.36938000  0.25521000  1.0
  H  H45  1  0.57309000  0.63063000  0.74479000  1.0
  H  H46  1  0.13649000  0.29263000  0.34823000  1.0
  H  H47  1  0.63649000  0.70738000  0.65177000  1.0
  H  H48  1  0.23337000  0.41363000  0.32233000  1.0
  H  H49  1  0.73337000  0.58637000  0.67767000  1.0
  H  H50  1  0.82753000  0.75913000  0.40684000  1.0
  H  H51  1  0.32754000  0.24088000  0.59316000  1.0
  H  H52  1  0.87681000  0.89994000  0.54028000  1.0
  H  H53  1  0.37681000  0.10007000  0.45972000  1.0
  H  H54  1  0.74062000  0.80147000  0.54596000  1.0
  H  H55  1  0.24062000  0.19853000  0.45405000  1.0
  C  C56  1  0.60539000  0.75823000  0.98137000  1.0
  C  C57  1  0.10538000  0.24176000  0.01864000  1.0
  C  C58  1  0.68679000  0.64665000  0.96213000  1.0
  C  C59  1  0.18679000  0.35334000  0.03787000  1.0
  C  C60  1  0.62832000  0.52179000  0.93878000  1.0
  C  C61  1  0.12832000  0.47821000  0.06121000  1.0
  C  C62  1  0.48889000  0.50815000  0.93636000  1.0
  C  C63  1  0.98889000  0.49185000  0.06364000  1.0
  C  C64  1  0.40771000  0.62010000  0.95725000  1.0
  C  C65  1  0.90771000  0.37990000  0.04276000  1.0
  C  C66  1  0.46589000  0.74472000  0.97957000  1.0
  C  C67  1  0.96588000  0.25529000  0.02044000  1.0
  C  C68  1  0.00469000  0.01188000  0.32632000  1.0
  C  C69  1  0.50469000  0.98812000  0.67368000  1.0
  C  C70  1  0.93886000  0.13510000  0.39755000  1.0
  C  C71  1  0.43886000  0.86490000  0.60244000  1.0
  C  C72  1  0.96097000  0.19178000  0.52269000  1.0
  C  C73  1  0.46098000  0.80822000  0.47731000  1.0
  C  C74  1  0.04104000  0.12984000  0.57923000  1.0
  C  C75  1  0.54104000  0.87016000  0.42077000  1.0
  C  C76  1  0.10088000  0.00679000  0.50617000  1.0
  C  C77  1  0.60088000  0.99321000  0.49383000  1.0
  C  C78  1  0.08610000  0.94543000  0.37992000  1.0
  C  C79  1  0.58610000  0.05456000  0.62008000  1.0
  C  C80  1  0.84429000  0.20775000  0.34868000  1.0
  C  C81  1  0.34429000  0.79225000  0.65132000  1.0
  C  C82  1  0.06071000  0.19210000  0.71395000  1.0
  C  C83  1  0.56071000  0.80791000  0.28605000  1.0
  C  C84  1  0.15822000  0.81402000  0.31268000  1.0
  C  C85  1  0.65821000  0.18597000  0.68732000  1.0
  C  C86  1  0.97096000  0.71907000  0.64965000  1.0
  C  C87  1  0.47096000  0.28093000  0.35035000  1.0
  C  C88  1  0.05465000  0.62322000  0.66677000  1.0
  C  C89  1  0.55466000  0.37677000  0.33323000  1.0
  C  C90  1  0.10140000  0.51444000  0.56365000  1.0
  C  C91  1  0.60139000  0.48556000  0.43635000  1.0
  C  C92  1  0.07041000  0.49881000  0.44620000  1.0
  C  C93  1  0.57041000  0.50119000  0.55379000  1.0
  C  C94  1  0.98447000  0.59285000  0.43338000  1.0
  C  C95  1  0.48447000  0.40715000  0.56662000  1.0
  C  C96  1  0.93276000  0.70397000  0.53248000  1.0
  C  C97  1  0.43276000  0.29603000  0.46752000  1.0
  C  C98  1  0.10012000  0.63236000  0.78815000  1.0
  C  C99  1  0.60012000  0.36763000  0.21184000  1.0
  C  C100  1  0.13051000  0.38741000  0.33735000  1.0
  C  C101  1  0.63051000  0.61259000  0.66265000  1.0
  C  C102  1  0.83975000  0.79604000  0.50528000  1.0
  C  C103  1  0.33975000  0.20396000  0.49473000  1.0
  S  S104  1  0.98102000  0.94314000  0.16647000  1.0
  S  S105  1  0.48101000  0.05686000  0.83353000  1.0
  S  S106  1  0.92548000  0.86618000  0.78006000  1.0
  S  S107  1  0.42548000  0.13382000  0.21994000  1.0
  O  O108  1  0.83286000  0.91803000  0.14995000  1.0
  O  O109  1  0.33285000  0.08196000  0.85005000  1.0
  O  O110  1  0.01566000  0.05343000  0.12734000  1.0
  O  O111  1  0.51566000  0.94657000  0.87266000  1.0
  O  O112  1  0.06037000  0.82281000  0.10394000  1.0
  O  O113  1  0.56037000  0.17719000  0.89606000  1.0
  O  O114  1  0.86816000  0.81799000  0.86940000  1.0
  O  O115  1  0.36817000  0.18201000  0.13060000  1.0
  O  O116  1  0.05623000  0.93579000  0.82470000  1.0
  O  O117  1  0.55623000  0.06420000  0.17530000  1.0
  O  O118  1  0.83011000  0.94999000  0.75289000  1.0
  O  O119  1  0.33010000  0.05002000  0.24712000  1.0
