# generated using pymatgen
data_Al2H7C28N6O22F
_symmetry_space_group_name_H-M   'P 1'
_cell_length_a   6.68100000
_cell_length_b   19.39960000
_cell_length_c   21.93860000
_cell_angle_alpha   99.28470000
_cell_angle_beta   90.26100000
_cell_angle_gamma   90.85070000
_symmetry_Int_Tables_number   1
_chemical_formula_structural   Al2H7C28N6O22F
_chemical_formula_sum   'Al4 H14 C56 N12 O44 F2'
_cell_volume   2805.80282261
_cell_formula_units_Z   2
loop_
 _symmetry_equiv_pos_site_id
 _symmetry_equiv_pos_as_xyz
  1  'x, y, z'
loop_
 _atom_site_type_symbol
 _atom_site_label
 _atom_site_symmetry_multiplicity
 _atom_site_fract_x
 _atom_site_fract_y
 _atom_site_fract_z
 _atom_site_occupancy
  Al  Al0  1  0.88244000  0.50046000  0.49976000  1.0
  Al  Al1  1  0.38246000  0.50060000  0.50100000  1.0
  Al  Al2  1  0.33449000  0.00026000  0.00076000  1.0
  Al  Al3  1  0.83445000  0.00018000  0.99968000  1.0
  H  H4  1  0.80591000  0.17388000  0.76118000  1.0
  H  H5  1  0.31208000  0.82265000  0.23770000  1.0
  H  H6  1  0.40834000  0.31844000  0.73235000  1.0
  H  H7  1  0.90891000  0.68026000  0.26478000  1.0
  H  H8  1  0.09746000  0.85450000  0.60563000  1.0
  H  H9  1  0.63787000  0.14586000  0.39436000  1.0
  H  H10  1  0.01616000  0.64040000  0.78083000  1.0
  H  H11  1  0.70588000  0.35892000  0.21778000  1.0
  H  H12  1  0.96280000  0.64996000  0.89217000  1.0
  H  H13  1  0.72986000  0.34895000  0.10538000  1.0
  H  H14  1  0.63673000  0.48753000  0.57620000  1.0
  H  H15  1  0.13272000  0.51264000  0.42422000  1.0
  H  H16  1  0.58163000  0.01771000  0.92622000  1.0
  H  H17  1  0.08371000  0.98281000  0.07429000  1.0
  C  C18  1  0.62951000  0.39055000  0.43179000  1.0
  C  C19  1  0.13369000  0.61039000  0.56909000  1.0
  C  C20  1  0.63032000  0.57522000  0.42317000  1.0
  C  C21  1  0.13296000  0.42538000  0.57730000  1.0
  C  C22  1  0.93850000  0.20517000  0.75494000  1.0
  C  C23  1  0.44351000  0.79187000  0.24357000  1.0
  C  C24  1  0.11121000  0.19890000  0.79042000  1.0
  C  C25  1  0.61422000  0.79882000  0.20761000  1.0
  C  C26  1  0.27889000  0.24082000  0.78040000  1.0
  C  C27  1  0.78029000  0.75736000  0.21700000  1.0
  C  C28  1  0.27554000  0.28738000  0.73880000  1.0
  C  C29  1  0.77748000  0.71098000  0.25881000  1.0
  C  C30  1  0.10220000  0.29419000  0.70373000  1.0
  C  C31  1  0.60652000  0.70381000  0.29458000  1.0
  C  C32  1  0.93495000  0.25189000  0.71345000  1.0
  C  C33  1  0.44040000  0.74527000  0.28513000  1.0
  C  C34  1  0.10593000  0.15505000  0.83578000  1.0
  C  C35  1  0.60763000  0.84320000  0.16275000  1.0
  C  C36  1  0.10726000  0.34008000  0.66004000  1.0
  C  C37  1  0.61176000  0.65866000  0.33888000  1.0
  C  C38  1  0.12553000  0.37934000  0.62241000  1.0
  C  C39  1  0.62785000  0.62046000  0.37738000  1.0
  C  C40  1  0.09067000  0.11897000  0.87599000  1.0
  C  C41  1  0.58896000  0.88021000  0.12342000  1.0
  C  C42  1  0.10607000  0.80736000  0.62642000  1.0
  C  C43  1  0.63076000  0.19321000  0.37385000  1.0
  C  C44  1  0.13179000  0.68053000  0.61106000  1.0
  C  C45  1  0.62357000  0.32044000  0.38982000  1.0
  C  C46  1  0.02838000  0.76006000  0.91059000  1.0
  C  C47  1  0.64937000  0.24005000  0.08858000  1.0
  C  C48  1  0.00705000  0.69550000  0.87199000  1.0
  C  C49  1  0.68597000  0.30412000  0.12660000  1.0
  C  C50  1  0.04037000  0.69094000  0.80951000  1.0
  C  C51  1  0.66888000  0.30896000  0.18973000  1.0
  C  C52  1  0.09181000  0.75064000  0.78316000  1.0
  C  C53  1  0.61688000  0.25008000  0.21713000  1.0
  C  C54  1  0.09795000  0.81696000  0.82302000  1.0
  C  C55  1  0.59328000  0.18401000  0.17743000  1.0
  C  C56  1  0.12156000  0.74750000  0.71713000  1.0
  C  C57  1  0.60332000  0.25359000  0.28372000  1.0
  C  C58  1  0.11569000  0.81030000  0.69097000  1.0
  C  C59  1  0.60611000  0.19064000  0.30968000  1.0
  C  C60  1  0.11595000  0.87553000  0.73209000  1.0
  C  C61  1  0.58608000  0.12565000  0.26863000  1.0
  C  C62  1  0.11505000  0.87833000  0.79463000  1.0
  C  C63  1  0.57299000  0.12300000  0.20621000  1.0
  C  C64  1  0.14741000  0.68486000  0.67468000  1.0
  C  C65  1  0.59499000  0.31661000  0.32665000  1.0
  C  C66  1  0.10617000  0.74362000  0.58829000  1.0
  C  C67  1  0.64660000  0.25687000  0.41194000  1.0
  C  C68  1  0.07345000  0.82125000  0.88792000  1.0
  C  C69  1  0.60396000  0.17941000  0.11212000  1.0
  C  C70  1  0.58470000  0.92434000  0.07682000  1.0
  C  C71  1  0.08554000  0.07565000  0.92323000  1.0
  C  C72  1  0.58832000  0.10949000  0.06997000  1.0
  C  C73  1  0.08197000  0.89109000  0.93032000  1.0
  N  N74  1  0.74393000  0.25830000  0.68117000  1.0
  N  N75  1  0.25045000  0.73805000  0.31758000  1.0
  N  N76  1  0.46960000  0.23481000  0.81300000  1.0
  N  N77  1  0.96909000  0.76369000  0.18367000  1.0
  N  N78  1  0.09051000  0.74337000  0.52084000  1.0
  N  N79  1  0.67620000  0.25687000  0.47890000  1.0
  N  N80  1  0.12463000  0.94171000  0.70700000  1.0
  N  N81  1  0.56956000  0.05967000  0.29380000  1.0
  N  N82  1  0.21210000  0.62028000  0.69689000  1.0
  N  N83  1  0.53416000  0.38250000  0.30603000  1.0
  N  N84  1  0.99263000  0.76178000  0.97741000  1.0
  N  N85  1  0.67037000  0.23821000  0.02112000  1.0
  O  O86  1  0.46108000  0.56146000  0.44516000  1.0
  O  O87  1  0.96587000  0.44806000  0.56153000  1.0
  O  O88  1  0.80268000  0.41310000  0.44852000  1.0
  O  O89  1  0.30143000  0.58135000  0.56018000  1.0
  O  O90  1  0.79908000  0.55270000  0.43769000  1.0
  O  O91  1  0.30440000  0.43965000  0.55712000  1.0
  O  O92  1  0.96183000  0.58791000  0.55074000  1.0
  O  O93  1  0.46228000  0.41968000  0.44199000  1.0
  O  O94  1  0.63398000  0.50699000  0.53807000  1.0
  O  O95  1  0.13229000  0.49389000  0.46271000  1.0
  O  O96  1  0.75673000  0.08196000  0.05675000  1.0
  O  O97  1  0.25442000  0.91527000  0.94594000  1.0
  O  O98  1  0.41480000  0.94428000  0.06056000  1.0
  O  O99  1  0.91437000  0.05976000  0.94256000  1.0
  O  O100  1  0.41506000  0.08530000  0.05561000  1.0
  O  O101  1  0.91289000  0.91845000  0.94251000  1.0
  O  O102  1  0.25399000  0.05632000  0.94123000  1.0
  O  O103  1  0.75409000  0.94027000  0.05623000  1.0
  O  O104  1  0.58295000  0.99473000  0.96245000  1.0
  O  O105  1  0.08476000  0.00572000  0.03801000  1.0
  O  O106  1  0.70110000  0.31690000  0.67003000  1.0
  O  O107  1  0.63611000  0.20518000  0.66955000  1.0
  O  O108  1  0.20346000  0.67898000  0.32767000  1.0
  O  O109  1  0.14758000  0.79104000  0.33020000  1.0
  O  O110  1  0.51366000  0.17639000  0.82421000  1.0
  O  O111  1  0.57585000  0.28835000  0.82499000  1.0
  O  O112  1  0.01596000  0.82212000  0.17215000  1.0
  O  O113  1  0.07129000  0.71038000  0.17155000  1.0
  O  O114  1  0.15386000  0.69141000  0.48658000  1.0
  O  O115  1  0.01725000  0.79532000  0.50384000  1.0
  O  O116  1  0.62420000  0.30959000  0.51442000  1.0
  O  O117  1  0.74948000  0.20404000  0.49435000  1.0
  O  O118  1  0.98832000  0.98339000  0.72122000  1.0
  O  O119  1  0.26875000  0.94972000  0.67341000  1.0
  O  O120  1  0.69424000  0.01446000  0.27666000  1.0
  O  O121  1  0.43067000  0.05531000  0.33026000  1.0
  O  O122  1  0.10532000  0.56723000  0.68381000  1.0
  O  O123  1  0.37218000  0.62459000  0.72573000  1.0
  O  O124  1  0.36796000  0.38148000  0.28104000  1.0
  O  O125  1  0.65051000  0.43333000  0.31656000  1.0
  O  O126  1  0.89671000  0.71213000  0.99259000  1.0
  O  O127  1  0.06116000  0.81230000  0.01344000  1.0
  O  O128  1  0.75903000  0.28817000  0.00399000  1.0
  O  O129  1  0.59727000  0.18728000  0.98656000  1.0
  F  F130  1  0.12548000  0.94137000  0.83054000  1.0
  F  F131  1  0.54410000  0.06037000  0.17065000  1.0
