# generated using pymatgen
data_AlH15(C9O2)3
_symmetry_space_group_name_H-M   'P 1'
_cell_length_a   3.98960000
_cell_length_b   16.02900000
_cell_length_c   16.02970000
_cell_angle_alpha   119.87200000
_cell_angle_beta   90.98850000
_cell_angle_gamma   90.98940000
_symmetry_Int_Tables_number   1
_chemical_formula_structural   AlH15(C9O2)3
_chemical_formula_sum   'Al1 H15 C27 O6'
_cell_volume   888.36742129
_cell_formula_units_Z   1
loop_
 _symmetry_equiv_pos_site_id
 _symmetry_equiv_pos_as_xyz
  1  'x, y, z'
loop_
 _atom_site_type_symbol
 _atom_site_label
 _atom_site_symmetry_multiplicity
 _atom_site_fract_x
 _atom_site_fract_y
 _atom_site_fract_z
 _atom_site_occupancy
  Al  Al0  1  0.00003000  0.50017000  0.49974000  1.0
  H  H1  1  0.50007000  0.92260000  0.07728000  1.0
  H  H2  1  0.47597000  0.65469000  0.07734000  1.0
  H  H3  1  0.52386000  0.92254000  0.34517000  1.0
  H  H4  1  0.75142000  0.23604000  0.25151000  1.0
  H  H5  1  0.76698000  0.05861000  0.16379000  1.0
  H  H6  1  0.22448000  0.05110000  0.39022000  1.0
  H  H7  1  0.21985000  0.22879000  0.47963000  1.0
  H  H8  1  0.23310000  0.83610000  0.94128000  1.0
  H  H9  1  0.24883000  0.74838000  0.76387000  1.0
  H  H10  1  0.77994000  0.52018000  0.77112000  1.0
  H  H11  1  0.77528000  0.60962000  0.94879000  1.0
  H  H12  1  0.76271000  0.60748000  0.16250000  1.0
  H  H13  1  0.76741000  0.51921000  0.25295000  1.0
  H  H14  1  0.23251000  0.74701000  0.48073000  1.0
  H  H15  1  0.23710000  0.83747000  0.39245000  1.0
  C  C16  1  0.51389000  0.57414000  0.64837000  1.0
  C  C17  1  0.50000000  0.57408000  0.42587000  1.0
  C  C18  1  0.48619000  0.35155000  0.42575000  1.0
  C  C19  1  0.49952000  0.78248000  0.06496000  1.0
  C  C20  1  0.50007000  0.88332000  0.11656000  1.0
  C  C21  1  0.50048000  0.93492000  0.21738000  1.0
  C  C22  1  0.50582000  0.88329000  0.26677000  1.0
  C  C23  1  0.49989000  0.78238000  0.21750000  1.0
  C  C24  1  0.49401000  0.73309000  0.11660000  1.0
  C  C25  1  0.63305000  0.19529000  0.28141000  1.0
  C  C26  1  0.63934000  0.09525000  0.23196000  1.0
  C  C27  1  0.49685000  0.04123000  0.27028000  1.0
  C  C28  1  0.34741000  0.09128000  0.36033000  1.0
  C  C29  1  0.34194000  0.19134000  0.41061000  1.0
  C  C30  1  0.48490000  0.24388000  0.37127000  1.0
  C  C31  1  0.36077000  0.76794000  0.90466000  1.0
  C  C32  1  0.36713000  0.71848000  0.80463000  1.0
  C  C33  1  0.51515000  0.62860000  0.75602000  1.0
  C  C34  1  0.65794000  0.58923000  0.80857000  1.0
  C  C35  1  0.65250000  0.63952000  0.90861000  1.0
  C  C36  1  0.50313000  0.72959000  0.95866000  1.0
  C  C37  1  0.64320000  0.63810000  0.23188000  1.0
  C  C38  1  0.64818000  0.58853000  0.28241000  1.0
  C  C39  1  0.50003000  0.62754000  0.37244000  1.0
  C  C40  1  0.35177000  0.71756000  0.41142000  1.0
  C  C41  1  0.35669000  0.76808000  0.36184000  1.0
  C  C42  1  0.49989000  0.72918000  0.27077000  1.0
  O  O43  1  0.24923000  0.39288000  0.40764000  1.0
  O  O44  1  0.27322000  0.51322000  0.60551000  1.0
  O  O45  1  0.27140000  0.59235000  0.48713000  1.0
  O  O46  1  0.72687000  0.39438000  0.48665000  1.0
  O  O47  1  0.72862000  0.51279000  0.40756000  1.0
  O  O48  1  0.75086000  0.59226000  0.60705000  1.0
