# generated using pymatgen
data_Zn4H32C81S2(N7O19)2
_symmetry_space_group_name_H-M   'P 1'
_cell_length_a   16.51290000
_cell_length_b   17.87010000
_cell_length_c   30.59410000
_cell_angle_alpha   90.33060000
_cell_angle_beta   89.97320000
_cell_angle_gamma   89.87250000
_symmetry_Int_Tables_number   1
_chemical_formula_structural   Zn4H32C81S2(N7O19)2
_chemical_formula_sum   'Zn4 H32 C81 S2 N14 O38'
_cell_volume   9027.75283832
_cell_formula_units_Z   1
loop_
 _symmetry_equiv_pos_site_id
 _symmetry_equiv_pos_as_xyz
  1  'x, y, z'
loop_
 _atom_site_type_symbol
 _atom_site_label
 _atom_site_symmetry_multiplicity
 _atom_site_fract_x
 _atom_site_fract_y
 _atom_site_fract_z
 _atom_site_occupancy
  Zn  Zn0  1  0.58418000  0.50237000  0.50096000  1.0
  Zn  Zn1  1  0.41529000  0.49899000  0.50135000  1.0
  Zn  Zn2  1  0.41643000  0.50354000  0.91798000  1.0
  Zn  Zn3  1  0.58472000  0.49927000  0.91618000  1.0
  H  H4  1  0.28275000  0.56442000  0.55599000  1.0
  H  H5  1  0.13039000  0.56483000  0.55641000  1.0
  H  H6  1  0.28974000  0.42109000  0.44875000  1.0
  H  H7  1  0.71012000  0.59104000  0.54811000  1.0
  H  H8  1  0.71731000  0.41867000  0.45669000  1.0
  H  H9  1  0.86991000  0.41560000  0.45794000  1.0
  H  H10  1  0.62484000  0.74364000  0.50366000  1.0
  H  H11  1  0.61827000  0.88359000  0.50412000  1.0
  H  H12  1  0.36509000  0.73450000  0.49577000  1.0
  H  H13  1  0.63898000  0.26363000  0.49945000  1.0
  H  H14  1  0.37930000  0.26135000  0.50879000  1.0
  H  H15  1  0.38141000  0.12119000  0.50702000  1.0
  H  H16  1  0.62741000  0.49673000  0.76683000  1.0
  H  H17  1  0.37633000  0.50818000  0.05903000  1.0
  H  H18  1  0.38187000  0.50918000  0.14088000  1.0
  H  H19  1  0.63639000  0.49804000  0.05435000  1.0
  H  H20  1  0.36361000  0.49174000  0.36360000  1.0
  H  H21  1  0.62344000  0.50579000  0.36064000  1.0
  H  H22  1  0.61958000  0.50890000  0.27877000  1.0
  H  H23  1  0.71859000  0.57942000  0.87069000  1.0
  H  H24  1  0.87121000  0.58136000  0.87233000  1.0
  H  H25  1  0.70966000  0.41854000  0.96787000  1.0
  H  H26  1  0.28983000  0.58895000  0.87036000  1.0
  H  H27  1  0.28394000  0.42036000  0.96303000  1.0
  H  H28  1  0.13128000  0.41981000  0.96364000  1.0
  H  H29  1  0.37442000  0.74474000  0.91501000  1.0
  H  H30  1  0.38046000  0.88481000  0.91574000  1.0
  H  H31  1  0.63450000  0.73545000  0.91878000  1.0
  H  H32  1  0.36338000  0.26698000  0.91949000  1.0
  H  H33  1  0.62344000  0.25900000  0.91564000  1.0
  H  H34  1  0.61834000  0.11883000  0.91659000  1.0
  H  H35  1  0.33195000  0.58984000  0.68355000  1.0
  C  C36  1  0.49849000  0.64629000  0.49925000  1.0
  C  C37  1  0.49717000  0.50395000  0.58590000  1.0
  C  C38  1  0.50790000  0.35525000  0.50373000  1.0
  C  C39  1  0.49588000  0.49594000  0.41617000  1.0
  C  C40  1  0.50112000  0.64760000  0.91673000  1.0
  C  C41  1  0.50187000  0.50097000  0.83157000  1.0
  C  C42  1  0.49638000  0.35539000  0.91724000  1.0
  C  C43  1  0.50315000  0.50135000  0.00257000  1.0
  C  C44  1  0.24798000  0.53255000  0.53206000  1.0
  C  C45  1  0.16403000  0.53204000  0.53239000  1.0
  C  C46  1  0.12151000  0.48852000  0.50141000  1.0
  C  C47  1  0.16886000  0.44704000  0.47135000  1.0
  C  C48  1  0.25285000  0.45160000  0.47244000  1.0
  C  C49  1  0.03621000  0.49048000  0.50197000  1.0
  C  C50  1  0.96380000  0.50063000  0.50710000  1.0
  C  C51  1  0.87859000  0.50335000  0.50680000  1.0
  C  C52  1  0.83107000  0.55295000  0.53221000  1.0
  C  C53  1  0.74710000  0.55248000  0.52885000  1.0
  C  C54  1  0.75222000  0.45641000  0.47750000  1.0
  C  C55  1  0.83609000  0.45455000  0.47853000  1.0
  C  C56  1  0.49545000  0.73016000  0.49978000  1.0
  C  C57  1  0.56677000  0.77260000  0.50226000  1.0
  C  C58  1  0.56325000  0.85012000  0.50273000  1.0
  C  C59  1  0.48819000  0.88864000  0.50171000  1.0
  C  C60  1  0.41715000  0.84440000  0.49957000  1.0
  C  C61  1  0.42074000  0.76670000  0.49806000  1.0
  C  C62  1  0.49042000  0.96744000  0.50230000  1.0
  C  C63  1  0.50700000  0.03404000  0.50281000  1.0
  C  C64  1  0.51122000  0.11275000  0.50357000  1.0
  C  C65  1  0.58358000  0.15517000  0.50157000  1.0
  C  C66  1  0.58234000  0.23295000  0.50143000  1.0
  C  C67  1  0.50883000  0.27137000  0.50405000  1.0
  C  C68  1  0.43630000  0.23077000  0.50649000  1.0
  C  C69  1  0.43744000  0.15319000  0.50580000  1.0
  C  C70  1  0.42873000  0.49961000  0.66209000  1.0
  C  C71  1  0.56522000  0.49771000  0.75522000  1.0
  C  C72  1  0.49514000  0.49878000  0.63410000  1.0
  C  C73  1  0.49986000  0.49935000  0.78336000  1.0
  C  C74  1  0.53956000  0.49754000  0.71121000  1.0
  C  C75  1  0.45457000  0.49931000  0.70643000  1.0
  C  C76  1  0.50582000  0.50280000  0.05150000  1.0
  C  C77  1  0.43415000  0.50633000  0.07613000  1.0
  C  C78  1  0.43711000  0.50735000  0.12140000  1.0
  C  C79  1  0.51197000  0.50634000  0.14400000  1.0
  C  C80  1  0.58337000  0.50354000  0.11833000  1.0
  C  C81  1  0.58035000  0.50097000  0.07296000  1.0
  C  C82  1  0.50941000  0.50663000  0.18998000  1.0
  C  C83  1  0.49290000  0.50615000  0.22889000  1.0
  C  C84  1  0.48958000  0.50462000  0.27485000  1.0
  C  C85  1  0.41773000  0.50019000  0.30004000  1.0
  C  C86  1  0.41991000  0.49605000  0.34536000  1.0
  C  C87  1  0.49401000  0.49828000  0.36725000  1.0
  C  C88  1  0.56605000  0.50360000  0.34313000  1.0
  C  C89  1  0.56397000  0.50585000  0.29787000  1.0
  C  C90  1  0.75309000  0.54354000  0.89263000  1.0
  C  C91  1  0.83699000  0.54427000  0.89353000  1.0
  C  C92  1  0.87899000  0.49591000  0.92205000  1.0
  C  C93  1  0.83108000  0.45017000  0.94918000  1.0
  C  C94  1  0.74705000  0.45323000  0.94678000  1.0
  C  C95  1  0.96429000  0.49692000  0.92158000  1.0
  C  C96  1  0.03666000  0.50565000  0.91572000  1.0
  C  C97  1  0.12192000  0.50640000  0.91467000  1.0
  C  C98  1  0.16902000  0.55406000  0.88825000  1.0
  C  C99  1  0.25309000  0.55196000  0.89041000  1.0
  C  C100  1  0.24875000  0.45791000  0.94239000  1.0
  C  C101  1  0.16481000  0.45752000  0.94247000  1.0
  C  C102  1  0.50401000  0.73135000  0.91673000  1.0
  C  C103  1  0.43236000  0.77374000  0.91583000  1.0
  C  C104  1  0.43559000  0.85121000  0.91611000  1.0
  C  C105  1  0.51057000  0.88954000  0.91676000  1.0
  C  C106  1  0.58194000  0.84539000  0.91741000  1.0
  C  C107  1  0.57866000  0.76771000  0.91776000  1.0
  C  C108  1  0.50800000  0.96824000  0.91719000  1.0
  C  C109  1  0.49110000  0.03479000  0.91746000  1.0
  C  C110  1  0.48825000  0.11347000  0.91744000  1.0
  C  C111  1  0.41664000  0.15729000  0.91836000  1.0
  C  C112  1  0.41942000  0.23498000  0.91864000  1.0
  C  C113  1  0.49386000  0.27167000  0.91746000  1.0
  C  C114  1  0.56574000  0.22963000  0.91655000  1.0
  C  C115  1  0.56301000  0.15216000  0.91689000  1.0
  C  C116  1  0.34175000  0.49981000  0.64841000  1.0
  S  S117  1  0.58723000  0.49624000  0.66119000  1.0
  S  S118  1  0.40677000  0.49951000  0.75668000  1.0
  N  N119  1  0.29134000  0.49366000  0.50226000  1.0
  N  N120  1  0.70869000  0.50458000  0.50224000  1.0
  N  N121  1  0.70915000  0.49849000  0.91864000  1.0
  N  N122  1  0.29186000  0.50442000  0.91685000  1.0
  N  N123  1  0.13209000  0.39787000  0.43792000  1.0
  N  N124  1  0.86788000  0.60661000  0.56304000  1.0
  N  N125  1  0.33610000  0.87927000  0.49903000  1.0
  N  N126  1  0.66351000  0.11835000  0.49924000  1.0
  N  N127  1  0.66421000  0.50328000  0.13885000  1.0
  N  N128  1  0.33731000  0.49984000  0.27903000  1.0
  N  N129  1  0.86740000  0.39757000  0.98068000  1.0
  N  N130  1  0.13174000  0.60740000  0.85764000  1.0
  N  N131  1  0.66287000  0.88022000  0.91770000  1.0
  N  N132  1  0.33600000  0.12202000  0.91924000  1.0
  O  O133  1  0.56692000  0.61585000  0.50702000  1.0
  O  O134  1  0.43262000  0.61209000  0.49124000  1.0
  O  O135  1  0.43145000  0.52081000  0.56673000  1.0
  O  O136  1  0.56571000  0.49183000  0.56790000  1.0
  O  O137  1  0.44035000  0.38722000  0.51131000  1.0
  O  O138  1  0.57474000  0.38796000  0.49571000  1.0
  O  O139  1  0.56360000  0.50916000  0.43454000  1.0
  O  O140  1  0.42943000  0.48138000  0.43548000  1.0
  O  O141  1  0.43158000  0.61739000  0.91332000  1.0
  O  O142  1  0.56842000  0.61324000  0.92022000  1.0
  O  O143  1  0.57129000  0.50653000  0.84949000  1.0
  O  O144  1  0.43367000  0.49666000  0.85106000  1.0
  O  O145  1  0.56540000  0.38568000  0.91203000  1.0
  O  O146  1  0.42922000  0.38960000  0.92228000  1.0
  O  O147  1  0.43425000  0.51043000  0.98460000  1.0
  O  O148  1  0.57019000  0.49133000  0.98275000  1.0
  O  O149  1  0.05851000  0.38546000  0.44095000  1.0
  O  O150  1  0.17759000  0.37213000  0.40941000  1.0
  O  O151  1  0.93774000  0.59345000  0.57556000  1.0
  O  O152  1  0.82580000  0.66081000  0.57439000  1.0
  O  O153  1  0.33127000  0.94730000  0.50689000  1.0
  O  O154  1  0.27731000  0.83822000  0.49097000  1.0
  O  O155  1  0.66705000  0.05027000  0.50664000  1.0
  O  O156  1  0.72281000  0.15796000  0.49007000  1.0
  O  O157  1  0.66855000  0.51829000  0.17841000  1.0
  O  O158  1  0.72321000  0.48840000  0.11514000  1.0
  O  O159  1  0.33347000  0.51662000  0.23978000  1.0
  O  O160  1  0.27819000  0.48315000  0.30202000  1.0
  O  O161  1  0.94074000  0.38429000  0.97695000  1.0
  O  O162  1  0.82168000  0.37037000  0.00836000  1.0
  O  O163  1  0.06077000  0.59566000  0.84652000  1.0
  O  O164  1  0.17453000  0.65988000  0.84509000  1.0
  O  O165  1  0.66706000  0.94887000  0.91251000  1.0
  O  O166  1  0.72229000  0.83848000  0.92296000  1.0
  O  O167  1  0.33178000  0.05384000  0.91185000  1.0
  O  O168  1  0.27688000  0.16296000  0.92730000  1.0
  O  O169  1  0.29678000  0.55693000  0.66639000  1.0
  O  O170  1  0.30942000  0.45393000  0.62495000  1.0
