# generated using pymatgen
data_CdH18C18(N2O3)2
_symmetry_space_group_name_H-M   'P 1'
_cell_length_a   9.82068000
_cell_length_b   10.57190000
_cell_length_c   11.18110000
_cell_angle_alpha   73.21760000
_cell_angle_beta   65.69110000
_cell_angle_gamma   63.75260000
_symmetry_Int_Tables_number   1
_chemical_formula_structural   CdH18C18(N2O3)2
_chemical_formula_sum   'Cd2 H36 C36 N8 O12'
_cell_volume   940.73806553
_cell_formula_units_Z   2
loop_
 _symmetry_equiv_pos_site_id
 _symmetry_equiv_pos_as_xyz
  1  'x, y, z'
loop_
 _atom_site_type_symbol
 _atom_site_label
 _atom_site_symmetry_multiplicity
 _atom_site_fract_x
 _atom_site_fract_y
 _atom_site_fract_z
 _atom_site_occupancy
  Cd  Cd0  1  0.46867000  0.17886000  0.22069000  1.0
  Cd  Cd1  1  0.53133000  0.82114000  0.77931000  1.0
  H  H2  1  0.55574000  0.12262000  0.95440000  1.0
  H  H3  1  0.44425000  0.87738000  0.04559000  1.0
  H  H4  1  0.59531000  0.99321000  0.06416000  1.0
  H  H5  1  0.40469000  0.00679000  0.93584000  1.0
  H  H6  1  0.26070000  0.44753000  0.58541000  1.0
  H  H7  1  0.73931000  0.55246000  0.41459000  1.0
  H  H8  1  0.48566000  0.63634000  0.20271000  1.0
  H  H9  1  0.51434000  0.36366000  0.79730000  1.0
  H  H10  1  0.28967000  0.85576000  0.54063000  1.0
  H  H11  1  0.71033000  0.14424000  0.45937000  1.0
  H  H12  1  0.26165000  0.57898000  0.78204000  1.0
  H  H13  1  0.73835000  0.42102000  0.21796000  1.0
  H  H14  1  0.15578000  0.76244000  0.75181000  1.0
  H  H15  1  0.84423000  0.23756000  0.24819000  1.0
  H  H16  1  0.24008000  0.34006000  0.84860000  1.0
  H  H17  1  0.75991000  0.65994000  0.15139000  1.0
  H  H18  1  0.11486000  0.16079000  0.95950000  1.0
  H  H19  1  0.88513000  0.83922000  0.04050000  1.0
  H  H20  1  0.82232000  0.22372000  0.01581000  1.0
  H  H21  1  0.17767000  0.77630000  0.98419000  1.0
  H  H22  1  0.64463000  0.46971000  0.95513000  1.0
  H  H23  1  0.35537000  0.53031000  0.04487000  1.0
  H  H24  1  0.68647000  0.89594000  0.38485000  1.0
  H  H25  1  0.31353000  0.10406000  0.61515000  1.0
  H  H26  1  0.00468000  0.01910000  0.15900000  1.0
  H  H27  1  0.99532000  0.98090000  0.84100000  1.0
  H  H28  1  0.15474000  0.85284000  0.19202000  1.0
  H  H29  1  0.84525000  0.14716000  0.80798000  1.0
  H  H30  1  0.07253000  0.98870000  0.29432000  1.0
  H  H31  1  0.92747000  0.01130000  0.70569000  1.0
  H  H32  1  0.85985000  0.72110000  0.46514000  1.0
  H  H33  1  0.14015000  0.27890000  0.53486000  1.0
  H  H34  1  0.00837000  0.76590000  0.47790000  1.0
  H  H35  1  0.99162000  0.23410000  0.52210000  1.0
  H  H36  1  0.06149000  0.66696000  0.34981000  1.0
  H  H37  1  0.93850000  0.33304000  0.65019000  1.0
  C  C38  1  0.26308000  0.65380000  0.58031000  1.0
  C  C39  1  0.73693000  0.34620000  0.41970000  1.0
  C  C40  1  0.29528000  0.53670000  0.52467000  1.0
  C  C41  1  0.70472000  0.46330000  0.47533000  1.0
  C  C42  1  0.37501000  0.53045000  0.38901000  1.0
  C  C43  1  0.62499000  0.46954000  0.61099000  1.0
  C  C44  1  0.42341000  0.64199000  0.30836000  1.0
  C  C45  1  0.57660000  0.35800000  0.69164000  1.0
  C  C46  1  0.39260000  0.75902000  0.36311000  1.0
  C  C47  1  0.60740000  0.24098000  0.63689000  1.0
  C  C48  1  0.31149000  0.76461000  0.49911000  1.0
  C  C49  1  0.68852000  0.23538000  0.50089000  1.0
  C  C50  1  0.18239000  0.65906000  0.72740000  1.0
  C  C51  1  0.81762000  0.34093000  0.27260000  1.0
  C  C52  1  0.84369000  0.54416000  0.86634000  1.0
  C  C53  1  0.15632000  0.45585000  0.13366000  1.0
  C  C54  1  0.00979000  0.50781000  0.83795000  1.0
  C  C55  1  0.99021000  0.49219000  0.16204000  1.0
  C  C56  1  0.11191000  0.36970000  0.87009000  1.0
  C  C57  1  0.88808000  0.63030000  0.12991000  1.0
  C  C58  1  0.04013000  0.26979000  0.93266000  1.0
  C  C59  1  0.95986000  0.73021000  0.06733000  1.0
  C  C60  1  0.87325000  0.30546000  0.96367000  1.0
  C  C61  1  0.12674000  0.69455000  0.03633000  1.0
  C  C62  1  0.77259000  0.44217000  0.93137000  1.0
  C  C63  1  0.22741000  0.55785000  0.06863000  1.0
  C  C64  1  0.76960000  0.95026000  0.31839000  1.0
  C  C65  1  0.23040000  0.04973000  0.68161000  1.0
  C  C66  1  0.04502000  0.93943000  0.23723000  1.0
  C  C67  1  0.95498000  0.06058000  0.76277000  1.0
  C  C68  1  0.96466000  0.75149000  0.40863000  1.0
  C  C69  1  0.03534000  0.24851000  0.59137000  1.0
  C  C70  1  0.41128000  0.40343000  0.33107000  1.0
  C  C71  1  0.58872000  0.59656000  0.66893000  1.0
  C  C72  1  0.44858000  0.87704000  0.27824000  1.0
  C  C73  1  0.55142000  0.12295000  0.72175000  1.0
  N  N74  1  0.91988000  0.88331000  0.32129000  1.0
  N  N75  1  0.08011000  0.11669000  0.67872000  1.0
  N  N76  1  0.03330000  0.63282000  0.77921000  1.0
  N  N77  1  0.96671000  0.36718000  0.22079000  1.0
  N  N78  1  0.89481000  0.73871000  0.76975000  1.0
  N  N79  1  0.10519000  0.26129000  0.23024000  1.0
  N  N80  1  0.78029000  0.68702000  0.82183000  1.0
  N  N81  1  0.21972000  0.31299000  0.17817000  1.0
  O  O82  1  0.36047000  0.30585000  0.40607000  1.0
  O  O83  1  0.63953000  0.69414000  0.59393000  1.0
  O  O84  1  0.49251000  0.39702000  0.20804000  1.0
  O  O85  1  0.50750000  0.60297000  0.79197000  1.0
  O  O86  1  0.41129000  0.98236000  0.33413000  1.0
  O  O87  1  0.58871000  0.01763000  0.66586000  1.0
  O  O88  1  0.53229000  0.86265000  0.15645000  1.0
  O  O89  1  0.46772000  0.13734000  0.84355000  1.0
  O  O90  1  0.72480000  0.06642000  0.24677000  1.0
  O  O91  1  0.27520000  0.93358000  0.75323000  1.0
  O  O92  1  0.61107000  0.08603000  0.02159000  1.0
  O  O93  1  0.38893000  0.91397000  0.97841000  1.0
