# generated using pymatgen
data_ErH13(C9O7)2
_symmetry_space_group_name_H-M   'P 1'
_cell_length_a   9.39976000
_cell_length_b   10.43450000
_cell_length_c   11.08880000
_cell_angle_alpha   101.85620000
_cell_angle_beta   109.67110000
_cell_angle_gamma   92.04650000
_symmetry_Int_Tables_number   1
_chemical_formula_structural   ErH13(C9O7)2
_chemical_formula_sum   'Er2 H26 C36 O28'
_cell_volume   995.77740595
_cell_formula_units_Z   2
loop_
 _symmetry_equiv_pos_site_id
 _symmetry_equiv_pos_as_xyz
  1  'x, y, z'
loop_
 _atom_site_type_symbol
 _atom_site_label
 _atom_site_symmetry_multiplicity
 _atom_site_fract_x
 _atom_site_fract_y
 _atom_site_fract_z
 _atom_site_occupancy
  Er  Er0  1  0.23600000  0.96927000  0.49754000  1.0
  Er  Er1  1  0.76399000  0.03072000  0.50245000  1.0
  H  H2  1  0.98101000  0.37230000  0.32610000  1.0
  H  H3  1  0.01900000  0.62770000  0.67391000  1.0
  H  H4  1  0.05205000  0.46871000  0.16606000  1.0
  H  H5  1  0.94797000  0.53130000  0.83396000  1.0
  H  H6  1  0.32979000  0.66161000  0.17167000  1.0
  H  H7  1  0.67020000  0.33840000  0.82833000  1.0
  H  H8  1  0.64543000  0.45749000  0.03412000  1.0
  H  H9  1  0.35458000  0.54251000  0.96589000  1.0
  H  H10  1  0.71379000  0.25307000  0.30157000  1.0
  H  H11  1  0.28620000  0.74693000  0.69844000  1.0
  H  H12  1  0.26722000  0.26840000  0.42715000  1.0
  H  H13  1  0.73278000  0.73160000  0.57284000  1.0
  H  H14  1  0.31287000  0.15799000  0.33355000  1.0
  H  H15  1  0.68714000  0.84202000  0.66645000  1.0
  H  H16  1  0.31491000  0.23074000  0.70728000  1.0
  H  H17  1  0.68510000  0.76926000  0.29273000  1.0
  H  H18  1  0.20582000  0.14424000  0.74665000  1.0
  H  H19  1  0.79418000  0.85575000  0.25334000  1.0
  H  H20  1  0.06702000  0.72811000  0.30337000  1.0
  H  H21  1  0.93298000  0.27189000  0.69663000  1.0
  H  H22  1  0.96225000  0.78694000  0.38405000  1.0
  H  H23  1  0.03775000  0.21306000  0.61595000  1.0
  H  H24  1  0.48186000  0.79157000  0.51129000  1.0
  H  H25  1  0.51814000  0.20844000  0.48871000  1.0
  H  H26  1  0.35118000  0.71455000  0.53520000  1.0
  H  H27  1  0.64883000  0.28545000  0.46481000  1.0
  C  C28  1  0.92425000  0.11119000  0.31949000  1.0
  C  C29  1  0.07576000  0.88881000  0.68051000  1.0
  C  C30  1  0.96564000  0.17002000  0.22130000  1.0
  C  C31  1  0.03434000  0.82997000  0.77869000  1.0
  C  C32  1  0.99406000  0.30695000  0.24085000  1.0
  C  C33  1  0.00595000  0.69305000  0.75915000  1.0
  C  C34  1  0.03503000  0.36156000  0.15065000  1.0
  C  C35  1  0.96498000  0.63844000  0.84936000  1.0
  C  C36  1  0.05023000  0.28094000  0.03869000  1.0
  C  C37  1  0.94976000  0.71906000  0.96130000  1.0
  C  C38  1  0.02947000  0.14326000  0.02233000  1.0
  C  C39  1  0.97051000  0.85674000  0.97765000  1.0
  C  C40  1  0.98239000  0.08830000  0.11068000  1.0
  C  C41  1  0.01759000  0.91169000  0.88931000  1.0
  C  C42  1  0.07265000  0.33865000  0.93044000  1.0
  C  C43  1  0.92735000  0.66137000  0.06956000  1.0
  C  C44  1  0.93982000  0.94555000  0.08453000  1.0
  C  C45  1  0.06016000  0.05445000  0.91545000  1.0
  C  C46  1  0.39584000  0.92019000  0.28359000  1.0
  C  C47  1  0.60415000  0.07982000  0.71640000  1.0
  C  C48  1  0.39805000  0.85373000  0.15115000  1.0
  C  C49  1  0.60193000  0.14626000  0.84885000  1.0
  C  C50  1  0.36794000  0.71648000  0.11249000  1.0
  C  C51  1  0.63205000  0.28351000  0.88751000  1.0
  C  C52  1  0.44499000  0.92446000  0.07357000  1.0
  C  C53  1  0.55501000  0.07555000  0.92644000  1.0
  C  C54  1  0.46414000  0.07048000  0.11170000  1.0
  C  C55  1  0.53586000  0.92952000  0.88829000  1.0
  C  C56  1  0.53332000  0.14448000  0.04162000  1.0
  C  C57  1  0.46667000  0.85553000  0.95838000  1.0
  C  C58  1  0.56801000  0.28283000  0.08200000  1.0
  C  C59  1  0.43200000  0.71718000  0.91801000  1.0
  C  C60  1  0.61589000  0.35091000  0.00366000  1.0
  C  C61  1  0.38411000  0.64909000  0.99634000  1.0
  C  C62  1  0.56967000  0.36663000  0.21076000  1.0
  C  C63  1  0.43035000  0.63338000  0.78925000  1.0
  O  O64  1  0.02379000  0.06185000  0.40064000  1.0
  O  O65  1  0.97622000  0.93814000  0.59935000  1.0
  O  O66  1  0.79138000  0.12055000  0.32637000  1.0
  O  O67  1  0.20862000  0.87944000  0.67363000  1.0
  O  O68  1  0.94610000  0.33697000  0.83703000  1.0
  O  O69  1  0.05390000  0.66305000  0.16298000  1.0
  O  O70  1  0.20236000  0.38103000  0.93976000  1.0
  O  O71  1  0.79764000  0.61898000  0.06026000  1.0
  O  O72  1  0.86816000  0.90389000  0.14755000  1.0
  O  O73  1  0.13183000  0.09612000  0.85245000  1.0
  O  O74  1  0.26959000  0.93124000  0.30010000  1.0
  O  O75  1  0.73041000  0.06875000  0.69990000  1.0
  O  O76  1  0.52470000  0.95214000  0.37534000  1.0
  O  O77  1  0.47529000  0.04784000  0.62466000  1.0
  O  O78  1  0.41412000  0.12984000  0.19570000  1.0
  O  O79  1  0.58588000  0.87017000  0.80429000  1.0
  O  O80  1  0.67018000  0.33903000  0.32039000  1.0
  O  O81  1  0.32982000  0.66097000  0.67962000  1.0
  O  O82  1  0.50145000  0.46309000  0.21921000  1.0
  O  O83  1  0.49859000  0.53691000  0.78079000  1.0
  O  O84  1  0.31897000  0.18918000  0.42543000  1.0
  O  O85  1  0.68103000  0.81083000  0.57457000  1.0
  O  O86  1  0.22737000  0.16347000  0.66982000  1.0
  O  O87  1  0.77264000  0.83653000  0.33018000  1.0
  O  O88  1  0.06966000  0.78039000  0.39412000  1.0
  O  O89  1  0.93034000  0.21960000  0.60588000  1.0
  O  O90  1  0.37038000  0.78121000  0.48986000  1.0
  O  O91  1  0.62962000  0.21878000  0.51014000  1.0
