# generated using pymatgen
data_CdH6C8O5
_symmetry_space_group_name_H-M   'P 1'
_cell_length_a   6.49589000
_cell_length_b   7.24954000
_cell_length_c   18.20250000
_cell_angle_alpha   89.99540000
_cell_angle_beta   89.92430000
_cell_angle_gamma   89.72460000
_symmetry_Int_Tables_number   1
_chemical_formula_structural   CdH6C8O5
_chemical_formula_sum   'Cd4 H24 C32 O20'
_cell_volume   857.18537974
_cell_formula_units_Z   4
loop_
 _symmetry_equiv_pos_site_id
 _symmetry_equiv_pos_as_xyz
  1  'x, y, z'
loop_
 _atom_site_type_symbol
 _atom_site_label
 _atom_site_symmetry_multiplicity
 _atom_site_fract_x
 _atom_site_fract_y
 _atom_site_fract_z
 _atom_site_occupancy
  Cd  Cd0  1  0.83458000  0.74951000  0.49983000  1.0
  Cd  Cd1  1  0.16557000  0.24859000  0.00003000  1.0
  Cd  Cd2  1  0.16546000  0.25056000  0.50017000  1.0
  Cd  Cd3  1  0.83429000  0.75132000  0.99997000  1.0
  H  H4  1  0.39500000  0.83830000  0.52461000  1.0
  H  H5  1  0.60503000  0.15921000  0.02372000  1.0
  H  H6  1  0.60360000  0.33516000  0.97360000  1.0
  H  H7  1  0.39606000  0.66232000  0.47444000  1.0
  H  H8  1  0.60494000  0.16166000  0.47565000  1.0
  H  H9  1  0.39487000  0.84085000  0.97637000  1.0
  H  H10  1  0.39627000  0.66489000  0.02648000  1.0
  H  H11  1  0.60403000  0.33762000  0.52581000  1.0
  H  H12  1  0.52816000  0.55951000  0.63174000  1.0
  H  H13  1  0.47376000  0.44032000  0.13158000  1.0
  H  H14  1  0.46766000  0.05955000  0.86820000  1.0
  H  H15  1  0.53074000  0.94037000  0.36838000  1.0
  H  H16  1  0.47229000  0.44059000  0.36812000  1.0
  H  H17  1  0.52602000  0.55966000  0.86827000  1.0
  H  H18  1  0.53236000  0.94047000  0.13174000  1.0
  H  H19  1  0.46899000  0.05973000  0.63156000  1.0
  H  H20  1  0.34883000  0.62244000  0.74987000  1.0
  H  H21  1  0.65132000  0.37757000  0.24992000  1.0
  H  H22  1  0.64564000  0.12292000  0.74995000  1.0
  H  H23  1  0.35424000  0.87713000  0.24996000  1.0
  H  H24  1  0.05816000  0.36008000  0.75042000  1.0
  H  H25  1  0.94194000  0.63987000  0.24961000  1.0
  H  H26  1  0.93968000  0.85933000  0.74968000  1.0
  H  H27  1  0.06026000  0.14058000  0.25033000  1.0
  C  C28  1  0.91073000  0.41485000  0.61290000  1.0
  C  C29  1  0.09154000  0.58484000  0.11225000  1.0
  C  C30  1  0.08680000  0.91390000  0.88704000  1.0
  C  C31  1  0.91128000  0.08578000  0.38762000  1.0
  C  C32  1  0.08972000  0.58518000  0.38709000  1.0
  C  C33  1  0.90824000  0.41517000  0.88774000  1.0
  C  C34  1  0.91328000  0.08608000  0.11296000  1.0
  C  C35  1  0.08848000  0.91420000  0.61238000  1.0
  C  C36  1  0.80430000  0.45552000  0.68360000  1.0
  C  C37  1  0.19689000  0.54440000  0.18311000  1.0
  C  C38  1  0.19264000  0.95503000  0.81638000  1.0
  C  C39  1  0.80646000  0.04486000  0.31683000  1.0
  C  C40  1  0.19600000  0.54453000  0.31635000  1.0
  C  C41  1  0.80310000  0.45562000  0.81685000  1.0
  C  C42  1  0.80738000  0.04491000  0.18361000  1.0
  C  C43  1  0.19341000  0.95514000  0.68315000  1.0
  C  C44  1  0.60397000  0.52917000  0.68375000  1.0
  C  C45  1  0.39715000  0.47068000  0.18351000  1.0
  C  C46  1  0.39203000  0.02904000  0.81620000  1.0
  C  C47  1  0.60706000  0.97084000  0.31645000  1.0
  C  C48  1  0.39631000  0.47090000  0.31613000  1.0
  C  C49  1  0.60283000  0.52934000  0.81637000  1.0
  C  C50  1  0.60793000  0.97095000  0.18376000  1.0
  C  C51  1  0.39275000  0.02921000  0.68351000  1.0
  C  C52  1  0.50401000  0.56508000  0.75000000  1.0
  C  C53  1  0.49613000  0.43496000  0.24985000  1.0
  C  C54  1  0.49123000  0.06517000  0.74988000  1.0
  C  C55  1  0.50867000  0.93486000  0.25006000  1.0
  C  C56  1  0.90333000  0.41834000  0.75030000  1.0
  C  C57  1  0.09677000  0.58166000  0.24968000  1.0
  C  C58  1  0.09380000  0.91777000  0.74973000  1.0
  C  C59  1  0.90612000  0.08218000  0.25027000  1.0
  O  O60  1  0.81708000  0.44618000  0.55166000  1.0
  O  O61  1  0.18557000  0.55167000  0.05116000  1.0
  O  O62  1  0.18013000  0.94433000  0.94831000  1.0
  O  O63  1  0.81751000  0.05351000  0.44874000  1.0
  O  O64  1  0.18345000  0.55375000  0.44829000  1.0
  O  O65  1  0.81411000  0.44837000  0.94879000  1.0
  O  O66  1  0.81999000  0.05570000  0.05167000  1.0
  O  O67  1  0.18210000  0.94646000  0.55123000  1.0
  O  O68  1  0.09161000  0.34662000  0.61453000  1.0
  O  O69  1  0.91135000  0.65455000  0.11377000  1.0
  O  O70  1  0.90641000  0.84604000  0.88542000  1.0
  O  O71  1  0.09100000  0.15507000  0.38611000  1.0
  O  O72  1  0.90883000  0.65347000  0.38550000  1.0
  O  O73  1  0.08846000  0.34543000  0.88627000  1.0
  O  O74  1  0.09366000  0.15394000  0.11462000  1.0
  O  O75  1  0.90877000  0.84490000  0.61393000  1.0
  O  O76  1  0.48999000  0.75062000  0.49931000  1.0
  O  O77  1  0.51017000  0.24265000  0.99631000  1.0
  O  O78  1  0.51003000  0.24895000  0.50118000  1.0
  O  O79  1  0.48971000  0.75755000  0.00386000  1.0
