# generated using pymatgen
data_K2Zn3H26C18(NO14)2
_symmetry_space_group_name_H-M   'P 1'
_cell_length_a   8.17814000
_cell_length_b   9.84007000
_cell_length_c   10.65670000
_cell_angle_alpha   104.98900000
_cell_angle_beta   94.25750000
_cell_angle_gamma   102.28600000
_symmetry_Int_Tables_number   1
_chemical_formula_structural   K2Zn3H26C18(NO14)2
_chemical_formula_sum   'K2 Zn3 H26 C18 N2 O28'
_cell_volume   801.80233855
_cell_formula_units_Z   1
loop_
 _symmetry_equiv_pos_site_id
 _symmetry_equiv_pos_as_xyz
  1  'x, y, z'
loop_
 _atom_site_type_symbol
 _atom_site_label
 _atom_site_symmetry_multiplicity
 _atom_site_fract_x
 _atom_site_fract_y
 _atom_site_fract_z
 _atom_site_occupancy
  K  K0  1  0.09303000  0.19760000  0.97125000  1.0
  K  K1  1  0.90698000  0.80240000  0.02875000  1.0
  Zn  Zn2  1  0.86692000  0.71474000  0.64943000  1.0
  Zn  Zn3  1  0.13308000  0.28525000  0.35057000  1.0
  Zn  Zn4  1  0.50000000  0.50000000  0.00000000  1.0
  H  H5  1  0.79548000  0.43886000  0.96226000  1.0
  H  H6  1  0.20452000  0.56114000  0.03774000  1.0
  H  H7  1  0.79663000  0.50776000  0.11626000  1.0
  H  H8  1  0.20337000  0.49224000  0.88374000  1.0
  H  H9  1  0.51382000  0.77984000  0.12395000  1.0
  H  H10  1  0.48618000  0.22016000  0.87604000  1.0
  H  H11  1  0.49229000  0.76404000  0.97138000  1.0
  H  H12  1  0.50771000  0.23596000  0.02862000  1.0
  H  H13  1  0.72274000  0.06230000  0.99379000  1.0
  H  H14  1  0.27726000  0.93769000  0.00621000  1.0
  H  H15  1  0.72468000  0.97169000  0.84675000  1.0
  H  H16  1  0.27533000  0.02831000  0.15325000  1.0
  H  H17  1  0.57884000  0.10174000  0.37637000  1.0
  H  H18  1  0.42116000  0.89826000  0.62363000  1.0
  H  H19  1  0.90585000  0.98019000  0.67035000  1.0
  H  H20  1  0.09415000  0.01981000  0.32965000  1.0
  H  H21  1  0.73549000  0.89304000  0.57030000  1.0
  H  H22  1  0.26451000  0.10696000  0.42970000  1.0
  H  H23  1  0.03819000  0.18082000  0.64340000  1.0
  H  H24  1  0.96181000  0.81918000  0.35660000  1.0
  H  H25  1  0.16815000  0.08940000  0.65436000  1.0
  H  H26  1  0.83185000  0.91060000  0.34563000  1.0
  H  H27  1  0.75577000  0.25922000  0.79933000  1.0
  H  H28  1  0.24423000  0.74078000  0.20067000  1.0
  H  H29  1  0.93054000  0.37511000  0.80737000  1.0
  H  H30  1  0.06946000  0.62489000  0.19263000  1.0
  C  C31  1  0.89554000  0.56169000  0.37158000  1.0
  C  C32  1  0.10447000  0.43831000  0.62843000  1.0
  C  C33  1  0.78427000  0.45241000  0.42428000  1.0
  C  C34  1  0.21573000  0.54759000  0.57572000  1.0
  C  C35  1  0.72533000  0.30431000  0.35938000  1.0
  C  C36  1  0.27467000  0.69569000  0.64062000  1.0
  C  C37  1  0.77188000  0.23147000  0.22827000  1.0
  C  C38  1  0.22812000  0.76853000  0.77173000  1.0
  C  C39  1  0.62528000  0.21764000  0.42401000  1.0
  C  C40  1  0.37472000  0.78236000  0.57599000  1.0
  C  C41  1  0.58901000  0.27660000  0.55033000  1.0
  C  C42  1  0.41099000  0.72340000  0.44967000  1.0
  C  C43  1  0.49288000  0.17610000  0.62072000  1.0
  C  C44  1  0.50712000  0.82390000  0.37928000  1.0
  C  C45  1  0.65030000  0.42664000  0.60713000  1.0
  C  C46  1  0.34970000  0.57336000  0.39287000  1.0
  C  C47  1  0.62017000  0.51374000  0.73945000  1.0
  C  C48  1  0.37983000  0.48626000  0.26055000  1.0
  N  N49  1  0.74517000  0.50762000  0.54350000  1.0
  N  N50  1  0.25483000  0.49238000  0.45650000  1.0
  O  O51  1  0.95193000  0.68920000  0.44888000  1.0
  O  O52  1  0.04807000  0.31080000  0.55113000  1.0
  O  O53  1  0.92671000  0.51857000  0.25564000  1.0
  O  O54  1  0.07329000  0.48144000  0.74437000  1.0
  O  O55  1  0.92076000  0.20870000  0.22661000  1.0
  O  O56  1  0.07924000  0.79130000  0.77339000  1.0
  O  O57  1  0.65956000  0.18640000  0.13058000  1.0
  O  O58  1  0.34043000  0.81360000  0.86942000  1.0
  O  O59  1  0.34372000  0.10669000  0.56763000  1.0
  O  O60  1  0.65628000  0.89330000  0.43237000  1.0
  O  O61  1  0.56722000  0.16008000  0.72219000  1.0
  O  O62  1  0.43278000  0.83992000  0.27781000  1.0
  O  O63  1  0.50368000  0.45350000  0.79284000  1.0
  O  O64  1  0.49632000  0.54649000  0.20716000  1.0
  O  O65  1  0.71376000  0.64129000  0.78416000  1.0
  O  O66  1  0.28624000  0.35871000  0.21584000  1.0
  O  O67  1  0.80015000  0.89812000  0.65725000  1.0
  O  O68  1  0.19985000  0.10188000  0.34275000  1.0
  O  O69  1  0.75606000  0.51597000  0.02949000  1.0
  O  O70  1  0.24394000  0.48403000  0.97051000  1.0
  O  O71  1  0.55262000  0.73571000  0.04064000  1.0
  O  O72  1  0.44738000  0.26429000  0.95936000  1.0
  O  O73  1  0.06436000  0.11051000  0.68921000  1.0
  O  O74  1  0.93564000  0.88949000  0.31079000  1.0
  O  O75  1  0.85727000  0.32433000  0.86003000  1.0
  O  O76  1  0.14274000  0.67567000  0.13997000  1.0
  O  O77  1  0.78398000  0.00116000  0.93593000  1.0
  O  O78  1  0.21602000  0.99884000  0.06407000  1.0
