# generated using pymatgen
data_SmH8C6NO7
_symmetry_space_group_name_H-M   'P 1'
_cell_length_a   6.67124000
_cell_length_b   6.86945000
_cell_length_c   19.70550000
_cell_angle_alpha   93.27790000
_cell_angle_beta   90.00000000
_cell_angle_gamma   89.99970000
_symmetry_Int_Tables_number   1
_chemical_formula_structural   SmH8C6NO7
_chemical_formula_sum   'Sm4 H32 C24 N4 O28'
_cell_volume   901.58126709
_cell_formula_units_Z   4
loop_
 _symmetry_equiv_pos_site_id
 _symmetry_equiv_pos_as_xyz
  1  'x, y, z'
loop_
 _atom_site_type_symbol
 _atom_site_label
 _atom_site_symmetry_multiplicity
 _atom_site_fract_x
 _atom_site_fract_y
 _atom_site_fract_z
 _atom_site_occupancy
  Sm  Sm0  1  0.75813000  0.22769000  0.60130000  1.0
  Sm  Sm1  1  0.25814000  0.27232000  0.89870000  1.0
  Sm  Sm2  1  0.24186000  0.77232000  0.39870000  1.0
  Sm  Sm3  1  0.74186000  0.72767000  0.10130000  1.0
  H  H4  1  0.70871000  0.69458000  0.70691000  1.0
  H  H5  1  0.20872000  0.80544000  0.79309000  1.0
  H  H6  1  0.29130000  0.30542000  0.29310000  1.0
  H  H7  1  0.79128000  0.19457000  0.20691000  1.0
  H  H8  1  0.50939000  0.80894000  0.66581000  1.0
  H  H9  1  0.00940000  0.69107000  0.83418000  1.0
  H  H10  1  0.49062000  0.19106000  0.33419000  1.0
  H  H11  1  0.99060000  0.30892000  0.16582000  1.0
  H  H12  1  0.30523000  0.49487000  0.74208000  1.0
  H  H13  1  0.80522000  0.00514000  0.75792000  1.0
  H  H14  1  0.69477000  0.50513000  0.25792000  1.0
  H  H15  1  0.19478000  0.99486000  0.24208000  1.0
  H  H16  1  0.56211000  0.50626000  0.76435000  1.0
  H  H17  1  0.06210000  0.99375000  0.73565000  1.0
  H  H18  1  0.43789000  0.49374000  0.23565000  1.0
  H  H19  1  0.93790000  0.00625000  0.26435000  1.0
  H  H20  1  0.36571000  0.58611000  0.57041000  1.0
  H  H21  1  0.86573000  0.91389000  0.92959000  1.0
  H  H22  1  0.63429000  0.41390000  0.42960000  1.0
  H  H23  1  0.13427000  0.08610000  0.07040000  1.0
  H  H24  1  0.20275000  0.55892000  0.64011000  1.0
  H  H25  1  0.70276000  0.94108000  0.85989000  1.0
  H  H26  1  0.79725000  0.44109000  0.35989000  1.0
  H  H27  1  0.29724000  0.05891000  0.14011000  1.0
  H  H28  1  0.72004000  0.03178000  0.46466000  1.0
  H  H29  1  0.22005000  0.46822000  0.03534000  1.0
  H  H30  1  0.27995000  0.96823000  0.53534000  1.0
  H  H31  1  0.77995000  0.53178000  0.96466000  1.0
  H  H32  1  0.92637000  0.14483000  0.45817000  1.0
  H  H33  1  0.42638000  0.35517000  0.04183000  1.0
  H  H34  1  0.07363000  0.85517000  0.54183000  1.0
  H  H35  1  0.57362000  0.64483000  0.95817000  1.0
  C  C36  1  0.75707000  0.70669000  0.60198000  1.0
  C  C37  1  0.25707000  0.79331000  0.89801000  1.0
  C  C38  1  0.24293000  0.29331000  0.39802000  1.0
  C  C39  1  0.74293000  0.20668000  0.10198000  1.0
  C  C40  1  0.61347000  0.68484000  0.66122000  1.0
  C  C41  1  0.11348000  0.81516000  0.83878000  1.0
  C  C42  1  0.38654000  0.31516000  0.33878000  1.0
  C  C43  1  0.88652000  0.18483000  0.16122000  1.0
  C  C44  1  0.45535000  0.44049000  0.72724000  1.0
  C  C45  1  0.95535000  0.05952000  0.77275000  1.0
  C  C46  1  0.54465000  0.55951000  0.27276000  1.0
  C  C47  1  0.04465000  0.94048000  0.22725000  1.0
  C  C48  1  0.46346000  0.22170000  0.73607000  1.0
  C  C49  1  0.96343000  0.27829000  0.76392000  1.0
  C  C50  1  0.53656000  0.77829000  0.26392000  1.0
  C  C51  1  0.03655000  0.72170000  0.23607000  1.0
  C  C52  1  0.33425000  0.49539000  0.61333000  1.0
  C  C53  1  0.83426000  0.00462000  0.88667000  1.0
  C  C54  1  0.66576000  0.50462000  0.38667000  1.0
  C  C55  1  0.16574000  0.99538000  0.11333000  1.0
  C  C56  1  0.28315000  0.29294000  0.58253000  1.0
  C  C57  1  0.78316000  0.20706000  0.91747000  1.0
  C  C58  1  0.71684000  0.70706000  0.41747000  1.0
  C  C59  1  0.21685000  0.79293000  0.08253000  1.0
  N  N60  1  0.51178000  0.49417000  0.65847000  1.0
  N  N61  1  0.01179000  0.00584000  0.84153000  1.0
  N  N62  1  0.48822000  0.50583000  0.34153000  1.0
  N  N63  1  0.98821000  0.99416000  0.15847000  1.0
  O  O64  1  0.42627000  0.19232000  0.55495000  1.0
  O  O65  1  0.92628000  0.30769000  0.94506000  1.0
  O  O66  1  0.57373000  0.80769000  0.44505000  1.0
  O  O67  1  0.07372000  0.69231000  0.05495000  1.0
  O  O68  1  0.10575000  0.23160000  0.58401000  1.0
  O  O69  1  0.60575000  0.26840000  0.91598000  1.0
  O  O70  1  0.89425000  0.76842000  0.41598000  1.0
  O  O71  1  0.39424000  0.73159000  0.08402000  1.0
  O  O72  1  0.53839000  0.11273000  0.68858000  1.0
  O  O73  1  0.03838000  0.38728000  0.81142000  1.0
  O  O74  1  0.46160000  0.88728000  0.31142000  1.0
  O  O75  1  0.96162000  0.61272000  0.18858000  1.0
  O  O76  1  0.40055000  0.16061000  0.79174000  1.0
  O  O77  1  0.90056000  0.33941000  0.70827000  1.0
  O  O78  1  0.59944000  0.83939000  0.20827000  1.0
  O  O79  1  0.09945000  0.66060000  0.29174000  1.0
  O  O80  1  0.83045000  0.87582000  0.59387000  1.0
  O  O81  1  0.33046000  0.62418000  0.90613000  1.0
  O  O82  1  0.16955000  0.12419000  0.40613000  1.0
  O  O83  1  0.66955000  0.37581000  0.09387000  1.0
  O  O84  1  0.80496000  0.55484000  0.56617000  1.0
  O  O85  1  0.30496000  0.94516000  0.93383000  1.0
  O  O86  1  0.19503000  0.44516000  0.43383000  1.0
  O  O87  1  0.69504000  0.05484000  0.06617000  1.0
  O  O88  1  0.79166000  0.15371000  0.47935000  1.0
  O  O89  1  0.29167000  0.34628000  0.02065000  1.0
  O  O90  1  0.20833000  0.84629000  0.52065000  1.0
  O  O91  1  0.70833000  0.65371000  0.97935000  1.0
