# generated using pymatgen
data_CuH18C22(NO)4
_symmetry_space_group_name_H-M   'P 1'
_cell_length_a   13.46460000
_cell_length_b   14.52830000
_cell_length_c   15.29092783
_cell_angle_alpha   113.90064387
_cell_angle_beta   116.12144852
_cell_angle_gamma   90.00880000
_symmetry_Int_Tables_number   1
_chemical_formula_structural   CuH18C22(NO)4
_chemical_formula_sum   'Cu4 H72 C88 N16 O16'
_cell_volume   2396.59318109
_cell_formula_units_Z   4
loop_
 _symmetry_equiv_pos_site_id
 _symmetry_equiv_pos_as_xyz
  1  'x, y, z'
loop_
 _atom_site_type_symbol
 _atom_site_label
 _atom_site_symmetry_multiplicity
 _atom_site_fract_x
 _atom_site_fract_y
 _atom_site_fract_z
 _atom_site_occupancy
  Cu  Cu0  1  0.93488000  0.84284000  0.38173000  1.0
  Cu  Cu1  1  0.55315000  0.65716000  0.61829000  1.0
  Cu  Cu2  1  0.06513000  0.15716000  0.61827000  1.0
  Cu  Cu3  1  0.44686000  0.34284000  0.38171000  1.0
  H  H4  1  0.83899000  0.16738000  0.73677000  1.0
  H  H5  1  0.10201000  0.33265000  0.26315000  1.0
  H  H6  1  0.16101000  0.83261000  0.26322000  1.0
  H  H7  1  0.89799000  0.66735000  0.73685000  1.0
  H  H8  1  0.68238000  0.15543000  0.78023000  1.0
  H  H9  1  0.90197000  0.34461000  0.21973000  1.0
  H  H10  1  0.31762000  0.84456000  0.21976000  1.0
  H  H11  1  0.09803000  0.65539000  0.78027000  1.0
  H  H12  1  0.52103000  0.85917000  0.50016000  1.0
  H  H13  1  0.02097000  0.64085000  0.49987000  1.0
  H  H14  1  0.47898000  0.14082000  0.49984000  1.0
  H  H15  1  0.97903000  0.35915000  0.50013000  1.0
  H  H16  1  0.67950000  0.87076000  0.45863000  1.0
  H  H17  1  0.22095000  0.62920000  0.54137000  1.0
  H  H18  1  0.32049000  0.12923000  0.54136000  1.0
  H  H19  1  0.77905000  0.37080000  0.45863000  1.0
  H  H20  1  0.61090000  0.02260000  0.83802000  1.0
  H  H21  1  0.77287000  0.47752000  0.16209000  1.0
  H  H22  1  0.38911000  0.97743000  0.16199000  1.0
  H  H23  1  0.22713000  0.52245000  0.83790000  1.0
  H  H24  1  0.46794000  0.96354000  0.78456000  1.0
  H  H25  1  0.68336000  0.53654000  0.21556000  1.0
  H  H26  1  0.53209000  0.03648000  0.21546000  1.0
  H  H27  1  0.31663000  0.46344000  0.78442000  1.0
  H  H28  1  0.42374000  0.93960000  0.59843000  1.0
  H  H29  1  0.82535000  0.56049000  0.40169000  1.0
  H  H30  1  0.57628000  0.06039000  0.40158000  1.0
  H  H31  1  0.17465000  0.43953000  0.59830000  1.0
  H  H32  1  0.47334000  0.07086000  0.69586000  1.0
  H  H33  1  0.77751000  0.42920000  0.30424000  1.0
  H  H34  1  0.52667000  0.92913000  0.30414000  1.0
  H  H35  1  0.22250000  0.57081000  0.69578000  1.0
  H  H36  1  0.17775000  0.82745000  0.48292000  1.0
  H  H37  1  0.69482000  0.67260000  0.51718000  1.0
  H  H38  1  0.82225000  0.17257000  0.51710000  1.0
  H  H39  1  0.30518000  0.32738000  0.48281000  1.0
  H  H40  1  0.31939000  0.82917000  0.65757000  1.0
  H  H41  1  0.66173000  0.67082000  0.34247000  1.0
  H  H42  1  0.68061000  0.17084000  0.34245000  1.0
  H  H43  1  0.33827000  0.32917000  0.65752000  1.0
  H  H44  1  0.05318000  0.84980000  0.74706000  1.0
  H  H45  1  0.30606000  0.65025000  0.25301000  1.0
  H  H46  1  0.94680000  0.15020000  0.25294000  1.0
  H  H47  1  0.69394000  0.34975000  0.74700000  1.0
  H  H48  1  0.92266000  0.84476000  0.56651000  1.0
  H  H49  1  0.35605000  0.65519000  0.43354000  1.0
  H  H50  1  0.07734000  0.15524000  0.43349000  1.0
  H  H51  1  0.64393000  0.34480000  0.56645000  1.0
  H  H52  1  0.92666000  0.87113000  0.19752000  1.0
  H  H53  1  0.72910000  0.62886000  0.80244000  1.0
  H  H54  1  0.07333000  0.12887000  0.80247000  1.0
  H  H55  1  0.27090000  0.37114000  0.19756000  1.0
  H  H56  1  0.77747000  0.88583000  0.03277000  1.0
  H  H57  1  0.74461000  0.61416000  0.96719000  1.0
  H  H58  1  0.22253000  0.11417000  0.96723000  1.0
  H  H59  1  0.25539000  0.38584000  0.03282000  1.0
  H  H60  1  0.53798000  0.86201000  0.14286000  1.0
  H  H61  1  0.39505000  0.63799000  0.85704000  1.0
  H  H62  1  0.46203000  0.13799000  0.85715000  1.0
  H  H63  1  0.60494000  0.36201000  0.14295000  1.0
  H  H64  1  0.69835000  0.85299000  0.30504000  1.0
  H  H65  1  0.39326000  0.64702000  0.69490000  1.0
  H  H66  1  0.30166000  0.14701000  0.69497000  1.0
  H  H67  1  0.60674000  0.35298000  0.30509000  1.0
  H  H68  1  0.58417000  0.88420000  0.92188000  1.0
  H  H69  1  0.66224000  0.61586000  0.07814000  1.0
  H  H70  1  0.41582000  0.11581000  0.07812000  1.0
  H  H71  1  0.33776000  0.38414000  0.92186000  1.0
  H  H72  1  0.24699000  0.84507000  0.87837000  1.0
  H  H73  1  0.36857000  0.65496000  0.12169000  1.0
  H  H74  1  0.75300000  0.15492000  0.12164000  1.0
  H  H75  1  0.63142000  0.34504000  0.87831000  1.0
  C  C76  1  0.86120000  0.02404000  0.56652000  1.0
  C  C77  1  0.29460000  0.47583000  0.43334000  1.0
  C  C78  1  0.13880000  0.97595000  0.43347000  1.0
  C  C79  1  0.70540000  0.52417000  0.56666000  1.0
  C  C80  1  0.76881000  0.01908000  0.59519000  1.0
  C  C81  1  0.17354000  0.48087000  0.40474000  1.0
  C  C82  1  0.23119000  0.98092000  0.40480000  1.0
  C  C83  1  0.82646000  0.51913000  0.59526000  1.0
  C  C84  1  0.76927000  0.09971000  0.68583000  1.0
  C  C85  1  0.08324000  0.40035000  0.31404000  1.0
  C  C86  1  0.23073000  0.90028000  0.31416000  1.0
  C  C87  1  0.91676000  0.59965000  0.68596000  1.0
  C  C88  1  0.68147000  0.09260000  0.70930000  1.0
  C  C89  1  0.97200000  0.40748000  0.29062000  1.0
  C  C90  1  0.31853000  0.90740000  0.29069000  1.0
  C  C91  1  0.02800000  0.59252000  0.70938000  1.0
  C  C92  1  0.59144000  0.00574000  0.64338000  1.0
  C  C93  1  0.94804000  0.49433000  0.35665000  1.0
  C  C94  1  0.40857000  0.99425000  0.35662000  1.0
  C  C95  1  0.05196000  0.50567000  0.64335000  1.0
  C  C96  1  0.59152000  0.92609000  0.55275000  1.0
  C  C97  1  0.03884000  0.57394000  0.44725000  1.0
  C  C98  1  0.40848000  0.07390000  0.44725000  1.0
  C  C99  1  0.96117000  0.42606000  0.55276000  1.0
  C  C100  1  0.67906000  0.93248000  0.52901000  1.0
  C  C101  1  0.15010000  0.56750000  0.47098000  1.0
  C  C102  1  0.32093000  0.06752000  0.47098000  1.0
  C  C103  1  0.84990000  0.43250000  0.52902000  1.0
  C  C104  1  0.56711000  0.85999000  0.73716000  1.0
  C  C105  1  0.82998000  0.64006000  0.26301000  1.0
  C  C106  1  0.43292000  0.14002000  0.26288000  1.0
  C  C107  1  0.17001000  0.35992000  0.73696000  1.0
  C  C108  1  0.53661000  0.96566000  0.76435000  1.0
  C  C109  1  0.77225000  0.53441000  0.23578000  1.0
  C  C110  1  0.46340000  0.03435000  0.23566000  1.0
  C  C111  1  0.22775000  0.46557000  0.76421000  1.0
  C  C112  1  0.49887000  0.99646000  0.67117000  1.0
  C  C113  1  0.82773000  0.50362000  0.32895000  1.0
  C  C114  1  0.50113000  0.00354000  0.32883000  1.0
  C  C115  1  0.17227000  0.49638000  0.67105000  1.0
  C  C116  1  0.15481000  0.83435000  0.54494000  1.0
  C  C117  1  0.60985000  0.66573000  0.45518000  1.0
  C  C118  1  0.84519000  0.16566000  0.45508000  1.0
  C  C119  1  0.39014000  0.33425000  0.54481000  1.0
  C  C120  1  0.23321000  0.83609000  0.64240000  1.0
  C  C121  1  0.59075000  0.66398000  0.35771000  1.0
  C  C122  1  0.76679000  0.16392000  0.35762000  1.0
  C  C123  1  0.40924000  0.33601000  0.64228000  1.0
  C  C124  1  0.19886000  0.84426000  0.71933000  1.0
  C  C125  1  0.47945000  0.65586000  0.28081000  1.0
  C  C126  1  0.80113000  0.15574000  0.28068000  1.0
  C  C127  1  0.52054000  0.34415000  0.71919000  1.0
  C  C128  1  0.08482000  0.84586000  0.69138000  1.0
  C  C129  1  0.39337000  0.65425000  0.30875000  1.0
  C  C130  1  0.91517000  0.15414000  0.30863000  1.0
  C  C131  1  0.60663000  0.34575000  0.69125000  1.0
  C  C132  1  0.01172000  0.84366000  0.59174000  1.0
  C  C133  1  0.41990000  0.65640000  0.40836000  1.0
  C  C134  1  0.98828000  0.15635000  0.40827000  1.0
  C  C135  1  0.58009000  0.34360000  0.59164000  1.0
  C  C136  1  0.83963000  0.87125000  0.18210000  1.0
  C  C137  1  0.65748000  0.62873000  0.81785000  1.0
  C  C138  1  0.16038000  0.12875000  0.81790000  1.0
  C  C139  1  0.34252000  0.37127000  0.18215000  1.0
  C  C140  1  0.75721000  0.87973000  0.09221000  1.0
  C  C141  1  0.66489000  0.62022000  0.90773000  1.0
  C  C142  1  0.24278000  0.12027000  0.90778000  1.0
  C  C143  1  0.33512000  0.37979000  0.09228000  1.0
  C  C144  1  0.64628000  0.87710000  0.07687000  1.0
  C  C145  1  0.56930000  0.62283000  0.92309000  1.0
  C  C146  1  0.35372000  0.12290000  0.92313000  1.0
  C  C147  1  0.43069000  0.37717000  0.07691000  1.0
  C  C148  1  0.62372000  0.86708000  0.15416000  1.0
  C  C149  1  0.46949000  0.63284000  0.84573000  1.0
  C  C150  1  0.37629000  0.13292000  0.84585000  1.0
  C  C151  1  0.53051000  0.36716000  0.15427000  1.0
  C  C152  1  0.71095000  0.86047000  0.24245000  1.0
  C  C153  1  0.46843000  0.63948000  0.75745000  1.0
  C  C154  1  0.28906000  0.13953000  0.75755000  1.0
  C  C155  1  0.53157000  0.36052000  0.24255000  1.0
  C  C156  1  0.55866000  0.87894000  0.97904000  1.0
  C  C157  1  0.57953000  0.62107000  0.02099000  1.0
  C  C158  1  0.44133000  0.12106000  0.02096000  1.0
  C  C159  1  0.42047000  0.37893000  0.97901000  1.0
  C  C160  1  0.27872000  0.85118000  0.82531000  1.0
  C  C161  1  0.45336000  0.64888000  0.17479000  1.0
  C  C162  1  0.72127000  0.14882000  0.17470000  1.0
  C  C163  1  0.54663000  0.35112000  0.82520000  1.0
  N  N164  1  0.04672000  0.84030000  0.52072000  1.0
  N  N165  1  0.52595000  0.65974000  0.47937000  1.0
  N  N166  1  0.95329000  0.15971000  0.47930000  1.0
  N  N167  1  0.47404000  0.34025000  0.52062000  1.0
  N  N168  1  0.81693000  0.86228000  0.25600000  1.0
  N  N169  1  0.56088000  0.63769000  0.74392000  1.0
  N  N170  1  0.18308000  0.13773000  0.74400000  1.0
  N  N171  1  0.43913000  0.36231000  0.25608000  1.0
  N  N172  1  0.45337000  0.86994000  0.95704000  1.0
  N  N173  1  0.49626000  0.63006000  0.04302000  1.0
  N  N174  1  0.54662000  0.13006000  0.04296000  1.0
  N  N175  1  0.50373000  0.36995000  0.95697000  1.0
  N  N176  1  0.38586000  0.86601000  0.85587000  1.0
  N  N177  1  0.52994000  0.63403000  0.14424000  1.0
  N  N178  1  0.61413000  0.13399000  0.14414000  1.0
  N  N179  1  0.47005000  0.36597000  0.85576000  1.0
  O  O180  1  0.94511000  0.10245000  0.63662000  1.0
  O  O181  1  0.30834000  0.39741000  0.36321000  1.0
  O  O182  1  0.05489000  0.89754000  0.36337000  1.0
  O  O183  1  0.69166000  0.60259000  0.63679000  1.0
  O  O184  1  0.85117000  0.95495000  0.47867000  1.0
  O  O185  1  0.37247000  0.54492000  0.52118000  1.0
  O  O186  1  0.14882000  0.04505000  0.52132000  1.0
  O  O187  1  0.62753000  0.45508000  0.47882000  1.0
  O  O188  1  0.48661000  0.78346000  0.65082000  1.0
  O  O189  1  0.83576000  0.71663000  0.34928000  1.0
  O  O190  1  0.51343000  0.21656000  0.34918000  1.0
  O  O191  1  0.16428000  0.28336000  0.65072000  1.0
  O  O192  1  0.66252000  0.85095000  0.79641000  1.0
  O  O193  1  0.86619000  0.64905000  0.20378000  1.0
  O  O194  1  0.33748000  0.14906000  0.20366000  1.0
  O  O195  1  0.13370000  0.35093000  0.79613000  1.0
