# generated using pymatgen
data_ZnH14C18N4(O2F3)2
_symmetry_space_group_name_H-M   'P 1'
_cell_length_a   9.76162000
_cell_length_b   11.26460000
_cell_length_c   11.58620000
_cell_angle_alpha   98.84200000
_cell_angle_beta   108.02900000
_cell_angle_gamma   112.86800000
_symmetry_Int_Tables_number   1
_chemical_formula_structural   ZnH14C18N4(O2F3)2
_chemical_formula_sum   'Zn2 H28 C36 N8 O8 F12'
_cell_volume   1060.27234776
_cell_formula_units_Z   2
loop_
 _symmetry_equiv_pos_site_id
 _symmetry_equiv_pos_as_xyz
  1  'x, y, z'
loop_
 _atom_site_type_symbol
 _atom_site_label
 _atom_site_symmetry_multiplicity
 _atom_site_fract_x
 _atom_site_fract_y
 _atom_site_fract_z
 _atom_site_occupancy
  Zn  Zn0  1  0.15802000  0.16630000  0.37622000  1.0
  Zn  Zn1  1  0.84198000  0.83370000  0.62378000  1.0
  H  H2  1  0.38197000  0.21946000  0.21244000  1.0
  H  H3  1  0.61803000  0.78054000  0.78755000  1.0
  H  H4  1  0.43244000  0.61811000  0.29142000  1.0
  H  H5  1  0.56756000  0.38189000  0.70858000  1.0
  H  H6  1  0.24263000  0.47063000  0.40591000  1.0
  H  H7  1  0.75737000  0.52937000  0.59409000  1.0
  H  H8  1  0.65079000  0.56048000  0.22419000  1.0
  H  H9  1  0.34921000  0.43953000  0.77581000  1.0
  H  H10  1  0.47077000  0.49759000  0.08229000  1.0
  H  H11  1  0.52923000  0.50241000  0.91771000  1.0
  H  H12  1  0.34302000  0.24905000  0.94424000  1.0
  H  H13  1  0.65698000  0.75095000  0.05576000  1.0
  H  H14  1  0.68413000  0.09332000  0.95822000  1.0
  H  H15  1  0.31587000  0.90668000  0.04178000  1.0
  H  H16  1  0.81699000  0.45183000  0.25416000  1.0
  H  H17  1  0.18301000  0.54817000  0.74584000  1.0
  H  H18  1  0.59857000  0.09349000  0.69979000  1.0
  H  H19  1  0.40143000  0.90651000  0.30021000  1.0
  H  H20  1  0.49475000  0.15982000  0.47694000  1.0
  H  H21  1  0.50525000  0.84018000  0.52306000  1.0
  H  H22  1  0.15342000  0.10204000  0.64314000  1.0
  H  H23  1  0.84658000  0.89796000  0.35687000  1.0
  H  H24  1  0.25302000  0.01265000  0.81247000  1.0
  H  H25  1  0.74698000  0.98735000  0.18753000  1.0
  H  H26  1  0.39938000  0.95822000  0.80841000  1.0
  H  H27  1  0.60062000  0.04178000  0.19159000  1.0
  H  H28  1  0.88761000  0.28026000  0.16047000  1.0
  H  H29  1  0.11239000  0.71974000  0.83953000  1.0
  C  C30  1  0.37018000  0.30741000  0.25006000  1.0
  C  C31  1  0.62982000  0.69259000  0.74994000  1.0
  C  C32  1  0.44057000  0.13981000  0.54497000  1.0
  C  C33  1  0.55943000  0.86019000  0.45503000  1.0
  C  C34  1  0.50020000  0.15856000  0.93971000  1.0
  C  C35  1  0.49980000  0.84144000  0.06029000  1.0
  C  C36  1  0.01331000  0.28761000  0.49570000  1.0
  C  C37  1  0.98668000  0.71238000  0.50430000  1.0
  C  C38  1  0.76792000  0.27324000  0.11335000  1.0
  C  C39  1  0.23208000  0.72676000  0.88665000  1.0
  C  C40  1  0.46252000  0.25597000  0.99227000  1.0
  C  C41  1  0.53748000  0.74403000  0.00773000  1.0
  C  C42  1  0.25947000  0.11063000  0.62595000  1.0
  C  C43  1  0.74053000  0.88937000  0.37405000  1.0
  C  C44  1  0.86292000  0.28148000  0.52050000  1.0
  C  C45  1  0.13708000  0.71852000  0.47950000  1.0
  C  C46  1  0.09891000  0.93105000  0.20522000  1.0
  C  C47  1  0.90109000  0.06895000  0.79478000  1.0
  C  C48  1  0.65391000  0.16798000  0.00066000  1.0
  C  C49  1  0.34609000  0.83202000  0.99934000  1.0
  C  C50  1  0.37654000  0.04640000  0.81699000  1.0
  C  C51  1  0.62346000  0.95360000  0.18301000  1.0
  C  C52  1  0.49317000  0.10739000  0.65412000  1.0
  C  C53  1  0.50682000  0.89261000  0.34588000  1.0
  C  C54  1  0.57642000  0.36200000  0.10512000  1.0
  C  C55  1  0.42358000  0.63800000  0.89487000  1.0
  C  C56  1  0.72945000  0.36973000  0.16581000  1.0
  C  C57  1  0.27055000  0.63028000  0.83419000  1.0
  C  C58  1  0.53787000  0.46956000  0.15920000  1.0
  C  C59  1  0.46212000  0.53044000  0.84080000  1.0
  C  C60  1  0.99992000  0.77809000  0.12343000  1.0
  C  C61  1  0.00008000  0.22191000  0.87657000  1.0
  C  C62  1  0.29854000  0.44081000  0.34748000  1.0
  C  C63  1  0.70146000  0.55919000  0.65252000  1.0
  C  C64  1  0.39321000  0.51442000  0.29260000  1.0
  C  C65  1  0.60679000  0.48558000  0.70740000  1.0
  N  N66  1  0.37682000  0.08877000  0.70333000  1.0
  N  N67  1  0.62318000  0.91123000  0.29667000  1.0
  N  N68  1  0.28445000  0.31163000  0.31974000  1.0
  N  N69  1  0.71555000  0.68837000  0.68025000  1.0
  N  N70  1  0.43751000  0.42899000  0.23212000  1.0
  N  N71  1  0.56249000  0.57101000  0.76788000  1.0
  N  N72  1  0.29486000  0.14163000  0.52855000  1.0
  N  N73  1  0.70514000  0.85837000  0.47145000  1.0
  O  O74  1  0.24236000  0.99236000  0.21888000  1.0
  O  O75  1  0.75764000  0.00764000  0.78111000  1.0
  O  O76  1  0.01722000  0.97753000  0.24794000  1.0
  O  O77  1  0.98278000  0.02246000  0.75206000  1.0
  O  O78  1  0.97437000  0.18624000  0.40215000  1.0
  O  O79  1  0.02564000  0.81376000  0.59785000  1.0
  O  O80  1  0.14940000  0.38205000  0.56676000  1.0
  O  O81  1  0.85061000  0.61796000  0.43324000  1.0
  F  F82  1  0.81031000  0.18070000  0.57326000  1.0
  F  F83  1  0.18969000  0.81930000  0.42675000  1.0
  F  F84  1  0.73440000  0.25399000  0.41142000  1.0
  F  F85  1  0.26560000  0.74601000  0.58859000  1.0
  F  F86  1  0.09488000  0.71594000  0.13069000  1.0
  F  F87  1  0.90512000  0.28406000  0.86931000  1.0
  F  F88  1  0.87905000  0.70569000  0.15831000  1.0
  F  F89  1  0.12095000  0.29431000  0.84169000  1.0
  F  F90  1  0.89739000  0.39884000  0.60306000  1.0
  F  F91  1  0.10261000  0.60116000  0.39694000  1.0
  F  F92  1  0.92681000  0.76668000  0.99742000  1.0
  F  F93  1  0.07319000  0.23332000  0.00258000  1.0
