# generated using pymatgen
data_ZnH24C32(N2O3)2
_symmetry_space_group_name_H-M   'P 1'
_cell_length_a   9.03201000
_cell_length_b   13.00720000
_cell_length_c   13.01550000
_cell_angle_alpha   70.32600000
_cell_angle_beta   74.60200000
_cell_angle_gamma   89.55330000
_symmetry_Int_Tables_number   1
_chemical_formula_structural   ZnH24C32(N2O3)2
_chemical_formula_sum   'Zn2 H48 C64 N8 O12'
_cell_volume   1382.51270546
_cell_formula_units_Z   2
loop_
 _symmetry_equiv_pos_site_id
 _symmetry_equiv_pos_as_xyz
  1  'x, y, z'
loop_
 _atom_site_type_symbol
 _atom_site_label
 _atom_site_symmetry_multiplicity
 _atom_site_fract_x
 _atom_site_fract_y
 _atom_site_fract_z
 _atom_site_occupancy
  Zn  Zn0  1  0.14825000  0.93646000  0.12828000  1.0
  Zn  Zn1  1  0.85175000  0.06354000  0.87172000  1.0
  H  H2  1  0.62064000  0.49378000  0.23021000  1.0
  H  H3  1  0.37939000  0.50623000  0.76979000  1.0
  H  H4  1  0.67628000  0.56571000  0.01925000  1.0
  H  H5  1  0.32372000  0.43428000  0.98075000  1.0
  H  H6  1  0.65479000  0.76447000  0.91934000  1.0
  H  H7  1  0.34519000  0.23553000  0.08065000  1.0
  H  H8  1  0.57751000  0.88734000  0.03017000  1.0
  H  H9  1  0.42248000  0.11266000  0.96981000  1.0
  H  H10  1  0.47821000  0.82263000  0.43810000  1.0
  H  H11  1  0.52179000  0.17737000  0.56189000  1.0
  H  H12  1  0.79190000  0.77837000  0.30087000  1.0
  H  H13  1  0.20812000  0.22164000  0.69914000  1.0
  H  H14  1  0.69528000  0.14830000  0.44993000  1.0
  H  H15  1  0.30471000  0.85172000  0.55005000  1.0
  H  H16  1  0.55828000  0.29221000  0.34130000  1.0
  H  H17  1  0.44170000  0.70780000  0.65869000  1.0
  H  H18  1  0.47142000  0.26606000  0.18327000  1.0
  H  H19  1  0.52855000  0.73394000  0.81672000  1.0
  H  H20  1  0.51993000  0.09403000  0.13969000  1.0
  H  H21  1  0.48005000  0.90596000  0.86031000  1.0
  H  H22  1  0.27246000  0.78864000  0.01252000  1.0
  H  H23  1  0.72755000  0.21134000  0.98748000  1.0
  H  H24  1  0.28884000  0.58966000  0.04527000  1.0
  H  H25  1  0.71119000  0.41033000  0.95474000  1.0
  H  H26  1  0.01789000  0.52510000  0.39161000  1.0
  H  H27  1  0.98217000  0.47490000  0.60841000  1.0
  H  H28  1  0.01878000  0.72699000  0.34694000  1.0
  H  H29  1  0.98124000  0.27300000  0.65307000  1.0
  H  H30  1  0.24333000  0.40603000  0.17260000  1.0
  H  H31  1  0.75668000  0.59395000  0.82741000  1.0
  H  H32  1  0.18569000  0.37557000  0.32132000  1.0
  H  H33  1  0.81432000  0.62441000  0.67869000  1.0
  H  H34  1  0.94629000  0.42189000  0.18595000  1.0
  H  H35  1  0.05373000  0.57811000  0.81405000  1.0
  H  H36  1  0.91580000  0.35271000  0.33341000  1.0
  H  H37  1  0.08420000  0.64730000  0.66666667  1.0
  H  H38  1  0.93939000  0.31072000  0.07530000  1.0
  H  H39  1  0.06061000  0.68928000  0.92471000  1.0
  H  H40  1  0.99636000  0.13727000  0.03654000  1.0
  H  H41  1  0.00362000  0.86274000  0.96347000  1.0
  H  H42  1  0.14921000  0.00672000  0.32272000  1.0
  H  H43  1  0.85075000  0.99327000  0.67730000  1.0
  H  H44  1  0.09869000  0.17660000  0.37490000  1.0
  H  H45  1  0.90127000  0.82339000  0.62512000  1.0
  H  H46  1  0.53278000  0.51896000  0.40172000  1.0
  H  H47  1  0.46726000  0.48105000  0.59826000  1.0
  H  H48  1  0.78748000  0.97976000  0.48633000  1.0
  H  H49  1  0.21250000  0.02026000  0.51366000  1.0
  C  C50  1  0.57457000  0.65110000  0.24672000  1.0
  C  C51  1  0.42545000  0.34890000  0.75327000  1.0
  C  C52  1  0.61368000  0.58025000  0.18469000  1.0
  C  C53  1  0.38633000  0.41975000  0.81530000  1.0
  C  C54  1  0.64337000  0.62089000  0.06709000  1.0
  C  C55  1  0.35664000  0.37911000  0.93291000  1.0
  C  C56  1  0.63073000  0.73154000  0.01142000  1.0
  C  C57  1  0.36928000  0.26846000  0.98857000  1.0
  C  C58  1  0.59014000  0.80154000  0.07336000  1.0
  C  C59  1  0.40985000  0.19846000  0.92663000  1.0
  C  C60  1  0.56545000  0.76374000  0.19143000  1.0
  C  C61  1  0.43458000  0.23626000  0.80856000  1.0
  C  C62  1  0.52832000  0.83910000  0.26033000  1.0
  C  C63  1  0.47168000  0.16089000  0.73966000  1.0
  C  C64  1  0.54602000  0.78362000  0.38107000  1.0
  C  C65  1  0.45398000  0.21638000  0.61892000  1.0
  C  C66  1  0.51765000  0.66240000  0.43596000  1.0
  C  C67  1  0.48237000  0.33761000  0.56403000  1.0
  C  C68  1  0.71713000  0.83231000  0.33576000  1.0
  C  C69  1  0.28287000  0.16769000  0.66424000  1.0
  C  C70  1  0.78101000  0.85983000  0.41927000  1.0
  C  C71  1  0.21897000  0.14018000  0.58073000  1.0
  C  C72  1  0.67901000  0.04011000  0.35869000  1.0
  C  C73  1  0.32096000  0.95990000  0.64132000  1.0
  C  C74  1  0.65402000  0.13723000  0.38228000  1.0
  C  C75  1  0.34596000  0.86278000  0.61771000  1.0
  C  C76  1  0.57970000  0.21853000  0.31948000  1.0
  C  C77  1  0.42027000  0.78147000  0.68051000  1.0
  C  C78  1  0.53075000  0.20302000  0.23222000  1.0
  C  C79  1  0.46922000  0.79698000  0.76777000  1.0
  C  C80  1  0.55736000  0.10690000  0.20763000  1.0
  C  C81  1  0.44262000  0.89310000  0.79237000  1.0
  C  C82  1  0.63240000  0.02397000  0.26961000  1.0
  C  C83  1  0.36758000  0.97604000  0.73039000  1.0
  C  C84  1  0.67312000  0.92305000  0.23877000  1.0
  C  C85  1  0.32688000  0.07696000  0.76123000  1.0
  C  C86  1  0.79064000  0.95245000  0.12142000  1.0
  C  C87  1  0.20936000  0.04755000  0.87857000  1.0
  C  C88  1  0.37139000  0.88502000  0.25705000  1.0
  C  C89  1  0.62861000  0.11497000  0.74294000  1.0
  C  C90  1  0.21727000  0.72728000  0.09530000  1.0
  C  C91  1  0.78271000  0.27271000  0.90470000  1.0
  C  C92  1  0.22456000  0.61592000  0.11438000  1.0
  C  C93  1  0.77547000  0.38407000  0.88564000  1.0
  C  C94  1  0.15219000  0.53914000  0.22156000  1.0
  C  C95  1  0.84783000  0.46085000  0.77845000  1.0
  C  C96  1  0.07603000  0.58053000  0.30610000  1.0
  C  C97  1  0.92399000  0.41946000  0.69391000  1.0
  C  C98  1  0.07453000  0.69321000  0.28157000  1.0
  C  C99  1  0.92552000  0.30678000  0.71844000  1.0
  C  C100  1  0.15420000  0.41833000  0.24251000  1.0
  C  C101  1  0.84581000  0.58166000  0.75750000  1.0
  C  C102  1  0.99654000  0.36559000  0.24933000  1.0
  C  C103  1  0.00346000  0.63441000  0.75068000  1.0
  C  C104  1  0.01507000  0.25870000  0.22846000  1.0
  C  C105  1  0.98492000  0.74130000  0.77154000  1.0
  C  C106  1  0.98399000  0.24532000  0.13390000  1.0
  C  C107  1  0.01600000  0.75468000  0.86611000  1.0
  C  C108  1  0.01363000  0.14869000  0.11185000  1.0
  C  C109  1  0.98636000  0.85130000  0.88816000  1.0
  C  C110  1  0.10107000  0.07679000  0.27194000  1.0
  C  C111  1  0.89891000  0.92321000  0.72808000  1.0
  C  C112  1  0.07321000  0.17086000  0.29932000  1.0
  C  C113  1  0.92675000  0.82914000  0.70070000  1.0
  N  N114  1  0.54142000  0.60484000  0.36523000  1.0
  N  N115  1  0.45861000  0.39516000  0.63476000  1.0
  N  N116  1  0.75384000  0.96093000  0.42562000  1.0
  N  N117  1  0.24614000  0.03908000  0.57437000  1.0
  N  N118  1  0.14263000  0.76585000  0.17711000  1.0
  N  N119  1  0.85738000  0.23414000  0.82289000  1.0
  N  N120  1  0.07253000  0.06566000  0.17920000  1.0
  N  N121  1  0.92746000  0.93434000  0.82081000  1.0
  O  O122  1  0.26697000  0.86203000  0.34886000  1.0
  O  O123  1  0.73303000  0.13796000  0.65113000  1.0
  O  O124  1  0.36032000  0.94136000  0.15774000  1.0
  O  O125  1  0.63968000  0.05865000  0.84226000  1.0
  O  O126  1  0.75236000  0.02249000  0.03928000  1.0
  O  O127  1  0.24764000  0.97751000  0.96071000  1.0
  O  O128  1  0.91222000  0.90406000  0.11418000  1.0
  O  O129  1  0.08777000  0.09594000  0.88582000  1.0
  O  O130  1  0.47820000  0.61661000  0.54207000  1.0
  O  O131  1  0.52184000  0.38339000  0.45792000  1.0
  O  O132  1  0.84955000  0.79441000  0.48079000  1.0
  O  O133  1  0.15043000  0.20560000  0.51921000  1.0
