# generated using pymatgen
data_AgH6C8NO2
_symmetry_space_group_name_H-M   'P 1'
_cell_length_a   6.81708000
_cell_length_b   9.69908000
_cell_length_c   11.49940000
_cell_angle_alpha   89.99970000
_cell_angle_beta   89.99710000
_cell_angle_gamma   72.05100000
_symmetry_Int_Tables_number   1
_chemical_formula_structural   AgH6C8NO2
_chemical_formula_sum   'Ag4 H24 C32 N4 O8'
_cell_volume   723.32895953
_cell_formula_units_Z   4
loop_
 _symmetry_equiv_pos_site_id
 _symmetry_equiv_pos_as_xyz
  1  'x, y, z'
loop_
 _atom_site_type_symbol
 _atom_site_label
 _atom_site_symmetry_multiplicity
 _atom_site_fract_x
 _atom_site_fract_y
 _atom_site_fract_z
 _atom_site_occupancy
  Ag  Ag0  1  0.48965000  0.20314000  0.17693000  1.0
  Ag  Ag1  1  0.01033000  0.79687000  0.67693000  1.0
  Ag  Ag2  1  0.51034000  0.79685000  0.82307000  1.0
  Ag  Ag3  1  0.98967000  0.20313000  0.32307000  1.0
  H  H4  1  0.33369000  0.45808000  0.00862000  1.0
  H  H5  1  0.16627000  0.54195000  0.50862000  1.0
  H  H6  1  0.66631000  0.54192000  0.99138000  1.0
  H  H7  1  0.83373000  0.45805000  0.49139000  1.0
  H  H8  1  0.33806000  0.50697000  0.79704000  1.0
  H  H9  1  0.16191000  0.49304000  0.29704000  1.0
  H  H10  1  0.66194000  0.49302000  0.20296000  1.0
  H  H11  1  0.83810000  0.50697000  0.70297000  1.0
  H  H12  1  0.65941000  0.05064000  0.74875000  1.0
  H  H13  1  0.84058000  0.94937000  0.24876000  1.0
  H  H14  1  0.34060000  0.94936000  0.25124000  1.0
  H  H15  1  0.15941000  0.05063000  0.75125000  1.0
  H  H16  1  0.66099000  0.02393000  0.96177000  1.0
  H  H17  1  0.83899000  0.97610000  0.46177000  1.0
  H  H18  1  0.33902000  0.97607000  0.03823000  1.0
  H  H19  1  0.16100000  0.02390000  0.53823000  1.0
  H  H20  1  0.46736000  0.41988000  0.59999000  1.0
  H  H21  1  0.03263000  0.58012000  0.10000000  1.0
  H  H22  1  0.53263000  0.58012000  0.40001000  1.0
  H  H23  1  0.96737000  0.41988000  0.90000000  1.0
  H  H24  1  0.52604000  0.09254000  0.57086000  1.0
  H  H25  1  0.97396000  0.90746000  0.07086000  1.0
  H  H26  1  0.47396000  0.90746000  0.42914000  1.0
  H  H27  1  0.02604000  0.09254000  0.92914000  1.0
  C  C28  1  0.40901000  0.37140000  0.94846000  1.0
  C  C29  1  0.09096000  0.62862000  0.44847000  1.0
  C  C30  1  0.59100000  0.62859000  0.05153000  1.0
  C  C31  1  0.90904000  0.37138000  0.55154000  1.0
  C  C32  1  0.40985000  0.39754000  0.82959000  1.0
  C  C33  1  0.09012000  0.60248000  0.32960000  1.0
  C  C34  1  0.59016000  0.60245000  0.17040000  1.0
  C  C35  1  0.90987000  0.39753000  0.67040000  1.0
  C  C36  1  0.49519000  0.28226000  0.75260000  1.0
  C  C37  1  0.00479000  0.71776000  0.25261000  1.0
  C  C38  1  0.50481000  0.71774000  0.24739000  1.0
  C  C39  1  0.99521000  0.28225000  0.74739000  1.0
  C  C40  1  0.58520000  0.14485000  0.80230000  1.0
  C  C41  1  0.91478000  0.85517000  0.30230000  1.0
  C  C42  1  0.41481000  0.85514000  0.19770000  1.0
  C  C43  1  0.08521000  0.14484000  0.69770000  1.0
  C  C44  1  0.58581000  0.12861000  0.92195000  1.0
  C  C45  1  0.91416000  0.87141000  0.42196000  1.0
  C  C46  1  0.41420000  0.87139000  0.07805000  1.0
  C  C47  1  0.08583000  0.12859000  0.57805000  1.0
  C  C48  1  0.49015000  0.30807000  0.62737000  1.0
  C  C49  1  0.00983000  0.69195000  0.12737000  1.0
  C  C50  1  0.50985000  0.69193000  0.37263000  1.0
  C  C51  1  0.99016000  0.30805000  0.87264000  1.0
  C  C52  1  0.51048000  0.20433000  0.54634000  1.0
  C  C53  1  0.98952000  0.79566000  0.04635000  1.0
  C  C54  1  0.48952000  0.79567000  0.45365000  1.0
  C  C55  1  0.01048000  0.20434000  0.95365000  1.0
  C  C56  1  0.50517000  0.23661000  0.41978000  1.0
  C  C57  1  0.99485000  0.76340000  0.91979000  1.0
  C  C58  1  0.49482000  0.76339000  0.58021000  1.0
  C  C59  1  0.00515000  0.23660000  0.08022000  1.0
  N  N60  1  0.49684000  0.23932000  0.99521000  1.0
  N  N61  1  0.00313000  0.76070000  0.49521000  1.0
  N  N62  1  0.50317000  0.76067000  0.00478000  1.0
  N  N63  1  0.99687000  0.23930000  0.50479000  1.0
  O  O64  1  0.52966000  0.35186000  0.38202000  1.0
  O  O65  1  0.97037000  0.64814000  0.88201000  1.0
  O  O66  1  0.47035000  0.64814000  0.61798000  1.0
  O  O67  1  0.02964000  0.35186000  0.11798000  1.0
  O  O68  1  0.47674000  0.13582000  0.35310000  1.0
  O  O69  1  0.02327000  0.86419000  0.85311000  1.0
  O  O70  1  0.52325000  0.86418000  0.64690000  1.0
  O  O71  1  0.97674000  0.13582000  0.14690000  1.0
