# generated using pymatgen
data_ZnH15C24NO4
_symmetry_space_group_name_H-M   'P 1'
_cell_length_a   11.04320000
_cell_length_b   18.26450000
_cell_length_c   19.70560000
_cell_angle_alpha   89.90580000
_cell_angle_beta   90.01470000
_cell_angle_gamma   89.88920000
_symmetry_Int_Tables_number   1
_chemical_formula_structural   ZnH15C24NO4
_chemical_formula_sum   'Zn2 H30 C48 N2 O8'
_cell_volume   3974.57754413
_cell_formula_units_Z   2
loop_
 _symmetry_equiv_pos_site_id
 _symmetry_equiv_pos_as_xyz
  1  'x, y, z'
loop_
 _atom_site_type_symbol
 _atom_site_label
 _atom_site_symmetry_multiplicity
 _atom_site_fract_x
 _atom_site_fract_y
 _atom_site_fract_z
 _atom_site_occupancy
  Zn  Zn0  1  0.49992000  0.42370000  0.50029000  1.0
  Zn  Zn1  1  0.49963000  0.57614000  0.49906000  1.0
  H  H2  1  0.11219000  0.56527000  0.41652000  1.0
  H  H3  1  0.69289000  0.93220000  0.51847000  1.0
  H  H4  1  0.63670000  0.82868000  0.57889000  1.0
  H  H5  1  0.36394000  0.83021000  0.42126000  1.0
  H  H6  1  0.63164000  0.69164000  0.57408000  1.0
  H  H7  1  0.36795000  0.69312000  0.42533000  1.0
  H  H8  1  0.22631000  0.43115000  0.61618000  1.0
  H  H9  1  0.77474000  0.43285000  0.61777000  1.0
  H  H10  1  0.11461000  0.37776000  0.71252000  1.0
  H  H11  1  0.88807000  0.37861000  0.71342000  1.0
  H  H12  1  0.50848000  0.61687000  0.71711000  1.0
  H  H13  1  0.88539000  0.56563000  0.41722000  1.0
  H  H14  1  0.50568000  0.61700000  0.28196000  1.0
  H  H15  1  0.50888000  0.61757000  0.84393000  1.0
  H  H16  1  0.50703000  0.61709000  0.15515000  1.0
  H  H17  1  0.49653000  0.38183000  0.84439000  1.0
  H  H18  1  0.49394000  0.38139000  0.15633000  1.0
  H  H19  1  0.49630000  0.38243000  0.71762000  1.0
  H  H20  1  0.49249000  0.38260000  0.28314000  1.0
  H  H21  1  0.36381000  0.41681000  0.93680000  1.0
  H  H22  1  0.36297000  0.41647000  0.06240000  1.0
  H  H23  1  0.64032000  0.58171000  0.06316000  1.0
  H  H24  1  0.63375000  0.30719000  0.57366000  1.0
  H  H25  1  0.64126000  0.58204000  0.93756000  1.0
  H  H26  1  0.36748000  0.30754000  0.42624000  1.0
  H  H27  1  0.63796000  0.17025000  0.57847000  1.0
  H  H28  1  0.36283000  0.17054000  0.42210000  1.0
  H  H29  1  0.30779000  0.06761000  0.48250000  1.0
  H  H30  1  0.69284000  0.06715000  0.51845000  1.0
  H  H31  1  0.30786000  0.93268000  0.48242000  1.0
  C  C32  1  0.49779000  0.50035000  0.36612000  1.0
  C  C33  1  0.49842000  0.49983000  0.29004000  1.0
  C  C34  1  0.42606000  0.45223000  0.96445000  1.0
  C  C35  1  0.42558000  0.45203000  0.03507000  1.0
  C  C36  1  0.50146000  0.49912000  0.07198000  1.0
  C  C37  1  0.50246000  0.49954000  0.92795000  1.0
  C  C38  1  0.57801000  0.54634000  0.03548000  1.0
  C  C39  1  0.57851000  0.54654000  0.96488000  1.0
  C  C40  1  0.57525000  0.27413000  0.54136000  1.0
  C  C41  1  0.42571000  0.27431000  0.45879000  1.0
  C  C42  1  0.57763000  0.19813000  0.54305000  1.0
  C  C43  1  0.50212000  0.49920000  0.63385000  1.0
  C  C44  1  0.42311000  0.19831000  0.45744000  1.0
  C  C45  1  0.50034000  0.15818000  0.50033000  1.0
  C  C46  1  0.26285000  0.50010000  0.50252000  1.0
  C  C47  1  0.73660000  0.50067000  0.50356000  1.0
  C  C48  1  0.39288000  0.03811000  0.48933000  1.0
  C  C49  1  0.60781000  0.03784000  0.51153000  1.0
  C  C50  1  0.39292000  0.96199000  0.48928000  1.0
  C  C51  1  0.60783000  0.96171000  0.51153000  1.0
  C  C52  1  0.50041000  0.92238000  0.50034000  1.0
  C  C53  1  0.50033000  0.07744000  0.50041000  1.0
  C  C54  1  0.50279000  0.49970000  0.85306000  1.0
  C  C55  1  0.57679000  0.80118000  0.54320000  1.0
  C  C56  1  0.42353000  0.80201000  0.45686000  1.0
  C  C57  1  0.57395000  0.72517000  0.54149000  1.0
  C  C58  1  0.42570000  0.72601000  0.45821000  1.0
  C  C59  1  0.50030000  0.84163000  0.50015000  1.0
  C  C60  1  0.12771000  0.43188000  0.61639000  1.0
  C  C61  1  0.87339000  0.43254000  0.61717000  1.0
  C  C62  1  0.06497000  0.40162000  0.66999000  1.0
  C  C63  1  0.93693000  0.40199000  0.67043000  1.0
  C  C64  1  0.93500000  0.46500000  0.56134000  1.0
  C  C65  1  0.50047000  0.49922000  0.14687000  1.0
  C  C66  1  0.06527000  0.46476000  0.56098000  1.0
  C  C67  1  0.12730000  0.50051000  0.50665000  1.0
  C  C68  1  0.87213000  0.50089000  0.50735000  1.0
  C  C69  1  0.06292000  0.53703000  0.45672000  1.0
  C  C70  1  0.93556000  0.53723000  0.45706000  1.0
  C  C71  1  0.50694000  0.56578000  0.74576000  1.0
  C  C72  1  0.50345000  0.56580000  0.25368000  1.0
  C  C73  1  0.50761000  0.56578000  0.81637000  1.0
  C  C74  1  0.50500000  0.56546000  0.18310000  1.0
  C  C75  1  0.49800000  0.43359000  0.81664000  1.0
  C  C76  1  0.49495000  0.43329000  0.18373000  1.0
  C  C77  1  0.49860000  0.43354000  0.74606000  1.0
  C  C78  1  0.49460000  0.43357000  0.25434000  1.0
  C  C79  1  0.50276000  0.49965000  0.70990000  1.0
  N  N80  1  0.50052000  0.31153000  0.49998000  1.0
  N  N81  1  0.49960000  0.68830000  0.49978000  1.0
  O  O82  1  0.49688000  0.43850000  0.39623000  1.0
  O  O83  1  0.50168000  0.43669000  0.60504000  1.0
  O  O84  1  0.49853000  0.56276000  0.39497000  1.0
  O  O85  1  0.50181000  0.56095000  0.60365000  1.0
  O  O86  1  0.31510000  0.43788000  0.50281000  1.0
  O  O87  1  0.68445000  0.43857000  0.50327000  1.0
  O  O88  1  0.31463000  0.56213000  0.49834000  1.0
  O  O89  1  0.68477000  0.56285000  0.49979000  1.0
