# generated using pymatgen
data_CaH6C10O7
_symmetry_space_group_name_H-M   'P 1'
_cell_length_a   4.29209000
_cell_length_b   10.75310000
_cell_length_c   21.63290000
_cell_angle_alpha   90.00000000
_cell_angle_beta   90.00000000
_cell_angle_gamma   91.85200000
_symmetry_Int_Tables_number   1
_chemical_formula_structural   CaH6C10O7
_chemical_formula_sum   'Ca4 H24 C40 O28'
_cell_volume   997.90760081
_cell_formula_units_Z   4
loop_
 _symmetry_equiv_pos_site_id
 _symmetry_equiv_pos_as_xyz
  1  'x, y, z'
loop_
 _atom_site_type_symbol
 _atom_site_label
 _atom_site_symmetry_multiplicity
 _atom_site_fract_x
 _atom_site_fract_y
 _atom_site_fract_z
 _atom_site_occupancy
  Ca  Ca0  1  0.58810000  0.17868000  0.50689000  1.0
  Ca  Ca1  1  0.41190000  0.32132000  0.00689000  1.0
  Ca  Ca2  1  0.41190000  0.82132000  0.49311000  1.0
  Ca  Ca3  1  0.58810000  0.67868000  0.99311000  1.0
  H  H4  1  0.17231000  0.52630000  0.43858000  1.0
  H  H5  1  0.82769000  0.97370000  0.93858000  1.0
  H  H6  1  0.82769000  0.47370000  0.56142000  1.0
  H  H7  1  0.17231000  0.02630000  0.06142000  1.0
  H  H8  1  0.75905000  0.70489000  0.28133000  1.0
  H  H9  1  0.24095000  0.79511000  0.78133000  1.0
  H  H10  1  0.24095000  0.29511000  0.71867000  1.0
  H  H11  1  0.75904000  0.20489000  0.21867000  1.0
  H  H12  1  0.32842000  0.38518000  0.25528000  1.0
  H  H13  1  0.67158000  0.11482000  0.75528000  1.0
  H  H14  1  0.67158000  0.61482000  0.74472000  1.0
  H  H15  1  0.32842000  0.88518000  0.24472000  1.0
  H  H16  1  0.11480000  0.39998000  0.15532000  1.0
  H  H17  1  0.88520000  0.10002000  0.65532000  1.0
  H  H18  1  0.88520000  0.60002000  0.84468000  1.0
  H  H19  1  0.11480000  0.89998000  0.34468000  1.0
  H  H20  1  0.41613000  0.51470000  0.16689000  1.0
  H  H21  1  0.58387000  0.98530000  0.66689000  1.0
  H  H22  1  0.58387000  0.48530000  0.83311000  1.0
  H  H23  1  0.41613000  0.01470000  0.33311000  1.0
  H  H24  1  0.71440000  0.20966000  0.36081000  1.0
  H  H25  1  0.28560000  0.29034000  0.86081000  1.0
  H  H26  1  0.28560000  0.79034000  0.63919000  1.0
  H  H27  1  0.71440000  0.70966000  0.13919000  1.0
  C  C28  1  0.26611000  0.44646000  0.34946000  1.0
  C  C29  1  0.73389000  0.05354000  0.84946000  1.0
  C  C30  1  0.73389000  0.55354000  0.65054000  1.0
  C  C31  1  0.26611000  0.94646000  0.15054000  1.0
  C  C32  1  0.13488000  0.53306000  0.38894000  1.0
  C  C33  1  0.86512000  0.96694000  0.88894000  1.0
  C  C34  1  0.86512000  0.46694000  0.61106000  1.0
  C  C35  1  0.13488000  0.03306000  0.11106000  1.0
  C  C36  1  0.95398000  0.62683000  0.36428000  1.0
  C  C37  1  0.04602000  0.87317000  0.86428000  1.0
  C  C38  1  0.04602000  0.37317000  0.63572000  1.0
  C  C39  1  0.95398000  0.12683000  0.13572000  1.0
  C  C40  1  0.90362000  0.63326000  0.30076000  1.0
  C  C41  1  0.09639000  0.86674000  0.80076000  1.0
  C  C42  1  0.09638000  0.36674000  0.69924000  1.0
  C  C43  1  0.90361000  0.13326000  0.19924000  1.0
  C  C44  1  0.04067000  0.54750000  0.26127000  1.0
  C  C45  1  0.95933000  0.95250000  0.76127000  1.0
  C  C46  1  0.95933000  0.45250000  0.73873000  1.0
  C  C47  1  0.04067000  0.04750000  0.23873000  1.0
  C  C48  1  0.22262000  0.45338000  0.28517000  1.0
  C  C49  1  0.77738000  0.04662000  0.78517000  1.0
  C  C50  1  0.77738000  0.54662000  0.71483000  1.0
  C  C51  1  0.22262000  0.95338000  0.21483000  1.0
  C  C52  1  0.45340000  0.34779000  0.37747000  1.0
  C  C53  1  0.54660000  0.15221000  0.87747000  1.0
  C  C54  1  0.54660000  0.65221000  0.62253000  1.0
  C  C55  1  0.45340000  0.84779000  0.12253000  1.0
  C  C56  1  0.81216000  0.72069000  0.40572000  1.0
  C  C57  1  0.18784000  0.77931000  0.90572000  1.0
  C  C58  1  0.18784000  0.27931000  0.59428000  1.0
  C  C59  1  0.81216000  0.22069000  0.09428000  1.0
  C  C60  1  0.16671000  0.50094000  0.15611000  1.0
  C  C61  1  0.83329000  0.99906000  0.65612000  1.0
  C  C62  1  0.83330000  0.49906000  0.84389000  1.0
  C  C63  1  0.16671000  0.00094000  0.34389000  1.0
  C  C64  1  0.10343000  0.55420000  0.09250000  1.0
  C  C65  1  0.89657000  0.94580000  0.59250000  1.0
  C  C66  1  0.89657000  0.44580000  0.90750000  1.0
  C  C67  1  0.10343000  0.05420000  0.40750000  1.0
  O  O68  1  0.48613000  0.33824000  0.43437000  1.0
  O  O69  1  0.51387000  0.16176000  0.93437000  1.0
  O  O70  1  0.51387000  0.66176000  0.56563000  1.0
  O  O71  1  0.48613000  0.83824000  0.06563000  1.0
  O  O72  1  0.58062000  0.27071000  0.33733000  1.0
  O  O73  1  0.41938000  0.22929000  0.83733000  1.0
  O  O74  1  0.41938000  0.72929000  0.66267000  1.0
  O  O75  1  0.58062000  0.77071000  0.16267000  1.0
  O  O76  1  0.93096000  0.73910000  0.45990000  1.0
  O  O77  1  0.06904000  0.76090000  0.95990000  1.0
  O  O78  1  0.06904000  0.26090000  0.54010000  1.0
  O  O79  1  0.93096000  0.23910000  0.04010000  1.0
  O  O80  1  0.57509000  0.77799000  0.38789000  1.0
  O  O81  1  0.42491000  0.72201000  0.88789000  1.0
  O  O82  1  0.42491000  0.22201000  0.61211000  1.0
  O  O83  1  0.57508000  0.27799000  0.11211000  1.0
  O  O84  1  0.97783000  0.56291000  0.19981000  1.0
  O  O85  1  0.02217000  0.93709000  0.69981000  1.0
  O  O86  1  0.02217000  0.43709000  0.80019000  1.0
  O  O87  1  0.97783000  0.06291000  0.30019000  1.0
  O  O88  1  0.27576000  0.51823000  0.04831000  1.0
  O  O89  1  0.72424000  0.98176000  0.54831000  1.0
  O  O90  1  0.72425000  0.48176000  0.95169000  1.0
  O  O91  1  0.27576000  0.01824000  0.45169000  1.0
  O  O92  1  0.89064000  0.63182000  0.08589000  1.0
  O  O93  1  0.10935000  0.86818000  0.58589000  1.0
  O  O94  1  0.10935000  0.36818000  0.91410000  1.0
  O  O95  1  0.89065000  0.13182000  0.41410000  1.0
