# generated using pymatgen
data_CuH9C9SNCl2O5
_symmetry_space_group_name_H-M   'P 1'
_cell_length_a   5.02896000
_cell_length_b   7.70785000
_cell_length_c   16.83560000
_cell_angle_alpha   92.50870000
_cell_angle_beta   96.83280000
_cell_angle_gamma   102.98200000
_symmetry_Int_Tables_number   1
_chemical_formula_structural   CuH9C9SNCl2O5
_chemical_formula_sum   'Cu2 H18 C18 S2 N2 Cl4 O10'
_cell_volume   629.71485489
_cell_formula_units_Z   2
loop_
 _symmetry_equiv_pos_site_id
 _symmetry_equiv_pos_as_xyz
  1  'x, y, z'
loop_
 _atom_site_type_symbol
 _atom_site_label
 _atom_site_symmetry_multiplicity
 _atom_site_fract_x
 _atom_site_fract_y
 _atom_site_fract_z
 _atom_site_occupancy
  Cu  Cu0  1  0.51857000  0.58801000  0.65155000  1.0
  Cu  Cu1  1  0.48143000  0.41199000  0.34845000  1.0
  H  H2  1  0.14114000  0.86357000  0.71601000  1.0
  H  H3  1  0.85886000  0.13643000  0.28399000  1.0
  H  H4  1  0.43078000  0.04809000  0.73312000  1.0
  H  H5  1  0.56922000  0.95191000  0.26688000  1.0
  H  H6  1  0.51959000  0.97800000  0.58741000  1.0
  H  H7  1  0.48040000  0.02200000  0.41259000  1.0
  H  H8  1  0.22636000  0.06556000  0.60001000  1.0
  H  H9  1  0.77364000  0.93444000  0.39999000  1.0
  H  H10  1  0.66397000  0.95391000  0.82688000  1.0
  H  H11  1  0.33603000  0.04609000  0.17312000  1.0
  H  H12  1  0.96365000  0.92116000  0.93390000  1.0
  H  H13  1  0.03635000  0.07884000  0.06610000  1.0
  H  H14  1  0.36658000  0.48145000  0.94127000  1.0
  H  H15  1  0.63343000  0.51855000  0.05873000  1.0
  H  H16  1  0.37759000  0.34297000  0.53442000  1.0
  H  H17  1  0.62240000  0.65703000  0.46558000  1.0
  H  H18  1  0.66257000  0.32494000  0.57897000  1.0
  H  H19  1  0.33743000  0.67506000  0.42103000  1.0
  C  C20  1  0.34619000  0.91832000  0.69889000  1.0
  C  C21  1  0.65381000  0.08168000  0.30111000  1.0
  C  C22  1  0.32002000  0.95155000  0.61032000  1.0
  C  C23  1  0.67998000  0.04845000  0.38968000  1.0
  C  C24  1  0.67471000  0.83249000  0.79177000  1.0
  C  C25  1  0.32530000  0.16751000  0.20823000  1.0
  C  C26  1  0.90330000  0.57394000  0.79103000  1.0
  C  C27  1  0.09671000  0.42606000  0.20897000  1.0
  C  C28  1  0.85859000  0.73310000  0.82936000  1.0
  C  C29  1  0.14142000  0.26690000  0.17064000  1.0
  C  C30  1  0.17956000  0.71011000  0.94588000  1.0
  C  C31  1  0.82044000  0.28990000  0.05412000  1.0
  C  C32  1  0.99942000  0.79914000  0.90651000  1.0
  C  C33  1  0.00058000  0.20086000  0.09349000  1.0
  C  C34  1  0.09085000  0.48716000  0.83522000  1.0
  C  C35  1  0.90916000  0.51284000  0.16478000  1.0
  C  C36  1  0.22598000  0.55271000  0.91042000  1.0
  C  C37  1  0.77402000  0.44729000  0.08958000  1.0
  S  S38  1  0.10379000  0.76884000  0.54832000  1.0
  S  S39  1  0.89620000  0.23116000  0.45168000  1.0
  N  N40  1  0.52381000  0.79593000  0.72211000  1.0
  N  N41  1  0.47619000  0.20407000  0.27789000  1.0
  Cl  Cl42  1  0.14510000  0.29396000  0.79079000  1.0
  Cl  Cl43  1  0.85490000  0.70604000  0.20921000  1.0
  Cl  Cl44  1  0.35517000  0.78937000  0.04040000  1.0
  Cl  Cl45  1  0.64483000  0.21063000  0.95960000  1.0
  O  O46  1  0.81604000  0.75748000  0.56185000  1.0
  O  O47  1  0.18396000  0.24251000  0.43816000  1.0
  O  O48  1  0.14447000  0.80240000  0.46507000  1.0
  O  O49  1  0.85552000  0.19760000  0.53493000  1.0
  O  O50  1  0.19449000  0.60674000  0.57513000  1.0
  O  O51  1  0.80551000  0.39326000  0.42487000  1.0
  O  O52  1  0.49106000  0.36262000  0.58757000  1.0
  O  O53  1  0.50893000  0.63738000  0.41243000  1.0
  O  O54  1  0.78980000  0.50676000  0.72011000  1.0
  O  O55  1  0.21020000  0.49324000  0.27988000  1.0
