# generated using pymatgen
data_CdH10C10(BrN)2
_symmetry_space_group_name_H-M   'P 1'
_cell_length_a   3.94428000
_cell_length_b   8.46568000
_cell_length_c   18.31440000
_cell_angle_alpha   89.99860000
_cell_angle_beta   84.72190000
_cell_angle_gamma   89.99960000
_symmetry_Int_Tables_number   1
_chemical_formula_structural   CdH10C10(BrN)2
_chemical_formula_sum   'Cd2 H20 C20 Br4 N4'
_cell_volume   608.94339993
_cell_formula_units_Z   2
loop_
 _symmetry_equiv_pos_site_id
 _symmetry_equiv_pos_as_xyz
  1  'x, y, z'
loop_
 _atom_site_type_symbol
 _atom_site_label
 _atom_site_symmetry_multiplicity
 _atom_site_fract_x
 _atom_site_fract_y
 _atom_site_fract_z
 _atom_site_occupancy
  Cd  Cd0  1  0.00001000  0.00000000  0.00000000  1.0
  Cd  Cd1  1  0.49997000  0.50000000  0.50000000  1.0
  H  H2  1  0.07170000  0.98089000  0.17075000  1.0
  H  H3  1  0.42821000  0.48092000  0.32926000  1.0
  H  H4  1  0.92827000  0.01908000  0.82926000  1.0
  H  H5  1  0.57186000  0.51910000  0.67075000  1.0
  H  H6  1  0.07865000  0.78879000  0.27641000  1.0
  H  H7  1  0.42128000  0.28884000  0.22360000  1.0
  H  H8  1  0.92141000  0.21118000  0.72359000  1.0
  H  H9  1  0.57880000  0.71121000  0.77641000  1.0
  H  H10  1  0.98365000  0.50327000  0.25230000  1.0
  H  H11  1  0.51633000  0.00332000  0.24770000  1.0
  H  H12  1  0.01638000  0.49670000  0.74770000  1.0
  H  H13  1  0.48373000  0.99673000  0.75228000  1.0
  H  H14  1  0.87749000  0.41774000  0.12422000  1.0
  H  H15  1  0.62249000  0.91776000  0.37578000  1.0
  H  H16  1  0.12240000  0.58225000  0.87578000  1.0
  H  H17  1  0.37756000  0.08225000  0.62420000  1.0
  H  H18  1  0.86876000  0.62538000  0.02677000  1.0
  H  H19  1  0.63118000  0.12537000  0.47324000  1.0
  H  H20  1  0.13108000  0.37462000  0.97324000  1.0
  H  H21  1  0.36886000  0.87461000  0.52676000  1.0
  C  C22  1  0.02845000  0.85483000  0.16373000  1.0
  C  C23  1  0.47151000  0.35484000  0.33627000  1.0
  C  C24  1  0.97153000  0.14516000  0.83627000  1.0
  C  C25  1  0.52855000  0.64517000  0.66373000  1.0
  C  C26  1  0.03470000  0.74844000  0.22156000  1.0
  C  C27  1  0.46524000  0.24848000  0.27845000  1.0
  C  C28  1  0.96532000  0.25155000  0.77845000  1.0
  C  C29  1  0.53479000  0.75157000  0.72155000  1.0
  C  C30  1  0.98129000  0.58879000  0.20793000  1.0
  C  C31  1  0.51869000  0.08882000  0.29207000  1.0
  C  C32  1  0.01869000  0.41119000  0.79207000  1.0
  C  C33  1  0.48137000  0.91121000  0.70793000  1.0
  C  C34  1  0.92168000  0.54116000  0.13739000  1.0
  C  C35  1  0.57829000  0.04118000  0.36261000  1.0
  C  C36  1  0.07827000  0.45883000  0.86260000  1.0
  C  C37  1  0.42174000  0.95883000  0.63738000  1.0
  C  C38  1  0.91827000  0.65552000  0.08274000  1.0
  C  C39  1  0.58168000  0.15552000  0.41727000  1.0
  C  C40  1  0.08162000  0.34448000  0.91727000  1.0
  C  C41  1  0.41836000  0.84448000  0.58273000  1.0
  Br  Br42  1  0.52875000  0.82336000  0.92683000  1.0
  Br  Br43  1  0.97124000  0.32334000  0.57317000  1.0
  Br  Br44  1  0.47124000  0.17663000  0.07317000  1.0
  Br  Br45  1  0.02872000  0.67664000  0.42683000  1.0
  N  N46  1  0.97170000  0.80944000  0.09560000  1.0
  N  N47  1  0.52824000  0.30944000  0.40440000  1.0
  N  N48  1  0.02823000  0.19054000  0.90441000  1.0
  N  N49  1  0.47180000  0.69056000  0.59560000  1.0
