# generated using pymatgen
data_Sc2H3(C5O4)3
_symmetry_space_group_name_H-M   'P 1'
_cell_length_a   9.93866000
_cell_length_b   9.93861000
_cell_length_c   9.93862000
_cell_angle_alpha   107.58500000
_cell_angle_beta   107.58500000
_cell_angle_gamma   107.58500000
_symmetry_Int_Tables_number   1
_chemical_formula_structural   Sc2H3(C5O4)3
_chemical_formula_sum   'Sc4 H6 C30 O24'
_cell_volume   804.16704231
_cell_formula_units_Z   2
loop_
 _symmetry_equiv_pos_site_id
 _symmetry_equiv_pos_as_xyz
  1  'x, y, z'
loop_
 _atom_site_type_symbol
 _atom_site_label
 _atom_site_symmetry_multiplicity
 _atom_site_fract_x
 _atom_site_fract_y
 _atom_site_fract_z
 _atom_site_occupancy
  Sc  Sc0  1  0.50000000  1.00000000  0.50000000  1.0
  Sc  Sc1  1  0.00000000  0.50000000  0.49999000  1.0
  Sc  Sc2  1  0.50000000  0.50000000  0.00000000  1.0
  Sc  Sc3  1  0.50000000  0.50000000  0.50000000  1.0
  H  H4  1  0.86805000  0.32927000  0.10282000  1.0
  H  H5  1  0.32927000  0.10282000  0.86805000  1.0
  H  H6  1  0.10282000  0.86805000  0.32926000  1.0
  H  H7  1  0.13195000  0.67073000  0.89718000  1.0
  H  H8  1  0.67073000  0.89718000  0.13195000  1.0
  H  H9  1  0.89718000  0.13195000  0.67073000  1.0
  C  C10  1  0.66476000  0.30587000  0.83648000  1.0
  C  C11  1  0.30587000  0.83648000  0.66475000  1.0
  C  C12  1  0.83650000  0.66475000  0.30588000  1.0
  C  C13  1  0.33524000  0.69413000  0.16352000  1.0
  C  C14  1  0.69413000  0.16352000  0.33525000  1.0
  C  C15  1  0.16350000  0.33525000  0.69411000  1.0
  C  C16  1  0.83696000  0.41291000  0.92406000  1.0
  C  C17  1  0.41290000  0.92407000  0.83696000  1.0
  C  C18  1  0.92407000  0.83696000  0.41290000  1.0
  C  C19  1  0.16304000  0.58709000  0.07593000  1.0
  C  C20  1  0.58709000  0.07593000  0.16304000  1.0
  C  C21  1  0.07593000  0.16304000  0.58709000  1.0
  C  C22  1  0.91120000  0.50934000  0.86506000  1.0
  C  C23  1  0.50935000  0.86506000  0.91120000  1.0
  C  C24  1  0.86506000  0.91120000  0.50934000  1.0
  C  C25  1  0.08880000  0.49065000  0.13493000  1.0
  C  C26  1  0.49065000  0.13493000  0.08880000  1.0
  C  C27  1  0.13493000  0.08880000  0.49065000  1.0
  C  C28  1  0.92557000  0.40430000  0.05750000  1.0
  C  C29  1  0.40431000  0.05750000  0.92557000  1.0
  C  C30  1  0.05751000  0.92557000  0.40430000  1.0
  C  C31  1  0.07443000  0.59569000  0.94249000  1.0
  C  C32  1  0.59569000  0.94249000  0.07443000  1.0
  C  C33  1  0.94249000  0.07443000  0.59569000  1.0
  C  C34  1  0.82119000  0.51894000  0.71915000  1.0
  C  C35  1  0.51894000  0.71916000  0.82118000  1.0
  C  C36  1  0.71916000  0.82118000  0.51894000  1.0
  C  C37  1  0.17881000  0.48106000  0.28084000  1.0
  C  C38  1  0.48106000  0.28084000  0.17882000  1.0
  C  C39  1  0.28084000  0.17882000  0.48106000  1.0
  O  O40  1  0.67633000  0.48591000  0.67665000  1.0
  O  O41  1  0.48592000  0.67666000  0.67633000  1.0
  O  O42  1  0.67666000  0.67633000  0.48591000  1.0
  O  O43  1  0.32367000  0.51409000  0.32335000  1.0
  O  O44  1  0.51409000  0.32334000  0.32367000  1.0
  O  O45  1  0.32335000  0.32367000  0.51409000  1.0
  O  O46  1  0.89573000  0.56164000  0.64452000  1.0
  O  O47  1  0.56164000  0.64451000  0.89573000  1.0
  O  O48  1  0.64452000  0.89573000  0.56164000  1.0
  O  O49  1  0.10427000  0.43835000  0.35547000  1.0
  O  O50  1  0.43835000  0.35547000  0.10426000  1.0
  O  O51  1  0.35547000  0.10426000  0.43835000  1.0
  O  O52  1  0.62866000  0.17838000  0.72443000  1.0
  O  O53  1  0.17838000  0.72443000  0.62867000  1.0
  O  O54  1  0.72441000  0.62866000  0.17836000  1.0
  O  O55  1  0.37133000  0.82162000  0.27557000  1.0
  O  O56  1  0.82162000  0.27557000  0.37134000  1.0
  O  O57  1  0.27558000  0.37134000  0.82164000  1.0
  O  O58  1  0.56715000  0.33954000  0.87871000  1.0
  O  O59  1  0.33953000  0.87870000  0.56715000  1.0
  O  O60  1  0.87870000  0.56716000  0.33953000  1.0
  O  O61  1  0.43285000  0.66047000  0.12130000  1.0
  O  O62  1  0.66047000  0.12129000  0.43285000  1.0
  O  O63  1  0.12130000  0.43284000  0.66047000  1.0
