# generated using pymatgen
data_Ni3H42C72N6O13
_symmetry_space_group_name_H-M   'P 1'
_cell_length_a   18.56470000
_cell_length_b   18.57280000
_cell_length_c   18.68610000
_cell_angle_alpha   98.69010000
_cell_angle_beta   98.67280000
_cell_angle_gamma   98.93950000
_symmetry_Int_Tables_number   1
_chemical_formula_structural   Ni3H42C72N6O13
_chemical_formula_sum   'Ni6 H84 C144 N12 O26'
_cell_volume   6190.60994261
_cell_formula_units_Z   2
loop_
 _symmetry_equiv_pos_site_id
 _symmetry_equiv_pos_as_xyz
  1  'x, y, z'
loop_
 _atom_site_type_symbol
 _atom_site_label
 _atom_site_symmetry_multiplicity
 _atom_site_fract_x
 _atom_site_fract_y
 _atom_site_fract_z
 _atom_site_occupancy
  Ni  Ni0  1  0.68433000  0.81535000  0.74990000  1.0
  Ni  Ni1  1  0.81516000  0.74989000  0.68422000  1.0
  Ni  Ni2  1  0.74996000  0.68444000  0.81544000  1.0
  Ni  Ni3  1  0.31567000  0.18465000  0.25010000  1.0
  Ni  Ni4  1  0.18485000  0.25012000  0.31578000  1.0
  Ni  Ni5  1  0.25005000  0.31555000  0.18457000  1.0
  H  H6  1  0.30443000  0.28933000  0.55189000  1.0
  H  H7  1  0.33716000  0.24469000  0.67066000  1.0
  H  H8  1  0.37030000  0.04003000  0.54894000  1.0
  H  H9  1  0.34372000  0.08699000  0.43293000  1.0
  H  H10  1  0.45789000  0.05103000  0.63646000  1.0
  H  H11  1  0.45945000  0.91808000  0.81810000  1.0
  H  H12  1  0.54970000  0.83184000  0.81393000  1.0
  H  H13  1  0.28945000  0.55248000  0.30429000  1.0
  H  H14  1  0.24449000  0.67169000  0.33763000  1.0
  H  H15  1  0.03981000  0.54759000  0.37037000  1.0
  H  H16  1  0.08709000  0.43119000  0.34319000  1.0
  H  H17  1  0.05099000  0.63555000  0.45830000  1.0
  H  H18  1  0.91797000  0.81782000  0.45970000  1.0
  H  H19  1  0.83174000  0.81372000  0.54973000  1.0
  H  H20  1  0.55193000  0.30448000  0.28893000  1.0
  H  H21  1  0.67139000  0.33769000  0.24390000  1.0
  H  H22  1  0.54798000  0.36994000  0.04049000  1.0
  H  H23  1  0.43137000  0.34306000  0.08782000  1.0
  H  H24  1  0.63602000  0.45814000  0.05109000  1.0
  H  H25  1  0.81800000  0.45928000  0.91826000  1.0
  H  H26  1  0.81347000  0.54926000  0.83189000  1.0
  H  H27  1  0.19555000  0.94809000  0.21146000  1.0
  H  H28  1  0.16217000  0.82844000  0.25620000  1.0
  H  H29  1  0.12991000  0.95150000  0.45977000  1.0
  H  H30  1  0.15687000  0.06828000  0.41264000  1.0
  H  H31  1  0.04171000  0.86355000  0.44880000  1.0
  H  H32  1  0.04032000  0.68183000  0.58168000  1.0
  H  H33  1  0.95014000  0.68643000  0.66782000  1.0
  H  H34  1  0.21094000  0.19562000  0.94801000  1.0
  H  H35  1  0.25534000  0.16274000  0.82911000  1.0
  H  H36  1  0.46017000  0.12959000  0.95065000  1.0
  H  H37  1  0.41336000  0.15623000  0.06676000  1.0
  H  H38  1  0.44887000  0.04202000  0.86322000  1.0
  H  H39  1  0.58185000  0.04027000  0.68177000  1.0
  H  H40  1  0.66785000  0.94981000  0.68589000  1.0
  H  H41  1  0.94755000  0.21085000  0.19577000  1.0
  H  H42  1  0.82813000  0.25555000  0.16227000  1.0
  H  H43  1  0.95191000  0.46037000  0.12955000  1.0
  H  H44  1  0.06851000  0.41331000  0.15681000  1.0
  H  H45  1  0.86407000  0.44885000  0.04165000  1.0
  H  H46  1  0.68204000  0.58191000  0.03995000  1.0
  H  H47  1  0.68622000  0.66793000  0.94973000  1.0
  H  H48  1  0.69556000  0.71068000  0.44808000  1.0
  H  H49  1  0.66283000  0.75534000  0.32932000  1.0
  H  H50  1  0.62969000  0.95999000  0.45107000  1.0
  H  H51  1  0.65628000  0.91301000  0.56707000  1.0
  H  H52  1  0.54210000  0.94900000  0.36354000  1.0
  H  H53  1  0.54054000  0.08195000  0.18189000  1.0
  H  H54  1  0.45028000  0.16817000  0.18605000  1.0
  H  H55  1  0.71056000  0.44753000  0.69570000  1.0
  H  H56  1  0.75553000  0.32832000  0.66235000  1.0
  H  H57  1  0.96021000  0.45243000  0.62960000  1.0
  H  H58  1  0.91292000  0.56883000  0.65680000  1.0
  H  H59  1  0.94903000  0.36446000  0.54169000  1.0
  H  H60  1  0.08204000  0.18221000  0.54028000  1.0
  H  H61  1  0.16827000  0.18630000  0.45025000  1.0
  H  H62  1  0.44805000  0.69552000  0.71112000  1.0
  H  H63  1  0.32860000  0.66229000  0.75615000  1.0
  H  H64  1  0.45204000  0.62999000  0.95953000  1.0
  H  H65  1  0.56864000  0.65689000  0.91219000  1.0
  H  H66  1  0.36398000  0.54183000  0.94897000  1.0
  H  H67  1  0.18198000  0.54067000  0.08177000  1.0
  H  H68  1  0.18652000  0.45068000  0.16813000  1.0
  H  H69  1  0.80445000  0.05193000  0.78852000  1.0
  H  H70  1  0.83784000  0.17158000  0.74379000  1.0
  H  H71  1  0.87011000  0.04852000  0.54022000  1.0
  H  H72  1  0.84313000  0.93175000  0.58734000  1.0
  H  H73  1  0.95830000  0.13646000  0.55117000  1.0
  H  H74  1  0.95969000  0.31819000  0.41828000  1.0
  H  H75  1  0.04988000  0.31359000  0.33216000  1.0
  H  H76  1  0.78904000  0.80440000  0.05198000  1.0
  H  H77  1  0.74465000  0.83729000  0.17088000  1.0
  H  H78  1  0.53981000  0.87044000  0.04935000  1.0
  H  H79  1  0.58662000  0.84379000  0.93324000  1.0
  H  H80  1  0.55110000  0.95800000  0.13677000  1.0
  H  H81  1  0.41814000  0.95974000  0.31821000  1.0
  H  H82  1  0.33214000  0.05020000  0.31410000  1.0
  H  H83  1  0.05246000  0.78910000  0.80423000  1.0
  H  H84  1  0.17188000  0.74440000  0.83773000  1.0
  H  H85  1  0.04809000  0.53960000  0.87049000  1.0
  H  H86  1  0.93150000  0.58667000  0.84322000  1.0
  H  H87  1  0.13593000  0.55109000  0.95837000  1.0
  H  H88  1  0.31797000  0.41806000  0.96009000  1.0
  H  H89  1  0.31380000  0.33205000  0.05031000  1.0
  C  C90  1  0.30646000  0.21661000  0.41203000  1.0
  C  C91  1  0.32443000  0.19196000  0.48488000  1.0
  C  C92  1  0.32031000  0.23523000  0.55207000  1.0
  C  C93  1  0.33805000  0.21016000  0.61824000  1.0
  C  C94  1  0.35908000  0.14067000  0.61871000  1.0
  C  C95  1  0.35860000  0.09595000  0.55068000  1.0
  C  C96  1  0.34269000  0.12155000  0.48511000  1.0
  C  C97  1  0.38528000  0.11505000  0.68789000  1.0
  C  C98  1  0.43693000  0.06716000  0.68670000  1.0
  C  C99  1  0.50507000  0.92778000  0.78823000  1.0
  C  C100  1  0.55502000  0.87934000  0.78632000  1.0
  C  C101  1  0.21699000  0.41172000  0.30586000  1.0
  C  C102  1  0.19204000  0.48453000  0.32410000  1.0
  C  C103  1  0.23533000  0.55237000  0.32024000  1.0
  C  C104  1  0.21013000  0.61864000  0.33832000  1.0
  C  C105  1  0.14057000  0.61829000  0.35941000  1.0
  C  C106  1  0.09578000  0.54964000  0.35866000  1.0
  C  C107  1  0.12154000  0.48396000  0.34240000  1.0
  C  C108  1  0.11479000  0.68749000  0.38571000  1.0
  C  C109  1  0.06697000  0.68611000  0.43726000  1.0
  C  C110  1  0.92771000  0.78806000  0.50522000  1.0
  C  C111  1  0.87935000  0.78627000  0.55512000  1.0
  C  C112  1  0.41134000  0.30623000  0.21686000  1.0
  C  C113  1  0.48437000  0.32426000  0.19214000  1.0
  C  C114  1  0.55203000  0.32034000  0.23508000  1.0
  C  C115  1  0.61841000  0.33829000  0.20983000  1.0
  C  C116  1  0.61833000  0.35922000  0.14060000  1.0
  C  C117  1  0.54982000  0.35839000  0.09618000  1.0
  C  C118  1  0.48406000  0.34234000  0.12197000  1.0
  C  C119  1  0.68769000  0.38557000  0.11486000  1.0
  C  C120  1  0.68653000  0.43718000  0.06708000  1.0
  C  C121  1  0.78820000  0.50495000  0.92781000  1.0
  C  C122  1  0.78617000  0.55480000  0.87939000  1.0
  C  C123  1  0.19425000  0.08841000  0.28380000  1.0
  C  C124  1  0.17574000  0.01538000  0.30836000  1.0
  C  C125  1  0.17961000  0.94781000  0.26525000  1.0
  C  C126  1  0.16158000  0.88138000  0.29033000  1.0
  C  C127  1  0.14068000  0.88135000  0.35955000  1.0
  C  C128  1  0.14147000  0.94977000  0.40411000  1.0
  C  C129  1  0.15756000  0.01561000  0.37845000  1.0
  C  C130  1  0.11436000  0.81194000  0.38515000  1.0
  C  C131  1  0.06268000  0.81306000  0.43284000  1.0
  C  C132  1  0.99464000  0.71161000  0.57200000  1.0
  C  C133  1  0.94468000  0.71368000  0.62028000  1.0
  C  C134  1  0.28396000  0.19403000  0.08772000  1.0
  C  C135  1  0.30841000  0.17562000  0.01486000  1.0
  C  C136  1  0.26501000  0.17969000  0.94772000  1.0
  C  C137  1  0.28994000  0.16188000  0.88152000  1.0
  C  C138  1  0.35943000  0.14089000  0.88101000  1.0
  C  C139  1  0.40427000  0.14132000  0.94897000  1.0
  C  C140  1  0.37876000  0.15723000  0.01458000  1.0
  C  C141  1  0.38494000  0.11469000  0.81179000  1.0
  C  C142  1  0.43275000  0.06298000  0.81296000  1.0
  C  C143  1  0.57203000  0.99461000  0.71159000  1.0
  C  C144  1  0.62033000  0.94454000  0.71346000  1.0
  C  C145  1  0.08811000  0.28362000  0.19461000  1.0
  C  C146  1  0.01526000  0.30838000  0.17596000  1.0
  C  C147  1  0.94750000  0.26494000  0.17978000  1.0
  C  C148  1  0.88117000  0.28998000  0.16165000  1.0
  C  C149  1  0.88142000  0.35955000  0.14059000  1.0
  C  C150  1  0.94999000  0.40442000  0.14128000  1.0
  C  C151  1  0.01574000  0.37882000  0.15757000  1.0
  C  C152  1  0.81216000  0.38517000  0.11431000  1.0
  C  C153  1  0.81350000  0.43290000  0.06267000  1.0
  C  C154  1  0.71174000  0.57204000  0.99441000  1.0
  C  C155  1  0.71358000  0.62028000  0.94441000  1.0
  C  C156  1  0.69354000  0.78340000  0.58796000  1.0
  C  C157  1  0.67557000  0.80804000  0.51510000  1.0
  C  C158  1  0.67968000  0.76479000  0.44791000  1.0
  C  C159  1  0.66194000  0.78986000  0.38175000  1.0
  C  C160  1  0.64091000  0.85935000  0.38129000  1.0
  C  C161  1  0.64140000  0.90407000  0.44932000  1.0
  C  C162  1  0.65731000  0.87846000  0.51489000  1.0
  C  C163  1  0.61470000  0.88497000  0.31211000  1.0
  C  C164  1  0.56306000  0.93287000  0.31330000  1.0
  C  C165  1  0.49491000  0.07223000  0.21175000  1.0
  C  C166  1  0.44497000  0.12067000  0.21367000  1.0
  C  C167  1  0.78302000  0.58830000  0.69415000  1.0
  C  C168  1  0.80797000  0.51549000  0.67590000  1.0
  C  C169  1  0.76468000  0.44764000  0.67976000  1.0
  C  C170  1  0.78989000  0.38138000  0.66166000  1.0
  C  C171  1  0.85945000  0.38173000  0.64057000  1.0
  C  C172  1  0.90424000  0.45038000  0.64133000  1.0
  C  C173  1  0.87848000  0.51605000  0.65760000  1.0
  C  C174  1  0.88523000  0.31254000  0.61428000  1.0
  C  C175  1  0.93305000  0.31391000  0.56272000  1.0
  C  C176  1  0.07230000  0.21196000  0.49476000  1.0
  C  C177  1  0.12066000  0.21375000  0.44486000  1.0
  C  C178  1  0.58866000  0.69377000  0.78317000  1.0
  C  C179  1  0.51563000  0.67572000  0.80789000  1.0
  C  C180  1  0.44796000  0.67964000  0.76496000  1.0
  C  C181  1  0.38159000  0.66168000  0.79021000  1.0
  C  C182  1  0.38167000  0.64073000  0.85943000  1.0
  C  C183  1  0.45018000  0.64155000  0.90384000  1.0
  C  C184  1  0.51594000  0.65762000  0.87804000  1.0
  C  C185  1  0.31232000  0.61439000  0.88518000  1.0
  C  C186  1  0.31347000  0.56278000  0.93297000  1.0
  C  C187  1  0.21179000  0.49500000  0.07221000  1.0
  C  C188  1  0.21382000  0.44515000  0.12063000  1.0
  C  C189  1  0.80575000  0.91160000  0.71618000  1.0
  C  C190  1  0.82426000  0.98464000  0.69162000  1.0
  C  C191  1  0.82040000  0.05220000  0.73473000  1.0
  C  C192  1  0.83842000  0.11864000  0.70965000  1.0
  C  C193  1  0.85932000  0.11867000  0.64043000  1.0
  C  C194  1  0.85853000  0.05026000  0.59588000  1.0
  C  C195  1  0.84244000  0.98441000  0.62153000  1.0
  C  C196  1  0.88566000  0.18808000  0.61483000  1.0
  C  C197  1  0.93734000  0.18696000  0.56714000  1.0
  C  C198  1  0.00537000  0.28841000  0.42797000  1.0
  C  C199  1  0.05534000  0.28634000  0.37970000  1.0
  C  C200  1  0.71602000  0.80597000  0.91227000  1.0
  C  C201  1  0.69156000  0.82440000  0.98514000  1.0
  C  C202  1  0.73497000  0.82033000  0.05227000  1.0
  C  C203  1  0.71004000  0.83814000  0.11847000  1.0
  C  C204  1  0.64055000  0.85913000  0.11899000  1.0
  C  C205  1  0.59572000  0.85870000  0.05103000  1.0
  C  C206  1  0.62123000  0.84279000  0.98541000  1.0
  C  C207  1  0.61505000  0.88533000  0.18821000  1.0
  C  C208  1  0.56723000  0.93704000  0.18703000  1.0
  C  C209  1  0.42796000  0.00540000  0.28840000  1.0
  C  C210  1  0.37966000  0.05548000  0.28653000  1.0
  C  C211  1  0.91190000  0.71636000  0.80540000  1.0
  C  C212  1  0.98475000  0.69159000  0.82404000  1.0
  C  C213  1  0.05251000  0.73502000  0.82021000  1.0
  C  C214  1  0.11884000  0.70997000  0.83835000  1.0
  C  C215  1  0.11859000  0.64042000  0.85942000  1.0
  C  C216  1  0.05002000  0.59555000  0.85874000  1.0
  C  C217  1  0.98426000  0.62116000  0.84244000  1.0
  C  C218  1  0.18785000  0.61479000  0.88572000  1.0
  C  C219  1  0.18650000  0.56706000  0.93736000  1.0
  C  C220  1  0.28826000  0.42793000  0.00562000  1.0
  C  C221  1  0.28643000  0.37969000  0.05562000  1.0
  C  C222  1  0.46047000  0.03939000  0.74984000  1.0
  C  C223  1  0.51272000  0.98708000  0.74989000  1.0
  C  C224  1  0.03918000  0.74955000  0.46062000  1.0
  C  C225  1  0.98696000  0.74970000  0.51279000  1.0
  C  C226  1  0.75005000  0.46062000  0.03924000  1.0
  C  C227  1  0.75004000  0.51274000  0.98697000  1.0
  C  C228  1  0.53952000  0.96063000  0.25015000  1.0
  C  C229  1  0.48726000  0.01294000  0.25009000  1.0
  C  C230  1  0.96083000  0.25046000  0.53936000  1.0
  C  C231  1  0.01304000  0.25032000  0.48719000  1.0
  C  C232  1  0.24995000  0.53934000  0.96080000  1.0
  C  C233  1  0.24995000  0.48722000  0.01306000  1.0
  N  N234  1  0.61187000  0.88766000  0.74987000  1.0
  N  N235  1  0.36059000  0.13944000  0.74984000  1.0
  N  N236  1  0.88774000  0.74999000  0.61186000  1.0
  N  N237  1  0.13910000  0.74978000  0.36095000  1.0
  N  N238  1  0.74984000  0.61174000  0.88767000  1.0
  N  N239  1  0.74989000  0.36087000  0.13910000  1.0
  N  N240  1  0.38812000  0.11235000  0.25011000  1.0
  N  N241  1  0.63939000  0.86058000  0.25015000  1.0
  N  N242  1  0.11227000  0.25003000  0.38812000  1.0
  N  N243  1  0.86092000  0.25024000  0.63903000  1.0
  N  N244  1  0.25016000  0.38822000  0.11235000  1.0
  N  N245  1  0.25012000  0.63909000  0.86094000  1.0
  O  O246  1  0.26505000  0.26485000  0.40800000  1.0
  O  O247  1  0.33211000  0.18336000  0.35945000  1.0
  O  O248  1  0.26502000  0.40806000  0.26436000  1.0
  O  O249  1  0.18401000  0.35871000  0.33175000  1.0
  O  O250  1  0.40726000  0.26471000  0.26485000  1.0
  O  O251  1  0.35864000  0.33211000  0.18383000  1.0
  O  O252  1  0.23629000  0.09201000  0.23625000  1.0
  O  O253  1  0.16826000  0.14118000  0.31658000  1.0
  O  O254  1  0.23606000  0.23582000  0.09128000  1.0
  O  O255  1  0.31709000  0.16833000  0.14039000  1.0
  O  O256  1  0.09131000  0.23597000  0.23655000  1.0
  O  O257  1  0.14116000  0.31646000  0.16861000  1.0
  O  O258  1  0.73497000  0.73518000  0.59199000  1.0
  O  O259  1  0.66787000  0.81663000  0.64053000  1.0
  O  O260  1  0.73500000  0.59194000  0.73566000  1.0
  O  O261  1  0.81598000  0.64130000  0.66824000  1.0
  O  O262  1  0.59273000  0.73530000  0.73518000  1.0
  O  O263  1  0.64135000  0.66788000  0.81618000  1.0
  O  O264  1  0.76370000  0.90800000  0.76372000  1.0
  O  O265  1  0.83175000  0.85883000  0.68342000  1.0
  O  O266  1  0.76390000  0.76415000  0.90873000  1.0
  O  O267  1  0.68291000  0.83169000  0.85961000  1.0
  O  O268  1  0.90870000  0.76400000  0.76344000  1.0
  O  O269  1  0.85885000  0.68354000  0.83140000  1.0
  O  O270  1  0.75453000  0.75450000  0.75447000  1.0
  O  O271  1  0.24547000  0.24551000  0.24553000  1.0
