# generated using pymatgen
data_Zn4H30(C18O5)3
_symmetry_space_group_name_H-M   'P 1'
_cell_length_a   16.03360000
_cell_length_b   17.84440000
_cell_length_c   17.97750000
_cell_angle_alpha   63.78150000
_cell_angle_beta   80.63970000
_cell_angle_gamma   75.95810000
_symmetry_Int_Tables_number   1
_chemical_formula_structural   Zn4H30(C18O5)3
_chemical_formula_sum   'Zn4 H30 C54 O15'
_cell_volume   4467.37445723
_cell_formula_units_Z   1
loop_
 _symmetry_equiv_pos_site_id
 _symmetry_equiv_pos_as_xyz
  1  'x, y, z'
loop_
 _atom_site_type_symbol
 _atom_site_label
 _atom_site_symmetry_multiplicity
 _atom_site_fract_x
 _atom_site_fract_y
 _atom_site_fract_z
 _atom_site_occupancy
  Zn  Zn0  1  0.43568000  0.41650000  0.58619000  1.0
  Zn  Zn1  1  0.59313000  0.43547000  0.45080000  1.0
  Zn  Zn2  1  0.54979000  0.55050000  0.55670000  1.0
  Zn  Zn3  1  0.42802000  0.58640000  0.41651000  1.0
  H  H4  1  0.99400000  0.56969000  0.42912000  1.0
  H  H5  1  0.49206000  0.16925000  0.37528000  1.0
  H  H6  1  0.53067000  0.83060000  0.60924000  1.0
  H  H7  1  0.57329000  0.99286000  0.74284000  1.0
  H  H8  1  0.33742000  0.37671000  0.09193000  1.0
  H  H9  1  0.68211000  0.57282000  0.19212000  1.0
  H  H10  1  0.64998000  0.64563000  0.90460000  1.0
  H  H11  1  0.30417000  0.35915000  0.97471000  1.0
  H  H12  1  0.33653000  0.37854000  0.82704000  1.0
  H  H13  1  0.50663000  0.54530000  0.78821000  1.0
  H  H14  1  0.60496000  0.68171000  0.78646000  1.0
  H  H15  1  0.41353000  0.43962000  0.15055000  1.0
  H  H16  1  0.77490000  0.61637000  0.08275000  1.0
  H  H17  1  0.29785000  0.84297000  0.22899000  1.0
  H  H18  1  0.29905000  0.80754000  0.33811000  1.0
  H  H19  1  0.27773000  0.91855000  0.27246000  1.0
  H  H20  1  0.42812000  0.90573000  0.20572000  1.0
  H  H21  1  0.44938000  0.79543000  0.27066000  1.0
  H  H22  1  0.39143000  0.69405000  0.18117000  1.0
  H  H23  1  0.35971000  0.70291000  0.08644000  1.0
  H  H24  1  0.28829000  0.67601000  0.17715000  1.0
  H  H25  1  0.35533000  0.54934000  0.15044000  1.0
  H  H26  1  0.45124000  0.12278000  0.27954000  1.0
  H  H27  1  0.38424000  0.53698000  0.24675000  1.0
  H  H28  1  0.52836000  0.20572000  0.45132000  1.0
  H  H29  1  0.56369000  0.14728000  0.70369000  1.0
  H  H30  1  0.56162000  0.87898000  0.70737000  1.0
  H  H31  1  0.42597000  0.01017000  0.24873000  1.0
  H  H32  1  0.51213000  0.79283000  0.52676000  1.0
  H  H33  1  0.01671000  0.39304000  0.57871000  1.0
  C  C34  1  0.53690000  0.54796000  0.28279000  1.0
  C  C35  1  0.44174000  0.50087000  0.91209000  1.0
  C  C36  1  0.38587000  0.44368000  0.96505000  1.0
  C  C37  1  0.44952000  0.47030000  0.71472000  1.0
  C  C38  1  0.48068000  0.54358000  0.94586000  1.0
  C  C39  1  0.46699000  0.52371000  0.03214000  1.0
  C  C40  1  0.41600000  0.46151000  0.08349000  1.0
  C  C41  1  0.37523000  0.42469000  0.05109000  1.0
  C  C42  1  0.54092000  0.59940000  0.89855000  1.0
  C  C43  1  0.59884000  0.61089000  0.94001000  1.0
  C  C44  1  0.59020000  0.58578000  0.02731000  1.0
  C  C45  1  0.11591000  0.50475000  0.48153000  1.0
  C  C46  1  0.51338000  0.55661000  0.07064000  1.0
  C  C47  1  0.65155000  0.59384000  0.07148000  1.0
  C  C48  1  0.63341000  0.57397000  0.15550000  1.0
  C  C49  1  0.53986000  0.27615000  0.55173000  1.0
  C  C50  1  0.48702000  0.55966000  0.14962000  1.0
  C  C51  1  0.46781000  0.81694000  0.41192000  1.0
  C  C52  1  0.54601000  0.18427000  0.57438000  1.0
  C  C53  1  0.44338000  0.96220000  0.31073000  1.0
  C  C54  1  0.44144000  0.87798000  0.33138000  1.0
  C  C55  1  0.49198000  0.84257000  0.46679000  1.0
  C  C56  1  0.89468000  0.45679000  0.52736000  1.0
  C  C57  1  0.49112000  0.92830000  0.44692000  1.0
  C  C58  1  0.46747000  0.98934000  0.36564000  1.0
  C  C59  1  0.51328000  0.95605000  0.50454000  1.0
  C  C60  1  0.51411000  0.04351000  0.47836000  1.0
  C  C61  1  0.47331000  0.72367000  0.44159000  1.0
  C  C62  1  0.49212000  0.10200000  0.39578000  1.0
  C  C63  1  0.46909000  0.07642000  0.34185000  1.0
  C  C64  1  0.53218000  0.89768000  0.58789000  1.0
  C  C65  1  0.54918000  0.92448000  0.64343000  1.0
  C  C66  1  0.54920000  0.01171000  0.62024000  1.0
  C  C67  1  0.19259000  0.50042000  0.48427000  1.0
  C  C68  1  0.53375000  0.07201000  0.53644000  1.0
  C  C69  1  0.56176000  0.03987000  0.67925000  1.0
  C  C70  1  0.55740000  0.12485000  0.65787000  1.0
  C  C71  1  0.53631000  0.15780000  0.51488000  1.0
  C  C72  1  0.72692000  0.46977000  0.52027000  1.0
  C  C73  1  0.28156000  0.49911000  0.48852000  1.0
  C  C74  1  0.81788000  0.46125000  0.52527000  1.0
  C  C75  1  0.98291000  0.45068000  0.53053000  1.0
  C  C76  1  0.02767000  0.51194000  0.47728000  1.0
  C  C77  1  0.54308000  0.65784000  0.80884000  1.0
  C  C78  1  0.42455000  0.46333000  0.80081000  1.0
  C  C79  1  0.73477000  0.62002000  0.03535000  1.0
  C  C80  1  0.41292000  0.85720000  0.26770000  1.0
  C  C81  1  0.31605000  0.85654000  0.27753000  1.0
  C  C82  1  0.39299000  0.57185000  0.17911000  1.0
  C  C83  1  0.35620000  0.66734000  0.15435000  1.0
  C  C84  1  0.55094000  0.56172000  0.19341000  1.0
  C  C85  1  0.34725000  0.40139000  0.93300000  1.0
  C  C86  1  0.36526000  0.41128000  0.85208000  1.0
  C  C87  1  0.46141000  0.50689000  0.83035000  1.0
  O  O88  1  0.50292000  0.49783000  0.50131000  1.0
  O  O89  1  0.70682000  0.43020000  0.48361000  1.0
  O  O90  1  0.31011000  0.56536000  0.43568000  1.0
  O  O91  1  0.67694000  0.51621000  0.55263000  1.0
  O  O92  1  0.32321000  0.43282000  0.54414000  1.0
  O  O93  1  0.48390000  0.68557000  0.76256000  1.0
  O  O94  1  0.76151000  0.64448000  0.96210000  1.0
  O  O95  1  0.50468000  0.30245000  0.60732000  1.0
  O  O96  1  0.42686000  0.69927000  0.40820000  1.0
  O  O97  1  0.59782000  0.49668000  0.32843000  1.0
  O  O98  1  0.50666000  0.51461000  0.67287000  1.0
  O  O99  1  0.46771000  0.58703000  0.30588000  1.0
  O  O100  1  0.41201000  0.43068000  0.68972000  1.0
  O  O101  1  0.56924000  0.32247000  0.47918000  1.0
  O  O102  1  0.52441000  0.67439000  0.49909000  1.0
