# generated using pymatgen
data_ZnH13C23N2O9
_symmetry_space_group_name_H-M   'P 1'
_cell_length_a   9.80194000
_cell_length_b   10.95470000
_cell_length_c   15.26030000
_cell_angle_alpha   87.97950000
_cell_angle_beta   88.91390000
_cell_angle_gamma   89.93330000
_symmetry_Int_Tables_number   1
_chemical_formula_structural   ZnH13C23N2O9
_chemical_formula_sum   'Zn2 H26 C46 N4 O18'
_cell_volume   1637.29682219
_cell_formula_units_Z   2
loop_
 _symmetry_equiv_pos_site_id
 _symmetry_equiv_pos_as_xyz
  1  'x, y, z'
loop_
 _atom_site_type_symbol
 _atom_site_label
 _atom_site_symmetry_multiplicity
 _atom_site_fract_x
 _atom_site_fract_y
 _atom_site_fract_z
 _atom_site_occupancy
  Zn  Zn0  1  0.36576000  0.51151000  0.50931000  1.0
  Zn  Zn1  1  0.65367000  0.51445000  0.49438000  1.0
  H  H2  1  0.40839000  0.34159000  0.23992000  1.0
  H  H3  1  0.19343000  0.88227000  0.51513000  1.0
  H  H4  1  0.24758000  0.90002000  0.40211000  1.0
  H  H5  1  0.86137000  0.39209000  0.68489000  1.0
  H  H6  1  0.55094000  0.70990000  0.21753000  1.0
  H  H7  1  0.56580000  0.80836000  0.90785000  1.0
  H  H8  1  0.41042000  0.20153000  0.94599000  1.0
  H  H9  1  0.73996000  0.90272000  0.54442000  1.0
  H  H10  1  0.83008000  0.08800000  0.58032000  1.0
  H  H11  1  0.89453000  0.09050000  0.42824000  1.0
  H  H12  1  0.93199000  0.23459000  0.47408000  1.0
  H  H13  1  0.78258000  0.21743000  0.41196000  1.0
  H  H14  1  0.18406000  0.21613000  0.56548000  1.0
  H  H15  1  0.24545000  0.24889000  0.39556000  1.0
  H  H16  1  0.99182000  0.52321000  0.28581000  1.0
  H  H17  1  0.74457000  0.48104000  0.25293000  1.0
  H  H18  1  0.73934000  0.38542000  0.34972000  1.0
  H  H19  1  0.84760000  0.34645000  0.25939000  1.0
  H  H20  1  0.25640000  0.67054000  0.37574000  1.0
  H  H21  1  0.23540000  0.34767000  0.69890000  1.0
  H  H22  1  0.12831000  0.67530000  0.69192000  1.0
  H  H23  1  0.78585000  0.65537000  0.65259000  1.0
  H  H24  1  0.53674000  0.86834000  0.14258000  1.0
  H  H25  1  0.54137000  0.69556000  0.68323000  1.0
  H  H26  1  0.49413000  0.18472000  0.82643000  1.0
  H  H27  1  0.34983000  0.19051000  0.18400000  1.0
  C  C28  1  0.53374000  0.74483000  0.51197000  1.0
  C  C29  1  0.44550000  0.40869000  0.10579000  1.0
  C  C30  1  0.54438000  0.73301000  0.03737000  1.0
  C  C31  1  0.54395000  0.72619000  0.94761000  1.0
  C  C32  1  0.51423000  0.61540000  0.90593000  1.0
  C  C33  1  0.48831000  0.50769000  0.95931000  1.0
  C  C34  1  0.46906000  0.39293000  0.91919000  1.0
  C  C35  1  0.43229000  0.28960000  0.97366000  1.0
  C  C36  1  0.41750000  0.29609000  0.06312000  1.0
  C  C37  1  0.51112000  0.60848000  0.81297000  1.0
  C  C38  1  0.49838000  0.49436000  0.77449000  1.0
  C  C39  1  0.49742000  0.49178000  0.67524000  1.0
  C  C40  1  0.48201000  0.38645000  0.82636000  1.0
  C  C41  1  0.40942000  0.94385000  0.49527000  1.0
  C  C42  1  0.52870000  0.87986000  0.51384000  1.0
  C  C43  1  0.64455000  0.95029000  0.53034000  1.0
  C  C44  1  0.64590000  0.07875000  0.52533000  1.0
  C  C45  1  0.52179000  0.14355000  0.50730000  1.0
  C  C46  1  0.40772000  0.07055000  0.49588000  1.0
  C  C47  1  0.25383000  0.07408000  0.47389000  1.0
  C  C48  1  0.26210000  0.93166000  0.46876000  1.0
  C  C49  1  0.93218000  0.48722000  0.56056000  1.0
  C  C50  1  0.50788000  0.27871000  0.50150000  1.0
  C  C51  1  0.95434000  0.50963000  0.41248000  1.0
  C  C52  1  0.09325000  0.55148000  0.42492000  1.0
  C  C53  1  0.07246000  0.50005000  0.56969000  1.0
  C  C54  1  0.06812000  0.48077000  0.66891000  1.0
  C  C55  1  0.90452000  0.47882000  0.65831000  1.0
  C  C56  1  0.48682000  0.52777000  0.33371000  1.0
  C  C57  1  0.44001000  0.41850000  0.19728000  1.0
  C  C58  1  0.48045000  0.52584000  0.23601000  1.0
  C  C59  1  0.51819000  0.62859000  0.18474000  1.0
  C  C60  1  0.51302000  0.62713000  0.09285000  1.0
  C  C61  1  0.48185000  0.51451000  0.05248000  1.0
  C  C62  1  0.84934000  0.17138000  0.45909000  1.0
  C  C63  1  0.16465000  0.11987000  0.54845000  1.0
  C  C64  1  0.23083000  0.14866000  0.38964000  1.0
  C  C65  1  0.80520000  0.42225000  0.29675000  1.0
  C  C66  1  0.16919000  0.61635000  0.35362000  1.0
  C  C67  1  0.12266000  0.35651000  0.70321000  1.0
  C  C68  1  0.12620000  0.58211000  0.72403000  1.0
  C  C69  1  0.82910000  0.58584000  0.69914000  1.0
  C  C70  1  0.57299000  0.85460000  0.07401000  1.0
  C  C71  1  0.52147000  0.71757000  0.75292000  1.0
  C  C72  1  0.47916000  0.26770000  0.78382000  1.0
  C  C73  1  0.37089000  0.18331000  0.11252000  1.0
  N  N74  1  0.86687000  0.49228000  0.48490000  1.0
  N  N75  1  0.15417000  0.53890000  0.50388000  1.0
  N  N76  1  0.77049000  0.14009000  0.53943000  1.0
  N  N77  1  0.91846000  0.49038000  0.33059000  1.0
  O  O78  1  0.42141000  0.69125000  0.49743000  1.0
  O  O79  1  0.64862000  0.69176000  0.52418000  1.0
  O  O80  1  0.38151000  0.51474000  0.64154000  1.0
  O  O81  1  0.60933000  0.47819000  0.63369000  1.0
  O  O82  1  0.39189000  0.32380000  0.52084000  1.0
  O  O83  1  0.61224000  0.34020000  0.47478000  1.0
  O  O84  1  0.38509000  0.48170000  0.37673000  1.0
  O  O85  1  0.59228000  0.57260000  0.36727000  1.0
  O  O86  1  0.07884000  0.05686000  0.58708000  1.0
  O  O87  1  0.20435000  0.10458000  0.31965000  1.0
  O  O88  1  0.13449000  0.61936000  0.27599000  1.0
  O  O89  1  0.04866000  0.27506000  0.73167000  1.0
  O  O90  1  0.16570000  0.56282000  0.79814000  1.0
  O  O91  1  0.82111000  0.59581000  0.77823000  1.0
  O  O92  1  0.63017000  0.93776000  0.03227000  1.0
  O  O93  1  0.50872000  0.82463000  0.77249000  1.0
  O  O94  1  0.46425000  0.25782000  0.70452000  1.0
  O  O95  1  0.35323000  0.08560000  0.07777000  1.0
