# generated using pymatgen
data_CuH15C24Br(NO2)3
_symmetry_space_group_name_H-M   'P 1'
_cell_length_a   7.69249000
_cell_length_b   30.22110000
_cell_length_c   32.32850000
_cell_angle_alpha   115.21900000
_cell_angle_beta   89.99950000
_cell_angle_gamma   89.99980000
_symmetry_Int_Tables_number   1
_chemical_formula_structural   CuH15C24Br(NO2)3
_chemical_formula_sum   'Cu8 H120 C192 Br8 N24 O48'
_cell_volume   6799.24265187
_cell_formula_units_Z   8
loop_
 _symmetry_equiv_pos_site_id
 _symmetry_equiv_pos_as_xyz
  1  'x, y, z'
loop_
 _atom_site_type_symbol
 _atom_site_label
 _atom_site_symmetry_multiplicity
 _atom_site_fract_x
 _atom_site_fract_y
 _atom_site_fract_z
 _atom_site_occupancy
  Cu  Cu0  1  0.21306000  0.12022000  0.25696000  1.0
  Cu  Cu1  1  0.21305000  0.37978000  0.24303000  1.0
  Cu  Cu2  1  0.78696000  0.87978000  0.74304000  1.0
  Cu  Cu3  1  0.78694000  0.62022000  0.75696000  1.0
  Cu  Cu4  1  0.73767000  0.12427000  0.76050000  1.0
  Cu  Cu5  1  0.73767000  0.37573000  0.73950000  1.0
  Cu  Cu6  1  0.26234000  0.87573000  0.23950000  1.0
  Cu  Cu7  1  0.26234000  0.62427000  0.26050000  1.0
  H  H8  1  0.32982000  0.20399000  0.54660000  1.0
  H  H9  1  0.32984000  0.29601000  0.95340000  1.0
  H  H10  1  0.67017000  0.79601000  0.45340000  1.0
  H  H11  1  0.67017000  0.70399000  0.04660000  1.0
  H  H12  1  0.21331000  0.32965000  0.67365000  1.0
  H  H13  1  0.21332000  0.17035000  0.82634000  1.0
  H  H14  1  0.78668000  0.67035000  0.32635000  1.0
  H  H15  1  0.78669000  0.82965000  0.17365000  1.0
  H  H16  1  0.06740000  0.32988000  0.54508000  1.0
  H  H17  1  0.06741000  0.17012000  0.95491000  1.0
  H  H18  1  0.93259000  0.67012000  0.45492000  1.0
  H  H19  1  0.93259000  0.82988000  0.04509000  1.0
  H  H20  1  0.39135000  0.27026000  0.39539000  1.0
  H  H21  1  0.39136000  0.22974000  0.10461000  1.0
  H  H22  1  0.60865000  0.72974000  0.60461000  1.0
  H  H23  1  0.60864000  0.77027000  0.89539000  1.0
  H  H24  1  0.37472000  0.21148000  0.31309000  1.0
  H  H25  1  0.37473000  0.28852000  0.18691000  1.0
  H  H26  1  0.62528000  0.78852000  0.68691000  1.0
  H  H27  1  0.62527000  0.71148000  0.81309000  1.0
  H  H28  1  0.05383000  0.11789000  0.34233000  1.0
  H  H29  1  0.05384000  0.38210000  0.15767000  1.0
  H  H30  1  0.94616000  0.88211000  0.65767000  1.0
  H  H31  1  0.94616000  0.61789000  0.84233000  1.0
  H  H32  1  0.07004000  0.17044000  0.42586000  1.0
  H  H33  1  0.07004000  0.32956000  0.07413000  1.0
  H  H34  1  0.92996000  0.82956000  0.57414000  1.0
  H  H35  1  0.92997000  0.67044000  0.92586000  1.0
  H  H36  1  0.19918000  0.19546000  0.72586000  1.0
  H  H37  1  0.19919000  0.30454000  0.77414000  1.0
  H  H38  1  0.80082000  0.80454000  0.27414000  1.0
  H  H39  1  0.80081000  0.69546000  0.22586000  1.0
  H  H40  1  0.39348000  0.16264000  0.76692000  1.0
  H  H41  1  0.39348000  0.33736000  0.73307000  1.0
  H  H42  1  0.60653000  0.83736000  0.23308000  1.0
  H  H43  1  0.60652000  0.66264000  0.26693000  1.0
  H  H44  1  0.82130000  0.16431000  0.68945000  1.0
  H  H45  1  0.82131000  0.33569000  0.81054000  1.0
  H  H46  1  0.17869000  0.83569000  0.31055000  1.0
  H  H47  1  0.17869000  0.66430000  0.18946000  1.0
  H  H48  1  0.64545000  0.20161000  0.64701000  1.0
  H  H49  1  0.64546000  0.29840000  0.85299000  1.0
  H  H50  1  0.35454000  0.79840000  0.35299000  1.0
  H  H51  1  0.35454000  0.70160000  0.14701000  1.0
  H  H52  1  0.29798000  0.50625000  0.70866000  1.0
  H  H53  1  0.29799000  0.99374000  0.79133000  1.0
  H  H54  1  0.70201000  0.49375000  0.29134000  1.0
  H  H55  1  0.70202000  0.00626000  0.20867000  1.0
  H  H56  1  0.14095000  0.58296000  0.75200000  1.0
  H  H57  1  0.14095000  0.91704000  0.74800000  1.0
  H  H58  1  0.85905000  0.41704000  0.24800000  1.0
  H  H59  1  0.85906000  0.08296000  0.25200000  1.0
  H  H60  1  0.66131000  0.51755000  0.70505000  1.0
  H  H61  1  0.66131000  0.98245000  0.79495000  1.0
  H  H62  1  0.33869000  0.48245000  0.29495000  1.0
  H  H63  1  0.33869000  0.01755000  0.20505000  1.0
  H  H64  1  0.80115000  0.43539000  0.66218000  1.0
  H  H65  1  0.80117000  0.06461000  0.83782000  1.0
  H  H66  1  0.19884000  0.56461000  0.33782000  1.0
  H  H67  1  0.19884000  0.93539000  0.16218000  1.0
  H  H68  1  0.70025000  0.33535000  0.17701000  1.0
  H  H69  1  0.70026000  0.16465000  0.32298000  1.0
  H  H70  1  0.29975000  0.66465000  0.82299000  1.0
  H  H71  1  0.29975000  0.83535000  0.67702000  1.0
  H  H72  1  0.56719000  0.33644000  0.04797000  1.0
  H  H73  1  0.56720000  0.16356000  0.45203000  1.0
  H  H74  1  0.43281000  0.66357000  0.95203000  1.0
  H  H75  1  0.43280000  0.83644000  0.54797000  1.0
  H  H76  1  0.82987000  0.21093000  0.05029000  1.0
  H  H77  1  0.82988000  0.28907000  0.44970000  1.0
  H  H78  1  0.17013000  0.78907000  0.94970000  1.0
  H  H79  1  0.17013000  0.71093000  0.55030000  1.0
  H  H80  1  0.67685000  0.19255000  0.22197000  1.0
  H  H81  1  0.67685000  0.30745000  0.27803000  1.0
  H  H82  1  0.32314000  0.80745000  0.77803000  1.0
  H  H83  1  0.32314000  0.69255000  0.72197000  1.0
  H  H84  1  0.86253000  0.15464000  0.25996000  1.0
  H  H85  1  0.86251000  0.34536000  0.24004000  1.0
  H  H86  1  0.13748000  0.84536000  0.74004000  1.0
  H  H87  1  0.13748000  0.65464000  0.75996000  1.0
  H  H88  1  0.30535000  0.16808000  0.19280000  1.0
  H  H89  1  0.30534000  0.33193000  0.30720000  1.0
  H  H90  1  0.69465000  0.83192000  0.80720000  1.0
  H  H91  1  0.69465000  0.66808000  0.69280000  1.0
  H  H92  1  0.13734000  0.21060000  0.15376000  1.0
  H  H93  1  0.13733000  0.28940000  0.34623000  1.0
  H  H94  1  0.86266000  0.78940000  0.84624000  1.0
  H  H95  1  0.86266000  0.71060000  0.65377000  1.0
  H  H96  1  0.77875000  0.51272000  0.21383000  1.0
  H  H97  1  0.77875000  0.98728000  0.28617000  1.0
  H  H98  1  0.22125000  0.48728000  0.78617000  1.0
  H  H99  1  0.22125000  0.01272000  0.71383000  1.0
  H  H100  1  0.61643000  0.58849000  0.25708000  1.0
  H  H101  1  0.61644000  0.91151000  0.24292000  1.0
  H  H102  1  0.38356000  0.41151000  0.74292000  1.0
  H  H103  1  0.38356000  0.08849000  0.75708000  1.0
  H  H104  1  0.14161000  0.52084000  0.20812000  1.0
  H  H105  1  0.14160000  0.97916000  0.29188000  1.0
  H  H106  1  0.85839000  0.47916000  0.79188000  1.0
  H  H107  1  0.85839000  0.02084000  0.70812000  1.0
  H  H108  1  0.28704000  0.43959000  0.16499000  1.0
  H  H109  1  0.28704000  0.06041000  0.33501000  1.0
  H  H110  1  0.71296000  0.56041000  0.83501000  1.0
  H  H111  1  0.71296000  0.93959000  0.66499000  1.0
  H  H112  1  0.89581000  0.27749000  0.89877000  1.0
  H  H113  1  0.89581000  0.22251000  0.60123000  1.0
  H  H114  1  0.10419000  0.72252000  0.10123000  1.0
  H  H115  1  0.10419000  0.77749000  0.39877000  1.0
  H  H116  1  0.88679000  0.21787000  0.81668000  1.0
  H  H117  1  0.88679000  0.28213000  0.68331000  1.0
  H  H118  1  0.11321000  0.78214000  0.18331000  1.0
  H  H119  1  0.11320000  0.71786000  0.31669000  1.0
  H  H120  1  0.57022000  0.12313000  0.84550000  1.0
  H  H121  1  0.57021000  0.37687000  0.65450000  1.0
  H  H122  1  0.42978000  0.87687000  0.15450000  1.0
  H  H123  1  0.42978000  0.62313000  0.34550000  1.0
  H  H124  1  0.57738000  0.17686000  0.92883000  1.0
  H  H125  1  0.57738000  0.32314000  0.57117000  1.0
  H  H126  1  0.42263000  0.82314000  0.07117000  1.0
  H  H127  1  0.42261000  0.67686000  0.42883000  1.0
  C  C128  1  0.19725000  0.26430000  0.54103000  1.0
  C  C129  1  0.19727000  0.23569000  0.95897000  1.0
  C  C130  1  0.80274000  0.73570000  0.45897000  1.0
  C  C131  1  0.80274000  0.76431000  0.04103000  1.0
  C  C132  1  0.27534000  0.24047000  0.56476000  1.0
  C  C133  1  0.27536000  0.25953000  0.93524000  1.0
  C  C134  1  0.72465000  0.75953000  0.43524000  1.0
  C  C135  1  0.72465000  0.74048000  0.06476000  1.0
  C  C136  1  0.28337000  0.26474000  0.61220000  1.0
  C  C137  1  0.28338000  0.23526000  0.88779000  1.0
  C  C138  1  0.71662000  0.73526000  0.38780000  1.0
  C  C139  1  0.71662000  0.76474000  0.11220000  1.0
  C  C140  1  0.21366000  0.31124000  0.63636000  1.0
  C  C141  1  0.21368000  0.18876000  0.86363000  1.0
  C  C142  1  0.78633000  0.68876000  0.36364000  1.0
  C  C143  1  0.78633000  0.81124000  0.13637000  1.0
  C  C144  1  0.13690000  0.33359000  0.61107000  1.0
  C  C145  1  0.13691000  0.16641000  0.88893000  1.0
  C  C146  1  0.86310000  0.66641000  0.38893000  1.0
  C  C147  1  0.86309000  0.83359000  0.11107000  1.0
  C  C148  1  0.12747000  0.31113000  0.56358000  1.0
  C  C149  1  0.12748000  0.18887000  0.93642000  1.0
  C  C150  1  0.87252000  0.68887000  0.43642000  1.0
  C  C151  1  0.87252000  0.81113000  0.06358000  1.0
  C  C152  1  0.25041000  0.25905000  0.46621000  1.0
  C  C153  1  0.25042000  0.24094000  0.03379000  1.0
  C  C154  1  0.74959000  0.74096000  0.53380000  1.0
  C  C155  1  0.74958000  0.75906000  0.96621000  1.0
  C  C156  1  0.28845000  0.22319000  0.66050000  1.0
  C  C157  1  0.28847000  0.27681000  0.83950000  1.0
  C  C158  1  0.71153000  0.77681000  0.33950000  1.0
  C  C159  1  0.71154000  0.72319000  0.16050000  1.0
  C  C160  1  0.16213000  0.41849000  0.65798000  1.0
  C  C161  1  0.16212000  0.08151000  0.84201000  1.0
  C  C162  1  0.83788000  0.58151000  0.34202000  1.0
  C  C163  1  0.83788000  0.91849000  0.15798000  1.0
  C  C164  1  0.23210000  0.22495000  0.41728000  1.0
  C  C165  1  0.23210000  0.27504000  0.08272000  1.0
  C  C166  1  0.76790000  0.77505000  0.58272000  1.0
  C  C167  1  0.76790000  0.72495000  0.91728000  1.0
  C  C168  1  0.31491000  0.23691000  0.38485000  1.0
  C  C169  1  0.31491000  0.26308000  0.11515000  1.0
  C  C170  1  0.68509000  0.76309000  0.61515000  1.0
  C  C171  1  0.68509000  0.73692000  0.88485000  1.0
  C  C172  1  0.30501000  0.20446000  0.33903000  1.0
  C  C173  1  0.30502000  0.29553000  0.16097000  1.0
  C  C174  1  0.69499000  0.79554000  0.66097000  1.0
  C  C175  1  0.69498000  0.70446000  0.83903000  1.0
  C  C176  1  0.13083000  0.15133000  0.35538000  1.0
  C  C177  1  0.13083000  0.34867000  0.14462000  1.0
  C  C178  1  0.86917000  0.84867000  0.64462000  1.0
  C  C179  1  0.86916000  0.65133000  0.85538000  1.0
  C  C180  1  0.13861000  0.18104000  0.40203000  1.0
  C  C181  1  0.13862000  0.31895000  0.09797000  1.0
  C  C182  1  0.86138000  0.81896000  0.59797000  1.0
  C  C183  1  0.86139000  0.68105000  0.90203000  1.0
  C  C184  1  0.40731000  0.20184000  0.68331000  1.0
  C  C185  1  0.40732000  0.29816000  0.81669000  1.0
  C  C186  1  0.59268000  0.79816000  0.31669000  1.0
  C  C187  1  0.59268000  0.70184000  0.18331000  1.0
  C  C188  1  0.33663000  0.19011000  0.71720000  1.0
  C  C189  1  0.33664000  0.30988000  0.78280000  1.0
  C  C190  1  0.66336000  0.80989000  0.28280000  1.0
  C  C191  1  0.66336000  0.69012000  0.21720000  1.0
  C  C192  1  0.44526000  0.17122000  0.73987000  1.0
  C  C193  1  0.44527000  0.32878000  0.76013000  1.0
  C  C194  1  0.55474000  0.82878000  0.26013000  1.0
  C  C195  1  0.55474000  0.67122000  0.23987000  1.0
  C  C196  1  0.68338000  0.17255000  0.69665000  1.0
  C  C197  1  0.68339000  0.32745000  0.80334000  1.0
  C  C198  1  0.31661000  0.82745000  0.30335000  1.0
  C  C199  1  0.31661000  0.67255000  0.19665000  1.0
  C  C200  1  0.58488000  0.19299000  0.67310000  1.0
  C  C201  1  0.58489000  0.30701000  0.82690000  1.0
  C  C202  1  0.41511000  0.80701000  0.32691000  1.0
  C  C203  1  0.41511000  0.69299000  0.17310000  1.0
  C  C204  1  0.06222000  0.46417000  0.68212000  1.0
  C  C205  1  0.06222000  0.03583000  0.81787000  1.0
  C  C206  1  0.93778000  0.53583000  0.31787000  1.0
  C  C207  1  0.93779000  0.96417000  0.18213000  1.0
  C  C208  1  0.15673000  0.50671000  0.70750000  1.0
  C  C209  1  0.15674000  0.99329000  0.79249000  1.0
  C  C210  1  0.84327000  0.49329000  0.29250000  1.0
  C  C211  1  0.84327000  0.00671000  0.20751000  1.0
  C  C212  1  0.06798000  0.55003000  0.73151000  1.0
  C  C213  1  0.06798000  0.94997000  0.76849000  1.0
  C  C214  1  0.93202000  0.44997000  0.26849000  1.0
  C  C215  1  0.93202000  0.05003000  0.23151000  1.0
  C  C216  1  0.80185000  0.51270000  0.70536000  1.0
  C  C217  1  0.80186000  0.98730000  0.79464000  1.0
  C  C218  1  0.19815000  0.48730000  0.29464000  1.0
  C  C219  1  0.19815000  0.01270000  0.20536000  1.0
  C  C220  1  0.88040000  0.46749000  0.68129000  1.0
  C  C221  1  0.88041000  0.03252000  0.81871000  1.0
  C  C222  1  0.11960000  0.53251000  0.31871000  1.0
  C  C223  1  0.11960000  0.96749000  0.18129000  1.0
  C  C224  1  0.77678000  0.27110000  0.11577000  1.0
  C  C225  1  0.77678000  0.22890000  0.38423000  1.0
  C  C226  1  0.22323000  0.72890000  0.88423000  1.0
  C  C227  1  0.22322000  0.77110000  0.61577000  1.0
  C  C228  1  0.70439000  0.31728000  0.13974000  1.0
  C  C229  1  0.70440000  0.18271000  0.36026000  1.0
  C  C230  1  0.29560000  0.68272000  0.86026000  1.0
  C  C231  1  0.29560000  0.81728000  0.63974000  1.0
  C  C232  1  0.62996000  0.33966000  0.11417000  1.0
  C  C233  1  0.62996000  0.16034000  0.38582000  1.0
  C  C234  1  0.37005000  0.66034000  0.88583000  1.0
  C  C235  1  0.37005000  0.83966000  0.61418000  1.0
  C  C236  1  0.62552000  0.31760000  0.06661000  1.0
  C  C237  1  0.62553000  0.18240000  0.43339000  1.0
  C  C238  1  0.37448000  0.68240000  0.93339000  1.0
  C  C239  1  0.37447000  0.81761000  0.56661000  1.0
  C  C240  1  0.69776000  0.27104000  0.04422000  1.0
  C  C241  1  0.69777000  0.22896000  0.45578000  1.0
  C  C242  1  0.30225000  0.72897000  0.95578000  1.0
  C  C243  1  0.30224000  0.77104000  0.54422000  1.0
  C  C244  1  0.77353000  0.24720000  0.06826000  1.0
  C  C245  1  0.77353000  0.25280000  0.43173000  1.0
  C  C246  1  0.22648000  0.75280000  0.93173000  1.0
  C  C247  1  0.22647000  0.74720000  0.56827000  1.0
  C  C248  1  0.77681000  0.22838000  0.16303000  1.0
  C  C249  1  0.77680000  0.27161000  0.33697000  1.0
  C  C250  1  0.22320000  0.77162000  0.83697000  1.0
  C  C251  1  0.22320000  0.72838000  0.66303000  1.0
  C  C252  1  0.64904000  0.42451000  0.16189000  1.0
  C  C253  1  0.64903000  0.07549000  0.33811000  1.0
  C  C254  1  0.35096000  0.57549000  0.83812000  1.0
  C  C255  1  0.35097000  0.92451000  0.66189000  1.0
  C  C256  1  0.75123000  0.26644000  0.96943000  1.0
  C  C257  1  0.75125000  0.23355000  0.53057000  1.0
  C  C258  1  0.24877000  0.73357000  0.03057000  1.0
  C  C259  1  0.24875000  0.76644000  0.46943000  1.0
  C  C260  1  0.89237000  0.20521000  0.18488000  1.0
  C  C261  1  0.89236000  0.29479000  0.31511000  1.0
  C  C262  1  0.10763000  0.79479000  0.81512000  1.0
  C  C263  1  0.10763000  0.70521000  0.68488000  1.0
  C  C264  1  0.81585000  0.18886000  0.21506000  1.0
  C  C265  1  0.81584000  0.31114000  0.28493000  1.0
  C  C266  1  0.18415000  0.81114000  0.78494000  1.0
  C  C267  1  0.18415000  0.68886000  0.71506000  1.0
  C  C268  1  0.92023000  0.16715000  0.23610000  1.0
  C  C269  1  0.92022000  0.33285000  0.26390000  1.0
  C  C270  1  0.07977000  0.83285000  0.76390000  1.0
  C  C271  1  0.07977000  0.66715000  0.73610000  1.0
  C  C272  1  0.16618000  0.17506000  0.19860000  1.0
  C  C273  1  0.16617000  0.32494000  0.30140000  1.0
  C  C274  1  0.83383000  0.82494000  0.80140000  1.0
  C  C275  1  0.83382000  0.67506000  0.69860000  1.0
  C  C276  1  0.07188000  0.19835000  0.17685000  1.0
  C  C277  1  0.07187000  0.30165000  0.32314000  1.0
  C  C278  1  0.92812000  0.80165000  0.82315000  1.0
  C  C279  1  0.92812000  0.69835000  0.67685000  1.0
  C  C280  1  0.54597000  0.46958000  0.18606000  1.0
  C  C281  1  0.54597000  0.03042000  0.31394000  1.0
  C  C282  1  0.45403000  0.53042000  0.81394000  1.0
  C  C283  1  0.45403000  0.96958000  0.68607000  1.0
  C  C284  1  0.63754000  0.51245000  0.21217000  1.0
  C  C285  1  0.63754000  0.98755000  0.28783000  1.0
  C  C286  1  0.36247000  0.48755000  0.78784000  1.0
  C  C287  1  0.36247000  0.01245000  0.71217000  1.0
  C  C288  1  0.54583000  0.55523000  0.23617000  1.0
  C  C289  1  0.54584000  0.94477000  0.26384000  1.0
  C  C290  1  0.45416000  0.44477000  0.76384000  1.0
  C  C291  1  0.45416000  0.05524000  0.73617000  1.0
  C  C292  1  0.28240000  0.51670000  0.20882000  1.0
  C  C293  1  0.28240000  0.98330000  0.29118000  1.0
  C  C294  1  0.71760000  0.48329000  0.79118000  1.0
  C  C295  1  0.71760000  0.01670000  0.70882000  1.0
  C  C296  1  0.36404000  0.47199000  0.18464000  1.0
  C  C297  1  0.36404000  0.02801000  0.31536000  1.0
  C  C298  1  0.63596000  0.52801000  0.81536000  1.0
  C  C299  1  0.63596000  0.97199000  0.68464000  1.0
  C  C300  1  0.73765000  0.23182000  0.92049000  1.0
  C  C301  1  0.73764000  0.26818000  0.57950000  1.0
  C  C302  1  0.26236000  0.76819000  0.07950000  1.0
  C  C303  1  0.26235000  0.73182000  0.42050000  1.0
  C  C304  1  0.82166000  0.24374000  0.88819000  1.0
  C  C305  1  0.82166000  0.25626000  0.61181000  1.0
  C  C306  1  0.17834000  0.75627000  0.11181000  1.0
  C  C307  1  0.17833000  0.74374000  0.38819000  1.0
  C  C308  1  0.81633000  0.21074000  0.84246000  1.0
  C  C309  1  0.81632000  0.28926000  0.65754000  1.0
  C  C310  1  0.18368000  0.78926000  0.15754000  1.0
  C  C311  1  0.18367000  0.71074000  0.34246000  1.0
  C  C312  1  0.64448000  0.15706000  0.85858000  1.0
  C  C313  1  0.64447000  0.34294000  0.64141000  1.0
  C  C314  1  0.35553000  0.84295000  0.14142000  1.0
  C  C315  1  0.35552000  0.65706000  0.35859000  1.0
  C  C316  1  0.64723000  0.18741000  0.90514000  1.0
  C  C317  1  0.64723000  0.31259000  0.59486000  1.0
  C  C318  1  0.35277000  0.81260000  0.09486000  1.0
  C  C319  1  0.35276000  0.68741000  0.40514000  1.0
  Br  Br320  1  0.52307000  0.10996000  0.23680000  1.0
  Br  Br321  1  0.52308000  0.39004000  0.26319000  1.0
  Br  Br322  1  0.47692000  0.89004000  0.76320000  1.0
  Br  Br323  1  0.47692000  0.60996000  0.73680000  1.0
  Br  Br324  1  0.04645000  0.11383000  0.74103000  1.0
  Br  Br325  1  0.04645000  0.38617000  0.75896000  1.0
  Br  Br326  1  0.95354000  0.88617000  0.25897000  1.0
  Br  Br327  1  0.95355000  0.61383000  0.24104000  1.0
  N  N328  1  0.61557000  0.16181000  0.72989000  1.0
  N  N329  1  0.61558000  0.33819000  0.77011000  1.0
  N  N330  1  0.38443000  0.83819000  0.27011000  1.0
  N  N331  1  0.38442000  0.66181000  0.22989000  1.0
  N  N332  1  0.89304000  0.55383000  0.73044000  1.0
  N  N333  1  0.89306000  0.94618000  0.76956000  1.0
  N  N334  1  0.10695000  0.44618000  0.26956000  1.0
  N  N335  1  0.10695000  0.05382000  0.23044000  1.0
  N  N336  1  0.21388000  0.16224000  0.32406000  1.0
  N  N337  1  0.21389000  0.33775000  0.17594000  1.0
  N  N338  1  0.78612000  0.83776000  0.67594000  1.0
  N  N339  1  0.78611000  0.66224000  0.82406000  1.0
  N  N340  1  0.09242000  0.15949000  0.22802000  1.0
  N  N341  1  0.09241000  0.34051000  0.27198000  1.0
  N  N342  1  0.90759000  0.84051000  0.77198000  1.0
  N  N343  1  0.90758000  0.65949000  0.72802000  1.0
  N  N344  1  0.37080000  0.55817000  0.23449000  1.0
  N  N345  1  0.37080000  0.94183000  0.26552000  1.0
  N  N346  1  0.62920000  0.44183000  0.76551000  1.0
  N  N347  1  0.62920000  0.05817000  0.73449000  1.0
  N  N348  1  0.72910000  0.16788000  0.82741000  1.0
  N  N349  1  0.72910000  0.33212000  0.67258000  1.0
  N  N350  1  0.27090000  0.83212000  0.17259000  1.0
  N  N351  1  0.27089000  0.66788000  0.32742000  1.0
  O  O352  1  0.18638000  0.23807000  0.49372000  1.0
  O  O353  1  0.18640000  0.26193000  0.00628000  1.0
  O  O354  1  0.81361000  0.76193000  0.50628000  1.0
  O  O355  1  0.81361000  0.73807000  0.99372000  1.0
  O  O356  1  0.37832000  0.24217000  0.63496000  1.0
  O  O357  1  0.37834000  0.25783000  0.86504000  1.0
  O  O358  1  0.62167000  0.75783000  0.36504000  1.0
  O  O359  1  0.62166000  0.74217000  0.13496000  1.0
  O  O360  1  0.05666000  0.37923000  0.63332000  1.0
  O  O361  1  0.05667000  0.12077000  0.86668000  1.0
  O  O362  1  0.94334000  0.62077000  0.36669000  1.0
  O  O363  1  0.94334000  0.87923000  0.13332000  1.0
  O  O364  1  0.31547000  0.29959000  0.48083000  1.0
  O  O365  1  0.31547000  0.20040000  0.01917000  1.0
  O  O366  1  0.68453000  0.70041000  0.51917000  1.0
  O  O367  1  0.68453000  0.79960000  0.98083000  1.0
  O  O368  1  0.13042000  0.22432000  0.66382000  1.0
  O  O369  1  0.13044000  0.27568000  0.83618000  1.0
  O  O370  1  0.86957000  0.77568000  0.33618000  1.0
  O  O371  1  0.86957000  0.72432000  0.16382000  1.0
  O  O372  1  0.32028000  0.41559000  0.65876000  1.0
  O  O373  1  0.32029000  0.08441000  0.84123000  1.0
  O  O374  1  0.67972000  0.58441000  0.34124000  1.0
  O  O375  1  0.67972000  0.91559000  0.15876000  1.0
  O  O376  1  0.86950000  0.24843000  0.13882000  1.0
  O  O377  1  0.86950000  0.25157000  0.36117000  1.0
  O  O378  1  0.13050000  0.75157000  0.86117000  1.0
  O  O379  1  0.13050000  0.74843000  0.63883000  1.0
  O  O380  1  0.54668000  0.38488000  0.13623000  1.0
  O  O381  1  0.54668000  0.11512000  0.36377000  1.0
  O  O382  1  0.45332000  0.61512000  0.86378000  1.0
  O  O383  1  0.45333000  0.88488000  0.63623000  1.0
  O  O384  1  0.69172000  0.24484000  0.99686000  1.0
  O  O385  1  0.69173000  0.25515000  0.50314000  1.0
  O  O386  1  0.30829000  0.75516000  0.00314000  1.0
  O  O387  1  0.30827000  0.74485000  0.49686000  1.0
  O  O388  1  0.61858000  0.22960000  0.16570000  1.0
  O  O389  1  0.61858000  0.27040000  0.33430000  1.0
  O  O390  1  0.38142000  0.77041000  0.83430000  1.0
  O  O391  1  0.38142000  0.72960000  0.66570000  1.0
  O  O392  1  0.80724000  0.42235000  0.16347000  1.0
  O  O393  1  0.80724000  0.07764000  0.33653000  1.0
  O  O394  1  0.19275000  0.57764000  0.83654000  1.0
  O  O395  1  0.19276000  0.92236000  0.66347000  1.0
  O  O396  1  0.80948000  0.30778000  0.98401000  1.0
  O  O397  1  0.80950000  0.19222000  0.51598000  1.0
  O  O398  1  0.19053000  0.69222000  0.01598000  1.0
  O  O399  1  0.19050000  0.80778000  0.48402000  1.0
