# generated using pymatgen
data_CoH18C26N4O5
_symmetry_space_group_name_H-M   'P 1'
_cell_length_a   11.90900000
_cell_length_b   12.14510000
_cell_length_c   16.76370000
_cell_angle_alpha   89.99970000
_cell_angle_beta   89.99980000
_cell_angle_gamma   99.69410000
_symmetry_Int_Tables_number   1
_chemical_formula_structural   CoH18C26N4O5
_chemical_formula_sum   'Co4 H72 C104 N16 O20'
_cell_volume   2390.01263810
_cell_formula_units_Z   4
loop_
 _symmetry_equiv_pos_site_id
 _symmetry_equiv_pos_as_xyz
  1  'x, y, z'
loop_
 _atom_site_type_symbol
 _atom_site_label
 _atom_site_symmetry_multiplicity
 _atom_site_fract_x
 _atom_site_fract_y
 _atom_site_fract_z
 _atom_site_occupancy
  Co  Co0  1  0.09280000  0.88560000  0.05918000  1.0
  Co  Co1  1  0.90720000  0.61441000  0.55917000  1.0
  Co  Co2  1  0.90721000  0.11441000  0.94083000  1.0
  Co  Co3  1  0.09279000  0.38559000  0.44083000  1.0
  H  H4  1  0.20105000  0.16482000  0.81081000  1.0
  H  H5  1  0.79895000  0.33519000  0.31080000  1.0
  H  H6  1  0.79895000  0.83518000  0.18919000  1.0
  H  H7  1  0.20106000  0.66483000  0.68919000  1.0
  H  H8  1  0.39378000  0.19199000  0.74729000  1.0
  H  H9  1  0.60622000  0.30802000  0.24729000  1.0
  H  H10  1  0.60623000  0.80802000  0.25271000  1.0
  H  H11  1  0.39379000  0.69198000  0.75271000  1.0
  H  H12  1  0.43443000  0.86225000  0.82389000  1.0
  H  H13  1  0.56556000  0.63775000  0.32390000  1.0
  H  H14  1  0.56557000  0.13776000  0.17611000  1.0
  H  H15  1  0.43442000  0.36224000  0.67610000  1.0
  H  H16  1  0.24554000  0.83772000  0.88941000  1.0
  H  H17  1  0.75446000  0.66229000  0.38941000  1.0
  H  H18  1  0.75447000  0.16229000  0.11059000  1.0
  H  H19  1  0.24553000  0.33772000  0.61059000  1.0
  H  H20  1  0.74139000  0.03922000  0.78075000  1.0
  H  H21  1  0.25860000  0.46077000  0.28075000  1.0
  H  H22  1  0.25861000  0.96077000  0.21926000  1.0
  H  H23  1  0.74140000  0.53923000  0.71925000  1.0
  H  H24  1  0.84706000  0.89194000  0.73051000  1.0
  H  H25  1  0.15293000  0.60805000  0.23051000  1.0
  H  H26  1  0.15293000  0.10805000  0.26950000  1.0
  H  H27  1  0.84707000  0.39195000  0.76949000  1.0
  H  H28  1  0.55195000  0.74360000  0.59661000  1.0
  H  H29  1  0.44804000  0.75639000  0.09661000  1.0
  H  H30  1  0.44804000  0.25640000  0.40339000  1.0
  H  H31  1  0.55196000  0.24360000  0.90338000  1.0
  H  H32  1  0.44232000  0.88429000  0.65246000  1.0
  H  H33  1  0.55767000  0.61570000  0.15248000  1.0
  H  H34  1  0.55768000  0.11571000  0.34754000  1.0
  H  H35  1  0.44233000  0.38428000  0.84752000  1.0
  H  H36  1  0.02150000  0.70237000  0.93423000  1.0
  H  H37  1  0.97851000  0.79763000  0.43423000  1.0
  H  H38  1  0.97852000  0.29763000  0.06577000  1.0
  H  H39  1  0.02148000  0.20236000  0.56577000  1.0
  H  H40  1  0.87806000  0.52636000  0.92169000  1.0
  H  H41  1  0.12195000  0.97365000  0.42169000  1.0
  H  H42  1  0.12196000  0.47365000  0.07831000  1.0
  H  H43  1  0.87805000  0.02635000  0.57831000  1.0
  H  H44  1  0.78644000  0.57063000  0.16772000  1.0
  H  H45  1  0.21356000  0.92936000  0.66772000  1.0
  H  H46  1  0.21356000  0.42937000  0.83228000  1.0
  H  H47  1  0.78644000  0.07063000  0.33228000  1.0
  H  H48  1  0.93937000  0.74099000  0.17053000  1.0
  H  H49  1  0.06062000  0.75901000  0.67053000  1.0
  H  H50  1  0.06063000  0.25901000  0.82947000  1.0
  H  H51  1  0.93937000  0.24099000  0.32947000  1.0
  H  H52  1  0.72859000  0.38644000  0.98171000  1.0
  H  H53  1  0.27141000  0.11356000  0.48171000  1.0
  H  H54  1  0.27141000  0.61359000  0.01827000  1.0
  H  H55  1  0.72859000  0.88643000  0.51828000  1.0
  H  H56  1  0.43788000  0.41047000  0.08388000  1.0
  H  H57  1  0.56212000  0.08954000  0.58386000  1.0
  H  H58  1  0.56212000  0.58954000  0.91611000  1.0
  H  H59  1  0.43788000  0.91046000  0.41613000  1.0
  H  H60  1  0.49208000  0.12237000  0.02423000  1.0
  H  H61  1  0.50791000  0.37763000  0.52423000  1.0
  H  H62  1  0.50792000  0.87762000  0.97576000  1.0
  H  H63  1  0.49208000  0.62237000  0.47577000  1.0
  H  H64  1  0.33798000  0.95391000  0.02051000  1.0
  H  H65  1  0.66202000  0.54609000  0.52051000  1.0
  H  H66  1  0.66202000  0.04609000  0.97949000  1.0
  H  H67  1  0.33797000  0.45391000  0.47949000  1.0
  H  H68  1  0.10023000  0.13230000  0.11076000  1.0
  H  H69  1  0.89978000  0.36770000  0.61075000  1.0
  H  H70  1  0.89978000  0.86770000  0.88925000  1.0
  H  H71  1  0.10023000  0.63230000  0.38924000  1.0
  H  H72  1  0.24351000  0.30627000  0.12147000  1.0
  H  H73  1  0.75649000  0.19373000  0.62146000  1.0
  H  H74  1  0.75650000  0.69373000  0.87853000  1.0
  H  H75  1  0.24351000  0.80627000  0.37853000  1.0
  C  C76  1  0.09818000  0.98747000  0.89487000  1.0
  C  C77  1  0.90182000  0.51254000  0.39486000  1.0
  C  C78  1  0.90182000  0.01254000  0.10514000  1.0
  C  C79  1  0.09818000  0.48746000  0.60514000  1.0
  C  C80  1  0.20965000  0.99921000  0.85314000  1.0
  C  C81  1  0.79035000  0.50080000  0.35314000  1.0
  C  C82  1  0.79035000  0.00080000  0.14686000  1.0
  C  C83  1  0.20965000  0.49921000  0.64686000  1.0
  C  C84  1  0.25260000  0.09902000  0.81311000  1.0
  C  C85  1  0.74739000  0.40098000  0.31311000  1.0
  C  C86  1  0.74740000  0.90098000  0.18689000  1.0
  C  C87  1  0.25261000  0.59903000  0.68689000  1.0
  C  C88  1  0.35946000  0.11474000  0.77799000  1.0
  C  C89  1  0.64053000  0.38527000  0.27800000  1.0
  C  C90  1  0.64054000  0.88527000  0.22201000  1.0
  C  C91  1  0.35947000  0.61473000  0.72200000  1.0
  C  C92  1  0.42439000  0.02894000  0.78133000  1.0
  C  C93  1  0.57560000  0.47106000  0.28134000  1.0
  C  C94  1  0.57561000  0.97107000  0.21867000  1.0
  C  C95  1  0.42440000  0.52894000  0.71866000  1.0
  C  C96  1  0.38289000  0.92813000  0.82012000  1.0
  C  C97  1  0.61710000  0.57187000  0.32012000  1.0
  C  C98  1  0.61711000  0.07188000  0.17989000  1.0
  C  C99  1  0.38289000  0.42812000  0.67988000  1.0
  C  C100  1  0.27620000  0.91423000  0.85640000  1.0
  C  C101  1  0.72379000  0.58577000  0.35641000  1.0
  C  C102  1  0.72381000  0.08578000  0.14360000  1.0
  C  C103  1  0.27619000  0.41423000  0.64359000  1.0
  C  C104  1  0.58558000  0.96724000  0.72127000  1.0
  C  C105  1  0.41441000  0.53276000  0.22128000  1.0
  C  C106  1  0.41442000  0.03276000  0.27873000  1.0
  C  C107  1  0.58559000  0.46724000  0.77871000  1.0
  C  C108  1  0.69956000  0.97217000  0.74244000  1.0
  C  C109  1  0.30042000  0.52781000  0.24245000  1.0
  C  C110  1  0.30044000  0.02782000  0.25756000  1.0
  C  C111  1  0.69957000  0.47218000  0.75755000  1.0
  C  C112  1  0.75855000  0.89090000  0.71344000  1.0
  C  C113  1  0.24144000  0.60908000  0.21345000  1.0
  C  C114  1  0.24145000  0.10909000  0.28656000  1.0
  C  C115  1  0.75856000  0.39091000  0.78656000  1.0
  C  C116  1  0.70585000  0.80807000  0.66120000  1.0
  C  C117  1  0.29414000  0.69191000  0.16121000  1.0
  C  C118  1  0.29414000  0.19192000  0.33880000  1.0
  C  C119  1  0.70586000  0.30808000  0.83879000  1.0
  C  C120  1  0.59217000  0.80652000  0.63867000  1.0
  C  C121  1  0.40782000  0.69347000  0.13868000  1.0
  C  C122  1  0.40783000  0.19348000  0.36133000  1.0
  C  C123  1  0.59217000  0.30652000  0.86132000  1.0
  C  C124  1  0.53087000  0.88495000  0.66934000  1.0
  C  C125  1  0.46912000  0.61503000  0.16936000  1.0
  C  C126  1  0.46913000  0.11505000  0.33066000  1.0
  C  C127  1  0.53088000  0.38495000  0.83064000  1.0
  C  C128  1  0.77408000  0.72854000  0.62594000  1.0
  C  C129  1  0.22591000  0.77146000  0.12594000  1.0
  C  C130  1  0.22591000  0.27146000  0.37407000  1.0
  C  C131  1  0.77409000  0.22854000  0.87406000  1.0
  C  C132  1  0.96790000  0.66959000  0.98445000  1.0
  C  C133  1  0.03210000  0.83042000  0.48445000  1.0
  C  C134  1  0.03211000  0.33042000  0.01556000  1.0
  C  C135  1  0.96790000  0.16958000  0.51556000  1.0
  C  C136  1  0.88775000  0.57247000  0.97785000  1.0
  C  C137  1  0.11226000  0.92754000  0.47785000  1.0
  C  C138  1  0.11226000  0.42754000  0.02214000  1.0
  C  C139  1  0.88775000  0.07246000  0.52215000  1.0
  C  C140  1  0.81749000  0.53617000  0.04324000  1.0
  C  C141  1  0.18252000  0.96383000  0.54324000  1.0
  C  C142  1  0.18252000  0.46384000  0.95675000  1.0
  C  C143  1  0.81749000  0.03616000  0.45675000  1.0
  C  C144  1  0.83672000  0.59733000  0.11466000  1.0
  C  C145  1  0.16328000  0.90267000  0.61466000  1.0
  C  C146  1  0.16328000  0.40267000  0.88534000  1.0
  C  C147  1  0.83672000  0.09733000  0.38534000  1.0
  C  C148  1  0.92027000  0.69168000  0.11648000  1.0
  C  C149  1  0.07974000  0.80832000  0.61648000  1.0
  C  C150  1  0.07974000  0.30832000  0.88352000  1.0
  C  C151  1  0.92026000  0.19168000  0.38352000  1.0
  C  C152  1  0.72834000  0.43893000  0.03478000  1.0
  C  C153  1  0.27166000  0.06107000  0.53478000  1.0
  C  C154  1  0.27166000  0.56108000  0.96521000  1.0
  C  C155  1  0.72835000  0.93892000  0.46522000  1.0
  C  C156  1  0.46650000  0.32933000  0.07923000  1.0
  C  C157  1  0.53350000  0.17067000  0.57923000  1.0
  C  C158  1  0.53350000  0.67067000  0.92076000  1.0
  C  C159  1  0.46650000  0.82933000  0.42077000  1.0
  C  C160  1  0.38071000  0.22884000  0.07362000  1.0
  C  C161  1  0.61929000  0.27116000  0.57362000  1.0
  C  C162  1  0.61929000  0.77116000  0.92637000  1.0
  C  C163  1  0.38071000  0.72884000  0.42638000  1.0
  C  C164  1  0.40627000  0.12722000  0.04478000  1.0
  C  C165  1  0.59373000  0.37278000  0.54477000  1.0
  C  C166  1  0.59373000  0.87278000  0.95522000  1.0
  C  C167  1  0.40627000  0.62722000  0.45522000  1.0
  C  C168  1  0.32141000  0.03410000  0.04219000  1.0
  C  C169  1  0.67858000  0.46590000  0.54218000  1.0
  C  C170  1  0.67859000  0.96590000  0.95781000  1.0
  C  C171  1  0.32141000  0.53410000  0.45781000  1.0
  C  C172  1  0.18816000  0.13309000  0.09301000  1.0
  C  C173  1  0.81185000  0.36691000  0.59300000  1.0
  C  C174  1  0.81185000  0.86691000  0.90700000  1.0
  C  C175  1  0.18815000  0.63309000  0.40700000  1.0
  C  C176  1  0.26823000  0.23039000  0.09754000  1.0
  C  C177  1  0.73177000  0.26961000  0.59753000  1.0
  C  C178  1  0.73177000  0.76961000  0.90246000  1.0
  C  C179  1  0.26823000  0.73039000  0.40246000  1.0
  N  N180  1  0.98312000  0.73002000  0.05197000  1.0
  N  N181  1  0.01688000  0.76998000  0.55196000  1.0
  N  N182  1  0.01688000  0.26998000  0.94804000  1.0
  N  N183  1  0.98312000  0.23002000  0.44804000  1.0
  N  N184  1  0.65008000  0.41591000  0.08851000  1.0
  N  N185  1  0.34991000  0.08409000  0.58851000  1.0
  N  N186  1  0.34992000  0.58408000  0.91148000  1.0
  N  N187  1  0.65008000  0.91590000  0.41149000  1.0
  N  N188  1  0.57338000  0.32183000  0.07910000  1.0
  N  N189  1  0.42662000  0.17818000  0.57910000  1.0
  N  N190  1  0.42662000  0.67818000  0.92089000  1.0
  N  N191  1  0.57338000  0.82182000  0.42090000  1.0
  N  N192  1  0.21300000  0.03544000  0.06608000  1.0
  N  N193  1  0.78700000  0.46456000  0.56607000  1.0
  N  N194  1  0.78701000  0.96456000  0.93393000  1.0
  N  N195  1  0.21300000  0.53544000  0.43392000  1.0
  O  O196  1  0.07177000  0.90603000  0.94412000  1.0
  O  O197  1  0.92823000  0.59398000  0.44412000  1.0
  O  O198  1  0.92824000  0.09398000  0.05588000  1.0
  O  O199  1  0.07176000  0.40602000  0.55588000  1.0
  O  O200  1  0.03315000  0.05792000  0.87960000  1.0
  O  O201  1  0.96684000  0.44208000  0.37961000  1.0
  O  O202  1  0.96684000  0.94208000  0.12040000  1.0
  O  O203  1  0.03316000  0.55792000  0.62040000  1.0
  O  O204  1  0.53186000  0.05285000  0.74869000  1.0
  O  O205  1  0.46812000  0.44715000  0.24871000  1.0
  O  O206  1  0.46814000  0.94715000  0.25131000  1.0
  O  O207  1  0.53187000  0.55285000  0.75129000  1.0
  O  O208  1  0.76436000  0.70659000  0.55126000  1.0
  O  O209  1  0.23564000  0.79341000  0.05127000  1.0
  O  O210  1  0.23563000  0.29341000  0.44874000  1.0
  O  O211  1  0.76437000  0.20659000  0.94873000  1.0
  O  O212  1  0.84484000  0.68646000  0.66861000  1.0
  O  O213  1  0.15517000  0.81354000  0.16861000  1.0
  O  O214  1  0.15516000  0.31353000  0.33140000  1.0
  O  O215  1  0.84484000  0.18646000  0.83139000  1.0
