# generated using pymatgen
data_MnH4C7NO5
_symmetry_space_group_name_H-M   'P 1'
_cell_length_a   5.34266000
_cell_length_b   11.25850000
_cell_length_c   12.95190000
_cell_angle_alpha   104.21000000
_cell_angle_beta   89.99310000
_cell_angle_gamma   89.99980000
_symmetry_Int_Tables_number   1
_chemical_formula_structural   MnH4C7NO5
_chemical_formula_sum   'Mn4 H16 C28 N4 O20'
_cell_volume   755.22384430
_cell_formula_units_Z   4
loop_
 _symmetry_equiv_pos_site_id
 _symmetry_equiv_pos_as_xyz
  1  'x, y, z'
loop_
 _atom_site_type_symbol
 _atom_site_label
 _atom_site_symmetry_multiplicity
 _atom_site_fract_x
 _atom_site_fract_y
 _atom_site_fract_z
 _atom_site_occupancy
  Mn  Mn0  1  0.73566000  0.07600000  0.09048000  1.0
  Mn  Mn1  1  0.23550000  0.42393000  0.40950000  1.0
  Mn  Mn2  1  0.26428000  0.92405000  0.90949000  1.0
  Mn  Mn3  1  0.76440000  0.57602000  0.59059000  1.0
  H  H4  1  0.26233000  0.16564000  0.02918000  1.0
  H  H5  1  0.76248000  0.33438000  0.47084000  1.0
  H  H6  1  0.73761000  0.83436000  0.97081000  1.0
  H  H7  1  0.23766000  0.66565000  0.52918000  1.0
  H  H8  1  0.48562000  0.15576000  0.93687000  1.0
  H  H9  1  0.98606000  0.34430000  0.56318000  1.0
  H  H10  1  0.51436000  0.84425000  0.06312000  1.0
  H  H11  1  0.01433000  0.65566000  0.43683000  1.0
  H  H12  1  0.25265000  0.88473000  0.35565000  1.0
  H  H13  1  0.75251000  0.61526000  0.14432000  1.0
  H  H14  1  0.74727000  0.11528000  0.64435000  1.0
  H  H15  1  0.24742000  0.38473000  0.85566000  1.0
  H  H16  1  0.65183000  0.13226000  0.49874000  1.0
  H  H17  1  0.15194000  0.36776000  0.00120000  1.0
  H  H18  1  0.34811000  0.86774000  0.50119000  1.0
  H  H19  1  0.84802000  0.63228000  0.99884000  1.0
  C  C20  1  0.02026000  0.96054000  0.25531000  1.0
  C  C21  1  0.52017000  0.53949000  0.24471000  1.0
  C  C22  1  0.97974000  0.03948000  0.74466000  1.0
  C  C23  1  0.47988000  0.46051000  0.75531000  1.0
  C  C24  1  0.09300000  0.94418000  0.35409000  1.0
  C  C25  1  0.59290000  0.55583000  0.14591000  1.0
  C  C26  1  0.90699000  0.05586000  0.64590000  1.0
  C  C27  1  0.40703000  0.44419000  0.85409000  1.0
  C  C28  1  0.96326000  0.00542000  0.44631000  1.0
  C  C29  1  0.46326000  0.49455000  0.05369000  1.0
  C  C30  1  0.03677000  0.99458000  0.55369000  1.0
  C  C31  1  0.53672000  0.50546000  0.94632000  1.0
  C  C32  1  0.76259000  0.08032000  0.43243000  1.0
  C  C33  1  0.26267000  0.41963000  0.06756000  1.0
  C  C34  1  0.23737000  0.91963000  0.56754000  1.0
  C  C35  1  0.73731000  0.58042000  0.93247000  1.0
  C  C36  1  0.70277000  0.09189000  0.33087000  1.0
  C  C37  1  0.20290000  0.40804000  0.16912000  1.0
  C  C38  1  0.29712000  0.90804000  0.66911000  1.0
  C  C39  1  0.79713000  0.59199000  0.83090000  1.0
  C  C40  1  0.16692000  0.90910000  0.15492000  1.0
  C  C41  1  0.66687000  0.59092000  0.34508000  1.0
  C  C42  1  0.83306000  0.09092000  0.84505000  1.0
  C  C43  1  0.33327000  0.40906000  0.65493000  1.0
  C  C44  1  0.50971000  0.18110000  0.31116000  1.0
  C  C45  1  0.00989000  0.31888000  0.18885000  1.0
  C  C46  1  0.49019000  0.81887000  0.68884000  1.0
  C  C47  1  0.99017000  0.68114000  0.81117000  1.0
  N  N48  1  0.82618000  0.03173000  0.24380000  1.0
  N  N49  1  0.32622000  0.46818000  0.25620000  1.0
  N  N50  1  0.17373000  0.96823000  0.75617000  1.0
  N  N51  1  0.67389000  0.53178000  0.74384000  1.0
  O  O52  1  0.34102000  0.83379000  0.15694000  1.0
  O  O53  1  0.84100000  0.66619000  0.34303000  1.0
  O  O54  1  0.65894000  0.16620000  0.84300000  1.0
  O  O55  1  0.15911000  0.33380000  0.65699000  1.0
  O  O56  1  0.40455000  0.11731000  0.99294000  1.0
  O  O57  1  0.90467000  0.38269000  0.50713000  1.0
  O  O58  1  0.59533000  0.88269000  0.00702000  1.0
  O  O59  1  0.09533000  0.61736000  0.49300000  1.0
  O  O60  1  0.10457000  0.95196000  0.07578000  1.0
  O  O61  1  0.60460000  0.54799000  0.42419000  1.0
  O  O62  1  0.89537000  0.04806000  0.92419000  1.0
  O  O63  1  0.39555000  0.45194000  0.57578000  1.0
  O  O64  1  0.43783000  0.26058000  0.39436000  1.0
  O  O65  1  0.93814000  0.23935000  0.10564000  1.0
  O  O66  1  0.56200000  0.73937000  0.60563000  1.0
  O  O67  1  0.06191000  0.76065000  0.89438000  1.0
  O  O68  1  0.44323000  0.17228000  0.21639000  1.0
  O  O69  1  0.94325000  0.32777000  0.28362000  1.0
  O  O70  1  0.55683000  0.82772000  0.78360000  1.0
  O  O71  1  0.05685000  0.67226000  0.71639000  1.0
