# generated using pymatgen
data_MnH19C22N2O7
_symmetry_space_group_name_H-M   'P 1'
_cell_length_a   9.91333000
_cell_length_b   10.12230000
_cell_length_c   12.69554708
_cell_angle_alpha   100.92556857
_cell_angle_beta   104.97005021
_cell_angle_gamma   115.10900000
_symmetry_Int_Tables_number   1
_chemical_formula_structural   MnH19C22N2O7
_chemical_formula_sum   'Mn2 H38 C44 N4 O14'
_cell_volume   1047.22044365
_cell_formula_units_Z   2
loop_
 _symmetry_equiv_pos_site_id
 _symmetry_equiv_pos_as_xyz
  1  'x, y, z'
loop_
 _atom_site_type_symbol
 _atom_site_label
 _atom_site_symmetry_multiplicity
 _atom_site_fract_x
 _atom_site_fract_y
 _atom_site_fract_z
 _atom_site_occupancy
  Mn  Mn0  1  0.71713000  0.88339000  0.97113000  1.0
  Mn  Mn1  1  0.28287000  0.11660000  0.02887000  1.0
  H  H2  1  0.55252000  0.71516000  0.07023000  1.0
  H  H3  1  0.44748000  0.28484000  0.92977000  1.0
  H  H4  1  0.47152000  0.82197000  0.06028000  1.0
  H  H5  1  0.52848000  0.17803000  0.93972000  1.0
  H  H6  1  0.91872000  0.98604000  0.86077000  1.0
  H  H7  1  0.08128000  0.01396000  0.13923000  1.0
  H  H8  1  0.92247000  0.84334000  0.87963000  1.0
  H  H9  1  0.07753000  0.15665000  0.12037000  1.0
  H  H10  1  0.71320000  0.40411000  0.97873000  1.0
  H  H11  1  0.28680000  0.59589000  0.02127000  1.0
  H  H12  1  0.11382000  0.39159000  0.20283000  1.0
  H  H13  1  0.88619000  0.60842000  0.79718000  1.0
  H  H14  1  0.12657000  0.82740000  0.22196000  1.0
  H  H15  1  0.87343000  0.17259000  0.77804000  1.0
  H  H16  1  0.36955000  0.94066000  0.34785000  1.0
  H  H17  1  0.63045000  0.05934000  0.65215000  1.0
  H  H18  1  0.42383000  0.86703000  0.23677000  1.0
  H  H19  1  0.57617000  0.13298000  0.76323000  1.0
  H  H20  1  0.63429000  0.67192000  0.56631000  1.0
  H  H21  1  0.36571000  0.32809000  0.43369000  1.0
  H  H22  1  0.90566000  0.91244000  0.65580000  1.0
  H  H23  1  0.09434000  0.08756000  0.34420000  1.0
  H  H24  1  0.95676000  0.13566000  0.58776000  1.0
  H  H25  1  0.04325000  0.86435000  0.41224000  1.0
  H  H26  1  0.73685000  0.12972000  0.43283000  1.0
  H  H27  1  0.26315000  0.87028000  0.56717000  1.0
  H  H28  1  0.54558000  0.58879000  0.76237000  1.0
  H  H29  1  0.45443000  0.41121000  0.23763000  1.0
  H  H30  1  0.27701000  0.41224000  0.60102000  1.0
  H  H31  1  0.72300000  0.58776000  0.39898000  1.0
  H  H32  1  0.14121000  0.75477000  0.70313000  1.0
  H  H33  1  0.85879000  0.24523000  0.29688000  1.0
  H  H34  1  0.41618000  0.91835000  0.85562000  1.0
  H  H35  1  0.58382000  0.08165000  0.14439000  1.0
  H  H36  1  0.00613000  0.35150000  0.50407000  1.0
  H  H37  1  0.99387000  0.64850000  0.49593000  1.0
  H  H38  1  0.92862000  0.44190000  0.58619000  1.0
  H  H39  1  0.07138000  0.55810000  0.41381000  1.0
  C  C40  1  0.81335000  0.20548000  0.03289000  1.0
  C  C41  1  0.18665000  0.79452000  0.96711000  1.0
  C  C42  1  0.83066000  0.70946000  0.05682000  1.0
  C  C43  1  0.16935000  0.29055000  0.94319000  1.0
  C  C44  1  0.83045000  0.46177000  0.04887000  1.0
  C  C45  1  0.16954000  0.53823000  0.95113000  1.0
  C  C46  1  0.90262000  0.37830000  0.08662000  1.0
  C  C47  1  0.09738000  0.62170000  0.91338000  1.0
  C  C48  1  0.05728000  0.45628000  0.17351000  1.0
  C  C49  1  0.94271000  0.54371000  0.82649000  1.0
  C  C50  1  0.14037000  0.61895000  0.22232000  1.0
  C  C51  1  0.85963000  0.38105000  0.77768000  1.0
  C  C52  1  0.06546000  0.70151000  0.18505000  1.0
  C  C53  1  0.93454000  0.29849000  0.81495000  1.0
  C  C54  1  0.91072000  0.62289000  0.09889000  1.0
  C  C55  1  0.08928000  0.37712000  0.90112000  1.0
  C  C56  1  0.36820000  0.64315000  0.38169000  1.0
  C  C57  1  0.63180000  0.35685000  0.61831000  1.0
  C  C58  1  0.41190000  0.86077000  0.31975000  1.0
  C  C59  1  0.58810000  0.13923000  0.68025000  1.0
  C  C60  1  0.56406000  0.89616000  0.41194000  1.0
  C  C61  1  0.43593000  0.10384000  0.58805000  1.0
  C  C62  1  0.53663000  0.76899000  0.44937000  1.0
  C  C63  1  0.46338000  0.23101000  0.55063000  1.0
  C  C64  1  0.65708000  0.77141000  0.53744000  1.0
  C  C65  1  0.34292000  0.22858000  0.46255000  1.0
  C  C66  1  0.80876000  0.90530000  0.58618000  1.0
  C  C67  1  0.19124000  0.09470000  0.41382000  1.0
  C  C68  1  0.83728000  0.03239000  0.54782000  1.0
  C  C69  1  0.16272000  0.96761000  0.45218000  1.0
  C  C70  1  0.71491000  0.02981000  0.46094000  1.0
  C  C71  1  0.28510000  0.97020000  0.53907000  1.0
  C  C72  1  0.45221000  0.62094000  0.74545000  1.0
  C  C73  1  0.54778000  0.37906000  0.25454000  1.0
  C  C74  1  0.30178000  0.52283000  0.65643000  1.0
  C  C75  1  0.69822000  0.47718000  0.34357000  1.0
  C  C76  1  0.18404000  0.56697000  0.63869000  1.0
  C  C77  1  0.81596000  0.43302000  0.36130000  1.0
  C  C78  1  0.22703000  0.71303000  0.71130000  1.0
  C  C79  1  0.77297000  0.28697000  0.28870000  1.0
  C  C80  1  0.38011000  0.80506000  0.79766000  1.0
  C  C81  1  0.61989000  0.19494000  0.20234000  1.0
  C  C82  1  0.01838000  0.46360000  0.54606000  1.0
  C  C83  1  0.98162000  0.53640000  0.45394000  1.0
  N  N84  1  0.49140000  0.75993000  0.81644000  1.0
  N  N85  1  0.50861000  0.24008000  0.18356000  1.0
  N  N86  1  0.29885000  0.70086000  0.30588000  1.0
  N  N87  1  0.70115000  0.29915000  0.69412000  1.0
  O  O88  1  0.88324000  0.12960000  0.06370000  1.0
  O  O89  1  0.11676000  0.87040000  0.93630000  1.0
  O  O90  1  0.57714000  0.82245000  0.08292000  1.0
  O  O91  1  0.42287000  0.17756000  0.91709000  1.0
  O  O92  1  0.66982000  0.13452000  0.95865000  1.0
  O  O93  1  0.33018000  0.86547000  0.04135000  1.0
  O  O94  1  0.84377000  0.87863000  0.85519000  1.0
  O  O95  1  0.15623000  0.12136000  0.14481000  1.0
  O  O96  1  0.69360000  0.63621000  0.97362000  1.0
  O  O97  1  0.30640000  0.36378000  0.02638000  1.0
  O  O98  1  0.90233000  0.85732000  0.10549000  1.0
  O  O99  1  0.09767000  0.14267000  0.89451000  1.0
  O  O100  1  0.29911000  0.51289000  0.38913000  1.0
  O  O101  1  0.70089000  0.48711000  0.61086000  1.0
