# generated using pymatgen
data_ZnH8C6(N2O)4
_symmetry_space_group_name_H-M   'P 1'
_cell_length_a   5.50939000
_cell_length_b   7.73706191
_cell_length_c   7.75952000
_cell_angle_alpha   63.29254643
_cell_angle_beta   83.70910000
_cell_angle_gamma   71.45672709
_symmetry_Int_Tables_number   1
_chemical_formula_structural   ZnH8C6(N2O)4
_chemical_formula_sum   'Zn1 H8 C6 N8 O4'
_cell_volume   279.91600614
_cell_formula_units_Z   1
loop_
 _symmetry_equiv_pos_site_id
 _symmetry_equiv_pos_as_xyz
  1  'x, y, z'
loop_
 _atom_site_type_symbol
 _atom_site_label
 _atom_site_symmetry_multiplicity
 _atom_site_fract_x
 _atom_site_fract_y
 _atom_site_fract_z
 _atom_site_occupancy
  Zn  Zn0  1  0.99999000  0.00000000  0.00001000  1.0
  H  H1  1  0.42131000  0.73184000  0.57044000  1.0
  H  H2  1  0.57869000  0.26815000  0.42957000  1.0
  H  H3  1  0.19081000  0.42041000  0.78386000  1.0
  H  H4  1  0.80919000  0.57960000  0.21612000  1.0
  H  H5  1  0.81318000  0.89864000  0.42285000  1.0
  H  H6  1  0.18682000  0.10137000  0.57715000  1.0
  H  H7  1  0.84010000  0.89069000  0.64157000  1.0
  H  H8  1  0.15990000  0.10930000  0.35843000  1.0
  C  C9  1  0.52248000  0.98210000  0.90734000  1.0
  C  C10  1  0.47753000  0.01791000  0.09266000  1.0
  C  C11  1  0.59212000  0.61144000  0.64859000  1.0
  C  C12  1  0.40787000  0.38854000  0.35142000  1.0
  C  C13  1  0.98754000  0.45046000  0.75898000  1.0
  C  C14  1  0.01246000  0.54953000  0.24102000  1.0
  N  N15  1  0.85642000  0.31816000  0.82534000  1.0
  N  N16  1  0.14359000  0.68185000  0.17465000  1.0
  N  N17  1  0.60621000  0.41893000  0.75494000  1.0
  N  N18  1  0.39380000  0.58108000  0.24504000  1.0
  N  N19  1  0.82776000  0.63705000  0.64722000  1.0
  N  N20  1  0.17224000  0.36294000  0.35277000  1.0
  N  N21  1  0.90364000  0.81360000  0.55748000  1.0
  N  N22  1  0.09636000  0.18641000  0.44252000  1.0
  O  O23  1  0.74813000  0.95368000  0.84716000  1.0
  O  O24  1  0.25185000  0.04634000  0.15282000  1.0
  O  O25  1  0.66892000  0.01679000  0.17015000  1.0
  O  O26  1  0.33107000  0.98322000  0.82985000  1.0
