# generated using pymatgen
data_CuNiH4C8(SN)4
_symmetry_space_group_name_H-M   'P 1'
_cell_length_a   6.87517000
_cell_length_b   6.87519000
_cell_length_c   16.13960000
_cell_angle_alpha   90.00000000
_cell_angle_beta   90.00010000
_cell_angle_gamma   90.00000000
_symmetry_Int_Tables_number   1
_chemical_formula_structural   CuNiH4C8(SN)4
_chemical_formula_sum   'Cu2 Ni2 H8 C16 S8 N8'
_cell_volume   762.88822728
_cell_formula_units_Z   2
loop_
 _symmetry_equiv_pos_site_id
 _symmetry_equiv_pos_as_xyz
  1  'x, y, z'
loop_
 _atom_site_type_symbol
 _atom_site_label
 _atom_site_symmetry_multiplicity
 _atom_site_fract_x
 _atom_site_fract_y
 _atom_site_fract_z
 _atom_site_occupancy
  Cu  Cu0  1  0.50000000  0.50000000  0.25000000  1.0
  Cu  Cu1  1  0.50000000  0.50000000  0.75000000  1.0
  Ni  Ni2  1  0.50000000  0.00000000  0.00001000  1.0
  Ni  Ni3  1  0.00000000  0.50000000  0.49999000  1.0
  H  H4  1  0.50000000  0.18480000  0.38676000  1.0
  H  H5  1  0.50000000  0.81520000  0.38676000  1.0
  H  H6  1  0.50000000  0.18481000  0.61324000  1.0
  H  H7  1  0.81521000  0.50000000  0.11325000  1.0
  H  H8  1  0.81520000  0.50000000  0.88675000  1.0
  H  H9  1  0.18480000  0.50000000  0.88675000  1.0
  H  H10  1  0.18479000  0.50000000  0.11325000  1.0
  H  H11  1  0.50000000  0.81520000  0.61324000  1.0
  C  C12  1  0.50000000  0.10416000  0.18579000  1.0
  C  C13  1  0.50000000  0.89583000  0.18579000  1.0
  C  C14  1  0.50000000  0.10416000  0.81422000  1.0
  C  C15  1  0.89584000  0.50000000  0.31422000  1.0
  C  C16  1  0.89584000  0.50000000  0.68577000  1.0
  C  C17  1  0.10416000  0.50000000  0.68577000  1.0
  C  C18  1  0.10417000  0.50000000  0.31422000  1.0
  C  C19  1  0.50000000  0.89584000  0.81422000  1.0
  C  C20  1  0.50000000  0.10079000  0.32965000  1.0
  C  C21  1  0.50000000  0.89921000  0.32965000  1.0
  C  C22  1  0.50000000  0.10079000  0.67035000  1.0
  C  C23  1  0.89922000  0.50000000  0.17036000  1.0
  C  C24  1  0.89922000  0.50000000  0.82964000  1.0
  C  C25  1  0.10078000  0.50000000  0.82965000  1.0
  C  C26  1  0.10079000  0.50000000  0.17036000  1.0
  C  C27  1  0.50000000  0.89922000  0.67035000  1.0
  S  S28  1  0.50000000  0.22590000  0.09306000  1.0
  S  S29  1  0.50000000  0.77410000  0.09306000  1.0
  S  S30  1  0.50000000  0.22589000  0.90695000  1.0
  S  S31  1  0.77410000  0.50000000  0.40695000  1.0
  S  S32  1  0.77410000  0.50000000  0.59303000  1.0
  S  S33  1  0.22589000  0.50000000  0.59303000  1.0
  S  S34  1  0.22591000  0.50000000  0.40695000  1.0
  S  S35  1  0.50000000  0.77411000  0.90695000  1.0
  N  N36  1  0.50000000  0.20223000  0.25787000  1.0
  N  N37  1  0.50000000  0.79777000  0.25787000  1.0
  N  N38  1  0.50000000  0.20222000  0.74213000  1.0
  N  N39  1  0.79777000  0.50000000  0.24214000  1.0
  N  N40  1  0.79778000  0.50000000  0.75786000  1.0
  N  N41  1  0.20222000  0.50000000  0.75786000  1.0
  N  N42  1  0.20223000  0.50000000  0.24214000  1.0
  N  N43  1  0.50000000  0.79778000  0.74213000  1.0
