# generated using pymatgen
data_ZnH6C5(N2O)2
_symmetry_space_group_name_H-M   'P 1'
_cell_length_a   4.77153000
_cell_length_b   9.99415000
_cell_length_c   15.90770000
_cell_angle_alpha   89.99990000
_cell_angle_beta   90.00000000
_cell_angle_gamma   90.00000000
_symmetry_Int_Tables_number   1
_chemical_formula_structural   ZnH6C5(N2O)2
_chemical_formula_sum   'Zn4 H24 C20 N16 O8'
_cell_volume   758.59663901
_cell_formula_units_Z   4
loop_
 _symmetry_equiv_pos_site_id
 _symmetry_equiv_pos_as_xyz
  1  'x, y, z'
loop_
 _atom_site_type_symbol
 _atom_site_label
 _atom_site_symmetry_multiplicity
 _atom_site_fract_x
 _atom_site_fract_y
 _atom_site_fract_z
 _atom_site_occupancy
  Zn  Zn0  1  0.34513000  0.68966000  0.35685000  1.0
  Zn  Zn1  1  0.65487000  0.18966000  0.64315000  1.0
  Zn  Zn2  1  0.65487000  0.68966000  0.85685000  1.0
  Zn  Zn3  1  0.34513000  0.18966000  0.14315000  1.0
  H  H4  1  0.08309000  0.44489000  0.66555000  1.0
  H  H5  1  0.91691000  0.94489000  0.33445000  1.0
  H  H6  1  0.91691000  0.44489000  0.16555000  1.0
  H  H7  1  0.08309000  0.94489000  0.83445000  1.0
  H  H8  1  0.01344000  0.60345000  0.71090000  1.0
  H  H9  1  0.98656000  0.10345000  0.28910000  1.0
  H  H10  1  0.98655000  0.60345000  0.21090000  1.0
  H  H11  1  0.01344000  0.10345000  0.78910000  1.0
  H  H12  1  0.67710000  0.47271000  0.56709000  1.0
  H  H13  1  0.32291000  0.97271000  0.43291000  1.0
  H  H14  1  0.32291000  0.47271000  0.06709000  1.0
  H  H15  1  0.67710000  0.97271000  0.93291000  1.0
  H  H16  1  0.59294000  0.62730000  0.61424000  1.0
  H  H17  1  0.40706000  0.12730000  0.38576000  1.0
  H  H18  1  0.40706000  0.62730000  0.11424000  1.0
  H  H19  1  0.59294000  0.12730000  0.88576000  1.0
  H  H20  1  0.06418000  0.71951000  0.56776000  1.0
  H  H21  1  0.93582000  0.21951000  0.43224000  1.0
  H  H22  1  0.93582000  0.71951000  0.06776000  1.0
  H  H23  1  0.06418000  0.21951000  0.93224000  1.0
  H  H24  1  0.14206000  0.56730000  0.51917000  1.0
  H  H25  1  0.85795000  0.06730000  0.48083000  1.0
  H  H26  1  0.85795000  0.56730000  0.01917000  1.0
  H  H27  1  0.14206000  0.06730000  0.98083000  1.0
  C  C28  1  0.71226000  0.45297000  0.73837000  1.0
  C  C29  1  0.28773000  0.95297000  0.26163000  1.0
  C  C30  1  0.28773000  0.45297000  0.23837000  1.0
  C  C31  1  0.71226000  0.95297000  0.76163000  1.0
  C  C32  1  0.91565000  0.51687000  0.67996000  1.0
  C  C33  1  0.08434000  0.01687000  0.32004000  1.0
  C  C34  1  0.08434000  0.51687000  0.17996000  1.0
  C  C35  1  0.91565000  0.01687000  0.82004000  1.0
  C  C36  1  0.76811000  0.56075000  0.59853000  1.0
  C  C37  1  0.23189000  0.06075000  0.40147000  1.0
  C  C38  1  0.23189000  0.56075000  0.09853000  1.0
  C  C39  1  0.76811000  0.06075000  0.90147000  1.0
  C  C40  1  0.96591000  0.63168000  0.53780000  1.0
  C  C41  1  0.03409000  0.13168000  0.46220000  1.0
  C  C42  1  0.03409000  0.63168000  0.03780000  1.0
  C  C43  1  0.96591000  0.13168000  0.96220000  1.0
  C  C44  1  0.81764000  0.67952000  0.45941000  1.0
  C  C45  1  0.18236000  0.17952000  0.54059000  1.0
  C  C46  1  0.18236000  0.67952000  0.95941000  1.0
  C  C47  1  0.81764000  0.17952000  0.04059000  1.0
  N  N48  1  0.59704000  0.50918000  0.80672000  1.0
  N  N49  1  0.40296000  0.00918000  0.19328000  1.0
  N  N50  1  0.40296000  0.50918000  0.30672000  1.0
  N  N51  1  0.59704000  0.00918000  0.69328000  1.0
  N  N52  1  0.41010000  0.42026000  0.83921000  1.0
  N  N53  1  0.58991000  0.92026000  0.16079000  1.0
  N  N54  1  0.58991000  0.42026000  0.33921000  1.0
  N  N55  1  0.41010000  0.92026000  0.66079000  1.0
  N  N56  1  0.41002000  0.31370000  0.79243000  1.0
  N  N57  1  0.58998000  0.81370000  0.20757000  1.0
  N  N58  1  0.58999000  0.31370000  0.29243000  1.0
  N  N59  1  0.41002000  0.81370000  0.70757000  1.0
  N  N60  1  0.59743000  0.33125000  0.72872000  1.0
  N  N61  1  0.40257000  0.83125000  0.27128000  1.0
  N  N62  1  0.40257000  0.33125000  0.22872000  1.0
  N  N63  1  0.59743000  0.83125000  0.77128000  1.0
  O  O64  1  0.94880000  0.70750000  0.39169000  1.0
  O  O65  1  0.05120000  0.20750000  0.60831000  1.0
  O  O66  1  0.05120000  0.70750000  0.89169000  1.0
  O  O67  1  0.94880000  0.20750000  0.10831000  1.0
  O  O68  1  0.55163000  0.69169000  0.46353000  1.0
  O  O69  1  0.44837000  0.19169000  0.53647000  1.0
  O  O70  1  0.44837000  0.69169000  0.96353000  1.0
  O  O71  1  0.55163000  0.19169000  0.03647000  1.0
