# generated using pymatgen
data_Cd3H22C32(NO9)2
_symmetry_space_group_name_H-M   'P 1'
_cell_length_a   9.63150000
_cell_length_b   11.62210000
_cell_length_c   17.30110000
_cell_angle_alpha   89.99940000
_cell_angle_beta   88.04050000
_cell_angle_gamma   89.99790000
_symmetry_Int_Tables_number   1
_chemical_formula_structural   Cd3H22C32(NO9)2
_chemical_formula_sum   'Cd6 H44 C64 N4 O36'
_cell_volume   1935.52249603
_cell_formula_units_Z   2
loop_
 _symmetry_equiv_pos_site_id
 _symmetry_equiv_pos_as_xyz
  1  'x, y, z'
loop_
 _atom_site_type_symbol
 _atom_site_label
 _atom_site_symmetry_multiplicity
 _atom_site_fract_x
 _atom_site_fract_y
 _atom_site_fract_z
 _atom_site_occupancy
  Cd  Cd0  1  0.02682000  0.70257000  0.16350000  1.0
  Cd  Cd1  1  0.47319000  0.20280000  0.33654000  1.0
  Cd  Cd2  1  0.97318000  0.29760000  0.83647000  1.0
  Cd  Cd3  1  0.52683000  0.79782000  0.66358000  1.0
  Cd  Cd4  1  1.00000000  0.49996000  0.00002000  1.0
  Cd  Cd5  1  0.49998000  0.99986000  0.49997000  1.0
  H  H6  1  0.22007000  0.29332000  0.08163000  1.0
  H  H7  1  0.27989000  0.79332000  0.41839000  1.0
  H  H8  1  0.77995000  0.70666000  0.91830000  1.0
  H  H9  1  0.72000000  0.20671000  0.58171000  1.0
  H  H10  1  0.48382000  0.35031000  0.87929000  1.0
  H  H11  1  0.01609000  0.85030000  0.62072000  1.0
  H  H12  1  0.51626000  0.64973000  0.12066000  1.0
  H  H13  1  0.98361000  0.14965000  0.37933000  1.0
  H  H14  1  0.66190000  0.32512000  0.10411000  1.0
  H  H15  1  0.83805000  0.82499000  0.39589000  1.0
  H  H16  1  0.33807000  0.67484000  0.89588000  1.0
  H  H17  1  0.16187000  0.17470000  0.60409000  1.0
  H  H18  1  0.83152000  0.30209000  0.23371000  1.0
  H  H19  1  0.66856000  0.80210000  0.26630000  1.0
  H  H20  1  0.16862000  0.69792000  0.76631000  1.0
  H  H21  1  0.33140000  0.19793000  0.73370000  1.0
  H  H22  1  0.01158000  0.26339000  0.22872000  1.0
  H  H23  1  0.48851000  0.76339000  0.27129000  1.0
  H  H24  1  0.98855000  0.73665000  0.77125000  1.0
  H  H25  1  0.51145000  0.23667000  0.72876000  1.0
  H  H26  1  0.16941000  0.36046000  0.30464000  1.0
  H  H27  1  0.33065000  0.86051000  0.19538000  1.0
  H  H28  1  0.83076000  0.63955000  0.69532000  1.0
  H  H29  1  0.66926000  0.13960000  0.80470000  1.0
  H  H30  1  0.76381000  0.49350000  0.46026000  1.0
  H  H31  1  0.73621000  0.99368000  0.03977000  1.0
  H  H32  1  0.23628000  0.50603000  0.53977000  1.0
  H  H33  1  0.26376000  0.00623000  0.96026000  1.0
  H  H34  1  0.74254000  0.41015000  0.33131000  1.0
  H  H35  1  0.75749000  0.91023000  0.16876000  1.0
  H  H36  1  0.25758000  0.58973000  0.66880000  1.0
  H  H37  1  0.24244000  0.08980000  0.83127000  1.0
  H  H38  1  0.21067000  0.44542000  0.43279000  1.0
  H  H39  1  0.28944000  0.94558000  0.06724000  1.0
  H  H40  1  0.78963000  0.55429000  0.56722000  1.0
  H  H41  1  0.71048000  0.05445000  0.93281000  1.0
  H  H42  1  0.95105000  0.82801000  0.03261000  1.0
  H  H43  1  0.54807000  0.32803000  0.46730000  1.0
  H  H44  1  0.04952000  0.17199000  0.96756000  1.0
  H  H45  1  0.44964000  0.67196000  0.53237000  1.0
  H  H46  1  0.04553000  0.93756000  0.02687000  1.0
  H  H47  1  0.45611000  0.43920000  0.47334000  1.0
  H  H48  1  0.95339000  0.06355000  0.97323000  1.0
  H  H49  1  0.54829000  0.56524000  0.52710000  1.0
  C  C50  1  0.32320000  0.30555000  0.05517000  1.0
  C  C51  1  0.17676000  0.80553000  0.44484000  1.0
  C  C52  1  0.67681000  0.69443000  0.94476000  1.0
  C  C53  1  0.82312000  0.19444000  0.55524000  1.0
  C  C54  1  0.43921000  0.30578000  0.10168000  1.0
  C  C55  1  0.06075000  0.80576000  0.39832000  1.0
  C  C56  1  0.56078000  0.69421000  0.89826000  1.0
  C  C57  1  0.93917000  0.19418000  0.60173000  1.0
  C  C58  1  0.58864000  0.33734000  0.98758000  1.0
  C  C59  1  0.91127000  0.83721000  0.51242000  1.0
  C  C60  1  0.41140000  0.66262000  0.01237000  1.0
  C  C61  1  0.08848000  0.16246000  0.48761000  1.0
  C  C62  1  0.73081000  0.35447000  0.95094000  1.0
  C  C63  1  0.76908000  0.85426000  0.54906000  1.0
  C  C64  1  0.26926000  0.64542000  0.04904000  1.0
  C  C65  1  0.23061000  0.14518000  0.45095000  1.0
  C  C66  1  0.47266000  0.33698000  0.94152000  1.0
  C  C67  1  0.02726000  0.83693000  0.55849000  1.0
  C  C68  1  0.52740000  0.66303000  0.05843000  1.0
  C  C69  1  0.97248000  0.16294000  0.44156000  1.0
  C  C70  1  0.57192000  0.32326000  0.06763000  1.0
  C  C71  1  0.92803000  0.82316000  0.43236000  1.0
  C  C72  1  0.42808000  0.67671000  0.93233000  1.0
  C  C73  1  0.07183000  0.17658000  0.56765000  1.0
  C  C74  1  0.93782000  0.33446000  0.23802000  1.0
  C  C75  1  0.56226000  0.83447000  0.26200000  1.0
  C  C76  1  0.06231000  0.66557000  0.76196000  1.0
  C  C77  1  0.43771000  0.16559000  0.73805000  1.0
  C  C78  1  0.97008000  0.42770000  0.17665000  1.0
  C  C79  1  0.52997000  0.92768000  0.32340000  1.0
  C  C80  1  0.02996000  0.57231000  0.82333000  1.0
  C  C81  1  0.47007000  0.07230000  0.67672000  1.0
  C  C82  1  0.08479000  0.39340000  0.34190000  1.0
  C  C83  1  0.41528000  0.89348000  0.15814000  1.0
  C  C84  1  0.91540000  0.60653000  0.65810000  1.0
  C  C85  1  0.58465000  0.10662000  0.84193000  1.0
  C  C86  1  0.85866000  0.46788000  0.42923000  1.0
  C  C87  1  0.64141000  0.96801000  0.07081000  1.0
  C  C88  1  0.14157000  0.53188000  0.57082000  1.0
  C  C89  1  0.35851000  0.03201000  0.92922000  1.0
  C  C90  1  0.84323000  0.42050000  0.35702000  1.0
  C  C91  1  0.65683000  0.92059000  0.14302000  1.0
  C  C92  1  0.15695000  0.57940000  0.64301000  1.0
  C  C93  1  0.34309000  0.07947000  0.85703000  1.0
  C  C94  1  0.99108000  0.47749000  0.46054000  1.0
  C  C95  1  0.50899000  0.97763000  0.03951000  1.0
  C  C96  1  0.00914000  0.52224000  0.53951000  1.0
  C  C97  1  0.49093000  0.02237000  0.96053000  1.0
  C  C98  1  0.10462000  0.44133000  0.41384000  1.0
  C  C99  1  0.39547000  0.94148000  0.08622000  1.0
  C  C100  1  0.89565000  0.55845000  0.58621000  1.0
  C  C101  1  0.60444000  0.05857000  0.91383000  1.0
  C  C102  1  0.42276000  0.28478000  0.18746000  1.0
  C  C103  1  0.07723000  0.78479000  0.31252000  1.0
  C  C104  1  0.57722000  0.71524000  0.81247000  1.0
  C  C105  1  0.92278000  0.21526000  0.68750000  1.0
  C  C106  1  0.33969000  0.32197000  0.97512000  1.0
  C  C107  1  0.16023000  0.82194000  0.52490000  1.0
  C  C108  1  0.66035000  0.67802000  0.02481000  1.0
  C  C109  1  0.83954000  0.17799000  0.47520000  1.0
  C  C110  1  0.21867000  0.32128000  0.92388000  1.0
  C  C111  1  0.28121000  0.82125000  0.57616000  1.0
  C  C112  1  0.78141000  0.67873000  0.07604000  1.0
  C  C113  1  0.71845000  0.17869000  0.42399000  1.0
  N  N114  1  0.95517000  0.38136000  0.31559000  1.0
  N  N115  1  0.54490000  0.88141000  0.18444000  1.0
  N  N116  1  0.04502000  0.61865000  0.68440000  1.0
  N  N117  1  0.45502000  0.11870000  0.81563000  1.0
  O  O118  1  0.23554000  0.31705000  0.85157000  1.0
  O  O119  1  0.26432000  0.81731000  0.64847000  1.0
  O  O120  1  0.76454000  0.68318000  0.14834000  1.0
  O  O121  1  0.73531000  0.18333000  0.35170000  1.0
  O  O122  1  0.09373000  0.32042000  0.95642000  1.0
  O  O123  1  0.40619000  0.82006000  0.54363000  1.0
  O  O124  1  0.90633000  0.67938000  0.04349000  1.0
  O  O125  1  0.59356000  0.17911000  0.45656000  1.0
  O  O126  1  0.02960000  0.51716000  0.20017000  1.0
  O  O127  1  0.47052000  0.01717000  0.29993000  1.0
  O  O128  1  0.97029000  0.48294000  0.79977000  1.0
  O  O129  1  0.52982000  0.98298000  0.70034000  1.0
  O  O130  1  0.78834000  0.45001000  0.96233000  1.0
  O  O131  1  0.71159000  0.94985000  0.53781000  1.0
  O  O132  1  0.21173000  0.54990000  0.03755000  1.0
  O  O133  1  0.28821000  0.04976000  0.46262000  1.0
  O  O134  1  0.93417000  0.40135000  0.10944000  1.0
  O  O135  1  0.56583000  0.90120000  0.39062000  1.0
  O  O136  1  0.06592000  0.59855000  0.89053000  1.0
  O  O137  1  0.43406000  0.09841000  0.60951000  1.0
  O  O138  1  0.78037000  0.27097000  0.91027000  1.0
  O  O139  1  0.71942000  0.77066000  0.58960000  1.0
  O  O140  1  0.21977000  0.72883000  0.08980000  1.0
  O  O141  1  0.27995000  0.22846000  0.41003000  1.0
  O  O142  1  0.95921000  0.90859000  0.05043000  1.0
  O  O143  1  0.54039000  0.40815000  0.44860000  1.0
  O  O144  1  0.04087000  0.09114000  0.95031000  1.0
  O  O145  1  0.45905000  0.59078000  0.54889000  1.0
  O  O146  1  0.53624000  0.28571000  0.22569000  1.0
  O  O147  1  0.96378000  0.78576000  0.27427000  1.0
  O  O148  1  0.46376000  0.71417000  0.77420000  1.0
  O  O149  1  0.03626000  0.21422000  0.72575000  1.0
  O  O150  1  0.30481000  0.26409000  0.21815000  1.0
  O  O151  1  0.19519000  0.76407000  0.28186000  1.0
  O  O152  1  0.69512000  0.73614000  0.78179000  1.0
  O  O153  1  0.80488000  0.23612000  0.71819000  1.0
