# generated using pymatgen
data_ZnH13C20N3O4
_symmetry_space_group_name_H-M   'P 1'
_cell_length_a   8.00023000
_cell_length_b   8.21457000
_cell_length_c   12.90980000
_cell_angle_alpha   84.08900000
_cell_angle_beta   74.99130000
_cell_angle_gamma   79.36150000
_symmetry_Int_Tables_number   1
_chemical_formula_structural   ZnH13C20N3O4
_chemical_formula_sum   'Zn2 H26 C40 N6 O8'
_cell_volume   804.02274249
_cell_formula_units_Z   2
loop_
 _symmetry_equiv_pos_site_id
 _symmetry_equiv_pos_as_xyz
  1  'x, y, z'
loop_
 _atom_site_type_symbol
 _atom_site_label
 _atom_site_symmetry_multiplicity
 _atom_site_fract_x
 _atom_site_fract_y
 _atom_site_fract_z
 _atom_site_occupancy
  Zn  Zn0  1  0.61601000  0.01250000  0.82137000  1.0
  Zn  Zn1  1  0.38399000  0.98750000  0.17863000  1.0
  H  H2  1  0.55704000  0.20175000  0.97871000  1.0
  H  H3  1  0.44297000  0.79825000  0.02129000  1.0
  H  H4  1  0.71074000  0.04502000  0.99525000  1.0
  H  H5  1  0.28926000  0.95497000  0.00476000  1.0
  H  H6  1  0.44964000  0.50909000  0.66077000  1.0
  H  H7  1  0.55036000  0.49091000  0.33923000  1.0
  H  H8  1  0.87313000  0.06414000  0.30795000  1.0
  H  H9  1  0.12687000  0.93586000  0.69205000  1.0
  H  H10  1  0.45412000  0.68153000  0.80448000  1.0
  H  H11  1  0.54588000  0.31847000  0.19552000  1.0
  H  H12  1  0.94131000  0.30349000  0.38434000  1.0
  H  H13  1  0.05869000  0.69652000  0.61565000  1.0
  H  H14  1  0.58478000  0.59813000  0.46593000  1.0
  H  H15  1  0.41523000  0.40187000  0.53407000  1.0
  H  H16  1  0.78376000  0.33324000  0.73036000  1.0
  H  H17  1  0.21624000  0.66677000  0.26963000  1.0
  H  H18  1  0.73974000  0.80752000  0.33645000  1.0
  H  H19  1  0.26026000  0.19248000  0.66355000  1.0
  H  H20  1  0.91944000  0.45318000  0.55225000  1.0
  H  H21  1  0.08055000  0.54682000  0.44774000  1.0
  H  H22  1  0.03000000  0.05745000  0.90435000  1.0
  H  H23  1  0.97001000  0.94255000  0.09565000  1.0
  H  H24  1  0.60685000  0.47202000  0.92451000  1.0
  H  H25  1  0.39315000  0.52797000  0.07549000  1.0
  H  H26  1  0.14301000  0.55536000  0.83499000  1.0
  H  H27  1  0.85700000  0.44464000  0.16500000  1.0
  C  C28  1  0.65852000  0.90174000  0.60021000  1.0
  C  C29  1  0.34148000  0.09826000  0.39979000  1.0
  C  C30  1  0.50821000  0.62118000  0.63772000  1.0
  C  C31  1  0.49178000  0.37883000  0.36228000  1.0
  C  C32  1  0.66044000  0.81460000  0.51050000  1.0
  C  C33  1  0.33955000  0.18540000  0.48950000  1.0
  C  C34  1  0.73615000  0.04964000  0.58374000  1.0
  C  C35  1  0.26385000  0.95037000  0.41626000  1.0
  C  C36  1  0.81197000  0.01736000  0.38840000  1.0
  C  C37  1  0.18803000  0.98264000  0.61160000  1.0
  C  C38  1  0.51097000  0.71741000  0.72092000  1.0
  C  C39  1  0.48903000  0.28259000  0.27908000  1.0
  C  C40  1  0.88187000  0.25661000  0.46535000  1.0
  C  C41  1  0.11812000  0.74339000  0.53465000  1.0
  C  C42  1  0.58295000  0.66988000  0.53270000  1.0
  C  C43  1  0.41705000  0.33013000  0.46730000  1.0
  C  C44  1  0.79479000  0.27000000  0.65831000  1.0
  C  C45  1  0.20521000  0.73001000  0.34169000  1.0
  C  C46  1  0.73916000  0.87590000  0.40456000  1.0
  C  C47  1  0.26084000  0.12410000  0.59544000  1.0
  C  C48  1  0.81150000  0.10804000  0.47761000  1.0
  C  C49  1  0.18850000  0.89197000  0.52239000  1.0
  C  C50  1  0.87158000  0.33681000  0.55628000  1.0
  C  C51  1  0.12841000  0.66320000  0.44372000  1.0
  C  C52  1  0.30066000  0.23965000  0.84997000  1.0
  C  C53  1  0.69934000  0.76034000  0.15003000  1.0
  C  C54  1  0.81045000  0.71695000  0.86076000  1.0
  C  C55  1  0.18955000  0.28305000  0.13923000  1.0
  C  C56  1  0.86854000  0.53372000  0.87871000  1.0
  C  C57  1  0.13147000  0.46627000  0.12129000  1.0
  C  C58  1  0.10601000  0.30052000  0.87098000  1.0
  C  C59  1  0.89399000  0.69948000  0.12902000  1.0
  C  C60  1  0.98423000  0.19087000  0.89932000  1.0
  C  C61  1  0.01577000  0.80912000  0.10068000  1.0
  C  C62  1  0.80412000  0.25233000  0.91832000  1.0
  C  C63  1  0.19589000  0.74766000  0.08169000  1.0
  C  C64  1  0.74679000  0.42430000  0.91016000  1.0
  C  C65  1  0.25322000  0.57570000  0.08985000  1.0
  C  C66  1  0.04780000  0.47109000  0.85877000  1.0
  C  C67  1  0.95220000  0.52891000  0.14123000  1.0
  N  N68  1  0.58482000  0.85314000  0.70233000  1.0
  N  N69  1  0.41517000  0.14686000  0.29767000  1.0
  N  N70  1  0.73053000  0.12924000  0.67203000  1.0
  N  N71  1  0.26946000  0.87077000  0.32797000  1.0
  N  N72  1  0.67989000  0.14149000  0.94184000  1.0
  N  N73  1  0.32011000  0.85851000  0.05816000  1.0
  O  O74  1  0.65188000  0.77997000  0.90812000  1.0
  O  O75  1  0.34812000  0.22003000  0.09188000  1.0
  O  O76  1  0.34952000  0.08191000  0.86959000  1.0
  O  O77  1  0.65049000  0.91809000  0.13041000  1.0
  O  O78  1  0.91408000  0.80170000  0.79712000  1.0
  O  O79  1  0.08592000  0.19829000  0.20287000  1.0
  O  O80  1  0.40512000  0.33990000  0.81316000  1.0
  O  O81  1  0.59489000  0.66011000  0.18684000  1.0
