# generated using pymatgen
data_Pr2AgH14C24NO16
_symmetry_space_group_name_H-M   'P 1'
_cell_length_a   8.62691000
_cell_length_b   11.76830000
_cell_length_c   13.48990000
_cell_angle_alpha   103.68100000
_cell_angle_beta   98.30420000
_cell_angle_gamma   99.13040000
_symmetry_Int_Tables_number   1
_chemical_formula_structural   Pr2AgH14C24NO16
_chemical_formula_sum   'Pr4 Ag2 H28 C48 N2 O32'
_cell_volume   1289.98150655
_cell_formula_units_Z   2
loop_
 _symmetry_equiv_pos_site_id
 _symmetry_equiv_pos_as_xyz
  1  'x, y, z'
loop_
 _atom_site_type_symbol
 _atom_site_label
 _atom_site_symmetry_multiplicity
 _atom_site_fract_x
 _atom_site_fract_y
 _atom_site_fract_z
 _atom_site_occupancy
  Pr  Pr0  1  0.45194000  0.11518000  0.39960000  1.0
  Pr  Pr1  1  0.54806000  0.88482000  0.60040000  1.0
  Pr  Pr2  1  0.18208000  0.38379000  0.38649000  1.0
  Pr  Pr3  1  0.81791000  0.61621000  0.61352000  1.0
  Ag  Ag4  1  0.93456000  0.04651000  0.32038000  1.0
  Ag  Ag5  1  0.06544000  0.95349000  0.67961000  1.0
  H  H6  1  0.75836000  0.26788000  0.52031000  1.0
  H  H7  1  0.24164000  0.73212000  0.47968000  1.0
  H  H8  1  0.65625000  0.32834000  0.59916000  1.0
  H  H9  1  0.34375000  0.67165000  0.40084000  1.0
  H  H10  1  0.14835000  0.92985000  0.41054000  1.0
  H  H11  1  0.85165000  0.07015000  0.58946000  1.0
  H  H12  1  0.26249000  0.85356000  0.36531000  1.0
  H  H13  1  0.73750000  0.14644000  0.63468000  1.0
  H  H14  1  0.08926000  0.44621000  0.81792000  1.0
  H  H15  1  0.91075000  0.55379000  0.18208000  1.0
  H  H16  1  0.26969000  0.36286000  0.93299000  1.0
  H  H17  1  0.73032000  0.63715000  0.06701000  1.0
  H  H18  1  0.41703000  0.21067000  0.85128000  1.0
  H  H19  1  0.58298000  0.78933000  0.14872000  1.0
  H  H20  1  0.43841000  0.47235000  0.05501000  1.0
  H  H21  1  0.56159000  0.52766000  0.94499000  1.0
  H  H22  1  0.61931000  0.34205000  0.97793000  1.0
  H  H23  1  0.38068000  0.65795000  0.02207000  1.0
  H  H24  1  0.78085000  0.24823000  0.09423000  1.0
  H  H25  1  0.21914000  0.75177000  0.90577000  1.0
  H  H26  1  0.01294000  0.21816000  0.04163000  1.0
  H  H27  1  0.98706000  0.78184000  0.95837000  1.0
  H  H28  1  0.93712000  0.12276000  0.84800000  1.0
  H  H29  1  0.06288000  0.87724000  0.15200000  1.0
  H  H30  1  0.31346000  0.94355000  0.85680000  1.0
  H  H31  1  0.68655000  0.05646000  0.14319000  1.0
  H  H32  1  0.38582000  0.01614000  0.05197000  1.0
  H  H33  1  0.61419000  0.98387000  0.94803000  1.0
  C  C34  1  0.39208000  0.09869000  0.65763000  1.0
  C  C35  1  0.60792000  0.90131000  0.34237000  1.0
  C  C36  1  0.13334000  0.17752000  0.51804000  1.0
  C  C37  1  0.86666000  0.82248000  0.48196000  1.0
  C  C38  1  0.02837000  0.39287000  0.61287000  1.0
  C  C39  1  0.97164000  0.60714000  0.38714000  1.0
  C  C40  1  0.30236000  0.19424000  0.69586000  1.0
  C  C41  1  0.69764000  0.80575000  0.30415000  1.0
  C  C42  1  0.19278000  0.23626000  0.63196000  1.0
  C  C43  1  0.80721000  0.76373000  0.36804000  1.0
  C  C44  1  0.12309000  0.33144000  0.67778000  1.0
  C  C45  1  0.87691000  0.66856000  0.32223000  1.0
  C  C46  1  0.14874000  0.37485000  0.78577000  1.0
  C  C47  1  0.85127000  0.62515000  0.21423000  1.0
  C  C48  1  0.25054000  0.32949000  0.84894000  1.0
  C  C49  1  0.74946000  0.67051000  0.15106000  1.0
  C  C50  1  0.33122000  0.24382000  0.80396000  1.0
  C  C51  1  0.66878000  0.75618000  0.19604000  1.0
  C  C52  1  0.77187000  0.25390000  0.29285000  1.0
  C  C53  1  0.22813000  0.74610000  0.70715000  1.0
  C  C54  1  0.57137000  0.40656000  0.38218000  1.0
  C  C55  1  0.42863000  0.59343000  0.61782000  1.0
  C  C56  1  0.39385000  0.53610000  0.24638000  1.0
  C  C57  1  0.60614000  0.46390000  0.75363000  1.0
  C  C58  1  0.68040000  0.31702000  0.22737000  1.0
  C  C59  1  0.31960000  0.68298000  0.77263000  1.0
  C  C60  1  0.57754000  0.38933000  0.26863000  1.0
  C  C61  1  0.42245000  0.61067000  0.73137000  1.0
  C  C62  1  0.49250000  0.44662000  0.20530000  1.0
  C  C63  1  0.50750000  0.55338000  0.79471000  1.0
  C  C64  1  0.50613000  0.42579000  0.10085000  1.0
  C  C65  1  0.49386000  0.57421000  0.89916000  1.0
  C  C66  1  0.60680000  0.35377000  0.05894000  1.0
  C  C67  1  0.39320000  0.64622000  0.94106000  1.0
  C  C68  1  0.69692000  0.30181000  0.12351000  1.0
  C  C69  1  0.30307000  0.69819000  0.87649000  1.0
  C  C70  1  0.24518000  0.17144000  0.17723000  1.0
  C  C71  1  0.75482000  0.82856000  0.82277000  1.0
  C  C72  1  0.20454000  0.12335000  0.06067000  1.0
  C  C73  1  0.79547000  0.87665000  0.93932000  1.0
  C  C74  1  0.07853000  0.15489000  0.00270000  1.0
  C  C75  1  0.92147000  0.84511000  0.99730000  1.0
  C  C76  1  0.03763000  0.10365000  0.89592000  1.0
  C  C77  1  0.96237000  0.89635000  0.10407000  1.0
  C  C78  1  0.24602000  0.00090000  0.90111000  1.0
  C  C79  1  0.75399000  0.99911000  0.09889000  1.0
  C  C80  1  0.28892000  0.04388000  0.00840000  1.0
  C  C81  1  0.71109000  0.95613000  0.99160000  1.0
  N  N82  1  0.12079000  0.02831000  0.84568000  1.0
  N  N83  1  0.87922000  0.97169000  0.15432000  1.0
  O  O84  1  0.39017000  0.05823000  0.55942000  1.0
  O  O85  1  0.60981000  0.94177000  0.44057000  1.0
  O  O86  1  0.46957000  0.05665000  0.72282000  1.0
  O  O87  1  0.53043000  0.94335000  0.27718000  1.0
  O  O88  1  0.21935000  0.19872000  0.45107000  1.0
  O  O89  1  0.78065000  0.80128000  0.54893000  1.0
  O  O90  1  0.99816000  0.10844000  0.49219000  1.0
  O  O91  1  0.00184000  0.89156000  0.50781000  1.0
  O  O92  1  0.00919000  0.35755000  0.51387000  1.0
  O  O93  1  0.99082000  0.64245000  0.48614000  1.0
  O  O94  1  0.97171000  0.47838000  0.66015000  1.0
  O  O95  1  0.02830000  0.52163000  0.33986000  1.0
  O  O96  1  0.69693000  0.19384000  0.34495000  1.0
  O  O97  1  0.30306000  0.80616000  0.65505000  1.0
  O  O98  1  0.91881000  0.25787000  0.28970000  1.0
  O  O99  1  0.08119000  0.74213000  0.71030000  1.0
  O  O100  1  0.45993000  0.33745000  0.40643000  1.0
  O  O101  1  0.54007000  0.66255000  0.59358000  1.0
  O  O102  1  0.68260000  0.48086000  0.44648000  1.0
  O  O103  1  0.31740000  0.51913000  0.55352000  1.0
  O  O104  1  0.36417000  0.53876000  0.33955000  1.0
  O  O105  1  0.63584000  0.46124000  0.66046000  1.0
  O  O106  1  0.35079000  0.60308000  0.19400000  1.0
  O  O107  1  0.64920000  0.39691000  0.80600000  1.0
  O  O108  1  0.32120000  0.11202000  0.22729000  1.0
  O  O109  1  0.67880000  0.88798000  0.77271000  1.0
  O  O110  1  0.19774000  0.26565000  0.21554000  1.0
  O  O111  1  0.80226000  0.73436000  0.78446000  1.0
  O  O112  1  0.67026000  0.24787000  0.55589000  1.0
  O  O113  1  0.32974000  0.75213000  0.44411000  1.0
  O  O114  1  0.22086000  0.92623000  0.36014000  1.0
  O  O115  1  0.77914000  0.07378000  0.63986000  1.0
