# generated using pymatgen
data_Cd3P2H28C22(NO7)2
_symmetry_space_group_name_H-M   'P 1'
_cell_length_a   7.69642000
_cell_length_b   9.28787000
_cell_length_c   9.75000000
_cell_angle_alpha   105.09400000
_cell_angle_beta   93.20940000
_cell_angle_gamma   102.64000000
_symmetry_Int_Tables_number   1
_chemical_formula_structural   Cd3P2H28C22(NO7)2
_chemical_formula_sum   'Cd3 P2 H28 C22 N2 O14'
_cell_volume   651.87105510
_cell_formula_units_Z   1
loop_
 _symmetry_equiv_pos_site_id
 _symmetry_equiv_pos_as_xyz
  1  'x, y, z'
loop_
 _atom_site_type_symbol
 _atom_site_label
 _atom_site_symmetry_multiplicity
 _atom_site_fract_x
 _atom_site_fract_y
 _atom_site_fract_z
 _atom_site_occupancy
  Cd  Cd0  1  0.94652000  0.83684000  0.83624000  1.0
  Cd  Cd1  1  0.05349000  0.16316000  0.16376000  1.0
  Cd  Cd2  1  0.50000000  0.99999000  0.99999000  1.0
  P  P3  1  0.14926000  0.78037000  0.08204000  1.0
  P  P4  1  0.85074000  0.21963000  0.91796000  1.0
  H  H5  1  0.91299000  0.50749000  0.13943000  1.0
  H  H6  1  0.08701000  0.49251000  0.86058000  1.0
  H  H7  1  0.11867000  0.80760000  0.33459000  1.0
  H  H8  1  0.88133000  0.19240000  0.66541000  1.0
  H  H9  1  0.19700000  0.64192000  0.25488000  1.0
  H  H10  1  0.80300000  0.35808000  0.74512000  1.0
  H  H11  1  0.79137000  0.72372000  0.10505000  1.0
  H  H12  1  0.20863000  0.27627000  0.89494000  1.0
  H  H13  1  0.77860000  0.77915000  0.29238000  1.0
  H  H14  1  0.22140000  0.22085000  0.70762000  1.0
  H  H15  1  0.58766000  0.47040000  0.07743000  1.0
  H  H16  1  0.41234000  0.52960000  0.92257000  1.0
  H  H17  1  0.48568000  0.62205000  0.15415000  1.0
  H  H18  1  0.51432000  0.37795000  0.84584000  1.0
  H  H19  1  0.53646000  0.58025000  0.39269000  1.0
  H  H20  1  0.46354000  0.41976000  0.60731000  1.0
  H  H21  1  0.72186000  0.33123000  0.24658000  1.0
  H  H22  1  0.27814000  0.66877000  0.75342000  1.0
  H  H23  1  0.70543000  0.39558000  0.43268000  1.0
  H  H24  1  0.29456000  0.60442000  0.56732000  1.0
  H  H25  1  0.90152000  0.65291000  0.44762000  1.0
  H  H26  1  0.09848000  0.34709000  0.55238000  1.0
  H  H27  1  0.00849000  0.50307000  0.37218000  1.0
  H  H28  1  0.99151000  0.49693000  0.62782000  1.0
  H  H29  1  0.56573000  0.88035000  0.69074000  1.0
  H  H30  1  0.43427000  0.11964000  0.30926000  1.0
  H  H31  1  0.20370000  0.06105000  0.46862000  1.0
  H  H32  1  0.79630000  0.93895000  0.53138000  1.0
  C  C33  1  0.10150000  0.71002000  0.23900000  1.0
  C  C34  1  0.89850000  0.28998000  0.76100000  1.0
  C  C35  1  0.76934000  0.68069000  0.19867000  1.0
  C  C36  1  0.23066000  0.31930000  0.80133000  1.0
  C  C37  1  0.59077000  0.56408000  0.17397000  1.0
  C  C38  1  0.40923000  0.43591000  0.82603000  1.0
  C  C39  1  0.55650000  0.49279000  0.29841000  1.0
  C  C40  1  0.44350000  0.50721000  0.70159000  1.0
  C  C41  1  0.71780000  0.43170000  0.33424000  1.0
  C  C42  1  0.28220000  0.56831000  0.66577000  1.0
  C  C43  1  0.89402000  0.55203000  0.35650000  1.0
  C  C44  1  0.10598000  0.44797000  0.64350000  1.0
  C  C45  1  0.38315000  0.36707000  0.25296000  1.0
  C  C46  1  0.61685000  0.63293000  0.74704000  1.0
  C  C47  1  0.22812000  0.92681000  0.68107000  1.0
  C  C48  1  0.77188000  0.07319000  0.31893000  1.0
  C  C49  1  0.37055000  0.96730000  0.59027000  1.0
  C  C50  1  0.62945000  0.03269000  0.40973000  1.0
  C  C51  1  0.53715000  0.93238000  0.60693000  1.0
  C  C52  1  0.46285000  0.06762000  0.39307000  1.0
  C  C53  1  0.33428000  0.03545000  0.48272000  1.0
  C  C54  1  0.66571000  0.96455000  0.51728000  1.0
  N  N55  1  0.91858000  0.60839000  0.22579000  1.0
  N  N56  1  0.08143000  0.39161000  0.77422000  1.0
  O  O57  1  0.05613000  0.65132000  0.94791000  1.0
  O  O58  1  0.94387000  0.34867000  0.05209000  1.0
  O  O59  1  0.05865000  0.91428000  0.08773000  1.0
  O  O60  1  0.94134000  0.08572000  0.91227000  1.0
  O  O61  1  0.35457000  0.82747000  0.09530000  1.0
  O  O62  1  0.64543000  0.17253000  0.90469000  1.0
  O  O63  1  0.37582000  0.24510000  0.15162000  1.0
  O  O64  1  0.62418000  0.75490000  0.84839000  1.0
  O  O65  1  0.24518000  0.38931000  0.31408000  1.0
  O  O66  1  0.75482000  0.61070000  0.68592000  1.0
  O  O67  1  0.06524000  0.88959000  0.62627000  1.0
  O  O68  1  0.93476000  0.11041000  0.37372000  1.0
  O  O69  1  0.26918000  0.92586000  0.81057000  1.0
  O  O70  1  0.73081000  0.07413000  0.18943000  1.0
