# generated using pymatgen
data_NiH22C22N4O9
_symmetry_space_group_name_H-M   'P 1'
_cell_length_a   10.42830000
_cell_length_b   10.54910000
_cell_length_c   12.05300000
_cell_angle_alpha   90.00000000
_cell_angle_beta   112.88600000
_cell_angle_gamma   89.99960000
_symmetry_Int_Tables_number   1
_chemical_formula_structural   NiH22C22N4O9
_chemical_formula_sum   'Ni2 H44 C44 N8 O18'
_cell_volume   1221.56320217
_cell_formula_units_Z   2
loop_
 _symmetry_equiv_pos_site_id
 _symmetry_equiv_pos_as_xyz
  1  'x, y, z'
loop_
 _atom_site_type_symbol
 _atom_site_label
 _atom_site_symmetry_multiplicity
 _atom_site_fract_x
 _atom_site_fract_y
 _atom_site_fract_z
 _atom_site_occupancy
  Ni  Ni0  1  0.26329000  0.13877000  0.48998000  1.0
  Ni  Ni1  1  0.73672000  0.63877000  0.51002000  1.0
  H  H2  1  0.06281000  0.30150000  0.28589000  1.0
  H  H3  1  0.93719000  0.80148000  0.71410000  1.0
  H  H4  1  0.08913000  0.30382000  0.16503000  1.0
  H  H5  1  0.91086000  0.80381000  0.83495000  1.0
  H  H6  1  0.41000000  0.89458000  0.65304000  1.0
  H  H7  1  0.59000000  0.39459000  0.34696000  1.0
  H  H8  1  0.27742000  0.88951000  0.68002000  1.0
  H  H9  1  0.72258000  0.38952000  0.31998000  1.0
  H  H10  1  0.26235000  0.96888000  0.10264000  1.0
  H  H11  1  0.73764000  0.46888000  0.89735000  1.0
  H  H12  1  0.95722000  0.98489000  0.61546000  1.0
  H  H13  1  0.04278000  0.48490000  0.38452000  1.0
  H  H14  1  0.70728000  0.99100000  0.63554000  1.0
  H  H15  1  0.29272000  0.49101000  0.36446000  1.0
  H  H16  1  0.41416000  0.37188000  0.54942000  1.0
  H  H17  1  0.58583000  0.87187000  0.45058000  1.0
  H  H18  1  0.20198000  0.14275000  0.69999000  1.0
  H  H19  1  0.79803000  0.64275000  0.30000000  1.0
  H  H20  1  0.26219000  0.28343000  0.88073000  1.0
  H  H21  1  0.73782000  0.78345000  0.11928000  1.0
  H  H22  1  0.48263000  0.52277000  0.72304000  1.0
  H  H23  1  0.51736000  0.02276000  0.27697000  1.0
  H  H24  1  0.17294000  0.52233000  0.80780000  1.0
  H  H25  1  0.82706000  0.02234000  0.19220000  1.0
  H  H26  1  0.20051000  0.68526000  0.84596000  1.0
  H  H27  1  0.79950000  0.18527000  0.15404000  1.0
  H  H28  1  0.00719000  0.60846000  0.89683000  1.0
  H  H29  1  0.99281000  0.10845000  0.10316000  1.0
  H  H30  1  0.10982000  0.48005000  0.98279000  1.0
  H  H31  1  0.89017000  0.98005000  0.01721000  1.0
  H  H32  1  0.50832000  0.59837000  0.13029000  1.0
  H  H33  1  0.49168000  0.09838000  0.86972000  1.0
  H  H34  1  0.41770000  0.73651000  0.05009000  1.0
  H  H35  1  0.58229000  0.23652000  0.94990000  1.0
  H  H36  1  0.34331000  0.69681000  0.21641000  1.0
  H  H37  1  0.65669000  0.19680000  0.78359000  1.0
  H  H38  1  0.30955000  0.53432000  0.17612000  1.0
  H  H39  1  0.69044000  0.03432000  0.82388000  1.0
  H  H40  1  0.31148000  0.12883000  0.26859000  1.0
  H  H41  1  0.68851000  0.62882000  0.73140000  1.0
  H  H42  1  0.11144000  0.91234000  0.43926000  1.0
  H  H43  1  0.88856000  0.41234000  0.56074000  1.0
  H  H44  1  0.04233000  0.74881000  0.27622000  1.0
  H  H45  1  0.95768000  0.24882000  0.72379000  1.0
  C  C46  1  0.22577000  0.95246000  0.17491000  1.0
  C  C47  1  0.77423000  0.45246000  0.82509000  1.0
  C  C48  1  0.97288000  0.18445000  0.44172000  1.0
  C  C49  1  0.02711000  0.68447000  0.55827000  1.0
  C  C50  1  0.86779000  0.14039000  0.48681000  1.0
  C  C51  1  0.13221000  0.64041000  0.51318000  1.0
  C  C52  1  0.87150000  0.04886000  0.56970000  1.0
  C  C53  1  0.12851000  0.54887000  0.43029000  1.0
  C  C54  1  0.74094000  0.05323000  0.58050000  1.0
  C  C55  1  0.25906000  0.55323000  0.41950000  1.0
  C  C56  1  0.66493000  0.14740000  0.50366000  1.0
  C  C57  1  0.33508000  0.64741000  0.49634000  1.0
  C  C58  1  0.52156000  0.19578000  0.46964000  1.0
  C  C59  1  0.47844000  0.69578000  0.53038000  1.0
  C  C60  1  0.38283000  0.35701000  0.62461000  1.0
  C  C61  1  0.61717000  0.85700000  0.37539000  1.0
  C  C62  1  0.26209000  0.22911000  0.70899000  1.0
  C  C63  1  0.73791000  0.72913000  0.29101000  1.0
  C  C64  1  0.29647000  0.30800000  0.80867000  1.0
  C  C65  1  0.70353000  0.80802000  0.19133000  1.0
  C  C66  1  0.42051000  0.43963000  0.72147000  1.0
  C  C67  1  0.57949000  0.93963000  0.27853000  1.0
  C  C68  1  0.37918000  0.41495000  0.81646000  1.0
  C  C69  1  0.62082000  0.91497000  0.18354000  1.0
  C  C70  1  0.44003000  0.49375000  0.92883000  1.0
  C  C71  1  0.55998000  0.99376000  0.07119000  1.0
  C  C72  1  0.20717000  0.58895000  0.88342000  1.0
  C  C73  1  0.79283000  0.08896000  0.11658000  1.0
  C  C74  1  0.11300000  0.57827000  0.95299000  1.0
  C  C75  1  0.88700000  0.07827000  0.04702000  1.0
  C  C76  1  0.40636000  0.63719000  0.07341000  1.0
  C  C77  1  0.59364000  0.13719000  0.92659000  1.0
  C  C78  1  0.30859000  0.63058000  0.14041000  1.0
  C  C79  1  0.69142000  0.13058000  0.85960000  1.0
  C  C80  1  0.08874000  0.75770000  0.07027000  1.0
  C  C81  1  0.91125000  0.25770000  0.92972000  1.0
  C  C82  1  0.14689000  0.84554000  0.17618000  1.0
  C  C83  1  0.85311000  0.34553000  0.82382000  1.0
  C  C84  1  0.25659000  0.04068000  0.26767000  1.0
  C  C85  1  0.74341000  0.54067000  0.73233000  1.0
  C  C86  1  0.14114000  0.92047000  0.36249000  1.0
  C  C87  1  0.85887000  0.42046000  0.63751000  1.0
  C  C88  1  0.10378000  0.83049000  0.27165000  1.0
  C  C89  1  0.89623000  0.33050000  0.72836000  1.0
  N  N90  1  0.30531000  0.25294000  0.61893000  1.0
  N  N91  1  0.69470000  0.75294000  0.38108000  1.0
  N  N92  1  0.35133000  0.56190000  0.96294000  1.0
  N  N93  1  0.64867000  0.06190000  0.03707000  1.0
  N  N94  1  0.16620000  0.66060000  0.05872000  1.0
  N  N95  1  0.83381000  0.16060000  0.94129000  1.0
  N  N96  1  0.21579000  0.02427000  0.36012000  1.0
  N  N97  1  0.78421000  0.52426000  0.63988000  1.0
  O  O98  1  0.08663000  0.11849000  0.49010000  1.0
  O  O99  1  0.91338000  0.61848000  0.50990000  1.0
  O  O100  1  0.94824000  0.27404000  0.36817000  1.0
  O  O101  1  0.05174000  0.77405000  0.63181000  1.0
  O  O102  1  0.74168000  0.20113000  0.44568000  1.0
  O  O103  1  0.25832000  0.70113000  0.55432000  1.0
  O  O104  1  0.47954000  0.29097000  0.40363000  1.0
  O  O105  1  0.52047000  0.79096000  0.59638000  1.0
  O  O106  1  0.13219000  0.32162000  0.25167000  1.0
  O  O107  1  0.86780000  0.82160000  0.74832000  1.0
  O  O108  1  0.45143000  0.12614000  0.51570000  1.0
  O  O109  1  0.54857000  0.62614000  0.48431000  1.0
  O  O110  1  0.35282000  0.94664000  0.68441000  1.0
  O  O111  1  0.64718000  0.44665000  0.31560000  1.0
  O  O112  1  0.56842000  0.49045000  0.98558000  1.0
  O  O113  1  0.43157000  0.99047000  0.01442000  1.0
  O  O114  1  0.96671000  0.77942000  0.99768000  1.0
  O  O115  1  0.03328000  0.27942000  0.00232000  1.0
