# generated using pymatgen
data_Cu2Mo3H4C4(NO5)2
_symmetry_space_group_name_H-M   'P 1'
_cell_length_a   7.62393000
_cell_length_b   12.38740000
_cell_length_c   12.74800000
_cell_angle_alpha   90.00000000
_cell_angle_beta   90.00000000
_cell_angle_gamma   90.00000000
_symmetry_Int_Tables_number   1
_chemical_formula_structural   Cu2Mo3H4C4(NO5)2
_chemical_formula_sum   'Cu8 Mo12 H16 C16 N8 O40'
_cell_volume   1203.92966730
_cell_formula_units_Z   4
loop_
 _symmetry_equiv_pos_site_id
 _symmetry_equiv_pos_as_xyz
  1  'x, y, z'
loop_
 _atom_site_type_symbol
 _atom_site_label
 _atom_site_symmetry_multiplicity
 _atom_site_fract_x
 _atom_site_fract_y
 _atom_site_fract_z
 _atom_site_occupancy
  Cu  Cu0  1  0.25000000  0.76912000  0.78654000  1.0
  Cu  Cu1  1  0.75000000  0.73088000  0.28654000  1.0
  Cu  Cu2  1  0.75000000  0.23088000  0.21346000  1.0
  Cu  Cu3  1  0.25000000  0.26912000  0.71346000  1.0
  Cu  Cu4  1  0.25000000  0.38988000  0.17341000  1.0
  Cu  Cu5  1  0.75000000  0.11012000  0.67341000  1.0
  Cu  Cu6  1  0.75000000  0.61013000  0.82659000  1.0
  Cu  Cu7  1  0.25000000  0.88988000  0.32660000  1.0
  Mo  Mo8  1  0.25000000  0.66367000  0.51540000  1.0
  Mo  Mo9  1  0.75000000  0.83633000  0.01540000  1.0
  Mo  Mo10  1  0.75000000  0.33633000  0.48460000  1.0
  Mo  Mo11  1  0.25000000  0.16367000  0.98460000  1.0
  Mo  Mo12  1  0.99895000  0.98700000  0.86302000  1.0
  Mo  Mo13  1  0.00105000  0.51300000  0.36302000  1.0
  Mo  Mo14  1  0.49895000  0.01300000  0.13698000  1.0
  Mo  Mo15  1  0.50105000  0.48700000  0.63698000  1.0
  Mo  Mo16  1  0.00105000  0.01300000  0.13698000  1.0
  Mo  Mo17  1  0.99895000  0.48700000  0.63698000  1.0
  Mo  Mo18  1  0.50105000  0.98700000  0.86302000  1.0
  Mo  Mo19  1  0.49895000  0.51300000  0.36302000  1.0
  H  H20  1  0.25000000  0.53227000  0.80386000  1.0
  H  H21  1  0.75000000  0.96773000  0.30386000  1.0
  H  H22  1  0.75000000  0.46773000  0.19614000  1.0
  H  H23  1  0.25000000  0.03227000  0.69614000  1.0
  H  H24  1  0.25000000  0.39697000  0.94704000  1.0
  H  H25  1  0.75000000  0.10303000  0.44704000  1.0
  H  H26  1  0.75000000  0.60303000  0.05296000  1.0
  H  H27  1  0.25000000  0.89697000  0.55296000  1.0
  H  H28  1  0.25000000  0.64550000  0.16820000  1.0
  H  H29  1  0.75000000  0.85450000  0.66821000  1.0
  H  H30  1  0.75000000  0.35450000  0.83180000  1.0
  H  H31  1  0.25000000  0.14550000  0.33180000  1.0
  H  H32  1  0.25000000  0.78144000  0.02265000  1.0
  H  H33  1  0.75000000  0.71855000  0.52265000  1.0
  H  H34  1  0.75000000  0.21855000  0.97735000  1.0
  H  H35  1  0.25000000  0.28145000  0.47735000  1.0
  C  C36  1  0.25000000  0.55820000  0.88490000  1.0
  C  C37  1  0.75000000  0.94180000  0.38490000  1.0
  C  C38  1  0.75000000  0.44180000  0.11510000  1.0
  C  C39  1  0.25000000  0.05820000  0.61510000  1.0
  C  C40  1  0.25000000  0.48286000  0.96503000  1.0
  C  C41  1  0.75000000  0.01714000  0.46502000  1.0
  C  C42  1  0.75000000  0.51714000  0.03497000  1.0
  C  C43  1  0.25000000  0.98286000  0.53498000  1.0
  C  C44  1  0.25000000  0.61961000  0.08657000  1.0
  C  C45  1  0.75000000  0.88039000  0.58657000  1.0
  C  C46  1  0.75000000  0.38039000  0.91342000  1.0
  C  C47  1  0.25000000  0.11961000  0.41343000  1.0
  C  C48  1  0.25000000  0.69545000  0.00583000  1.0
  C  C49  1  0.75000000  0.80455000  0.50583000  1.0
  C  C50  1  0.75000000  0.30455000  0.99417000  1.0
  C  C51  1  0.25000000  0.19545000  0.49417000  1.0
  N  N52  1  0.25000000  0.66535000  0.90387000  1.0
  N  N53  1  0.75000000  0.83464000  0.40387000  1.0
  N  N54  1  0.75000000  0.33465000  0.09613000  1.0
  N  N55  1  0.25000000  0.16536000  0.59613000  1.0
  N  N56  1  0.25000000  0.51254000  0.06688000  1.0
  N  N57  1  0.75000000  0.98746000  0.56689000  1.0
  N  N58  1  0.75000000  0.48746000  0.93312000  1.0
  N  N59  1  0.25000000  0.01254000  0.43312000  1.0
  O  O60  1  0.25000000  0.51634000  0.61519000  1.0
  O  O61  1  0.75000000  0.98366000  0.11519000  1.0
  O  O62  1  0.75000000  0.48366000  0.38481000  1.0
  O  O63  1  0.25000000  0.01634000  0.88481000  1.0
  O  O64  1  0.48741000  0.60735000  0.50980000  1.0
  O  O65  1  0.51259000  0.89265000  0.00981000  1.0
  O  O66  1  0.98741000  0.39265000  0.49020000  1.0
  O  O67  1  0.01259000  0.10735000  0.99020000  1.0
  O  O68  1  0.51259000  0.39265000  0.49020000  1.0
  O  O69  1  0.48741000  0.10735000  0.99020000  1.0
  O  O70  1  0.01259000  0.60735000  0.50980000  1.0
  O  O71  1  0.98741000  0.89265000  0.00981000  1.0
  O  O72  1  0.25000000  0.53771000  0.39162000  1.0
  O  O73  1  0.75000000  0.96230000  0.89162000  1.0
  O  O74  1  0.75000000  0.46230000  0.60838000  1.0
  O  O75  1  0.25000000  0.03770000  0.10838000  1.0
  O  O76  1  0.25000000  0.73728000  0.63244000  1.0
  O  O77  1  0.75000000  0.76272000  0.13244000  1.0
  O  O78  1  0.75000000  0.26272000  0.36756000  1.0
  O  O79  1  0.25000000  0.23728000  0.86756000  1.0
  O  O80  1  0.25000000  0.26292000  0.08288000  1.0
  O  O81  1  0.75000000  0.23707000  0.58288000  1.0
  O  O82  1  0.75000000  0.73708000  0.91712000  1.0
  O  O83  1  0.25000000  0.76293000  0.41712000  1.0
  O  O84  1  0.04927000  0.87219000  0.78898000  1.0
  O  O85  1  0.95073000  0.62781000  0.28898000  1.0
  O  O86  1  0.54927000  0.12781000  0.21102000  1.0
  O  O87  1  0.45073000  0.37219000  0.71103000  1.0
  O  O88  1  0.95073000  0.12780000  0.21103000  1.0
  O  O89  1  0.04927000  0.37219000  0.71102000  1.0
  O  O90  1  0.45073000  0.87219000  0.78898000  1.0
  O  O91  1  0.54927000  0.62781000  0.28898000  1.0
  O  O92  1  0.05376000  0.41439000  0.26921000  1.0
  O  O93  1  0.94624000  0.08561000  0.76921000  1.0
  O  O94  1  0.55376000  0.58561000  0.73079000  1.0
  O  O95  1  0.44624000  0.91439000  0.23079000  1.0
  O  O96  1  0.94625000  0.58561000  0.73079000  1.0
  O  O97  1  0.05376000  0.91439000  0.23079000  1.0
  O  O98  1  0.44624000  0.41439000  0.26921000  1.0
  O  O99  1  0.55376000  0.08561000  0.76921000  1.0
