# generated using pymatgen
data_AgH12C7S7(OF)3
_symmetry_space_group_name_H-M   'P 1'
_cell_length_a   11.38780000
_cell_length_b   12.07720000
_cell_length_c   12.90760000
_cell_angle_alpha   89.99970000
_cell_angle_beta   72.06200000
_cell_angle_gamma   89.99960000
_symmetry_Int_Tables_number   1
_chemical_formula_structural   AgH12C7S7(OF)3
_chemical_formula_sum   'Ag4 H48 C28 S28 O12 F12'
_cell_volume   1688.92486263
_cell_formula_units_Z   4
loop_
 _symmetry_equiv_pos_site_id
 _symmetry_equiv_pos_as_xyz
  1  'x, y, z'
loop_
 _atom_site_type_symbol
 _atom_site_label
 _atom_site_symmetry_multiplicity
 _atom_site_fract_x
 _atom_site_fract_y
 _atom_site_fract_z
 _atom_site_occupancy
  Ag  Ag0  1  0.72919000  0.75685000  0.82868000  1.0
  Ag  Ag1  1  0.77082000  0.25686000  0.17132000  1.0
  Ag  Ag2  1  0.27082000  0.24315000  0.17133000  1.0
  Ag  Ag3  1  0.22918000  0.74315000  0.82867000  1.0
  H  H4  1  0.60274000  0.73615000  0.12607000  1.0
  H  H5  1  0.89726000  0.23615000  0.87393000  1.0
  H  H6  1  0.39725000  0.26384000  0.87394000  1.0
  H  H7  1  0.10274000  0.76384000  0.12606000  1.0
  H  H8  1  0.44412000  0.70396000  0.14012000  1.0
  H  H9  1  0.05588000  0.20396000  0.85988000  1.0
  H  H10  1  0.55587000  0.29604000  0.85988000  1.0
  H  H11  1  0.94412000  0.79604000  0.14012000  1.0
  H  H12  1  0.86663000  0.57205000  0.95823000  1.0
  H  H13  1  0.63337000  0.07205000  0.04177000  1.0
  H  H14  1  0.13336000  0.42795000  0.04177000  1.0
  H  H15  1  0.36663000  0.92795000  0.95822000  1.0
  H  H16  1  0.81628000  0.68921000  0.04653000  1.0
  H  H17  1  0.68373000  0.18921000  0.95347000  1.0
  H  H18  1  0.18372000  0.31079000  0.95347000  1.0
  H  H19  1  0.31628000  0.81079000  0.04653000  1.0
  H  H20  1  0.37116000  0.60955000  0.98895000  1.0
  H  H21  1  0.12884000  0.10955000  0.01105000  1.0
  H  H22  1  0.62884000  0.39045000  0.01105000  1.0
  H  H23  1  0.87116000  0.89045000  0.98895000  1.0
  H  H24  1  0.47583000  0.56975000  0.85851000  1.0
  H  H25  1  0.02418000  0.06975000  0.14149000  1.0
  H  H26  1  0.52418000  0.43025000  0.14149000  1.0
  H  H27  1  0.97582000  0.93025000  0.85851000  1.0
  H  H28  1  0.67911000  0.02370000  0.62654000  1.0
  H  H29  1  0.82090000  0.52370000  0.37346000  1.0
  H  H30  1  0.32089000  0.97630000  0.37346000  1.0
  H  H31  1  0.17911000  0.47630000  0.62654000  1.0
  H  H32  1  0.57358000  0.97493000  0.75080000  1.0
  H  H33  1  0.92642000  0.47494000  0.24920000  1.0
  H  H34  1  0.42642000  0.02506000  0.24920000  1.0
  H  H35  1  0.07358000  0.52507000  0.75080000  1.0
  H  H36  1  0.85707000  0.90741000  0.50079000  1.0
  H  H37  1  0.64293000  0.40741000  0.49921000  1.0
  H  H38  1  0.14293000  0.09259000  0.49921000  1.0
  H  H39  1  0.35707000  0.59259000  0.50079000  1.0
  H  H40  1  0.89299000  0.76910000  0.52956000  1.0
  H  H41  1  0.60701000  0.26910000  0.47044000  1.0
  H  H42  1  0.10701000  0.23090000  0.47044000  1.0
  H  H43  1  0.39299000  0.73090000  0.52956000  1.0
  H  H44  1  0.97628000  0.07211000  0.70807000  1.0
  H  H45  1  0.52372000  0.57211000  0.29193000  1.0
  H  H46  1  0.02372000  0.92790000  0.29193000  1.0
  H  H47  1  0.47628000  0.42789000  0.70807000  1.0
  H  H48  1  0.90378000  0.08079000  0.60319000  1.0
  H  H49  1  0.59622000  0.58079000  0.39681000  1.0
  H  H50  1  0.09622000  0.91921000  0.39681000  1.0
  H  H51  1  0.40378000  0.41921000  0.60319000  1.0
  C  C52  1  0.53253000  0.73221000  0.08407000  1.0
  C  C53  1  0.96747000  0.23222000  0.91593000  1.0
  C  C54  1  0.46746000  0.26778000  0.91593000  1.0
  C  C55  1  0.03253000  0.76778000  0.08408000  1.0
  C  C56  1  0.89386000  0.65238000  0.98307000  1.0
  C  C57  1  0.60614000  0.15238000  0.01692000  1.0
  C  C58  1  0.10614000  0.34762000  0.01693000  1.0
  C  C59  1  0.39386000  0.84762000  0.98307000  1.0
  C  C60  1  0.45464000  0.63215000  0.92317000  1.0
  C  C61  1  0.04536000  0.13215000  0.07683000  1.0
  C  C62  1  0.54536000  0.36785000  0.07683000  1.0
  C  C63  1  0.95464000  0.86785000  0.92317000  1.0
  C  C64  1  0.67045000  0.97353000  0.69958000  1.0
  C  C65  1  0.82955000  0.47353000  0.30043000  1.0
  C  C66  1  0.32955000  0.02647000  0.30042000  1.0
  C  C67  1  0.17045000  0.52647000  0.69958000  1.0
  C  C68  1  0.86245000  0.85044000  0.56567000  1.0
  C  C69  1  0.63755000  0.35044000  0.43433000  1.0
  C  C70  1  0.13755000  0.14956000  0.43433000  1.0
  C  C71  1  0.36245000  0.64956000  0.56567000  1.0
  C  C72  1  0.91051000  0.03215000  0.67319000  1.0
  C  C73  1  0.58949000  0.53215000  0.32681000  1.0
  C  C74  1  0.08949000  0.96785000  0.32681000  1.0
  C  C75  1  0.41051000  0.46785000  0.67319000  1.0
  C  C76  1  0.85420000  0.37326000  0.63259000  1.0
  C  C77  1  0.64581000  0.87325000  0.36741000  1.0
  C  C78  1  0.14580000  0.62674000  0.36741000  1.0
  C  C79  1  0.35419000  0.12674000  0.63259000  1.0
  S  S80  1  0.58541000  0.63213000  0.97476000  1.0
  S  S81  1  0.91459000  0.13212000  0.02524000  1.0
  S  S82  1  0.41458000  0.36788000  0.02524000  1.0
  S  S83  1  0.08541000  0.86788000  0.97476000  1.0
  S  S84  1  0.51925000  0.87100000  0.03796000  1.0
  S  S85  1  0.98074000  0.37100000  0.96204000  1.0
  S  S86  1  0.48074000  0.12900000  0.96204000  1.0
  S  S87  1  0.01926000  0.62900000  0.03796000  1.0
  S  S88  1  0.93226000  0.73856000  0.86230000  1.0
  S  S89  1  0.56774000  0.23856000  0.13770000  1.0
  S  S90  1  0.06774000  0.26144000  0.13771000  1.0
  S  S91  1  0.43226000  0.76144000  0.86229000  1.0
  S  S92  1  0.76222000  0.03132000  0.77765000  1.0
  S  S93  1  0.73778000  0.53132000  0.22235000  1.0
  S  S94  1  0.23778000  0.96868000  0.22235000  1.0
  S  S95  1  0.26222000  0.46868000  0.77765000  1.0
  S  S96  1  0.70593000  0.83067000  0.65706000  1.0
  S  S97  1  0.79407000  0.33067000  0.34294000  1.0
  S  S98  1  0.29406000  0.16933000  0.34294000  1.0
  S  S99  1  0.20593000  0.66933000  0.65706000  1.0
  S  S100  1  0.97674000  0.89801000  0.62588000  1.0
  S  S101  1  0.52326000  0.39801000  0.37412000  1.0
  S  S102  1  0.02326000  0.10199000  0.37412000  1.0
  S  S103  1  0.47674000  0.60199000  0.62588000  1.0
  S  S104  1  0.77337000  0.44566000  0.76285000  1.0
  S  S105  1  0.72663000  0.94565000  0.23715000  1.0
  S  S106  1  0.22663000  0.55434000  0.23715000  1.0
  S  S107  1  0.27337000  0.05435000  0.76285000  1.0
  O  O108  1  0.76569000  0.36085000  0.84560000  1.0
  O  O109  1  0.73431000  0.86085000  0.15439000  1.0
  O  O110  1  0.23432000  0.63914000  0.15439000  1.0
  O  O111  1  0.26569000  0.13915000  0.84560000  1.0
  O  O112  1  0.85633000  0.53758000  0.76327000  1.0
  O  O113  1  0.64367000  0.03757000  0.23672000  1.0
  O  O114  1  0.14367000  0.46242000  0.23673000  1.0
  O  O115  1  0.35633000  0.96242000  0.76327000  1.0
  O  O116  1  0.65491000  0.47630000  0.74928000  1.0
  O  O117  1  0.84509000  0.97630000  0.25072000  1.0
  O  O118  1  0.34510000  0.52370000  0.25072000  1.0
  O  O119  1  0.15491000  0.02370000  0.74928000  1.0
  F  F120  1  0.78693000  0.28617000  0.61495000  1.0
  F  F121  1  0.71308000  0.78617000  0.38505000  1.0
  F  F122  1  0.21308000  0.71383000  0.38505000  1.0
  F  F123  1  0.28692000  0.21383000  0.61495000  1.0
  F  F124  1  0.87446000  0.44367000  0.54690000  1.0
  F  F125  1  0.62555000  0.94367000  0.45310000  1.0
  F  F126  1  0.12554000  0.55633000  0.45310000  1.0
  F  F127  1  0.37445000  0.05633000  0.54690000  1.0
  F  F128  1  0.96598000  0.33317000  0.63364000  1.0
  F  F129  1  0.53403000  0.83317000  0.36636000  1.0
  F  F130  1  0.03403000  0.66683000  0.36636000  1.0
  F  F131  1  0.46597000  0.16683000  0.63364000  1.0
