# generated using pymatgen
data_ZnH13C15NO7
_symmetry_space_group_name_H-M   'P 1'
_cell_length_a   4.92532000
_cell_length_b   16.26280000
_cell_length_c   19.37790000
_cell_angle_alpha   89.99960000
_cell_angle_beta   89.99950000
_cell_angle_gamma   91.30360000
_symmetry_Int_Tables_number   1
_chemical_formula_structural   ZnH13C15NO7
_chemical_formula_sum   'Zn4 H52 C60 N4 O28'
_cell_volume   1551.75825939
_cell_formula_units_Z   4
loop_
 _symmetry_equiv_pos_site_id
 _symmetry_equiv_pos_as_xyz
  1  'x, y, z'
loop_
 _atom_site_type_symbol
 _atom_site_label
 _atom_site_symmetry_multiplicity
 _atom_site_fract_x
 _atom_site_fract_y
 _atom_site_fract_z
 _atom_site_occupancy
  Zn  Zn0  1  0.10130000  0.35593000  0.10348000  1.0
  Zn  Zn1  1  0.89869000  0.14407000  0.60348000  1.0
  Zn  Zn2  1  0.89868000  0.64407000  0.89652000  1.0
  Zn  Zn3  1  0.10131000  0.85593000  0.39652000  1.0
  H  H4  1  0.74638000  0.11823000  0.14468000  1.0
  H  H5  1  0.25363000  0.38176000  0.64468000  1.0
  H  H6  1  0.25362000  0.88177000  0.85532000  1.0
  H  H7  1  0.74636000  0.61822000  0.35532000  1.0
  H  H8  1  0.95619000  0.02107000  0.22864000  1.0
  H  H9  1  0.04384000  0.47894000  0.72864000  1.0
  H  H10  1  0.04384000  0.97894000  0.77136000  1.0
  H  H11  1  0.95613000  0.52105000  0.27136000  1.0
  H  H12  1  0.42243000  0.10808000  0.38687000  1.0
  H  H13  1  0.57758000  0.39193000  0.88687000  1.0
  H  H14  1  0.57759000  0.89193000  0.61313000  1.0
  H  H15  1  0.42242000  0.60808000  0.11313000  1.0
  H  H16  1  0.82637000  0.32730000  0.26419000  1.0
  H  H17  1  0.17363000  0.17269000  0.76419000  1.0
  H  H18  1  0.17364000  0.67270000  0.73581000  1.0
  H  H19  1  0.82637000  0.82731000  0.23581000  1.0
  H  H20  1  0.46419000  0.42551000  0.27780000  1.0
  H  H21  1  0.53582000  0.07449000  0.77779000  1.0
  H  H22  1  0.53582000  0.57450000  0.72221000  1.0
  H  H23  1  0.46419000  0.92551000  0.22220000  1.0
  H  H24  1  0.26782000  0.45399000  0.39369000  1.0
  H  H25  1  0.73218000  0.04600000  0.89369000  1.0
  H  H26  1  0.73220000  0.54601000  0.60631000  1.0
  H  H27  1  0.26781000  0.95399000  0.10630000  1.0
  H  H28  1  0.44497000  0.38013000  0.49712000  1.0
  H  H29  1  0.55503000  0.11986000  0.99712000  1.0
  H  H30  1  0.55505000  0.61988000  0.50288000  1.0
  H  H31  1  0.44496000  0.88012000  0.00287000  1.0
  H  H32  1  0.79743000  0.27739000  0.48381000  1.0
  H  H33  1  0.20258000  0.22261000  0.98381000  1.0
  H  H34  1  0.20258000  0.72262000  0.51619000  1.0
  H  H35  1  0.79742000  0.77738000  0.01620000  1.0
  H  H36  1  0.13198000  0.26084000  0.26763000  1.0
  H  H37  1  0.86802000  0.23916000  0.76763000  1.0
  H  H38  1  0.86802000  0.73916000  0.73237000  1.0
  H  H39  1  0.13197000  0.76084000  0.23238000  1.0
  H  H40  1  0.85517000  0.29614000  0.99729000  1.0
  H  H41  1  0.14484000  0.20385000  0.49729000  1.0
  H  H42  1  0.14483000  0.70385000  0.00271000  1.0
  H  H43  1  0.85516000  0.79615000  0.50271000  1.0
  H  H44  1  0.51285000  0.43273000  0.04711000  1.0
  H  H45  1  0.48715000  0.06727000  0.54711000  1.0
  H  H46  1  0.48713000  0.56727000  0.95289000  1.0
  H  H47  1  0.51286000  0.93274000  0.45288000  1.0
  H  H48  1  0.68088000  0.26115000  0.06535000  1.0
  H  H49  1  0.31912000  0.23884000  0.56535000  1.0
  H  H50  1  0.31911000  0.73884000  0.93465000  1.0
  H  H51  1  0.68087000  0.76115000  0.43465000  1.0
  H  H52  1  0.28204000  0.42819000  0.98990000  1.0
  H  H53  1  0.71796000  0.07181000  0.48990000  1.0
  H  H54  1  0.71794000  0.57181000  0.01010000  1.0
  H  H55  1  0.28205000  0.92819000  0.51010000  1.0
  C  C56  1  0.37015000  0.22536000  0.16385000  1.0
  C  C57  1  0.62985000  0.27464000  0.66385000  1.0
  C  C58  1  0.62986000  0.77464000  0.83615000  1.0
  C  C59  1  0.37015000  0.72536000  0.33615000  1.0
  C  C60  1  0.47260000  0.16865000  0.21827000  1.0
  C  C61  1  0.52740000  0.33134000  0.71827000  1.0
  C  C62  1  0.52740000  0.83135000  0.78173000  1.0
  C  C63  1  0.47259000  0.66865000  0.28173000  1.0
  C  C64  1  0.67935000  0.11563000  0.19823000  1.0
  C  C65  1  0.32066000  0.38437000  0.69823000  1.0
  C  C66  1  0.32065000  0.88437000  0.80177000  1.0
  C  C67  1  0.67933000  0.61562000  0.30177000  1.0
  C  C68  1  0.79495000  0.06164000  0.24444000  1.0
  C  C69  1  0.20508000  0.43837000  0.74444000  1.0
  C  C70  1  0.20507000  0.93837000  0.75556000  1.0
  C  C71  1  0.79492000  0.56163000  0.25556000  1.0
  C  C72  1  0.69972000  0.05896000  0.31262000  1.0
  C  C73  1  0.30029000  0.44104000  0.81262000  1.0
  C  C74  1  0.30029000  0.94104000  0.68738000  1.0
  C  C75  1  0.69970000  0.55896000  0.18738000  1.0
  C  C76  1  0.49394000  0.11071000  0.33404000  1.0
  C  C77  1  0.50607000  0.38929000  0.83403000  1.0
  C  C78  1  0.50607000  0.88930000  0.66596000  1.0
  C  C79  1  0.49392000  0.61071000  0.16597000  1.0
  C  C80  1  0.37880000  0.16665000  0.28780000  1.0
  C  C81  1  0.62120000  0.33333333  0.78780000  1.0
  C  C82  1  0.62120000  0.83335000  0.71220000  1.0
  C  C83  1  0.37879000  0.66666667  0.21220000  1.0
  C  C84  1  0.81127000  0.99778000  0.36217000  1.0
  C  C85  1  0.18875000  0.50223000  0.86217000  1.0
  C  C86  1  0.18874000  0.00223000  0.63783000  1.0
  C  C87  1  0.81124000  0.49777000  0.13783000  1.0
  C  C88  1  0.05026000  0.22918000  0.36892000  1.0
  C  C89  1  0.94974000  0.27081000  0.86892000  1.0
  C  C90  1  0.94974000  0.77082000  0.63108000  1.0
  C  C91  1  0.05027000  0.72918000  0.13108000  1.0
  C  C92  1  0.84133000  0.29404000  0.37346000  1.0
  C  C93  1  0.15868000  0.20595000  0.87346000  1.0
  C  C94  1  0.15868000  0.70596000  0.62654000  1.0
  C  C95  1  0.84133000  0.79404000  0.12655000  1.0
  C  C96  1  0.74658000  0.33748000  0.31584000  1.0
  C  C97  1  0.25342000  0.16252000  0.81584000  1.0
  C  C98  1  0.25343000  0.66252000  0.68416000  1.0
  C  C99  1  0.74657000  0.83749000  0.18416000  1.0
  C  C100  1  0.54060000  0.39413000  0.32320000  1.0
  C  C101  1  0.45940000  0.10587000  0.82320000  1.0
  C  C102  1  0.45940000  0.60587000  0.67680000  1.0
  C  C103  1  0.54061000  0.89414000  0.17679000  1.0
  C  C104  1  0.43049000  0.41003000  0.38819000  1.0
  C  C105  1  0.56951000  0.08997000  0.88819000  1.0
  C  C106  1  0.56953000  0.58997000  0.61181000  1.0
  C  C107  1  0.43048000  0.91003000  0.11181000  1.0
  C  C108  1  0.52717000  0.36846000  0.44593000  1.0
  C  C109  1  0.47284000  0.13154000  0.94593000  1.0
  C  C110  1  0.47284000  0.63155000  0.55407000  1.0
  C  C111  1  0.52716000  0.86845000  0.05407000  1.0
  C  C112  1  0.72863000  0.31030000  0.43851000  1.0
  C  C113  1  0.27139000  0.18969000  0.93850000  1.0
  C  C114  1  0.27139000  0.68970000  0.56149000  1.0
  C  C115  1  0.72861000  0.81030000  0.06149000  1.0
  N  N116  1  0.17551000  0.22053000  0.30684000  1.0
  N  N117  1  0.82450000  0.27947000  0.80684000  1.0
  N  N118  1  0.82449000  0.77948000  0.69316000  1.0
  N  N119  1  0.17550000  0.72053000  0.19317000  1.0
  O  O120  1  0.22293000  0.28691000  0.18293000  1.0
  O  O121  1  0.77706000  0.21308000  0.68293000  1.0
  O  O122  1  0.77707000  0.71309000  0.81707000  1.0
  O  O123  1  0.22294000  0.78692000  0.31707000  1.0
  O  O124  1  0.43229000  0.21362000  0.10181000  1.0
  O  O125  1  0.56771000  0.28638000  0.60181000  1.0
  O  O126  1  0.56771000  0.78638000  0.89819000  1.0
  O  O127  1  0.43228000  0.71362000  0.39819000  1.0
  O  O128  1  0.96240000  0.94268000  0.33569000  1.0
  O  O129  1  0.03762000  0.55733000  0.83569000  1.0
  O  O130  1  0.03762000  0.05733000  0.66432000  1.0
  O  O131  1  0.96237000  0.44267000  0.16431000  1.0
  O  O132  1  0.74964000  0.99935000  0.42584000  1.0
  O  O133  1  0.25038000  0.50065000  0.92584000  1.0
  O  O134  1  0.25037000  0.00065000  0.57416000  1.0
  O  O135  1  0.74959000  0.49935000  0.07416000  1.0
  O  O136  1  0.10498000  0.18398000  0.41918000  1.0
  O  O137  1  0.89501000  0.31602000  0.91918000  1.0
  O  O138  1  0.89500000  0.81603000  0.58081000  1.0
  O  O139  1  0.10498000  0.68398000  0.08082000  1.0
  O  O140  1  0.85619000  0.28620000  0.04864000  1.0
  O  O141  1  0.14381000  0.21380000  0.54864000  1.0
  O  O142  1  0.14380000  0.71380000  0.95136000  1.0
  O  O143  1  0.85619000  0.78620000  0.45136000  1.0
  O  O144  1  0.35408000  0.39840000  0.03086000  1.0
  O  O145  1  0.64592000  0.10160000  0.53087000  1.0
  O  O146  1  0.64591000  0.60160000  0.96913000  1.0
  O  O147  1  0.35409000  0.89840000  0.46913000  1.0
