# generated using pymatgen
data_Cu4H70C69(N5O6)2
_symmetry_space_group_name_H-M   'P 1'
_cell_length_a   9.14387000
_cell_length_b   14.73480000
_cell_length_c   27.15600000
_cell_angle_alpha   90.01260000
_cell_angle_beta   90.00860000
_cell_angle_gamma   89.99660000
_symmetry_Int_Tables_number   1
_chemical_formula_structural   Cu4H70C69(N5O6)2
_chemical_formula_sum   'Cu8 H140 C138 N20 O24'
_cell_volume   3658.81181005
_cell_formula_units_Z   2
loop_
 _symmetry_equiv_pos_site_id
 _symmetry_equiv_pos_as_xyz
  1  'x, y, z'
loop_
 _atom_site_type_symbol
 _atom_site_label
 _atom_site_symmetry_multiplicity
 _atom_site_fract_x
 _atom_site_fract_y
 _atom_site_fract_z
 _atom_site_occupancy
  Cu  Cu0  1  0.89324000  0.03622000  0.56659000  1.0
  Cu  Cu1  1  0.89329000  0.96386000  0.43353000  1.0
  Cu  Cu2  1  0.10661000  0.53627000  0.93345000  1.0
  Cu  Cu3  1  0.39196000  0.05420000  0.56261000  1.0
  Cu  Cu4  1  0.60787000  0.44595000  0.06258000  1.0
  Cu  Cu5  1  0.10653000  0.46380000  0.06642000  1.0
  Cu  Cu6  1  0.60798000  0.55422000  0.93736000  1.0
  Cu  Cu7  1  0.39203000  0.94593000  0.43748000  1.0
  H  H8  1  0.91859000  0.47471000  0.68491000  1.0
  H  H9  1  0.69111000  0.71173000  0.77124000  1.0
  H  H10  1  0.51365000  0.46217000  0.79233000  1.0
  H  H11  1  0.90703000  0.15336000  0.47234000  1.0
  H  H12  1  0.48497000  0.72464000  0.61032000  1.0
  H  H13  1  0.05865000  0.06606000  0.89130000  1.0
  H  H14  1  0.83157000  0.32996000  0.02197000  1.0
  H  H15  1  0.86081000  0.58699000  0.36716000  1.0
  H  H16  1  0.12487000  0.19098000  0.93953000  1.0
  H  H17  1  0.53968000  0.87673000  0.57295000  1.0
  H  H18  1  0.76641000  0.81113000  0.70140000  1.0
  H  H19  1  0.48500000  0.23455000  0.28139000  1.0
  H  H20  1  0.61919000  0.19606000  0.53623000  1.0
  H  H21  1  0.75225000  0.55557000  0.59670000  1.0
  H  H22  1  0.66030000  0.08642000  0.61003000  1.0
  H  H23  1  0.94133000  0.56599000  0.60868000  1.0
  H  H24  1  0.61623000  0.34936000  0.49728000  1.0
  H  H25  1  0.83154000  0.67020000  0.97799000  1.0
  H  H26  1  0.38390000  0.15052000  0.99726000  1.0
  H  H27  1  0.75234000  0.44441000  0.40334000  1.0
  H  H28  1  0.65991000  0.12050000  0.15889000  1.0
  H  H29  1  0.51449000  0.26539000  0.78150000  1.0
  H  H30  1  0.75627000  0.50730000  0.24522000  1.0
  H  H31  1  0.53075000  0.02549000  0.95767000  1.0
  H  H32  1  0.14822000  0.32024000  0.48054000  1.0
  H  H33  1  0.69305000  0.36113000  0.32573000  1.0
  H  H34  1  0.55252000  0.11773000  0.81783000  1.0
  H  H35  1  0.53056000  0.97449000  0.04247000  1.0
  H  H36  1  0.42364000  0.90548000  0.88442000  1.0
  H  H37  1  0.46035000  0.37662000  0.92705000  1.0
  H  H38  1  0.75673000  0.15301000  0.68763000  1.0
  H  H39  1  0.38376000  0.84952000  0.00274000  1.0
  H  H40  1  0.16828000  0.82988000  0.47800000  1.0
  H  H41  1  0.80241000  0.95487000  0.97896000  1.0
  H  H42  1  0.91291000  0.34074000  0.83213000  1.0
  H  H43  1  0.69040000  0.26690000  0.75508000  1.0
  H  H44  1  0.75631000  0.49275000  0.75476000  1.0
  H  H45  1  0.24765000  0.94433000  0.09665000  1.0
  H  H46  1  0.84470000  0.48647000  0.87324000  1.0
  H  H47  1  0.19768000  0.45488000  0.52104000  1.0
  H  H48  1  0.16831000  0.17023000  0.52208000  1.0
  H  H49  1  0.42362000  0.09441000  0.11557000  1.0
  H  H50  1  0.55316000  0.88234000  0.18241000  1.0
  H  H51  1  0.18912000  0.53827000  0.16317000  1.0
  H  H52  1  0.69083000  0.28837000  0.22868000  1.0
  H  H53  1  0.14806000  0.67969000  0.51933000  1.0
  H  H54  1  0.51360000  0.53791000  0.20762000  1.0
  H  H55  1  0.23090000  0.85525000  0.35173000  1.0
  H  H56  1  0.18882000  0.46165000  0.83666000  1.0
  H  H57  1  0.69431000  0.08995000  0.77713000  1.0
  H  H58  1  0.46052000  0.62365000  0.07303000  1.0
  H  H59  1  0.90645000  0.84668000  0.52773000  1.0
  H  H60  1  0.09279000  0.65330000  0.02766000  1.0
  H  H61  1  0.21847000  0.37140000  0.36343000  1.0
  H  H62  1  0.08700000  0.84085000  0.66781000  1.0
  H  H63  1  0.12450000  0.80905000  0.06041000  1.0
  H  H64  1  0.87545000  0.30912000  0.43959000  1.0
  H  H65  1  0.24293000  0.34685000  0.18745000  1.0
  H  H66  1  0.48644000  0.03791000  0.29235000  1.0
  H  H67  1  0.09329000  0.34671000  0.97226000  1.0
  H  H68  1  0.76915000  0.35531000  0.14842000  1.0
  H  H69  1  0.08146000  0.02514000  0.18491000  1.0
  H  H70  1  0.53944000  0.12349000  0.42700000  1.0
  H  H71  1  0.94135000  0.43392000  0.39130000  1.0
  H  H72  1  0.46955000  0.47432000  0.45753000  1.0
  H  H73  1  0.24376000  0.00728000  0.25477000  1.0
  H  H74  1  0.08681000  0.15902000  0.33203000  1.0
  H  H75  1  0.61915000  0.80398000  0.46390000  1.0
  H  H76  1  0.75708000  0.84697000  0.31262000  1.0
  H  H77  1  0.69220000  0.93699000  0.07146000  1.0
  H  H78  1  0.78105000  0.12842000  0.86354000  1.0
  H  H79  1  0.05863000  0.93385000  0.10869000  1.0
  H  H80  1  0.51552000  0.77565000  0.11050000  1.0
  H  H81  1  0.76938000  0.64492000  0.85153000  1.0
  H  H82  1  0.57631000  0.59443000  0.38442000  1.0
  H  H83  1  0.69084000  0.73307000  0.24518000  1.0
  H  H84  1  0.87724000  0.35802000  0.30935000  1.0
  H  H85  1  0.81109000  0.96162000  0.66337000  1.0
  H  H86  1  0.19789000  0.54510000  0.47861000  1.0
  H  H87  1  0.30759000  0.56290000  0.57125000  1.0
  H  H88  1  0.13921000  0.91295000  0.86715000  1.0
  H  H89  1  0.24373000  0.99275000  0.74523000  1.0
  H  H90  1  0.13205000  0.31060000  0.31552000  1.0
  H  H91  1  0.30918000  0.78839000  0.27145000  1.0
  H  H92  1  0.38069000  0.69618000  0.96381000  1.0
  H  H93  1  0.33956000  0.41343000  0.10991000  1.0
  H  H94  1  0.24323000  0.65310000  0.81231000  1.0
  H  H95  1  0.51509000  0.22454000  0.88966000  1.0
  H  H96  1  0.15519000  0.98656000  0.62672000  1.0
  H  H97  1  0.44682000  0.38229000  0.31768000  1.0
  H  H98  1  0.23362000  0.31116000  0.79861000  1.0
  H  H99  1  0.81083000  0.03831000  0.33679000  1.0
  H  H100  1  0.86744000  0.18916000  0.81562000  1.0
  H  H101  1  0.38074000  0.30390000  0.03611000  1.0
  H  H102  1  0.65991000  0.87939000  0.84111000  1.0
  H  H103  1  0.87504000  0.69094000  0.56044000  1.0
  H  H104  1  0.84470000  0.51347000  0.12680000  1.0
  H  H105  1  0.13917000  0.08694000  0.13283000  1.0
  H  H106  1  0.21890000  0.62855000  0.63636000  1.0
  H  H107  1  0.66053000  0.91358000  0.39018000  1.0
  H  H108  1  0.33975000  0.58656000  0.88990000  1.0
  H  H109  1  0.76600000  0.18875000  0.29873000  1.0
  H  H110  1  0.85174000  0.82024000  0.01950000  1.0
  H  H111  1  0.57633000  0.40547000  0.61556000  1.0
  H  H112  1  0.30699000  0.86109000  0.17424000  1.0
  H  H113  1  0.23402000  0.68872000  0.20125000  1.0
  H  H114  1  0.13248000  0.68927000  0.68429000  1.0
  H  H115  1  0.91314000  0.65905000  0.16802000  1.0
  H  H116  1  0.23061000  0.14492000  0.64834000  1.0
  H  H117  1  0.08141000  0.97470000  0.81507000  1.0
  H  H118  1  0.69253000  0.06287000  0.92874000  1.0
  H  H119  1  0.34002000  0.62051000  0.34109000  1.0
  H  H120  1  0.69337000  0.63874000  0.67438000  1.0
  H  H121  1  0.85192000  0.17977000  0.98063000  1.0
  H  H122  1  0.80221000  0.04516000  0.02137000  1.0
  H  H123  1  0.30557000  0.59002000  0.72277000  1.0
  H  H124  1  0.12282000  0.85803000  0.19065000  1.0
  H  H125  1  0.91851000  0.52514000  0.31508000  1.0
  H  H126  1  0.30916000  0.23300000  0.25488000  1.0
  H  H127  1  0.24774000  0.05563000  0.90328000  1.0
  H  H128  1  0.61612000  0.65061000  0.50273000  1.0
  H  H129  1  0.69508000  0.90995000  0.22309000  1.0
  H  H130  1  0.87766000  0.64184000  0.69066000  1.0
  H  H131  1  0.48642000  0.96216000  0.70766000  1.0
  H  H132  1  0.12239000  0.14184000  0.80931000  1.0
  H  H133  1  0.30951000  0.76697000  0.74487000  1.0
  H  H134  1  0.30488000  0.40988000  0.27700000  1.0
  H  H135  1  0.15512000  0.01342000  0.37324000  1.0
  H  H136  1  0.30789000  0.43685000  0.42855000  1.0
  H  H137  1  0.48457000  0.27549000  0.38953000  1.0
  H  H138  1  0.46937000  0.52553000  0.54231000  1.0
  H  H139  1  0.86084000  0.41290000  0.63284000  1.0
  H  H140  1  0.51499000  0.73462000  0.21868000  1.0
  H  H141  1  0.30879000  0.21170000  0.72865000  1.0
  H  H142  1  0.78151000  0.87149000  0.13665000  1.0
  H  H143  1  0.44737000  0.61778000  0.68209000  1.0
  H  H144  1  0.34010000  0.37938000  0.65889000  1.0
  H  H145  1  0.48540000  0.76544000  0.71844000  1.0
  H  H146  1  0.30667000  0.13876000  0.82561000  1.0
  H  H147  1  0.86797000  0.81069000  0.18455000  1.0
  C  C148  1  0.73530000  0.28823000  0.01487000  1.0
  C  C149  1  0.82549000  0.50009000  1.00000000  1.0
  C  C150  1  0.83238000  0.52895000  0.34337000  1.0
  C  C151  1  0.16638000  0.93998000  0.12658000  1.0
  C  C152  1  0.59210000  0.71963000  0.11514000  1.0
  C  C153  1  0.39096000  0.81656000  0.29634000  1.0
  C  C154  1  0.23723000  0.68049000  0.66492000  1.0
  C  C155  1  0.36113000  0.65129000  0.81848000  1.0
  C  C156  1  0.82015000  0.73563000  0.63453000  1.0
  C  C157  1  0.82231000  0.89946000  0.64186000  1.0
  C  C158  1  0.65378000  0.35346000  0.15906000  1.0
  C  C159  1  0.46021000  0.31399000  0.21567000  1.0
  C  C160  1  0.17987000  0.76427000  0.13444000  1.0
  C  C161  1  0.44012000  0.13589000  0.40583000  1.0
  C  C162  1  0.61905000  0.15164000  0.98554000  1.0
  C  C163  1  0.12107000  0.66418000  0.06629000  1.0
  C  C164  1  0.48596000  0.81207000  0.99851000  1.0
  C  C165  1  0.16758000  0.97097000  0.84336000  1.0
  C  C166  1  0.20109000  0.68527000  0.16262000  1.0
  C  C167  1  0.43327000  0.92083000  0.84519000  1.0
  C  C168  1  0.81210000  0.65467000  0.14691000  1.0
  C  C169  1  0.59181000  0.28047000  0.88501000  1.0
  C  C170  1  0.25517000  0.29561000  0.49224000  1.0
  C  C171  1  0.35196000  0.35352000  0.29819000  1.0
  C  C172  1  0.48324000  0.72634000  0.97662000  1.0
  C  C173  1  0.31216000  0.95290000  0.81863000  1.0
  C  C174  1  0.17759000  0.39949000  0.85815000  1.0
  C  C175  1  0.77406000  0.42687000  0.87544000  1.0
  C  C176  1  0.26462000  0.21191000  0.51494000  1.0
  C  C177  1  0.76317000  0.81953000  0.16520000  1.0
  C  C178  1  0.93306000  0.18292000  0.60588000  1.0
  C  C179  1  0.56547000  0.09430000  0.17911000  1.0
  C  C180  1  0.22575000  0.07303000  0.37540000  1.0
  C  C181  1  0.17980000  0.23566000  0.86546000  1.0
  C  C182  1  0.16635000  0.05995000  0.87338000  1.0
  C  C183  1  0.40792000  0.21951000  0.38489000  1.0
  C  C184  1  0.79911000  0.81461000  0.66275000  1.0
  C  C185  1  0.73525000  0.71190000  0.98512000  1.0
  C  C186  1  0.81190000  0.34522000  0.85323000  1.0
  C  C187  1  0.53035000  0.54916000  0.24703000  1.0
  C  C188  1  0.26456000  0.78817000  0.48510000  1.0
  C  C189  1  0.83365000  0.55990000  0.62660000  1.0
  C  C190  1  0.53980000  0.81407000  0.28441000  1.0
  C  C191  1  0.23683000  0.31945000  0.33488000  1.0
  C  C192  1  0.83243000  0.47095000  0.65663000  1.0
  C  C193  1  0.60931000  0.68357000  0.79610000  1.0
  C  C194  1  0.85884000  0.74841000  0.58512000  1.0
  C  C195  1  0.74490000  0.20442000  0.99228000  1.0
  C  C196  1  0.68785000  0.45289000  0.68136000  1.0
  C  C197  1  0.17772000  0.60044000  0.14170000  1.0
  C  C198  1  0.51660000  0.77381000  0.47666000  1.0
  C  C199  1  0.87842000  0.83578000  0.56638000  1.0
  C  C200  1  0.18805000  0.84531000  0.64673000  1.0
  C  C201  1  0.51400000  0.31195000  0.50152000  1.0
  C  C202  1  0.39062000  0.18352000  0.70380000  1.0
  C  C203  1  0.33333333  0.96815000  0.76820000  1.0
  C  C204  1  0.55984000  0.63600000  0.09421000  1.0
  C  C205  1  0.41265000  0.38532000  0.13775000  1.0
  C  C206  1  0.74477000  0.79564000  0.00779000  1.0
  C  C207  1  0.56672000  0.42082000  0.65479000  1.0
  C  C208  1  0.72242000  0.73077000  0.14157000  1.0
  C  C209  1  0.79890000  0.18531000  0.33736000  1.0
  C  C210  1  0.76271000  0.18039000  0.83500000  1.0
  C  C211  1  0.33333333  0.03184000  0.23179000  1.0
  C  C212  1  0.63697000  0.94201000  0.03554000  1.0
  C  C213  1  0.58743000  0.88543000  0.36234000  1.0
  C  C214  1  0.85907000  0.25161000  0.41494000  1.0
  C  C215  1  0.40821000  0.78057000  0.61497000  1.0
  C  C216  1  0.87880000  0.16425000  0.43370000  1.0
  C  C217  1  0.34595000  0.14666000  0.65905000  1.0
  C  C218  1  0.59663000  0.22252000  0.76342000  1.0
  C  C219  1  0.12139000  0.33582000  0.93361000  1.0
  C  C220  1  0.56546000  0.90564000  0.82089000  1.0
  C  C221  1  0.14087000  0.75154000  0.08505000  1.0
  C  C222  1  0.53944000  0.18599000  0.71577000  1.0
  C  C223  1  0.73048000  0.00000000  0.00013000  1.0
  C  C224  1  0.36312000  0.44189000  0.46447000  1.0
  C  C225  1  0.64741000  0.14640000  0.79831000  1.0
  C  C226  1  0.55967000  0.36415000  0.90589000  1.0
  C  C227  1  0.18785000  0.15461000  0.35314000  1.0
  C  C228  1  0.51667000  0.22625000  0.52342000  1.0
  C  C229  1  0.27759000  0.23069000  0.35847000  1.0
  C  C230  1  0.80379000  0.35634000  0.34164000  1.0
  C  C231  1  0.06750000  0.31680000  0.10544000  1.0
  C  C232  1  0.77414000  0.57309000  0.12464000  1.0
  C  C233  1  0.43456000  0.40563000  0.67910000  1.0
  C  C234  1  0.19600000  0.14360000  0.84157000  1.0
  C  C235  1  0.63716000  0.05795000  0.96463000  1.0
  C  C236  1  0.22587000  0.92697000  0.62453000  1.0
  C  C237  1  0.35248000  0.64646000  0.70161000  1.0
  C  C238  1  0.46048000  0.68605000  0.78415000  1.0
  C  C239  1  0.14106000  0.24845000  0.91486000  1.0
  C  C240  1  0.06734000  0.68302000  0.89423000  1.0
  C  C241  1  0.63883000  0.15121000  0.68144000  1.0
  C  C242  1  0.51391000  0.68804000  0.49848000  1.0
  C  C243  1  0.25505000  0.70437000  0.50769000  1.0
  C  C244  1  0.58716000  0.11460000  0.63785000  1.0
  C  C245  1  0.65401000  0.64670000  0.84084000  1.0
  C  C246  1  0.20087000  0.31463000  0.83725000  1.0
  C  C247  1  0.53040000  0.45087000  0.75293000  1.0
  C  C248  1  0.41284000  0.61471000  0.86207000  1.0
  C  C249  1  0.63916000  0.84879000  0.31877000  1.0
  C  C250  1  0.48331000  0.27377000  0.02334000  1.0
  C  C251  1  0.31219000  0.04702000  0.18136000  1.0
  C  C252  1  0.59713000  0.77749000  0.23678000  1.0
  C  C253  1  0.60908000  0.31653000  0.20378000  1.0
  C  C254  1  0.27787000  0.76928000  0.64136000  1.0
  C  C255  1  0.38109000  0.34830000  0.48548000  1.0
  C  C256  1  0.48607000  0.18800000  0.00151000  1.0
  C  C257  1  0.36086000  0.34870000  0.18131000  1.0
  C  C258  1  0.17480000  0.00010000  0.50001000  1.0
  C  C259  1  0.66671000  0.46814000  0.73178000  1.0
  C  C260  1  0.61890000  0.84839000  0.01455000  1.0
  C  C261  1  0.16760000  0.02892000  0.15662000  1.0
  C  C262  1  0.64801000  0.85358000  0.20190000  1.0
  C  C263  1  0.43449000  0.59431000  0.32087000  1.0
  C  C264  1  0.19622000  0.85631000  0.15835000  1.0
  C  C265  1  0.82011000  0.26432000  0.36555000  1.0
  C  C266  1  0.66666667  0.53186000  0.26819000  1.0
  C  C267  1  0.38096000  0.65164000  0.51443000  1.0
  C  C268  1  0.93277000  0.81686000  0.39448000  1.0
  C  C269  1  0.26963000  0.49997000  0.49986000  1.0
  C  C270  1  0.67401000  0.00022000  0.50004000  1.0
  C  C271  1  0.80402000  0.64357000  0.65842000  1.0
  C  C272  1  0.83360000  0.44003000  0.37341000  1.0
  C  C273  1  0.34625000  0.85347000  0.34107000  1.0
  C  C274  1  0.36294000  0.55797000  0.53535000  1.0
  C  C275  1  0.43330000  0.07908000  0.15480000  1.0
  C  C276  1  0.46966000  0.04915000  0.25295000  1.0
  C  C277  1  0.44034000  0.86424000  0.59410000  1.0
  C  C278  1  0.68779000  0.54704000  0.31863000  1.0
  C  C279  1  0.46964000  0.95086000  0.74706000  1.0
  C  C280  1  0.82221000  0.10049000  0.35827000  1.0
  C  C281  1  0.72211000  0.26918000  0.85860000  1.0
  C  C282  1  0.56665000  0.57910000  0.34519000  1.0
  C  C283  1  0.40287000  0.27742000  0.26329000  1.0
  C  C284  1  0.40325000  0.72258000  0.73652000  1.0
  C  C285  1  0.32605000  0.50021000  0.99998000  1.0
  N  N286  1  0.34939000  0.06446000  0.40172000  1.0
  N  N287  1  0.13699000  0.41053000  0.90555000  1.0
  N  N288  1  0.39368000  0.82240000  0.47007000  1.0
  N  N289  1  0.34954000  0.93564000  0.59824000  1.0
  N  N290  1  0.60613000  0.67775000  0.97001000  1.0
  N  N291  1  0.65040000  0.43557000  0.90174000  1.0
  N  N292  1  0.86280000  0.91050000  0.59445000  1.0
  N  N293  1  0.44349000  0.11207000  0.62700000  1.0
  N  N294  1  0.58543000  0.91983000  0.77239000  1.0
  N  N295  1  0.39372000  0.17772000  0.53003000  1.0
  N  N296  1  0.60615000  0.32243000  0.02992000  1.0
  N  N297  1  0.13686000  0.58944000  0.09432000  1.0
  N  N298  1  0.41454000  0.58015000  0.27236000  1.0
  N  N299  1  0.58545000  0.08015000  0.22761000  1.0
  N  N300  1  0.86298000  0.08950000  0.40566000  1.0
  N  N301  1  0.65049000  0.56452000  0.09832000  1.0
  N  N302  1  0.44375000  0.88802000  0.37315000  1.0
  N  N303  1  0.55652000  0.61215000  0.87290000  1.0
  N  N304  1  0.41460000  0.41983000  0.72760000  1.0
  N  N305  1  0.55633000  0.38797000  0.12696000  1.0
  O  O306  1  0.82017000  0.00015000  0.50005000  1.0
  O  O307  1  0.95423000  0.10266000  0.62767000  1.0
  O  O308  1  0.17989000  0.50012000  0.99994000  1.0
  O  O309  1  0.61213000  0.98669000  0.45855000  1.0
  O  O310  1  0.95937000  0.74247000  0.37427000  1.0
  O  O311  1  0.88004000  0.17386000  0.56071000  1.0
  O  O312  1  0.32164000  0.00010000  0.50004000  1.0
  O  O313  1  0.38786000  0.51400000  0.95851000  1.0
  O  O314  1  0.38781000  0.48653000  0.04147000  1.0
  O  O315  1  0.88533000  0.53286000  0.96170000  1.0
  O  O316  1  0.87976000  0.82637000  0.43963000  1.0
  O  O317  1  0.04109000  0.75731000  0.87391000  1.0
  O  O318  1  0.67881000  0.50010000  0.99998000  1.0
  O  O319  1  0.95408000  0.89692000  0.37249000  1.0
  O  O320  1  0.11983000  0.67369000  0.93947000  1.0
  O  O321  1  0.04618000  0.60289000  0.87231000  1.0
  O  O322  1  0.04133000  0.24230000  0.12556000  1.0
  O  O323  1  0.88514000  0.46734000  0.03836000  1.0
  O  O324  1  0.12002000  0.32653000  0.06022000  1.0
  O  O325  1  0.04628000  0.39676000  0.12754000  1.0
  O  O326  1  0.11506000  0.03302000  0.53828000  1.0
  O  O327  1  0.61218000  0.01384000  0.54153000  1.0
  O  O328  1  0.11519000  0.96719000  0.46171000  1.0
  O  O329  1  0.95983000  0.25707000  0.62633000  1.0
