# generated using pymatgen
data_CdH16C10N2(ClO)2
_symmetry_space_group_name_H-M   'P 1'
_cell_length_a   8.02596000
_cell_length_b   9.45826000
_cell_length_c   17.23070000
_cell_angle_alpha   99.60260000
_cell_angle_beta   90.00000000
_cell_angle_gamma   89.99990000
_symmetry_Int_Tables_number   1
_chemical_formula_structural   CdH16C10N2(ClO)2
_chemical_formula_sum   'Cd4 H64 C40 N8 Cl8 O8'
_cell_volume   1289.68306162
_cell_formula_units_Z   4
loop_
 _symmetry_equiv_pos_site_id
 _symmetry_equiv_pos_as_xyz
  1  'x, y, z'
loop_
 _atom_site_type_symbol
 _atom_site_label
 _atom_site_symmetry_multiplicity
 _atom_site_fract_x
 _atom_site_fract_y
 _atom_site_fract_z
 _atom_site_occupancy
  Cd  Cd0  1  0.52689000  0.51905000  0.24923000  1.0
  Cd  Cd1  1  0.02689000  0.48095000  0.25077000  1.0
  Cd  Cd2  1  0.47311000  0.48095000  0.75077000  1.0
  Cd  Cd3  1  0.97311000  0.51905000  0.74923000  1.0
  H  H4  1  0.27314000  0.69537000  0.38092000  1.0
  H  H5  1  0.77314000  0.30464000  0.11907000  1.0
  H  H6  1  0.72686000  0.30463000  0.61908000  1.0
  H  H7  1  0.22686000  0.69537000  0.88092000  1.0
  H  H8  1  0.49861000  0.73094000  0.61165000  1.0
  H  H9  1  0.99861000  0.26906000  0.88835000  1.0
  H  H10  1  0.50139000  0.26906000  0.38835000  1.0
  H  H11  1  0.00139000  0.73094000  0.11165000  1.0
  H  H12  1  0.75876000  0.63126000  0.54554000  1.0
  H  H13  1  0.25876000  0.36874000  0.95446000  1.0
  H  H14  1  0.24124000  0.36874000  0.45446000  1.0
  H  H15  1  0.74124000  0.63126000  0.04554000  1.0
  H  H16  1  0.75981000  0.56181000  0.39790000  1.0
  H  H17  1  0.25981000  0.43819000  0.10210000  1.0
  H  H18  1  0.24019000  0.43819000  0.60210000  1.0
  H  H19  1  0.74019000  0.56181000  0.89790000  1.0
  H  H20  1  0.08528000  0.00371000  0.69126000  1.0
  H  H21  1  0.58528000  0.99629000  0.80874000  1.0
  H  H22  1  0.91472000  0.99629000  0.30874000  1.0
  H  H23  1  0.41472000  0.00371000  0.19126000  1.0
  H  H24  1  0.99576000  0.83562000  0.65233000  1.0
  H  H25  1  0.49576000  0.16438000  0.84767000  1.0
  H  H26  1  0.00424000  0.16438000  0.34767000  1.0
  H  H27  1  0.50424000  0.83562000  0.15233000  1.0
  H  H28  1  0.80868000  0.04199000  0.63716000  1.0
  H  H29  1  0.30868000  0.95801000  0.86284000  1.0
  H  H30  1  0.19132000  0.95801000  0.36284000  1.0
  H  H31  1  0.69132000  0.04199000  0.13716000  1.0
  H  H32  1  0.86526000  0.94347000  0.54344000  1.0
  H  H33  1  0.36526000  0.05653000  0.95656000  1.0
  H  H34  1  0.13474000  0.05653000  0.45656000  1.0
  H  H35  1  0.63474000  0.94347000  0.04344000  1.0
  H  H36  1  0.96236000  0.11145000  0.57997000  1.0
  H  H37  1  0.46236000  0.88855000  0.92003000  1.0
  H  H38  1  0.03764000  0.88854000  0.42003000  1.0
  H  H39  1  0.53764000  0.11145000  0.07997000  1.0
  H  H40  1  0.26543000  0.11296000  0.59838000  1.0
  H  H41  1  0.76543000  0.88704000  0.90162000  1.0
  H  H42  1  0.73457000  0.88704000  0.40162000  1.0
  H  H43  1  0.23457000  0.11296000  0.09838000  1.0
  H  H44  1  0.41049000  0.98965000  0.54822000  1.0
  H  H45  1  0.91049000  0.01035000  0.95178000  1.0
  H  H46  1  0.58951000  0.01035000  0.45178000  1.0
  H  H47  1  0.08951000  0.98965000  0.04822000  1.0
  H  H48  1  0.50570000  0.11343000  0.68425000  1.0
  H  H49  1  0.00570000  0.88657000  0.81575000  1.0
  H  H50  1  0.49430000  0.88657000  0.31575000  1.0
  H  H51  1  0.99430000  0.11343000  0.18425000  1.0
  H  H52  1  0.50183000  0.92321000  0.67730000  1.0
  H  H53  1  0.00183000  0.07679000  0.82270000  1.0
  H  H54  1  0.49817000  0.07679000  0.32270000  1.0
  H  H55  1  0.99817000  0.92321000  0.17730000  1.0
  H  H56  1  0.33969000  0.03040000  0.72638000  1.0
  H  H57  1  0.83969000  0.96960000  0.77362000  1.0
  H  H58  1  0.66031000  0.96960000  0.27363000  1.0
  H  H59  1  0.16031000  0.03040000  0.22638000  1.0
  H  H60  1  0.55865000  0.42032000  0.06382000  1.0
  H  H61  1  0.05865000  0.57968000  0.43618000  1.0
  H  H62  1  0.44135000  0.57968000  0.93618000  1.0
  H  H63  1  0.94135000  0.42032000  0.56382000  1.0
  H  H64  1  0.48823000  0.57759000  0.08749000  1.0
  H  H65  1  0.98823000  0.42241000  0.41251000  1.0
  H  H66  1  0.51177000  0.42241000  0.91251000  1.0
  H  H67  1  0.01177000  0.57759000  0.58749000  1.0
  C  C68  1  0.37718000  0.68352000  0.42003000  1.0
  C  C69  1  0.87718000  0.31648000  0.07997000  1.0
  C  C70  1  0.62282000  0.31647000  0.57997000  1.0
  C  C71  1  0.12282000  0.68353000  0.92003000  1.0
  C  C72  1  0.36654000  0.72805000  0.50147000  1.0
  C  C73  1  0.86654000  0.27194000  0.99853000  1.0
  C  C74  1  0.63346000  0.27194000  0.49853000  1.0
  C  C75  1  0.13346000  0.72806000  0.00147000  1.0
  C  C76  1  0.50504000  0.70694000  0.54768000  1.0
  C  C77  1  0.00505000  0.29306000  0.95232000  1.0
  C  C78  1  0.49496000  0.29306000  0.45232000  1.0
  C  C79  1  0.99495000  0.70694000  0.04768000  1.0
  C  C80  1  0.64957000  0.64876000  0.51091000  1.0
  C  C81  1  0.14957000  0.35124000  0.98909000  1.0
  C  C82  1  0.35043000  0.35124000  0.48909000  1.0
  C  C83  1  0.85043000  0.64877000  0.01091000  1.0
  C  C84  1  0.65022000  0.60898000  0.42938000  1.0
  C  C85  1  0.15022000  0.39102000  0.07062000  1.0
  C  C86  1  0.34978000  0.39102000  0.57062000  1.0
  C  C87  1  0.84978000  0.60898000  0.92938000  1.0
  C  C88  1  0.20404000  0.77727000  0.53881000  1.0
  C  C89  1  0.70404000  0.22273000  0.96119000  1.0
  C  C90  1  0.79596000  0.22273000  0.46119000  1.0
  C  C91  1  0.29596000  0.77727000  0.03881000  1.0
  C  C92  1  0.04493000  0.93538000  0.63680000  1.0
  C  C93  1  0.54493000  0.06462000  0.86320000  1.0
  C  C94  1  0.95507000  0.06462000  0.36320000  1.0
  C  C95  1  0.45507000  0.93538000  0.13680000  1.0
  C  C96  1  0.91265000  0.01238000  0.59630000  1.0
  C  C97  1  0.41265000  0.98762000  0.90370000  1.0
  C  C98  1  0.08735000  0.98762000  0.40370000  1.0
  C  C99  1  0.58735000  0.01238000  0.09630000  1.0
  C  C100  1  0.32795000  0.00982000  0.59961000  1.0
  C  C101  1  0.82795000  0.99018000  0.90039000  1.0
  C  C102  1  0.67205000  0.99018000  0.40039000  1.0
  C  C103  1  0.17205000  0.00982000  0.09961000  1.0
  C  C104  1  0.42489000  0.01851000  0.67602000  1.0
  C  C105  1  0.92489000  0.98149000  0.82398000  1.0
  C  C106  1  0.57510000  0.98149000  0.32398000  1.0
  C  C107  1  0.07511000  0.01851000  0.17602000  1.0
  N  N108  1  0.51558000  0.62448000  0.38502000  1.0
  N  N109  1  0.01558000  0.37552000  0.11498000  1.0
  N  N110  1  0.48442000  0.37552000  0.61498000  1.0
  N  N111  1  0.98442000  0.62448000  0.88502000  1.0
  N  N112  1  0.19638000  0.90033000  0.58955000  1.0
  N  N113  1  0.69637000  0.09967000  0.91045000  1.0
  N  N114  1  0.80362000  0.09967000  0.41045000  1.0
  N  N115  1  0.30362000  0.90033000  0.08955000  1.0
  Cl  Cl116  1  0.25501000  0.67635000  0.23041000  1.0
  Cl  Cl117  1  0.75500000  0.32365000  0.26959000  1.0
  Cl  Cl118  1  0.74500000  0.32365000  0.76959000  1.0
  Cl  Cl119  1  0.24500000  0.67635000  0.73041000  1.0
  Cl  Cl120  1  0.80032000  0.68133000  0.24208000  1.0
  Cl  Cl121  1  0.30032000  0.31867000  0.25792000  1.0
  Cl  Cl122  1  0.19968000  0.31867000  0.75792000  1.0
  Cl  Cl123  1  0.69967000  0.68132000  0.74207000  1.0
  O  O124  1  0.53533000  0.49661000  0.10977000  1.0
  O  O125  1  0.03533000  0.50339000  0.39023000  1.0
  O  O126  1  0.46467000  0.50339000  0.89023000  1.0
  O  O127  1  0.96467000  0.49661000  0.60977000  1.0
  O  O128  1  0.07725000  0.69700000  0.52352000  1.0
  O  O129  1  0.57725000  0.30299000  0.97648000  1.0
  O  O130  1  0.92275000  0.30299000  0.47648000  1.0
  O  O131  1  0.42275000  0.69701000  0.02352000  1.0
