# generated using pymatgen
data_Zn2H19C31(NO3)3
_symmetry_space_group_name_H-M   'P 1'
_cell_length_a   9.85978000
_cell_length_b   11.92000000
_cell_length_c   12.68270000
_cell_angle_alpha   107.16400000
_cell_angle_beta   91.36280000
_cell_angle_gamma   110.31400000
_symmetry_Int_Tables_number   1
_chemical_formula_structural   Zn2H19C31(NO3)3
_chemical_formula_sum   'Zn4 H38 C62 N6 O18'
_cell_volume   1322.29554886
_cell_formula_units_Z   2
loop_
 _symmetry_equiv_pos_site_id
 _symmetry_equiv_pos_as_xyz
  1  'x, y, z'
loop_
 _atom_site_type_symbol
 _atom_site_label
 _atom_site_symmetry_multiplicity
 _atom_site_fract_x
 _atom_site_fract_y
 _atom_site_fract_z
 _atom_site_occupancy
  Zn  Zn0  1  0.89770000  0.89939000  0.29488000  1.0
  Zn  Zn1  1  0.10230000  0.10062000  0.70512000  1.0
  Zn  Zn2  1  0.64119000  0.23943000  0.62689000  1.0
  Zn  Zn3  1  0.35881000  0.76058000  0.37312000  1.0
  H  H4  1  0.20541000  0.02884000  0.39319000  1.0
  H  H5  1  0.79459000  0.97115000  0.60681000  1.0
  H  H6  1  0.41200000  0.22358000  0.39492000  1.0
  H  H7  1  0.58800000  0.77641000  0.60508000  1.0
  H  H8  1  0.38166000  0.34150000  0.26826000  1.0
  H  H9  1  0.61834000  0.65850000  0.73174000  1.0
  H  H10  1  0.94849000  0.05664000  0.14561000  1.0
  H  H11  1  0.05150000  0.94336000  0.85439000  1.0
  H  H12  1  0.34789000  0.41847000  0.14956000  1.0
  H  H13  1  0.65211000  0.58152000  0.85043000  1.0
  H  H14  1  0.03318000  0.41117000  0.90536000  1.0
  H  H15  1  0.96683000  0.58883000  0.09464000  1.0
  H  H16  1  0.87065000  0.30180000  0.79405000  1.0
  H  H17  1  0.12935000  0.69820000  0.20596000  1.0
  H  H18  1  0.73599000  0.05851000  0.99787000  1.0
  H  H19  1  0.26401000  0.94148000  0.00213000  1.0
  H  H20  1  0.49299000  0.95395000  0.87329000  1.0
  H  H21  1  0.50701000  0.04605000  0.12670000  1.0
  H  H22  1  0.45401000  0.03149000  0.71705000  1.0
  H  H23  1  0.54599000  0.96851000  0.28295000  1.0
  H  H24  1  0.20145000  0.48390000  0.82990000  1.0
  H  H25  1  0.79856000  0.51610000  0.17009000  1.0
  H  H26  1  0.37104000  0.66614000  0.78687000  1.0
  H  H27  1  0.62897000  0.33385000  0.21312000  1.0
  H  H28  1  0.58556000  0.82462000  0.92836000  1.0
  H  H29  1  0.41444000  0.17538000  0.07164000  1.0
  H  H30  1  0.46722000  0.60784000  0.14965000  1.0
  H  H31  1  0.53278000  0.39216000  0.85035000  1.0
  H  H32  1  0.71261000  0.17947000  0.30110000  1.0
  H  H33  1  0.28739000  0.82053000  0.69890000  1.0
  H  H34  1  0.86110000  0.36673000  0.24774000  1.0
  H  H35  1  0.13890000  0.63327000  0.75225000  1.0
  H  H36  1  0.21639000  0.44435000  0.49382000  1.0
  H  H37  1  0.78361000  0.55565000  0.50618000  1.0
  H  H38  1  0.38006000  0.26738000  0.60428000  1.0
  H  H39  1  0.61994000  0.73262000  0.39572000  1.0
  H  H40  1  0.35618000  0.12548000  0.58163000  1.0
  H  H41  1  0.64382000  0.87451000  0.41837000  1.0
  C  C42  1  0.19798000  0.08125000  0.33747000  1.0
  C  C43  1  0.80201000  0.91875000  0.66253000  1.0
  C  C44  1  0.31232000  0.18942000  0.33699000  1.0
  C  C45  1  0.68768000  0.81058000  0.66301000  1.0
  C  C46  1  0.29428000  0.25405000  0.26585000  1.0
  C  C47  1  0.70572000  0.74595000  0.73415000  1.0
  C  C48  1  0.16358000  0.20684000  0.19293000  1.0
  C  C49  1  0.83642000  0.79316000  0.80708000  1.0
  C  C50  1  0.05373000  0.09685000  0.19823000  1.0
  C  C51  1  0.94627000  0.90316000  0.80178000  1.0
  C  C52  1  0.13480000  0.26799000  0.11312000  1.0
  C  C53  1  0.86520000  0.73201000  0.88688000  1.0
  C  C54  1  0.23993000  0.37671000  0.10093000  1.0
  C  C55  1  0.76007000  0.62329000  0.89907000  1.0
  C  C56  1  0.20731000  0.42835000  0.02208000  1.0
  C  C57  1  0.79270000  0.57165000  0.97792000  1.0
  C  C58  1  0.06584000  0.37053000  0.96312000  1.0
  C  C59  1  0.93416000  0.62947000  0.03688000  1.0
  C  C60  1  0.96842000  0.25996000  0.97735000  1.0
  C  C61  1  0.03158000  0.74004000  0.02266000  1.0
  C  C62  1  0.79211000  0.22610000  0.81750000  1.0
  C  C63  1  0.20788000  0.77390000  0.18250000  1.0
  C  C64  1  0.82328000  0.19103000  0.90819000  1.0
  C  C65  1  0.17671000  0.80897000  0.09181000  1.0
  C  C66  1  0.71483000  0.08965000  0.92849000  1.0
  C  C67  1  0.28517000  0.91035000  0.07151000  1.0
  C  C68  1  0.58148000  0.03064000  0.85872000  1.0
  C  C69  1  0.41852000  0.96936000  0.14128000  1.0
  C  C70  1  0.55802000  0.07307000  0.77137000  1.0
  C  C71  1  0.44198000  0.92693000  0.22863000  1.0
  C  C72  1  0.31525000  0.53562000  0.99635000  1.0
  C  C73  1  0.68475000  0.46438000  0.00364000  1.0
  C  C74  1  0.29301000  0.55238000  0.89273000  1.0
  C  C75  1  0.70700000  0.44762000  0.10727000  1.0
  C  C76  1  0.38938000  0.65533000  0.86784000  1.0
  C  C77  1  0.61063000  0.34467000  0.13216000  1.0
  C  C78  1  0.50933000  0.74278000  0.94521000  1.0
  C  C79  1  0.49067000  0.25722000  0.05479000  1.0
  C  C80  1  0.53858000  0.72373000  0.04569000  1.0
  C  C81  1  0.46143000  0.27627000  0.95431000  1.0
  C  C82  1  0.44212000  0.62023000  0.07063000  1.0
  C  C83  1  0.55788000  0.37977000  0.92937000  1.0
  C  C84  1  0.67500000  0.81638000  0.12278000  1.0
  C  C85  1  0.32500000  0.18362000  0.87723000  1.0
  C  C86  1  0.78126000  0.09529000  0.45373000  1.0
  C  C87  1  0.21873000  0.90471000  0.54627000  1.0
  C  C88  1  0.88126000  0.20899000  0.42933000  1.0
  C  C89  1  0.11874000  0.79101000  0.57067000  1.0
  C  C90  1  0.82275000  0.23894000  0.34414000  1.0
  C  C91  1  0.17725000  0.76106000  0.65586000  1.0
  C  C92  1  0.90444000  0.34259000  0.31401000  1.0
  C  C93  1  0.09556000  0.65741000  0.68599000  1.0
  C  C94  1  0.04612000  0.41843000  0.36874000  1.0
  C  C95  1  0.95388000  0.58157000  0.63126000  1.0
  C  C96  1  0.10564000  0.38709000  0.45166000  1.0
  C  C97  1  0.89436000  0.61291000  0.54834000  1.0
  C  C98  1  0.02483000  0.28287000  0.48322000  1.0
  C  C99  1  0.97517000  0.71714000  0.51678000  1.0
  C  C100  1  0.12756000  0.53355000  0.33836000  1.0
  C  C101  1  0.87244000  0.46645000  0.66164000  1.0
  C  C102  1  0.09723000  0.25342000  0.57179000  1.0
  C  C103  1  0.90277000  0.74658000  0.42821000  1.0
  N  N104  1  0.07007000  0.03704000  0.26978000  1.0
  N  N105  1  0.92993000  0.96296000  0.73022000  1.0
  N  N106  1  0.00230000  0.20964000  0.05082000  1.0
  N  N107  1  0.99770000  0.79037000  0.94918000  1.0
  N  N108  1  0.66246000  0.16993000  0.75157000  1.0
  N  N109  1  0.33754000  0.83007000  0.24843000  1.0
  O  O110  1  0.72773000  0.77344000  0.19032000  1.0
  O  O111  1  0.27227000  0.22656000  0.80968000  1.0
  O  O112  1  0.73001000  0.92648000  0.11847000  1.0
  O  O113  1  0.26999000  0.07352000  0.88153000  1.0
  O  O114  1  0.78790000  0.98692000  0.40606000  1.0
  O  O115  1  0.21210000  0.01308000  0.59394000  1.0
  O  O116  1  0.67749000  0.10232000  0.50924000  1.0
  O  O117  1  0.32250000  0.89769000  0.49076000  1.0
  O  O118  1  0.01235000  0.16564000  0.60738000  1.0
  O  O119  1  0.98765000  0.83435000  0.39262000  1.0
  O  O120  1  0.23156000  0.31190000  0.60366000  1.0
  O  O121  1  0.76844000  0.68810000  0.39634000  1.0
  O  O122  1  0.26398000  0.59336000  0.38358000  1.0
  O  O123  1  0.73602000  0.40665000  0.61642000  1.0
  O  O124  1  0.06251000  0.56699000  0.27488000  1.0
  O  O125  1  0.93749000  0.43301000  0.72512000  1.0
  O  O126  1  0.43285000  0.20787000  0.58270000  1.0
  O  O127  1  0.56715000  0.79213000  0.41730000  1.0
