# generated using pymatgen
data_CdH10C12N2O5
_symmetry_space_group_name_H-M   'P 1'
_cell_length_a   7.11848000
_cell_length_b   11.02960000
_cell_length_c   16.20470000
_cell_angle_alpha   89.99980000
_cell_angle_beta   90.00000000
_cell_angle_gamma   89.99990000
_symmetry_Int_Tables_number   1
_chemical_formula_structural   CdH10C12N2O5
_chemical_formula_sum   'Cd4 H40 C48 N8 O20'
_cell_volume   1272.29560526
_cell_formula_units_Z   4
loop_
 _symmetry_equiv_pos_site_id
 _symmetry_equiv_pos_as_xyz
  1  'x, y, z'
loop_
 _atom_site_type_symbol
 _atom_site_label
 _atom_site_symmetry_multiplicity
 _atom_site_fract_x
 _atom_site_fract_y
 _atom_site_fract_z
 _atom_site_occupancy
  Cd  Cd0  1  0.45129000  0.13265000  0.77673000  1.0
  Cd  Cd1  1  0.54870000  0.63265000  0.22327000  1.0
  Cd  Cd2  1  0.04870000  0.63265000  0.27673000  1.0
  Cd  Cd3  1  0.95129000  0.13265000  0.72327000  1.0
  H  H4  1  0.67713000  0.87650000  0.00552000  1.0
  H  H5  1  0.32286000  0.37650000  0.99448000  1.0
  H  H6  1  0.82287000  0.37650000  0.50552000  1.0
  H  H7  1  0.17713000  0.87650000  0.49448000  1.0
  H  H8  1  0.19027000  0.67125000  0.01079000  1.0
  H  H9  1  0.80972000  0.17125000  0.98921000  1.0
  H  H10  1  0.30973000  0.17126000  0.51079000  1.0
  H  H11  1  0.69027000  0.67126000  0.48921000  1.0
  H  H12  1  0.04525000  0.88187000  0.79491000  1.0
  H  H13  1  0.95475000  0.38187000  0.20510000  1.0
  H  H14  1  0.45475000  0.38187000  0.29490000  1.0
  H  H15  1  0.54525000  0.88187000  0.70510000  1.0
  H  H16  1  0.57090000  0.31844000  0.91017000  1.0
  H  H17  1  0.42910000  0.81844000  0.08983000  1.0
  H  H18  1  0.92910000  0.81844000  0.41017000  1.0
  H  H19  1  0.07090000  0.31844000  0.58983000  1.0
  H  H20  1  0.87833000  0.44776000  0.75633000  1.0
  H  H21  1  0.12167000  0.94777000  0.24367000  1.0
  H  H22  1  0.62167000  0.94777000  0.25633000  1.0
  H  H23  1  0.37833000  0.44776000  0.74367000  1.0
  H  H24  1  0.03456000  0.49424000  0.83658000  1.0
  H  H25  1  0.96544000  0.99424000  0.16341000  1.0
  H  H26  1  0.46544000  0.99424000  0.33658000  1.0
  H  H27  1  0.53456000  0.49424000  0.66341000  1.0
  H  H28  1  0.85199000  0.59408000  0.80296000  1.0
  H  H29  1  0.14800000  0.09408000  0.19704000  1.0
  H  H30  1  0.64801000  0.09408000  0.30296000  1.0
  H  H31  1  0.35199000  0.59408000  0.69704000  1.0
  H  H32  1  0.63566000  0.46596000  0.99143000  1.0
  H  H33  1  0.36434000  0.96596000  0.00857000  1.0
  H  H34  1  0.86434000  0.96596000  0.49143000  1.0
  H  H35  1  0.13566000  0.46596000  0.50857000  1.0
  H  H36  1  0.69269000  0.60382000  0.94020000  1.0
  H  H37  1  0.30731000  0.10382000  0.05980000  1.0
  H  H38  1  0.80731000  0.10382000  0.44020000  1.0
  H  H39  1  0.19269000  0.60382000  0.55980000  1.0
  H  H40  1  0.87491000  0.51363000  0.98524000  1.0
  H  H41  1  0.12509000  0.01363000  0.01476000  1.0
  H  H42  1  0.62509000  0.01363000  0.48524000  1.0
  H  H43  1  0.37491000  0.51363000  0.51476000  1.0
  C  C44  1  0.71061000  0.97183000  0.85308000  1.0
  C  C45  1  0.28939000  0.47183000  0.14692000  1.0
  C  C46  1  0.78939000  0.47183000  0.35308000  1.0
  C  C47  1  0.21061000  0.97183000  0.64692000  1.0
  C  C48  1  0.84656000  0.88911000  0.89585000  1.0
  C  C49  1  0.15344000  0.38911000  0.10416000  1.0
  C  C50  1  0.65344000  0.38911000  0.39584000  1.0
  C  C51  1  0.34656000  0.88911000  0.60416000  1.0
  C  C52  1  0.80641000  0.84776000  0.97557000  1.0
  C  C53  1  0.19358000  0.34776000  0.02443000  1.0
  C  C54  1  0.69359000  0.34776000  0.47557000  1.0
  C  C55  1  0.30641000  0.84776000  0.52443000  1.0
  C  C56  1  0.92799000  0.76846000  0.01655000  1.0
  C  C57  1  0.07201000  0.26847000  0.98345000  1.0
  C  C58  1  0.57202000  0.26847000  0.51655000  1.0
  C  C59  1  0.42799000  0.76847000  0.48345000  1.0
  C  C60  1  0.87533000  0.71607000  0.09945000  1.0
  C  C61  1  0.12467000  0.21607000  0.90055000  1.0
  C  C62  1  0.62467000  0.21607000  0.59945000  1.0
  C  C63  1  0.37533000  0.71607000  0.40055000  1.0
  C  C64  1  0.09531000  0.73271000  0.97860000  1.0
  C  C65  1  0.90469000  0.23271000  0.02140000  1.0
  C  C66  1  0.40469000  0.23272000  0.47859000  1.0
  C  C67  1  0.59531000  0.73272000  0.52140000  1.0
  C  C68  1  0.13702000  0.77466000  0.89883000  1.0
  C  C69  1  0.86297000  0.27465000  0.10117000  1.0
  C  C70  1  0.36297000  0.27466000  0.39883000  1.0
  C  C71  1  0.63703000  0.77466000  0.60117000  1.0
  C  C72  1  0.30898000  0.73784000  0.86095000  1.0
  C  C73  1  0.69103000  0.23784000  0.13905000  1.0
  C  C74  1  0.19103000  0.23784000  0.36095000  1.0
  C  C75  1  0.80898000  0.73784000  0.63905000  1.0
  C  C76  1  0.01150000  0.85126000  0.85683000  1.0
  C  C77  1  0.98849000  0.35126000  0.14317000  1.0
  C  C78  1  0.48850000  0.35126000  0.35683000  1.0
  C  C79  1  0.51151000  0.85126000  0.64317000  1.0
  C  C80  1  0.66351000  0.34694000  0.85943000  1.0
  C  C81  1  0.33649000  0.84695000  0.14057000  1.0
  C  C82  1  0.83649000  0.84695000  0.35943000  1.0
  C  C83  1  0.16351000  0.34695000  0.64057000  1.0
  C  C84  1  0.88909000  0.49896000  0.81388000  1.0
  C  C85  1  0.11090000  0.99896000  0.18612000  1.0
  C  C86  1  0.61091000  0.99896000  0.31388000  1.0
  C  C87  1  0.38909000  0.49896000  0.68612000  1.0
  C  C88  1  0.74004000  0.51086000  0.95231000  1.0
  C  C89  1  0.25996000  0.01086000  0.04769000  1.0
  C  C90  1  0.75996000  0.01086000  0.45231000  1.0
  C  C91  1  0.24004000  0.51086000  0.54769000  1.0
  N  N92  1  0.45148000  0.70645000  0.83220000  1.0
  N  N93  1  0.54852000  0.20645000  0.16780000  1.0
  N  N94  1  0.04852000  0.20646000  0.33220000  1.0
  N  N95  1  0.95148000  0.70646000  0.66780000  1.0
  N  N96  1  0.76152000  0.44709000  0.87443000  1.0
  N  N97  1  0.23848000  0.94709000  0.12557000  1.0
  N  N98  1  0.73849000  0.94709000  0.37443000  1.0
  N  N99  1  0.26152000  0.44709000  0.62557000  1.0
  O  O100  1  0.57052000  0.01222000  0.89220000  1.0
  O  O101  1  0.42948000  0.51222000  0.10780000  1.0
  O  O102  1  0.92949000  0.51222000  0.39220000  1.0
  O  O103  1  0.07051000  0.01222000  0.60780000  1.0
  O  O104  1  0.73696000  0.99720000  0.77599000  1.0
  O  O105  1  0.26304000  0.49720000  0.22402000  1.0
  O  O106  1  0.76304000  0.49720000  0.27599000  1.0
  O  O107  1  0.23696000  0.99720000  0.72401000  1.0
  O  O108  1  0.70580000  0.73067000  0.12189000  1.0
  O  O109  1  0.29420000  0.23067000  0.87811000  1.0
  O  O110  1  0.79420000  0.23067000  0.62189000  1.0
  O  O111  1  0.20580000  0.73067000  0.37811000  1.0
  O  O112  1  0.00327000  0.65974000  0.13811000  1.0
  O  O113  1  0.99673000  0.15974000  0.86189000  1.0
  O  O114  1  0.49673000  0.15974000  0.63811000  1.0
  O  O115  1  0.50327000  0.65974000  0.36189000  1.0
  O  O116  1  0.66854000  0.28845000  0.79254000  1.0
  O  O117  1  0.33146000  0.78845000  0.20746000  1.0
  O  O118  1  0.83147000  0.78845000  0.29254000  1.0
  O  O119  1  0.16853000  0.28845000  0.70746000  1.0
