# generated using pymatgen
data_Sb2H5C2SO6
_symmetry_space_group_name_H-M   'P 1'
_cell_length_a   6.01586000
_cell_length_b   10.09940000
_cell_length_c   12.27240000
_cell_angle_alpha   89.99930000
_cell_angle_beta   101.97000000
_cell_angle_gamma   90.00000000
_symmetry_Int_Tables_number   1
_chemical_formula_structural   Sb2H5C2SO6
_chemical_formula_sum   'Sb8 H20 C8 S4 O24'
_cell_volume   729.41629729
_cell_formula_units_Z   4
loop_
 _symmetry_equiv_pos_site_id
 _symmetry_equiv_pos_as_xyz
  1  'x, y, z'
loop_
 _atom_site_type_symbol
 _atom_site_label
 _atom_site_symmetry_multiplicity
 _atom_site_fract_x
 _atom_site_fract_y
 _atom_site_fract_z
 _atom_site_occupancy
  Sb  Sb0  1  0.47849000  0.35106000  0.26785000  1.0
  Sb  Sb1  1  0.02151000  0.85105000  0.73215000  1.0
  Sb  Sb2  1  0.52151000  0.64894000  0.73215000  1.0
  Sb  Sb3  1  0.97849000  0.14895000  0.26785000  1.0
  Sb  Sb4  1  0.26315000  0.39842000  0.50151000  1.0
  Sb  Sb5  1  0.23684000  0.89842000  0.49849000  1.0
  Sb  Sb6  1  0.73685000  0.60159000  0.49849000  1.0
  Sb  Sb7  1  0.76315000  0.10158000  0.50151000  1.0
  H  H8  1  0.75606000  0.71559000  0.10563000  1.0
  H  H9  1  0.74395000  0.21558000  0.89436000  1.0
  H  H10  1  0.24394000  0.28442000  0.89437000  1.0
  H  H11  1  0.25605000  0.78442000  0.10564000  1.0
  H  H12  1  0.85647000  0.61308000  0.00713000  1.0
  H  H13  1  0.64353000  0.11308000  0.99286000  1.0
  H  H14  1  0.14354000  0.38692000  0.99288000  1.0
  H  H15  1  0.35646000  0.88692000  0.00713000  1.0
  H  H16  1  0.42781000  0.64396000  0.97250000  1.0
  H  H17  1  0.07219000  0.14395000  0.02750000  1.0
  H  H18  1  0.57220000  0.35604000  0.02750000  1.0
  H  H19  1  0.92780000  0.85604000  0.97250000  1.0
  H  H20  1  0.42026000  0.56621000  0.09868000  1.0
  H  H21  1  0.07975000  0.06621000  0.90133000  1.0
  H  H22  1  0.57974000  0.43379000  0.90133000  1.0
  H  H23  1  0.92024000  0.93379000  0.09867000  1.0
  H  H24  1  0.39032000  0.21686000  0.64053000  1.0
  H  H25  1  0.10969000  0.71687000  0.35947000  1.0
  H  H26  1  0.60969000  0.78314000  0.35947000  1.0
  H  H27  1  0.89032000  0.28313000  0.64053000  1.0
  C  C28  1  0.75555000  0.61458000  0.07234000  1.0
  C  C29  1  0.74445000  0.11457000  0.92765000  1.0
  C  C30  1  0.24445000  0.38542000  0.92766000  1.0
  C  C31  1  0.25554000  0.88542000  0.07234000  1.0
  C  C32  1  0.51188000  0.56701000  0.02972000  1.0
  C  C33  1  0.98812000  0.06701000  0.97028000  1.0
  C  C34  1  0.48812000  0.43299000  0.97028000  1.0
  C  C35  1  0.01188000  0.93299000  0.02972000  1.0
  S  S36  1  0.91662000  0.52050000  0.18520000  1.0
  S  S37  1  0.58338000  0.02050000  0.81479000  1.0
  S  S38  1  0.08339000  0.47951000  0.81480000  1.0
  S  S39  1  0.41661000  0.97951000  0.18521000  1.0
  O  O40  1  0.78145000  0.52024000  0.27475000  1.0
  O  O41  1  0.71856000  0.02024000  0.72525000  1.0
  O  O42  1  0.21856000  0.47976000  0.72525000  1.0
  O  O43  1  0.28143000  0.97977000  0.27475000  1.0
  O  O44  1  0.93776000  0.38468000  0.14294000  1.0
  O  O45  1  0.56226000  0.88467000  0.85706000  1.0
  O  O46  1  0.06225000  0.61532000  0.85707000  1.0
  O  O47  1  0.43775000  0.11532000  0.14293000  1.0
  O  O48  1  0.13554000  0.58765000  0.22297000  1.0
  O  O49  1  0.36447000  0.08764000  0.77702000  1.0
  O  O50  1  0.86446000  0.41235000  0.77702000  1.0
  O  O51  1  0.63553000  0.91235000  0.22298000  1.0
  O  O52  1  0.73650000  0.23461000  0.34556000  1.0
  O  O53  1  0.76350000  0.73461000  0.65444000  1.0
  O  O54  1  0.26350000  0.76539000  0.65444000  1.0
  O  O55  1  0.23650000  0.26539000  0.34556000  1.0
  O  O56  1  0.50970000  0.44876000  0.41278000  1.0
  O  O57  1  0.99030000  0.94876000  0.58721000  1.0
  O  O58  1  0.49030000  0.55124000  0.58721000  1.0
  O  O59  1  0.00969000  0.05124000  0.41278000  1.0
  O  O60  1  0.46566000  0.26135000  0.58658000  1.0
  O  O61  1  0.03434000  0.76135000  0.41341000  1.0
  O  O62  1  0.53434000  0.73865000  0.41342000  1.0
  O  O63  1  0.96566000  0.23864000  0.58659000  1.0
