# generated using pymatgen
data_HgP2H18Au2C30(ClF4)4
_symmetry_space_group_name_H-M   'P 1'
_cell_length_a   10.96940000
_cell_length_b   11.34462164
_cell_length_c   18.48687059
_cell_angle_alpha   72.18770916
_cell_angle_beta   72.75274577
_cell_angle_gamma   61.11075293
_symmetry_Int_Tables_number   1
_chemical_formula_structural   HgP2H18Au2C30(ClF4)4
_chemical_formula_sum   'Hg2 P4 H36 Au4 C60 Cl8 F32'
_cell_volume   1886.95950384
_cell_formula_units_Z   2
loop_
 _symmetry_equiv_pos_site_id
 _symmetry_equiv_pos_as_xyz
  1  'x, y, z'
loop_
 _atom_site_type_symbol
 _atom_site_label
 _atom_site_symmetry_multiplicity
 _atom_site_fract_x
 _atom_site_fract_y
 _atom_site_fract_z
 _atom_site_occupancy
  Hg  Hg0  1  0.50000000  0.00000000  0.00000000  1.0
  Hg  Hg1  1  0.49999000  0.50000000  0.50000000  1.0
  P  P2  1  0.42345000  0.63055000  0.14537000  1.0
  P  P3  1  0.19917000  0.86918000  0.35452000  1.0
  P  P4  1  0.57655000  0.36946000  0.85463000  1.0
  P  P5  1  0.80083000  0.13082000  0.64548000  1.0
  H  H6  1  0.30074000  0.48812000  0.21626000  1.0
  H  H7  1  0.00453000  0.01159000  0.28389000  1.0
  H  H8  1  0.69925000  0.51189000  0.78374000  1.0
  H  H9  1  0.99548000  0.98841000  0.71611000  1.0
  H  H10  1  0.22514000  0.64385000  0.25092000  1.0
  H  H11  1  0.11907000  0.85603000  0.24910000  1.0
  H  H12  1  0.77486000  0.35615000  0.74908000  1.0
  H  H13  1  0.88094000  0.14397000  0.75090000  1.0
  H  H14  1  0.38814000  0.50852000  0.27645000  1.0
  H  H15  1  0.17225000  0.99144000  0.22351000  1.0
  H  H16  1  0.61186000  0.49148000  0.72355000  1.0
  H  H17  1  0.82776000  0.00855000  0.77650000  1.0
  H  H18  1  0.36454000  0.74497000  0.01860000  1.0
  H  H19  1  0.12856000  0.75444000  0.48134000  1.0
  H  H20  1  0.63546000  0.25503000  0.98140000  1.0
  H  H21  1  0.87143000  0.24556000  0.51866000  1.0
  H  H22  1  0.21091000  0.79011000  0.09168000  1.0
  H  H23  1  0.09286000  0.70928000  0.40836000  1.0
  H  H24  1  0.78909000  0.20989000  0.90832000  1.0
  H  H25  1  0.90715000  0.29071000  0.59164000  1.0
  H  H26  1  0.28762000  0.62666000  0.06481000  1.0
  H  H27  1  0.97927000  0.87258000  0.43536000  1.0
  H  H28  1  0.71237000  0.37334000  0.93520000  1.0
  H  H29  1  0.02073000  0.12742000  0.56464000  1.0
  H  H30  1  0.52506000  0.41425000  0.10428000  1.0
  H  H31  1  0.04370000  0.08549000  0.39569000  1.0
  H  H32  1  0.47494000  0.58575000  0.89572000  1.0
  H  H33  1  0.95630000  0.91450000  0.60431000  1.0
  H  H34  1  0.63954000  0.41971000  0.15363000  1.0
  H  H35  1  0.21297000  0.07987000  0.34630000  1.0
  H  H36  1  0.36045000  0.58029000  0.84638000  1.0
  H  H37  1  0.78703000  0.92013000  0.65370000  1.0
  H  H38  1  0.62823000  0.50897000  0.05630000  1.0
  H  H39  1  0.19366000  0.99053000  0.44358000  1.0
  H  H40  1  0.37176000  0.49103000  0.94371000  1.0
  H  H41  1  0.80633000  0.00947000  0.55643000  1.0
  Au  Au42  1  0.49591000  0.77799000  0.16284000  1.0
  Au  Au43  1  0.43656000  0.72211000  0.33692000  1.0
  Au  Au44  1  0.50409000  0.22201000  0.83716000  1.0
  Au  Au45  1  0.56345000  0.27788000  0.66308000  1.0
  C  C46  1  0.57554000  0.90233000  0.17563000  1.0
  C  C47  1  0.65324000  0.59785000  0.32427000  1.0
  C  C48  1  0.42445000  0.09768000  0.82437000  1.0
  C  C49  1  0.34677000  0.40215000  0.67573000  1.0
  C  C50  1  0.72123000  0.85715000  0.16518000  1.0
  C  C51  1  0.74341000  0.64297000  0.33473000  1.0
  C  C52  1  0.27877000  0.14285000  0.83482000  1.0
  C  C53  1  0.25659000  0.35703000  0.66527000  1.0
  C  C54  1  0.78342000  0.92803000  0.17918000  1.0
  C  C55  1  0.89044000  0.57191000  0.32082000  1.0
  C  C56  1  0.21658000  0.07197000  0.82081000  1.0
  C  C57  1  0.10956000  0.42809000  0.67918000  1.0
  C  C58  1  0.69662000  0.05222000  0.20424000  1.0
  C  C59  1  0.95266000  0.44762000  0.29591000  1.0
  C  C60  1  0.30338000  0.94778000  0.79576000  1.0
  C  C61  1  0.04735000  0.55239000  0.70409000  1.0
  C  C62  1  0.55012000  0.10222000  0.21461000  1.0
  C  C63  1  0.86642000  0.39771000  0.28548000  1.0
  C  C64  1  0.44988000  0.89779000  0.78539000  1.0
  C  C65  1  0.13358000  0.60229000  0.71452000  1.0
  C  C66  1  0.49334000  0.02652000  0.20062000  1.0
  C  C67  1  0.72002000  0.47363000  0.29933000  1.0
  C  C68  1  0.50666000  0.97349000  0.79938000  1.0
  C  C69  1  0.27999000  0.52636000  0.70067000  1.0
  C  C70  1  0.32478000  0.56104000  0.23043000  1.0
  C  C71  1  0.11561000  0.93877000  0.26960000  1.0
  C  C72  1  0.67522000  0.43896000  0.76957000  1.0
  C  C73  1  0.88440000  0.06123000  0.73040000  1.0
  C  C74  1  0.31049000  0.70508000  0.07332000  1.0
  C  C75  1  0.08909000  0.79434000  0.42671000  1.0
  C  C76  1  0.68951000  0.29492000  0.92668000  1.0
  C  C77  1  0.91092000  0.20565000  0.57329000  1.0
  C  C78  1  0.56832000  0.47856000  0.11159000  1.0
  C  C79  1  0.15851000  0.02106000  0.38831000  1.0
  C  C80  1  0.43168000  0.52144000  0.88841000  1.0
  C  C81  1  0.84149000  0.97894000  0.61169000  1.0
  C  C82  1  0.70326000  0.85426000  0.96448000  1.0
  C  C83  1  0.52158000  0.64596000  0.53554000  1.0
  C  C84  1  0.29673000  0.14574000  0.03553000  1.0
  C  C85  1  0.47842000  0.35404000  0.46446000  1.0
  C  C86  1  0.72832000  0.73674000  0.94284000  1.0
  C  C87  1  0.40759000  0.76334000  0.55732000  1.0
  C  C88  1  0.27169000  0.26326000  0.05715000  1.0
  C  C89  1  0.59241000  0.23666000  0.44268000  1.0
  C  C90  1  0.86388000  0.63658000  0.92164000  1.0
  C  C91  1  0.42196000  0.86357000  0.57843000  1.0
  C  C92  1  0.13612000  0.36342000  0.07836000  1.0
  C  C93  1  0.57803000  0.13643000  0.42157000  1.0
  C  C94  1  0.97915000  0.65761000  0.92231000  1.0
  C  C95  1  0.55894000  0.84261000  0.57766000  1.0
  C  C96  1  0.02085000  0.34239000  0.07769000  1.0
  C  C97  1  0.44105000  0.15739000  0.42234000  1.0
  C  C98  1  0.96029000  0.77423000  0.94363000  1.0
  C  C99  1  0.67789000  0.72595000  0.55635000  1.0
  C  C100  1  0.03971000  0.22576000  0.05638000  1.0
  C  C101  1  0.32209000  0.27405000  0.44366000  1.0
  C  C102  1  0.82137000  0.86935000  0.96431000  1.0
  C  C103  1  0.65465000  0.63090000  0.53564000  1.0
  C  C104  1  0.17862000  0.13065000  0.03569000  1.0
  C  C105  1  0.34534000  0.36910000  0.46436000  1.0
  Cl  Cl106  1  0.89017000  0.49109000  0.89744000  1.0
  Cl  Cl107  1  0.27864000  0.00912000  0.60262000  1.0
  Cl  Cl108  1  0.10982000  0.50892000  0.10256000  1.0
  Cl  Cl109  1  0.72135000  0.99088000  0.39738000  1.0
  Cl  Cl110  1  0.10036000  0.79798000  0.94751000  1.0
  Cl  Cl111  1  0.84562000  0.70214000  0.55248000  1.0
  Cl  Cl112  1  0.89962000  0.20202000  0.05250000  1.0
  Cl  Cl113  1  0.15437000  0.29786000  0.44752000  1.0
  F  F114  1  0.81114000  0.73619000  0.14086000  1.0
  F  F115  1  0.68822000  0.76399000  0.35896000  1.0
  F  F116  1  0.18885000  0.26381000  0.85913000  1.0
  F  F117  1  0.31178000  0.23601000  0.64104000  1.0
  F  F118  1  0.92623000  0.87757000  0.16971000  1.0
  F  F119  1  0.97343000  0.62221000  0.33037000  1.0
  F  F120  1  0.07378000  0.12242000  0.83028000  1.0
  F  F121  1  0.02656000  0.37780000  0.66963000  1.0
  F  F122  1  0.75286000  0.12294000  0.21945000  1.0
  F  F123  1  0.09480000  0.37672000  0.28080000  1.0
  F  F124  1  0.24715000  0.87705000  0.78055000  1.0
  F  F125  1  0.90520000  0.62329000  0.71920000  1.0
  F  F126  1  0.46563000  0.22295000  0.23905000  1.0
  F  F127  1  0.92695000  0.27690000  0.26113000  1.0
  F  F128  1  0.53439000  0.77706000  0.76094000  1.0
  F  F129  1  0.07305000  0.72311000  0.73887000  1.0
  F  F130  1  0.34873000  0.07985000  0.21359000  1.0
  F  F131  1  0.64167000  0.42031000  0.28631000  1.0
  F  F132  1  0.65127000  0.92016000  0.78641000  1.0
  F  F133  1  0.35835000  0.57968000  0.71369000  1.0
  F  F134  1  0.61563000  0.71591000  0.94259000  1.0
  F  F135  1  0.27381000  0.78411000  0.55767000  1.0
  F  F136  1  0.38436000  0.28410000  0.05740000  1.0
  F  F137  1  0.72619000  0.21589000  0.44232000  1.0
  F  F138  1  0.11137000  0.56197000  0.90282000  1.0
  F  F139  1  0.57618000  0.93827000  0.59711000  1.0
  F  F140  1  0.88863000  0.43803000  0.09718000  1.0
  F  F141  1  0.42381000  0.06173000  0.40289000  1.0
  F  F142  1  0.80244000  0.98174000  0.98675000  1.0
  F  F143  1  0.77044000  0.51857000  0.51313000  1.0
  F  F144  1  0.19755000  0.01825000  0.01327000  1.0
  F  F145  1  0.22955000  0.48143000  0.48687000  1.0
