# generated using pymatgen
data_HgH11C16I2N2Cl
_symmetry_space_group_name_H-M   'P 1'
_cell_length_a   7.28997000
_cell_length_b   8.67815000
_cell_length_c   28.04370000
_cell_angle_alpha   90.00000000
_cell_angle_beta   90.00010000
_cell_angle_gamma   89.99970000
_symmetry_Int_Tables_number   1
_chemical_formula_structural   HgH11C16I2N2Cl
_chemical_formula_sum   'Hg4 H44 C64 I8 N8 Cl4'
_cell_volume   1774.14130123
_cell_formula_units_Z   4
loop_
 _symmetry_equiv_pos_site_id
 _symmetry_equiv_pos_as_xyz
  1  'x, y, z'
loop_
 _atom_site_type_symbol
 _atom_site_label
 _atom_site_symmetry_multiplicity
 _atom_site_fract_x
 _atom_site_fract_y
 _atom_site_fract_z
 _atom_site_occupancy
  Hg  Hg0  1  0.49244000  0.83432000  0.25257000  1.0
  Hg  Hg1  1  0.49244000  0.33432000  0.24743000  1.0
  Hg  Hg2  1  0.99244000  0.16568000  0.74743000  1.0
  Hg  Hg3  1  0.99244000  0.66568000  0.75257000  1.0
  H  H4  1  0.52307000  0.04032000  0.34748000  1.0
  H  H5  1  0.52308000  0.54032000  0.15252000  1.0
  H  H6  1  0.02307000  0.95968000  0.65252000  1.0
  H  H7  1  0.02308000  0.45968000  0.84748000  1.0
  H  H8  1  0.67204000  0.76823000  0.47017000  1.0
  H  H9  1  0.67204000  0.26824000  0.02983000  1.0
  H  H10  1  0.17203000  0.23176000  0.52983000  1.0
  H  H11  1  0.17203000  0.73176000  0.97017000  1.0
  H  H12  1  0.56710000  0.56640000  0.33195000  1.0
  H  H13  1  0.56710000  0.06640000  0.16805000  1.0
  H  H14  1  0.06711000  0.43360000  0.66805000  1.0
  H  H15  1  0.06711000  0.93360000  0.83195000  1.0
  H  H16  1  0.57364000  0.17096000  0.42192000  1.0
  H  H17  1  0.57363000  0.67096000  0.07808000  1.0
  H  H18  1  0.07362000  0.82904000  0.57808000  1.0
  H  H19  1  0.07363000  0.32904000  0.92192000  1.0
  H  H20  1  0.64878000  0.53165000  0.41750000  1.0
  H  H21  1  0.64878000  0.03165000  0.08250000  1.0
  H  H22  1  0.14878000  0.46835000  0.58250000  1.0
  H  H23  1  0.14878000  0.96835000  0.91750000  1.0
  H  H24  1  0.83321000  0.32707000  0.45164000  1.0
  H  H25  1  0.83321000  0.82708000  0.04836000  1.0
  H  H26  1  0.33320000  0.67292000  0.54836000  1.0
  H  H27  1  0.33321000  0.17292000  0.95164000  1.0
  H  H28  1  0.86350000  0.56908000  0.49873000  1.0
  H  H29  1  0.86350000  0.06908000  0.00127000  1.0
  H  H30  1  0.36350000  0.43092000  0.50127000  1.0
  H  H31  1  0.36350000  0.93092000  0.99873000  1.0
  H  H32  1  0.56650000  0.96440000  0.55855000  1.0
  H  H33  1  0.56651000  0.46441000  0.94145000  1.0
  H  H34  1  0.06650000  0.03560000  0.44145000  1.0
  H  H35  1  0.06650000  0.53560000  0.05855000  1.0
  H  H36  1  0.46618000  0.96965000  0.64352000  1.0
  H  H37  1  0.46619000  0.46966000  0.85648000  1.0
  H  H38  1  0.96619000  0.03035000  0.35648000  1.0
  H  H39  1  0.96618000  0.53034000  0.14352000  1.0
  H  H40  1  0.47990000  0.21511000  0.68951000  1.0
  H  H41  1  0.47990000  0.71511000  0.81049000  1.0
  H  H42  1  0.97991000  0.78490000  0.31049000  1.0
  H  H43  1  0.97990000  0.28489000  0.18951000  1.0
  H  H44  1  0.59847000  0.45177000  0.65211000  1.0
  H  H45  1  0.59847000  0.95178000  0.84789000  1.0
  H  H46  1  0.09847000  0.54823000  0.34789000  1.0
  H  H47  1  0.09847000  0.04823000  0.15211000  1.0
  C  C48  1  0.55159000  0.92971000  0.36458000  1.0
  C  C49  1  0.55160000  0.42971000  0.13542000  1.0
  C  C50  1  0.05159000  0.07029000  0.63542000  1.0
  C  C51  1  0.05160000  0.57029000  0.86458000  1.0
  C  C52  1  0.63545000  0.77607000  0.43260000  1.0
  C  C53  1  0.63544000  0.27608000  0.06740000  1.0
  C  C54  1  0.13544000  0.22392000  0.56740000  1.0
  C  C55  1  0.13544000  0.72392000  0.93260000  1.0
  C  C56  1  0.59972000  0.92165000  0.41279000  1.0
  C  C57  1  0.59972000  0.42165000  0.08721000  1.0
  C  C58  1  0.09971000  0.07835000  0.58721000  1.0
  C  C59  1  0.09971000  0.57835000  0.91279000  1.0
  C  C60  1  0.57613000  0.66525000  0.35581000  1.0
  C  C61  1  0.57613000  0.16526000  0.14419000  1.0
  C  C62  1  0.07613000  0.33474000  0.64419000  1.0
  C  C63  1  0.07613000  0.83474000  0.85581000  1.0
  C  C64  1  0.61633000  0.06397000  0.44007000  1.0
  C  C65  1  0.61633000  0.56397000  0.05993000  1.0
  C  C66  1  0.11632000  0.93603000  0.55993000  1.0
  C  C67  1  0.11632000  0.43603000  0.94007000  1.0
  C  C68  1  0.69781000  0.20183000  0.50779000  1.0
  C  C69  1  0.69780000  0.70183000  0.99221000  1.0
  C  C70  1  0.19780000  0.79817000  0.49221000  1.0
  C  C71  1  0.19780000  0.29817000  0.00779000  1.0
  C  C72  1  0.62294000  0.64683000  0.40371000  1.0
  C  C73  1  0.62294000  0.14683000  0.09629000  1.0
  C  C74  1  0.12294000  0.35317000  0.59629000  1.0
  C  C75  1  0.12293000  0.85317000  0.90371000  1.0
  C  C76  1  0.77847000  0.33216000  0.48784000  1.0
  C  C77  1  0.77847000  0.83216000  0.01216000  1.0
  C  C78  1  0.27846000  0.66784000  0.51216000  1.0
  C  C79  1  0.27847000  0.16784000  0.98784000  1.0
  C  C80  1  0.79583000  0.46924000  0.51440000  1.0
  C  C81  1  0.79583000  0.96925000  0.98560000  1.0
  C  C82  1  0.29582000  0.53075000  0.48560000  1.0
  C  C83  1  0.29583000  0.03075000  0.01440000  1.0
  C  C84  1  0.64076000  0.20446000  0.55676000  1.0
  C  C85  1  0.64076000  0.70446000  0.94324000  1.0
  C  C86  1  0.14076000  0.79554000  0.44324000  1.0
  C  C87  1  0.14076000  0.29554000  0.05676000  1.0
  C  C88  1  0.57279000  0.07022000  0.57934000  1.0
  C  C89  1  0.57279000  0.57022000  0.92066000  1.0
  C  C90  1  0.07279000  0.92978000  0.42066000  1.0
  C  C91  1  0.07278000  0.42978000  0.07934000  1.0
  C  C92  1  0.65206000  0.34537000  0.58354000  1.0
  C  C93  1  0.65206000  0.84538000  0.91646000  1.0
  C  C94  1  0.15206000  0.65462000  0.41646000  1.0
  C  C95  1  0.15207000  0.15462000  0.08354000  1.0
  C  C96  1  0.72935000  0.47664000  0.56046000  1.0
  C  C97  1  0.72935000  0.97665000  0.93954000  1.0
  C  C98  1  0.22934000  0.52335000  0.43954000  1.0
  C  C99  1  0.22936000  0.02335000  0.06046000  1.0
  C  C100  1  0.51739000  0.07391000  0.62634000  1.0
  C  C101  1  0.51740000  0.57391000  0.87366000  1.0
  C  C102  1  0.01739000  0.92609000  0.37366000  1.0
  C  C103  1  0.01739000  0.42609000  0.12634000  1.0
  C  C104  1  0.52515000  0.21278000  0.65242000  1.0
  C  C105  1  0.52515000  0.71279000  0.84758000  1.0
  C  C106  1  0.02515000  0.78722000  0.34758000  1.0
  C  C107  1  0.02515000  0.28721000  0.15242000  1.0
  C  C108  1  0.59095000  0.34567000  0.63150000  1.0
  C  C109  1  0.59095000  0.84568000  0.86851000  1.0
  C  C110  1  0.09095000  0.65433000  0.36850000  1.0
  C  C111  1  0.09095000  0.15433000  0.13150000  1.0
  I  I112  1  0.24266000  0.07737000  0.26096000  1.0
  I  I113  1  0.24266000  0.57737000  0.23904000  1.0
  I  I114  1  0.74266000  0.92263000  0.73904000  1.0
  I  I115  1  0.74266000  0.42264000  0.76096000  1.0
  I  I116  1  0.80223000  0.80334000  0.20007000  1.0
  I  I117  1  0.80223000  0.30334000  0.29993000  1.0
  I  I118  1  0.30223000  0.19666000  0.79993000  1.0
  I  I119  1  0.30223000  0.69666000  0.70007000  1.0
  N  N120  1  0.54181000  0.80424000  0.33686000  1.0
  N  N121  1  0.54182000  0.30424000  0.16314000  1.0
  N  N122  1  0.04182000  0.19576000  0.66314000  1.0
  N  N123  1  0.04182000  0.69576000  0.83686000  1.0
  N  N124  1  0.67650000  0.06385000  0.48312000  1.0
  N  N125  1  0.67649000  0.56385000  0.01688000  1.0
  N  N126  1  0.17648000  0.93615000  0.51688000  1.0
  N  N127  1  0.17649000  0.43615000  0.98312000  1.0
  Cl  Cl128  1  0.74622000  0.64963000  0.59144000  1.0
  Cl  Cl129  1  0.74622000  0.14963000  0.90856000  1.0
  Cl  Cl130  1  0.24622000  0.35037000  0.40856000  1.0
  Cl  Cl131  1  0.24623000  0.85037000  0.09144000  1.0
