# generated using pymatgen
data_Gd2H15C12(NO4)3
_symmetry_space_group_name_H-M   'P 1'
_cell_length_a   11.69000000
_cell_length_b   19.00041957
_cell_length_c   19.00072468
_cell_angle_alpha   84.57295029
_cell_angle_beta   72.07681178
_cell_angle_gamma   72.09353919
_symmetry_Int_Tables_number   1
_chemical_formula_structural   Gd2H15C12(NO4)3
_chemical_formula_sum   'Gd16 H120 C96 N24 O96'
_cell_volume   3821.01722791
_cell_formula_units_Z   8
loop_
 _symmetry_equiv_pos_site_id
 _symmetry_equiv_pos_as_xyz
  1  'x, y, z'
loop_
 _atom_site_type_symbol
 _atom_site_label
 _atom_site_symmetry_multiplicity
 _atom_site_fract_x
 _atom_site_fract_y
 _atom_site_fract_z
 _atom_site_occupancy
  Gd  Gd0  1  0.56862000  0.89419000  0.47819000  1.0
  Gd  Gd1  1  0.44095000  0.60582000  0.02182000  1.0
  Gd  Gd2  1  0.54688000  0.52181000  0.39424000  1.0
  Gd  Gd3  1  0.96274000  0.97818000  0.10581000  1.0
  Gd  Gd4  1  0.43140000  0.10580000  0.52180000  1.0
  Gd  Gd5  1  0.55906000  0.39418000  0.97817000  1.0
  Gd  Gd6  1  0.45311000  0.47820000  0.60577000  1.0
  Gd  Gd7  1  0.03726000  0.02182000  0.89419000  1.0
  Gd  Gd8  1  0.50760000  0.86507000  0.29811000  1.0
  Gd  Gd9  1  0.17078000  0.63490000  0.20193000  1.0
  Gd  Gd10  1  0.30583000  0.70187000  0.36511000  1.0
  Gd  Gd11  1  0.87273000  0.79809000  0.13496000  1.0
  Gd  Gd12  1  0.49240000  0.13493000  0.70189000  1.0
  Gd  Gd13  1  0.82922000  0.36510000  0.79807000  1.0
  Gd  Gd14  1  0.69417000  0.29813000  0.63489000  1.0
  Gd  Gd15  1  0.12727000  0.20191000  0.86504000  1.0
  H  H16  1  0.29119000  0.96982000  0.25574000  1.0
  H  H17  1  0.01675000  0.53006000  0.24436000  1.0
  H  H18  1  0.04711000  0.74446000  0.46988000  1.0
  H  H19  1  0.76151000  0.75559000  0.03012000  1.0
  H  H20  1  0.70882000  0.03017000  0.74426000  1.0
  H  H21  1  0.98326000  0.46993000  0.75564000  1.0
  H  H22  1  0.95289000  0.25554000  0.53012000  1.0
  H  H23  1  0.23850000  0.24440000  0.96988000  1.0
  H  H24  1  0.82717000  0.85878000  0.48280000  1.0
  H  H25  1  0.66871000  0.64124000  0.01727000  1.0
  H  H26  1  0.81004000  0.51738000  0.35889000  1.0
  H  H27  1  0.18601000  0.98273000  0.14125000  1.0
  H  H28  1  0.17283000  0.14122000  0.51720000  1.0
  H  H29  1  0.33128000  0.35876000  0.98273000  1.0
  H  H30  1  0.18996000  0.48262000  0.64111000  1.0
  H  H31  1  0.81397000  0.01728000  0.85876000  1.0
  H  H32  1  0.21212000  0.07841000  0.35023000  1.0
  H  H33  1  0.14077000  0.42151000  0.14983000  1.0
  H  H34  1  0.06217000  0.64999000  0.57853000  1.0
  H  H35  1  0.79087000  0.85006000  0.92148000  1.0
  H  H36  1  0.78788000  0.92159000  0.64977000  1.0
  H  H37  1  0.85923000  0.57849000  0.85017000  1.0
  H  H38  1  0.93783000  0.35001000  0.42147000  1.0
  H  H39  1  0.20913000  0.14994000  0.07852000  1.0
  H  H40  1  0.35660000  0.06230000  0.27821000  1.0
  H  H41  1  0.19723000  0.43764000  0.22181000  1.0
  H  H42  1  0.13500000  0.72186000  0.56240000  1.0
  H  H43  1  0.91937000  0.77819000  0.93767000  1.0
  H  H44  1  0.64339000  0.93770000  0.72179000  1.0
  H  H45  1  0.80277000  0.56236000  0.77819000  1.0
  H  H46  1  0.86499000  0.27815000  0.43760000  1.0
  H  H47  1  0.08063000  0.22181000  0.06233000  1.0
  H  H48  1  0.38303000  0.86486000  0.61999000  1.0
  H  H49  1  0.36778000  0.63514000  0.88005000  1.0
  H  H50  1  0.50308000  0.38005000  0.36495000  1.0
  H  H51  1  0.74805000  0.11994000  0.13505000  1.0
  H  H52  1  0.61698000  0.13514000  0.38001000  1.0
  H  H53  1  0.63220000  0.36486000  0.11996000  1.0
  H  H54  1  0.49693000  0.61995000  0.63505000  1.0
  H  H55  1  0.25194000  0.88006000  0.86495000  1.0
  H  H56  1  0.86875000  0.76661000  0.40590000  1.0
  H  H57  1  0.54130000  0.73348000  0.09409000  1.0
  H  H58  1  0.77464000  0.59418000  0.26664000  1.0
  H  H59  1  0.13536000  0.90586000  0.23346000  1.0
  H  H60  1  0.13126000  0.23338000  0.59410000  1.0
  H  H61  1  0.45869000  0.26652000  0.90591000  1.0
  H  H62  1  0.22535000  0.40583000  0.73336000  1.0
  H  H63  1  0.86464000  0.09414000  0.76654000  1.0
  H  H64  1  0.96699000  0.81826000  0.34779000  1.0
  H  H65  1  0.63296000  0.68183000  0.15226000  1.0
  H  H66  1  0.81466000  0.65238000  0.31826000  1.0
  H  H67  1  0.28519000  0.84771000  0.18179000  1.0
  H  H68  1  0.03303000  0.18173000  0.65220000  1.0
  H  H69  1  0.36705000  0.31817000  0.84773000  1.0
  H  H70  1  0.18534000  0.34762000  0.68174000  1.0
  H  H71  1  0.71481000  0.15229000  0.81822000  1.0
  H  H72  1  0.10121000  0.97508000  0.35139000  1.0
  H  H73  1  0.92773000  0.52480000  0.14877000  1.0
  H  H74  1  0.95274000  0.64873000  0.47526000  1.0
  H  H75  1  0.57678000  0.85134000  0.02476000  1.0
  H  H76  1  0.89879000  0.02492000  0.64861000  1.0
  H  H77  1  0.07226000  0.47520000  0.85124000  1.0
  H  H78  1  0.04726000  0.35127000  0.52474000  1.0
  H  H79  1  0.42321000  0.14866000  0.97524000  1.0
  H  H80  1  0.18828000  0.95406000  0.41706000  1.0
  H  H81  1  0.05935000  0.54580000  0.08306000  1.0
  H  H82  1  0.10546000  0.58312000  0.45418000  1.0
  H  H83  1  0.64277000  0.91692000  0.04600000  1.0
  H  H84  1  0.81171000  0.04595000  0.58294000  1.0
  H  H85  1  0.94064000  0.45420000  0.91694000  1.0
  H  H86  1  0.89455000  0.41688000  0.54582000  1.0
  H  H87  1  0.35722000  0.08308000  0.95400000  1.0
  H  H88  1  0.29354000  0.78712000  0.59468000  1.0
  H  H89  1  0.17525000  0.71286000  0.90542000  1.0
  H  H90  1  0.38823000  0.40535000  0.28724000  1.0
  H  H91  1  0.58066000  0.09471000  0.21260000  1.0
  H  H92  1  0.70646000  0.21289000  0.40532000  1.0
  H  H93  1  0.82474000  0.28715000  0.09458000  1.0
  H  H94  1  0.61177000  0.59465000  0.71277000  1.0
  H  H95  1  0.41934000  0.90529000  0.78740000  1.0
  H  H96  1  0.44236000  0.71985000  0.56418000  1.0
  H  H97  1  0.22632000  0.78015000  0.93589000  1.0
  H  H98  1  0.50666000  0.43571000  0.21989000  1.0
  H  H99  1  0.66184000  0.06429000  0.28003000  1.0
  H  H100  1  0.55763000  0.28015000  0.43582000  1.0
  H  H101  1  0.77367000  0.21985000  0.06412000  1.0
  H  H102  1  0.49334000  0.56429000  0.78011000  1.0
  H  H103  1  0.33815000  0.93572000  0.71997000  1.0
  H  H104  1  0.85879000  0.95394000  0.35207000  1.0
  H  H105  1  0.66432000  0.54612000  0.14809000  1.0
  H  H106  1  0.71030000  0.64819000  0.45404000  1.0
  H  H107  1  0.31258000  0.85196000  0.04612000  1.0
  H  H108  1  0.14123000  0.04606000  0.64792000  1.0
  H  H109  1  0.33568000  0.45388000  0.85191000  1.0
  H  H110  1  0.28972000  0.35180000  0.54596000  1.0
  H  H111  1  0.68742000  0.14804000  0.95388000  1.0
  H  H112  1  0.92398000  0.94787000  0.42548000  1.0
  H  H113  1  0.79702000  0.55222000  0.07488000  1.0
  H  H114  1  0.84917000  0.57504000  0.44792000  1.0
  H  H115  1  0.37195000  0.92522000  0.05219000  1.0
  H  H116  1  0.07602000  0.05213000  0.57452000  1.0
  H  H117  1  0.20297000  0.44778000  0.92512000  1.0
  H  H118  1  0.15083000  0.42495000  0.55208000  1.0
  H  H119  1  0.62805000  0.07478000  0.94781000  1.0
  H  H120  1  0.51179000  0.73773000  0.66085000  1.0
  H  H121  1  0.41019000  0.76231000  0.83920000  1.0
  H  H122  1  0.67264000  0.33909000  0.23788000  1.0
  H  H123  1  0.74938000  0.16075000  0.26232000  1.0
  H  H124  1  0.48822000  0.26227000  0.33915000  1.0
  H  H125  1  0.58980000  0.23769000  0.16080000  1.0
  H  H126  1  0.32736000  0.66092000  0.76212000  1.0
  H  H127  1  0.25062000  0.83925000  0.73768000  1.0
  H  H128  1  0.55743000  0.81895000  0.65956000  1.0
  H  H129  1  0.53579000  0.68109000  0.84039000  1.0
  H  H130  1  0.71705000  0.34059000  0.31903000  1.0
  H  H131  1  0.87628000  0.15951000  0.18110000  1.0
  H  H132  1  0.44257000  0.18104000  0.34045000  1.0
  H  H133  1  0.46421000  0.31891000  0.15960000  1.0
  H  H134  1  0.28296000  0.65941000  0.68097000  1.0
  H  H135  1  0.12372000  0.84049000  0.81889000  1.0
  C  C136  1  0.30512000  0.03807000  0.32810000  1.0
  C  C137  1  0.17130000  0.46185000  0.17196000  1.0
  C  C138  1  0.13316000  0.67203000  0.53819000  1.0
  C  C139  1  0.84348000  0.82802000  0.96185000  1.0
  C  C140  1  0.69489000  0.96193000  0.67190000  1.0
  C  C141  1  0.82870000  0.53815000  0.82804000  1.0
  C  C142  1  0.86683000  0.32797000  0.46182000  1.0
  C  C143  1  0.15652000  0.17198000  0.03815000  1.0
  C  C144  1  0.21756000  0.86143000  0.35480000  1.0
  C  C145  1  0.93380000  0.63849000  0.14529000  1.0
  C  C146  1  0.07245000  0.64535000  0.36155000  1.0
  C  C147  1  0.57926000  0.85459000  0.13853000  1.0
  C  C148  1  0.78244000  0.13857000  0.64520000  1.0
  C  C149  1  0.06618000  0.36152000  0.85472000  1.0
  C  C150  1  0.92755000  0.35465000  0.63845000  1.0
  C  C151  1  0.42074000  0.14541000  0.86147000  1.0
  C  C152  1  0.79358000  0.82725000  0.32449000  1.0
  C  C153  1  0.44518000  0.67294000  0.17554000  1.0
  C  C154  1  0.61803000  0.67555000  0.32723000  1.0
  C  C155  1  0.12068000  0.82448000  0.17284000  1.0
  C  C156  1  0.20642000  0.17275000  0.67551000  1.0
  C  C157  1  0.55482000  0.32706000  0.82446000  1.0
  C  C158  1  0.38196000  0.32445000  0.67278000  1.0
  C  C159  1  0.87932000  0.17552000  0.82716000  1.0
  C  C160  1  0.37993000  0.02675000  0.38352000  1.0
  C  C161  1  0.29012000  0.47324000  0.11646000  1.0
  C  C162  1  0.26326000  0.61648000  0.52680000  1.0
  C  C163  1  0.90676000  0.88352000  0.97320000  1.0
  C  C164  1  0.62008000  0.97325000  0.61648000  1.0
  C  C165  1  0.70988000  0.52676000  0.88354000  1.0
  C  C166  1  0.73674000  0.38352000  0.47320000  1.0
  C  C167  1  0.09324000  0.11648000  0.02680000  1.0
  C  C168  1  0.86957000  0.82000000  0.37795000  1.0
  C  C169  1  0.56746000  0.68012000  0.12209000  1.0
  C  C170  1  0.74749000  0.62216000  0.32001000  1.0
  C  C171  1  0.18953000  0.87789000  0.18008000  1.0
  C  C172  1  0.13044000  0.17999000  0.62205000  1.0
  C  C173  1  0.43254000  0.31988000  0.87791000  1.0
  C  C174  1  0.25251000  0.37784000  0.67999000  1.0
  C  C175  1  0.81046000  0.12211000  0.81993000  1.0
  C  C176  1  0.19276000  0.94409000  0.35979000  1.0
  C  C177  1  0.99667000  0.55584000  0.14034000  1.0
  C  C178  1  0.05267000  0.64040000  0.44422000  1.0
  C  C179  1  0.63727000  0.85964000  0.05587000  1.0
  C  C180  1  0.80724000  0.05591000  0.64021000  1.0
  C  C181  1  0.00332000  0.44417000  0.85966000  1.0
  C  C182  1  0.94734000  0.35960000  0.55578000  1.0
  C  C183  1  0.36273000  0.14036000  0.94413000  1.0
  C  C184  1  0.39045000  0.78992000  0.48018000  1.0
  C  C185  1  0.16055000  0.71004000  0.01989000  1.0
  C  C186  1  0.37087000  0.51982000  0.28988000  1.0
  C  C187  1  0.68013000  0.98019000  0.21000000  1.0
  C  C188  1  0.60955000  0.21008000  0.51982000  1.0
  C  C189  1  0.83947000  0.28996000  0.98010000  1.0
  C  C190  1  0.62913000  0.48018000  0.71012000  1.0
  C  C191  1  0.31987000  0.01981000  0.79000000  1.0
  C  C192  1  0.39144000  0.77888000  0.56044000  1.0
  C  C193  1  0.23071000  0.72111000  0.93963000  1.0
  C  C194  1  0.45197000  0.43955000  0.27892000  1.0
  C  C195  1  0.67017000  0.06045000  0.22098000  1.0
  C  C196  1  0.60857000  0.22112000  0.43956000  1.0
  C  C197  1  0.76929000  0.27889000  0.06037000  1.0
  C  C198  1  0.54803000  0.56045000  0.72108000  1.0
  C  C199  1  0.32982000  0.93955000  0.77902000  1.0
  C  C200  1  0.83909000  0.94727000  0.41252000  1.0
  C  C201  1  0.69861000  0.55281000  0.08765000  1.0
  C  C202  1  0.75137000  0.58777000  0.44731000  1.0
  C  C203  1  0.28635000  0.91239000  0.05279000  1.0
  C  C204  1  0.16092000  0.05273000  0.58747000  1.0
  C  C205  1  0.30138000  0.44719000  0.91235000  1.0
  C  C206  1  0.24863000  0.41223000  0.55269000  1.0
  C  C207  1  0.71365000  0.08761000  0.94721000  1.0
  C  C208  1  0.73110000  0.01446000  0.44751000  1.0
  C  C209  1  0.69286000  0.48568000  0.05250000  1.0
  C  C210  1  0.67865000  0.55253000  0.51444000  1.0
  C  C211  1  0.24548000  0.94748000  0.98566000  1.0
  C  C212  1  0.26890000  0.98554000  0.55249000  1.0
  C  C213  1  0.30713000  0.51432000  0.94750000  1.0
  C  C214  1  0.32135000  0.44747000  0.48556000  1.0
  C  C215  1  0.75452000  0.05252000  0.01434000  1.0
  C  C216  1  0.67266000  0.74655000  0.56868000  1.0
  C  C217  1  0.48792000  0.75343000  0.93124000  1.0
  C  C218  1  0.74129000  0.43132000  0.24649000  1.0
  C  C219  1  0.91911000  0.06865000  0.25342000  1.0
  C  C220  1  0.32735000  0.25345000  0.43132000  1.0
  C  C221  1  0.51208000  0.24657000  0.06875000  1.0
  C  C222  1  0.25871000  0.56869000  0.75351000  1.0
  C  C223  1  0.08088000  0.93135000  0.74658000  1.0
  C  C224  1  0.54333000  0.78136000  0.62468000  1.0
  C  C225  1  0.44925000  0.71865000  0.87531000  1.0
  C  C226  1  0.66800000  0.37534000  0.28143000  1.0
  C  C227  1  0.82454000  0.12464000  0.21866000  1.0
  C  C228  1  0.45669000  0.21863000  0.37532000  1.0
  C  C229  1  0.55075000  0.28135000  0.12469000  1.0
  C  C230  1  0.33200000  0.62466000  0.71857000  1.0
  C  C231  1  0.17546000  0.87536000  0.78134000  1.0
  N  N232  1  0.29805000  0.96714000  0.30830000  1.0
  N  N233  1  0.07352000  0.53277000  0.19181000  1.0
  N  N234  1  0.10643000  0.69189000  0.46726000  1.0
  N  N235  1  0.76559000  0.80817000  0.03279000  1.0
  N  N236  1  0.70195000  0.03286000  0.69170000  1.0
  N  N237  1  0.92648000  0.46723000  0.80819000  1.0
  N  N238  1  0.89358000  0.30811000  0.53274000  1.0
  N  N239  1  0.23441000  0.19183000  0.96721000  1.0
  N  N240  1  0.80723000  0.87782000  0.43458000  1.0
  N  N241  1  0.61950000  0.62225000  0.06552000  1.0
  N  N242  1  0.74176000  0.56559000  0.37787000  1.0
  N  N243  1  0.18508000  0.93450000  0.12223000  1.0
  N  N244  1  0.19277000  0.12218000  0.56542000  1.0
  N  N245  1  0.38049000  0.37775000  0.93448000  1.0
  N  N246  1  0.25823000  0.43441000  0.62214000  1.0
  N  N247  1  0.81491000  0.06551000  0.87777000  1.0
  N  N248  1  0.45172000  0.82432000  0.58656000  1.0
  N  N249  1  0.36252000  0.67568000  0.91347000  1.0
  N  N250  1  0.53829000  0.41348000  0.32439000  1.0
  N  N251  1  0.77600000  0.08652000  0.17564000  1.0
  N  N252  1  0.54829000  0.17568000  0.41344000  1.0
  N  N253  1  0.63748000  0.32432000  0.08653000  1.0
  N  N254  1  0.46172000  0.58652000  0.67561000  1.0
  N  N255  1  0.22399000  0.91348000  0.82436000  1.0
  O  O256  1  0.36947000  0.08259000  0.41864000  1.0
  O  O257  1  0.37058000  0.41744000  0.08124000  1.0
  O  O258  1  0.28787000  0.58133000  0.58266000  1.0
  O  O259  1  0.95210000  0.91866000  0.91733000  1.0
  O  O260  1  0.63054000  0.91741000  0.58136000  1.0
  O  O261  1  0.62942000  0.58256000  0.91876000  1.0
  O  O262  1  0.71214000  0.41867000  0.41734000  1.0
  O  O263  1  0.04788000  0.08135000  0.08267000  1.0
  O  O264  1  0.13468000  0.82953000  0.38340000  1.0
  O  O265  1  0.84768000  0.67031000  0.11664000  1.0
  O  O266  1  0.01820000  0.61669000  0.32971000  1.0
  O  O267  1  0.46446000  0.88313000  0.17035000  1.0
  O  O268  1  0.86531000  0.17048000  0.61660000  1.0
  O  O269  1  0.15233000  0.32969000  0.88336000  1.0
  O  O270  1  0.98182000  0.38330000  0.67029000  1.0
  O  O271  1  0.53555000  0.11686000  0.82965000  1.0
  O  O272  1  0.67464000  0.85974000  0.34920000  1.0
  O  O273  1  0.38337000  0.64051000  0.15081000  1.0
  O  O274  1  0.52385000  0.65080000  0.35974000  1.0
  O  O275  1  0.03421000  0.84922000  0.14037000  1.0
  O  O276  1  0.32536000  0.14025000  0.65080000  1.0
  O  O277  1  0.61663000  0.35949000  0.84919000  1.0
  O  O278  1  0.47614000  0.34920000  0.64027000  1.0
  O  O279  1  0.96580000  0.15078000  0.85962000  1.0
  O  O280  1  0.33176000  0.82315000  0.32176000  1.0
  O  O281  1  0.97656000  0.67682000  0.17836000  1.0
  O  O282  1  0.15368000  0.67833000  0.32320000  1.0
  O  O283  1  0.65509000  0.82161000  0.17687000  1.0
  O  O284  1  0.66825000  0.17685000  0.67824000  1.0
  O  O285  1  0.02345000  0.32318000  0.82164000  1.0
  O  O286  1  0.84632000  0.32168000  0.67680000  1.0
  O  O287  1  0.34490000  0.17839000  0.82313000  1.0
  O  O288  1  0.84748000  0.79969000  0.26129000  1.0
  O  O289  1  0.40838000  0.70042000  0.23877000  1.0
  O  O290  1  0.60858000  0.73877000  0.29971000  1.0
  O  O291  1  0.14697000  0.76124000  0.20033000  1.0
  O  O292  1  0.15253000  0.20030000  0.73871000  1.0
  O  O293  1  0.59162000  0.29958000  0.76123000  1.0
  O  O294  1  0.39141000  0.26123000  0.70030000  1.0
  O  O295  1  0.85304000  0.23875000  0.79967000  1.0
  O  O296  1  0.44936000  0.96115000  0.39005000  1.0
  O  O297  1  0.30042000  0.53885000  0.10995000  1.0
  O  O298  1  0.33924000  0.60991000  0.46120000  1.0
  O  O299  1  0.91059000  0.89005000  0.03879000  1.0
  O  O300  1  0.55064000  0.03885000  0.60995000  1.0
  O  O301  1  0.69958000  0.46115000  0.89005000  1.0
  O  O302  1  0.66076000  0.39009000  0.53880000  1.0
  O  O303  1  0.08941000  0.10995000  0.96121000  1.0
  O  O304  1  0.61782000  0.01105000  0.45273000  1.0
  O  O305  1  0.58139000  0.48905000  0.04730000  1.0
  O  O306  1  0.57060000  0.54724000  0.51105000  1.0
  O  O307  1  0.12878000  0.95273000  0.98905000  1.0
  O  O308  1  0.38219000  0.98895000  0.54727000  1.0
  O  O309  1  0.41859000  0.51096000  0.95270000  1.0
  O  O310  1  0.42939000  0.45276000  0.48896000  1.0
  O  O311  1  0.87122000  0.04727000  0.01095000  1.0
  O  O312  1  0.31813000  0.76154000  0.46330000  1.0
  O  O313  1  0.04293000  0.73842000  0.03681000  1.0
  O  O314  1  0.28171000  0.53672000  0.26146000  1.0
  O  O315  1  0.57937000  0.96334000  0.23833000  1.0
  O  O316  1  0.68187000  0.23846000  0.53670000  1.0
  O  O317  1  0.95708000  0.26158000  0.96319000  1.0
  O  O318  1  0.71828000  0.46328000  0.73855000  1.0
  O  O319  1  0.42063000  0.03666000  0.76167000  1.0
  O  O320  1  0.46481000  0.82223000  0.43507000  1.0
  O  O321  1  0.22206000  0.67773000  0.06498000  1.0
  O  O322  1  0.40007000  0.56492000  0.32221000  1.0
  O  O323  1  0.78679000  0.93505000  0.17777000  1.0
  O  O324  1  0.53519000  0.17777000  0.56493000  1.0
  O  O325  1  0.77794000  0.32227000  0.93502000  1.0
  O  O326  1  0.59992000  0.43509000  0.67779000  1.0
  O  O327  1  0.21321000  0.06495000  0.82223000  1.0
  O  O328  1  0.68616000  0.77432000  0.50251000  1.0
  O  O329  1  0.46297000  0.72568000  0.99743000  1.0
  O  O330  1  0.68883000  0.49744000  0.27438000  1.0
  O  O331  1  0.96032000  0.00248000  0.22567000  1.0
  O  O332  1  0.31387000  0.22567000  0.49749000  1.0
  O  O333  1  0.53703000  0.27432000  0.00257000  1.0
  O  O334  1  0.31118000  0.50256000  0.72562000  1.0
  O  O335  1  0.03968000  0.99752000  0.77432000  1.0
  O  O336  1  0.75283000  0.06810000  0.46712000  1.0
  O  O337  1  0.78792000  0.43212000  0.03268000  1.0
  O  O338  1  0.72019000  0.53278000  0.56799000  1.0
  O  O339  1  0.32082000  0.96717000  0.93205000  1.0
  O  O340  1  0.24719000  0.93189000  0.53287000  1.0
  O  O341  1  0.21206000  0.56787000  0.96733000  1.0
  O  O342  1  0.27981000  0.46722000  0.43202000  1.0
  O  O343  1  0.67917000  0.03283000  0.06796000  1.0
  O  O344  1  0.75299000  0.69712000  0.58967000  1.0
  O  O345  1  0.53994000  0.80282000  0.91023000  1.0
  O  O346  1  0.84241000  0.41037000  0.19688000  1.0
  O  O347  1  0.95016000  0.08962000  0.30281000  1.0
  O  O348  1  0.24702000  0.30287000  0.41033000  1.0
  O  O349  1  0.46006000  0.19719000  0.08976000  1.0
  O  O350  1  0.15758000  0.58964000  0.80313000  1.0
  O  O351  1  0.04983000  0.91039000  0.69718000  1.0
