# generated using pymatgen
data_CdCo2H54C66N12(ClO2)2
_symmetry_space_group_name_H-M   'P 1'
_cell_length_a   9.28429000
_cell_length_b   13.47750000
_cell_length_c   13.94090000
_cell_angle_alpha   106.54200000
_cell_angle_beta   106.98000000
_cell_angle_gamma   97.98350000
_symmetry_Int_Tables_number   1
_chemical_formula_structural   CdCo2H54C66N12(ClO2)2
_chemical_formula_sum   'Cd1 Co2 H54 C66 N12 Cl2 O4'
_cell_volume   1551.70540893
_cell_formula_units_Z   1
loop_
 _symmetry_equiv_pos_site_id
 _symmetry_equiv_pos_as_xyz
  1  'x, y, z'
loop_
 _atom_site_type_symbol
 _atom_site_label
 _atom_site_symmetry_multiplicity
 _atom_site_fract_x
 _atom_site_fract_y
 _atom_site_fract_z
 _atom_site_occupancy
  Cd  Cd0  1  0.00000000  0.00000000  0.00000000  1.0
  Co  Co1  1  0.54549000  0.30843000  0.68378000  1.0
  Co  Co2  1  0.45450000  0.69157000  0.31622000  1.0
  H  H3  1  0.71454000  0.13341000  0.71953000  1.0
  H  H4  1  0.28545000  0.86659000  0.28047000  1.0
  H  H5  1  0.76611000  0.98657000  0.56038000  1.0
  H  H6  1  0.23391000  0.01344000  0.43962000  1.0
  H  H7  1  0.62753000  0.02555000  0.37895000  1.0
  H  H8  1  0.37250000  0.97446000  0.62106000  1.0
  H  H9  1  0.29996000  0.31963000  0.30467000  1.0
  H  H10  1  0.70005000  0.68037000  0.69533000  1.0
  H  H11  1  0.25098000  0.48944000  0.43897000  1.0
  H  H12  1  0.74905000  0.51057000  0.56103000  1.0
  H  H13  1  0.38933000  0.48795000  0.63868000  1.0
  H  H14  1  0.61068000  0.51205000  0.36132000  1.0
  H  H15  1  0.69273000  0.19908000  0.31769000  1.0
  H  H16  1  0.30727000  0.80091000  0.68230000  1.0
  H  H17  1  0.63328000  0.12043000  0.12229000  1.0
  H  H18  1  0.36672000  0.87957000  0.87771000  1.0
  H  H19  1  0.35095000  0.03587000  0.00143000  1.0
  H  H20  1  0.64905000  0.96413000  0.99857000  1.0
  H  H21  1  0.20172000  0.10135000  0.25903000  1.0
  H  H22  1  0.79828000  0.89865000  0.74097000  1.0
  H  H23  1  0.80108000  0.30538000  0.57775000  1.0
  H  H24  1  0.19890000  0.69462000  0.42224000  1.0
  H  H25  1  0.06816000  0.46103000  0.66026000  1.0
  H  H26  1  0.93182000  0.53897000  0.33972000  1.0
  H  H27  1  0.04908000  0.60575000  0.83446000  1.0
  H  H28  1  0.95092000  0.39424000  0.16553000  1.0
  H  H29  1  0.57318000  0.65089000  0.97987000  1.0
  H  H30  1  0.42683000  0.34910000  0.02015000  1.0
  H  H31  1  0.27238000  0.54069000  0.89739000  1.0
  H  H32  1  0.72763000  0.45930000  0.10261000  1.0
  H  H33  1  0.25477000  0.35979000  0.73924000  1.0
  H  H34  1  0.74522000  0.64021000  0.26076000  1.0
  H  H35  1  0.88900000  0.56074000  0.06825000  1.0
  H  H36  1  0.11098000  0.43927000  0.93176000  1.0
  H  H37  1  0.03074000  0.72789000  0.22378000  1.0
  H  H38  1  0.96924000  0.27212000  0.77622000  1.0
  H  H39  1  0.05795000  0.90308000  0.19036000  1.0
  H  H40  1  0.94204000  0.09692000  0.80963000  1.0
  H  H41  1  0.85049000  0.75125000  0.86431000  1.0
  H  H42  1  0.14952000  0.24874000  0.13568000  1.0
  H  H43  1  0.38205000  0.12246000  0.85234000  1.0
  H  H44  1  0.61796000  0.87755000  0.14768000  1.0
  H  H45  1  0.07267000  0.14448000  0.66126000  1.0
  H  H46  1  0.92733000  0.85550000  0.33874000  1.0
  H  H47  1  0.13909000  0.04890000  0.71955000  1.0
  H  H48  1  0.86092000  0.95110000  0.28046000  1.0
  H  H49  1  0.13329000  0.03949000  0.58778000  1.0
  H  H50  1  0.86673000  0.96050000  0.41223000  1.0
  H  H51  1  0.71354000  0.14863000  0.95027000  1.0
  H  H52  1  0.28647000  0.85139000  0.04974000  1.0
  H  H53  1  0.62011000  0.23584000  0.01700000  1.0
  H  H54  1  0.37990000  0.76418000  0.98301000  1.0
  H  H55  1  0.78779000  0.28853000  0.99145000  1.0
  H  H56  1  0.21222000  0.71148000  0.00855000  1.0
  C  C57  1  0.67924000  0.12433000  0.63572000  1.0
  C  C58  1  0.32076000  0.87567000  0.36428000  1.0
  C  C59  1  0.70698000  0.04947000  0.55250000  1.0
  C  C60  1  0.29303000  0.95053000  0.44750000  1.0
  C  C61  1  0.63625000  0.06913000  0.45967000  1.0
  C  C62  1  0.36376000  0.93087000  0.54034000  1.0
  C  C63  1  0.56768000  0.15645000  0.48865000  1.0
  C  C64  1  0.43232000  0.84355000  0.51135000  1.0
  C  C65  1  0.48066000  0.20290000  0.42100000  1.0
  C  C66  1  0.51934000  0.79710000  0.57900000  1.0
  C  C67  1  0.41998000  0.29022000  0.45515000  1.0
  C  C68  1  0.58001000  0.70978000  0.54485000  1.0
  C  C69  1  0.33438000  0.34317000  0.39074000  1.0
  C  C70  1  0.66562000  0.65683000  0.60925000  1.0
  C  C71  1  0.30970000  0.43018000  0.45927000  1.0
  C  C72  1  0.69032000  0.56982000  0.54073000  1.0
  C  C73  1  0.38114000  0.42979000  0.56414000  1.0
  C  C74  1  0.61887000  0.57021000  0.43586000  1.0
  C  C75  1  0.45236000  0.15653000  0.30503000  1.0
  C  C76  1  0.54764000  0.84347000  0.69496000  1.0
  C  C77  1  0.57324000  0.16134000  0.26422000  1.0
  C  C78  1  0.42676000  0.83866000  0.73578000  1.0
  C  C79  1  0.53945000  0.11797000  0.15441000  1.0
  C  C80  1  0.46055000  0.88203000  0.84559000  1.0
  C  C81  1  0.38574000  0.07064000  0.08821000  1.0
  C  C82  1  0.61426000  0.92936000  0.91179000  1.0
  C  C83  1  0.30135000  0.10640000  0.23242000  1.0
  C  C84  1  0.69865000  0.89360000  0.76758000  1.0
  C  C85  1  0.83504000  0.37647000  0.64793000  1.0
  C  C86  1  0.16494000  0.62353000  0.35206000  1.0
  C  C87  1  0.97513000  0.45749000  0.69256000  1.0
  C  C88  1  0.02486000  0.54251000  0.30743000  1.0
  C  C89  1  0.96620000  0.53096000  0.78212000  1.0
  C  C90  1  0.03379000  0.46903000  0.21788000  1.0
  C  C91  1  0.81922000  0.49364000  0.78925000  1.0
  C  C92  1  0.18078000  0.50636000  0.21074000  1.0
  C  C93  1  0.75444000  0.54580000  0.86214000  1.0
  C  C94  1  0.24556000  0.45419000  0.13786000  1.0
  C  C95  1  0.60055000  0.51478000  0.85486000  1.0
  C  C96  1  0.39945000  0.48521000  0.14514000  1.0
  C  C97  1  0.52078000  0.57515000  0.91484000  1.0
  C  C98  1  0.47923000  0.42484000  0.08517000  1.0
  C  C99  1  0.36734000  0.51850000  0.87303000  1.0
  C  C100  1  0.63266000  0.48150000  0.12698000  1.0
  C  C101  1  0.35634000  0.42417000  0.79008000  1.0
  C  C102  1  0.64366000  0.57583000  0.20992000  1.0
  C  C103  1  0.85201000  0.64285000  0.95386000  1.0
  C  C104  1  0.14798000  0.35714000  0.04613000  1.0
  C  C105  1  0.90725000  0.63735000  0.05658000  1.0
  C  C106  1  0.09274000  0.36266000  0.94343000  1.0
  C  C107  1  0.98524000  0.73045000  0.14340000  1.0
  C  C108  1  0.01475000  0.26956000  0.85660000  1.0
  C  C109  1  0.00446000  0.82693000  0.12522000  1.0
  C  C110  1  0.99554000  0.17308000  0.87477000  1.0
  C  C111  1  0.88439000  0.74247000  0.94268000  1.0
  C  C112  1  0.11561000  0.25752000  0.05731000  1.0
  C  C113  1  0.42417000  0.16862000  0.80914000  1.0
  C  C114  1  0.57583000  0.83139000  0.19087000  1.0
  C  C115  1  0.31938000  0.16411000  0.71138000  1.0
  C  C116  1  0.68062000  0.83589000  0.28862000  1.0
  C  C117  1  0.15692000  0.09479000  0.66865000  1.0
  C  C118  1  0.84308000  0.90520000  0.33135000  1.0
  C  C119  1  0.57978000  0.22673000  0.85383000  1.0
  C  C120  1  0.42022000  0.77328000  0.14617000  1.0
  C  C121  1  0.68102000  0.22527000  0.95955000  1.0
  C  C122  1  0.31899000  0.77474000  0.04046000  1.0
  N  N123  1  0.59739000  0.18863000  0.59823000  1.0
  N  N124  1  0.40261000  0.81137000  0.40177000  1.0
  N  N125  1  0.44509000  0.34613000  0.56221000  1.0
  N  N126  1  0.55491000  0.65386000  0.43779000  1.0
  N  N127  1  0.26893000  0.06431000  0.12669000  1.0
  N  N128  1  0.73108000  0.93569000  0.87331000  1.0
  N  N129  1  0.74177000  0.39787000  0.70527000  1.0
  N  N130  1  0.25822000  0.60213000  0.29472000  1.0
  N  N131  1  0.49465000  0.42221000  0.77855000  1.0
  N  N132  1  0.50535000  0.57778000  0.22144000  1.0
  N  N133  1  0.95753000  0.83228000  0.02663000  1.0
  N  N134  1  0.04248000  0.16771000  0.97336000  1.0
  Cl  Cl135  1  0.90878000  0.08107000  0.15766000  1.0
  Cl  Cl136  1  0.09122000  0.91893000  0.84233000  1.0
  O  O137  1  0.64911000  0.28123000  0.81094000  1.0
  O  O138  1  0.35089000  0.71877000  0.18906000  1.0
  O  O139  1  0.34825000  0.21644000  0.65226000  1.0
  O  O140  1  0.65174000  0.78355000  0.34774000  1.0
