# generated using pymatgen
data_Cu3H26C30(N2O5)2
_symmetry_space_group_name_H-M   'P 1'
_cell_length_a   7.78669000
_cell_length_b   10.20780000
_cell_length_c   10.34610000
_cell_angle_alpha   112.40400000
_cell_angle_beta   93.59240000
_cell_angle_gamma   106.46200000
_symmetry_Int_Tables_number   1
_chemical_formula_structural   Cu3H26C30(N2O5)2
_chemical_formula_sum   'Cu3 H26 C30 N4 O10'
_cell_volume   715.48649355
_cell_formula_units_Z   1
loop_
 _symmetry_equiv_pos_site_id
 _symmetry_equiv_pos_as_xyz
  1  'x, y, z'
loop_
 _atom_site_type_symbol
 _atom_site_label
 _atom_site_symmetry_multiplicity
 _atom_site_fract_x
 _atom_site_fract_y
 _atom_site_fract_z
 _atom_site_occupancy
  Cu  Cu0  1  0.49627000  0.49773000  0.49880000  1.0
  Cu  Cu1  1  0.10253000  0.51207000  0.37634000  1.0
  Cu  Cu2  1  0.89643000  0.48739000  0.62382000  1.0
  H  H3  1  0.40531000  0.95233000  0.08599000  1.0
  H  H4  1  0.59525000  0.04628000  0.91516000  1.0
  H  H5  1  0.67956000  0.88070000  0.10590000  1.0
  H  H6  1  0.32065000  0.11771000  0.89685000  1.0
  H  H7  1  0.95563000  0.05789000  0.29545000  1.0
  H  H8  1  0.04396000  0.94180000  0.70807000  1.0
  H  H9  1  0.25460000  0.12501000  0.14976000  1.0
  H  H10  1  0.74339000  0.87200000  0.85125000  1.0
  H  H11  1  0.24194000  0.26791000  0.04391000  1.0
  H  H12  1  0.75918000  0.73415000  0.95638000  1.0
  H  H13  1  0.56960000  0.33391000  0.82258000  1.0
  H  H14  1  0.42971000  0.66555000  0.17693000  1.0
  H  H15  1  0.78743000  0.21712000  0.69226000  1.0
  H  H16  1  0.21313000  0.78338000  0.30778000  1.0
  H  H17  1  0.06037000  0.21574000  0.82810000  1.0
  H  H18  1  0.93953000  0.78453000  0.17221000  1.0
  H  H19  1  0.23086000  0.11935000  0.46139000  1.0
  H  H20  1  0.77087000  0.87987000  0.53850000  1.0
  H  H21  1  0.23678000  0.14747000  0.64338000  1.0
  H  H22  1  0.76725000  0.85442000  0.35737000  1.0
  H  H23  1  0.44377000  0.19913000  0.58185000  1.0
  H  H24  1  0.55898000  0.80314000  0.41730000  1.0
  H  H25  1  0.65229000  0.50863000  0.20253000  1.0
  H  H26  1  0.34726000  0.49321000  0.79694000  1.0
  H  H27  1  0.17166000  0.33497000  0.56953000  1.0
  H  H28  1  0.82607000  0.66312000  0.42890000  1.0
  C  C29  1  0.82687000  0.22244000  0.39017000  1.0
  C  C30  1  0.17200000  0.77701000  0.61110000  1.0
  C  C31  1  0.66702000  0.26211000  0.38071000  1.0
  C  C32  1  0.33501000  0.73997000  0.61736000  1.0
  C  C33  1  0.51628000  0.16811000  0.26804000  1.0
  C  C34  1  0.48518000  0.83236000  0.73120000  1.0
  C  C35  1  0.52287000  0.02765000  0.17076000  1.0
  C  C36  1  0.47799000  0.97161000  0.82989000  1.0
  C  C37  1  0.67784000  0.98907000  0.18133000  1.0
  C  C38  1  0.32258000  0.01006000  0.82003000  1.0
  C  C39  1  0.83162000  0.08679000  0.28908000  1.0
  C  C40  1  0.16819000  0.91290000  0.71283000  1.0
  C  C41  1  0.36347000  0.21068000  0.23925000  1.0
  C  C42  1  0.63579000  0.78751000  0.76021000  1.0
  C  C43  1  0.15050000  0.31553000  0.10858000  1.0
  C  C44  1  0.84873000  0.68396000  0.89146000  1.0
  C  C45  1  0.99284000  0.31992000  0.03506000  1.0
  C  C46  1  0.00646000  0.67992000  0.96492000  1.0
  C  C47  1  0.86662000  0.38372000  0.10879000  1.0
  C  C48  1  0.13296000  0.61683000  0.89125000  1.0
  C  C49  1  0.71341000  0.38760000  0.02788000  1.0
  C  C50  1  0.28648000  0.61332000  0.97189000  1.0
  C  C51  1  0.68633000  0.32750000  0.88056000  1.0
  C  C52  1  0.31325000  0.67252000  0.11916000  1.0
  C  C53  1  0.81025000  0.26323000  0.80829000  1.0
  C  C54  1  0.18951000  0.73691000  0.19172000  1.0
  C  C55  1  0.96126000  0.26077000  0.88347000  1.0
  C  C56  1  0.03847000  0.73940000  0.11669000  1.0
  C  C57  1  0.30102000  0.19489000  0.57207000  1.0
  C  C58  1  0.70113000  0.80597000  0.42738000  1.0
  N  N59  1  0.34506000  0.34275000  0.30520000  1.0
  N  N60  1  0.65205000  0.65440000  0.69510000  1.0
  N  N61  1  0.19927000  0.36837000  0.24805000  1.0
  N  N62  1  0.79631000  0.62825000  0.75206000  1.0
  O  O63  1  0.96777000  0.32377000  0.49563000  1.0
  O  O64  1  0.03029000  0.67489000  0.50809000  1.0
  O  O65  1  0.67178000  0.39245000  0.48388000  1.0
  O  O66  1  0.33683000  0.61722000  0.50882000  1.0
  O  O67  1  0.88006000  0.44219000  0.24668000  1.0
  O  O68  1  0.11900000  0.55793000  0.75319000  1.0
  O  O69  1  0.59715000  0.45148000  0.09898000  1.0
  O  O70  1  0.40278000  0.54955000  0.90033000  1.0
  O  O71  1  0.29746000  0.34397000  0.60831000  1.0
  O  O72  1  0.70199000  0.65603000  0.38928000  1.0
