# generated using pymatgen
data_InH23C37(NO3)2
_symmetry_space_group_name_H-M   'P 1'
_cell_length_a   8.56114000
_cell_length_b   15.74450000
_cell_length_c   27.05940000
_cell_angle_alpha   89.98080000
_cell_angle_beta   89.98580000
_cell_angle_gamma   83.56940000
_symmetry_Int_Tables_number   1
_chemical_formula_structural   InH23C37(NO3)2
_chemical_formula_sum   'In4 H92 C148 N8 O24'
_cell_volume   3624.41145343
_cell_formula_units_Z   4
loop_
 _symmetry_equiv_pos_site_id
 _symmetry_equiv_pos_as_xyz
  1  'x, y, z'
loop_
 _atom_site_type_symbol
 _atom_site_label
 _atom_site_symmetry_multiplicity
 _atom_site_fract_x
 _atom_site_fract_y
 _atom_site_fract_z
 _atom_site_occupancy
  In  In0  1  0.77783000  0.01258000  0.20039000  1.0
  In  In1  1  0.72224000  0.48729000  0.70031000  1.0
  In  In2  1  0.22214000  0.98738000  0.79962000  1.0
  In  In3  1  0.27773000  0.51273000  0.29969000  1.0
  H  H4  1  0.47761000  0.59769000  0.94620000  1.0
  H  H5  1  0.02260000  0.90236000  0.44628000  1.0
  H  H6  1  0.52233000  0.40232000  0.05382000  1.0
  H  H7  1  0.97752000  0.09761000  0.55372000  1.0
  H  H8  1  0.61916000  0.59095000  0.86633000  1.0
  H  H9  1  0.88115000  0.90898000  0.36642000  1.0
  H  H10  1  0.38081000  0.40907000  0.13369000  1.0
  H  H11  1  0.11895000  0.09098000  0.63358000  1.0
  H  H12  1  0.38957000  0.37306000  0.82381000  1.0
  H  H13  1  0.11029000  0.12705000  0.32378000  1.0
  H  H14  1  0.61041000  0.62697000  0.17619000  1.0
  H  H15  1  0.88960000  0.87300000  0.67624000  1.0
  H  H16  1  0.24892000  0.37812000  0.90402000  1.0
  H  H17  1  0.25085000  0.12209000  0.40398000  1.0
  H  H18  1  0.75100000  0.62190000  0.09597000  1.0
  H  H19  1  0.74907000  0.87797000  0.59603000  1.0
  H  H20  1  0.27295000  0.35310000  0.98385000  1.0
  H  H21  1  0.22700000  0.14701000  0.48384000  1.0
  H  H22  1  0.72698000  0.64690000  0.01614000  1.0
  H  H23  1  0.77303000  0.85301000  0.51616000  1.0
  H  H24  1  0.05530000  0.49554000  0.10575000  1.0
  H  H25  1  0.44471000  0.00447000  0.60571000  1.0
  H  H26  1  0.94463000  0.50444000  0.89426000  1.0
  H  H27  1  0.55525000  0.99554000  0.39430000  1.0
  H  H28  1  0.25680000  0.62756000  0.98688000  1.0
  H  H29  1  0.24312000  0.87256000  0.48692000  1.0
  H  H30  1  0.74313000  0.37245000  0.01313000  1.0
  H  H31  1  0.75689000  0.12746000  0.51308000  1.0
  H  H32  1  0.03850000  0.72226000  0.00670000  1.0
  H  H33  1  0.46134000  0.77782000  0.50670000  1.0
  H  H34  1  0.96143000  0.27772000  0.99331000  1.0
  H  H35  1  0.53860000  0.22219000  0.49330000  1.0
  H  H36  1  0.92431000  0.85423000  0.04997000  1.0
  H  H37  1  0.57555000  0.64582000  0.54996000  1.0
  H  H38  1  0.07565000  0.14577000  0.95003000  1.0
  H  H39  1  0.42439000  0.35419000  0.45004000  1.0
  H  H40  1  0.03526000  0.73461000  0.19022000  1.0
  H  H41  1  0.46479000  0.76536000  0.69022000  1.0
  H  H42  1  0.96480000  0.26543000  0.80979000  1.0
  H  H43  1  0.53525000  0.23466000  0.30978000  1.0
  H  H44  1  0.14532000  0.60126000  0.14772000  1.0
  H  H45  1  0.35472000  0.89875000  0.64773000  1.0
  H  H46  1  0.85470000  0.39876000  0.85229000  1.0
  H  H47  1  0.64531000  0.10128000  0.35228000  1.0
  H  H48  1  0.33474000  0.25808000  0.04953000  1.0
  H  H49  1  0.16526000  0.24203000  0.54951000  1.0
  H  H50  1  0.66534000  0.74200000  0.95045000  1.0
  H  H51  1  0.83473000  0.75799000  0.45051000  1.0
  H  H52  1  0.25750000  0.12488000  0.08816000  1.0
  H  H53  1  0.24258000  0.37514000  0.58818000  1.0
  H  H54  1  0.74285000  0.87511000  0.91177000  1.0
  H  H55  1  0.75745000  0.62487000  0.41185000  1.0
  H  H56  1  0.82004000  0.26071000  0.13446000  1.0
  H  H57  1  0.67989000  0.23913000  0.63444000  1.0
  H  H58  1  0.18020000  0.73905000  0.86556000  1.0
  H  H59  1  0.32012000  0.76085000  0.36557000  1.0
  H  H60  1  0.89673000  0.39453000  0.09815000  1.0
  H  H61  1  0.60315000  0.10541000  0.59809000  1.0
  H  H62  1  0.10324000  0.60532000  0.90190000  1.0
  H  H63  1  0.39684000  0.89459000  0.40192000  1.0
  H  H64  1  0.67323000  0.82207000  0.19925000  1.0
  H  H65  1  0.82681000  0.67792000  0.69912000  1.0
  H  H66  1  0.32673000  0.17794000  0.80079000  1.0
  H  H67  1  0.17314000  0.32210000  0.30086000  1.0
  H  H68  1  0.43682000  0.74515000  0.21693000  1.0
  H  H69  1  0.06310000  0.75482000  0.71691000  1.0
  H  H70  1  0.56310000  0.25486000  0.78308000  1.0
  H  H71  1  0.93684000  0.24520000  0.28307000  1.0
  H  H72  1  0.17843000  0.83505000  0.23383000  1.0
  H  H73  1  0.32141000  0.66492000  0.73389000  1.0
  H  H74  1  0.82151000  0.16497000  0.76619000  1.0
  H  H75  1  0.67853000  0.33510000  0.26610000  1.0
  H  H76  1  0.16938000  0.99207000  0.23482000  1.0
  H  H77  1  0.33049000  0.50790000  0.73486000  1.0
  H  H78  1  0.83055000  0.00796000  0.76519000  1.0
  H  H79  1  0.66944000  0.49212000  0.26515000  1.0
  H  H80  1  0.16904000  0.11967000  0.22156000  1.0
  H  H81  1  0.33092000  0.38031000  0.72160000  1.0
  H  H82  1  0.83094000  0.88037000  0.77845000  1.0
  H  H83  1  0.66904000  0.61973000  0.27840000  1.0
  H  H84  1  0.19236000  0.27540000  0.21161000  1.0
  H  H85  1  0.30765000  0.22459000  0.71167000  1.0
  H  H86  1  0.80766000  0.72463000  0.78837000  1.0
  H  H87  1  0.69232000  0.77545000  0.28833000  1.0
  H  H88  1  0.45838000  0.32520000  0.20616000  1.0
  H  H89  1  0.04168000  0.17478000  0.70616000  1.0
  H  H90  1  0.54164000  0.67481000  0.79377000  1.0
  H  H91  1  0.95831000  0.82524000  0.29386000  1.0
  H  H92  1  0.69570000  0.21308000  0.20516000  1.0
  H  H93  1  0.80435000  0.28689000  0.70506000  1.0
  H  H94  1  0.30430000  0.78690000  0.79474000  1.0
  H  H95  1  0.19562000  0.71311000  0.29496000  1.0
  C  C96  1  0.45630000  0.54884000  0.91932000  1.0
  C  C97  1  0.04382000  0.95122000  0.41936000  1.0
  C  C98  1  0.54364000  0.45117000  0.08069000  1.0
  C  C99  1  0.95625000  0.04877000  0.58063000  1.0
  C  C100  1  0.53667000  0.54508000  0.87467000  1.0
  C  C101  1  0.96351000  0.95493000  0.37473000  1.0
  C  C102  1  0.46331000  0.45494000  0.12534000  1.0
  C  C103  1  0.03655000  0.04506000  0.62527000  1.0
  C  C104  1  0.51489000  0.48102000  0.84015000  1.0
  C  C105  1  0.98519000  0.01900000  0.34018000  1.0
  C  C106  1  0.48510000  0.51900000  0.15985000  1.0
  C  C107  1  0.01480000  0.98101000  0.65983000  1.0
  C  C108  1  0.40947000  0.42154000  0.85110000  1.0
  C  C109  1  0.09046000  0.07856000  0.35110000  1.0
  C  C110  1  0.59050000  0.57848000  0.14890000  1.0
  C  C111  1  0.90948000  0.92148000  0.64892000  1.0
  C  C112  1  0.33124000  0.42449000  0.89619000  1.0
  C  C113  1  0.16865000  0.07566000  0.39619000  1.0
  C  C114  1  0.66870000  0.57553000  0.10380000  1.0
  C  C115  1  0.83131000  0.92438000  0.60382000  1.0
  C  C116  1  0.35458000  0.48779000  0.93139000  1.0
  C  C117  1  0.14540000  0.01233000  0.43141000  1.0
  C  C118  1  0.64536000  0.51222000  0.06862000  1.0
  C  C119  1  0.85461000  0.98769000  0.56860000  1.0
  C  C120  1  0.27487000  0.49005000  0.97982000  1.0
  C  C121  1  0.22509000  0.01007000  0.47983000  1.0
  C  C122  1  0.72506000  0.50996000  0.02018000  1.0
  C  C123  1  0.77492000  0.98995000  0.52017000  1.0
  C  C124  1  0.23998000  0.41405000  0.00225000  1.0
  C  C125  1  0.25998000  0.08605000  0.50223000  1.0
  C  C126  1  0.75995000  0.58595000  0.99775000  1.0
  C  C127  1  0.74003000  0.91397000  0.49777000  1.0
  C  C128  1  0.16138000  0.41521000  0.04767000  1.0
  C  C129  1  0.33857000  0.08484000  0.54764000  1.0
  C  C130  1  0.83856000  0.58478000  0.95234000  1.0
  C  C131  1  0.66142000  0.91517000  0.45237000  1.0
  C  C132  1  0.11776000  0.49395000  0.07061000  1.0
  C  C133  1  0.38221000  0.00609000  0.57059000  1.0
  C  C134  1  0.88217000  0.50604000  0.92940000  1.0
  C  C135  1  0.61778000  0.99392000  0.42942000  1.0
  C  C136  1  0.15193000  0.57070000  0.04927000  1.0
  C  C137  1  0.34803000  0.92936000  0.54926000  1.0
  C  C138  1  0.84800000  0.42929000  0.95074000  1.0
  C  C139  1  0.65196000  0.07066000  0.45074000  1.0
  C  C140  1  0.23123000  0.56796000  0.00394000  1.0
  C  C141  1  0.26871000  0.93214000  0.50396000  1.0
  C  C142  1  0.76869000  0.43204000  0.99606000  1.0
  C  C143  1  0.73129000  0.06787000  0.49604000  1.0
  C  C144  1  0.09836000  0.65207000  0.07418000  1.0
  C  C145  1  0.40162000  0.84798000  0.57419000  1.0
  C  C146  1  0.90160000  0.34793000  0.92582000  1.0
  C  C147  1  0.59837000  0.15203000  0.42582000  1.0
  C  C148  1  0.03932000  0.72480000  0.04696000  1.0
  C  C149  1  0.46060000  0.77526000  0.54696000  1.0
  C  C150  1  0.96063000  0.27520000  0.95305000  1.0
  C  C151  1  0.53937000  0.22475000  0.45304000  1.0
  C  C152  1  0.97475000  0.79868000  0.07090000  1.0
  C  C153  1  0.52517000  0.70136000  0.57090000  1.0
  C  C154  1  0.02522000  0.20132000  0.92910000  1.0
  C  C155  1  0.47479000  0.29865000  0.42910000  1.0
  C  C156  1  0.97228000  0.80206000  0.12266000  1.0
  C  C157  1  0.52769000  0.69795000  0.62266000  1.0
  C  C158  1  0.02772000  0.19795000  0.87734000  1.0
  C  C159  1  0.47229000  0.30207000  0.37734000  1.0
  C  C160  1  0.03659000  0.73100000  0.15003000  1.0
  C  C161  1  0.46343000  0.76899000  0.65003000  1.0
  C  C162  1  0.96343000  0.26902000  0.84998000  1.0
  C  C163  1  0.53659000  0.23102000  0.34997000  1.0
  C  C164  1  0.09752000  0.65659000  0.12612000  1.0
  C  C165  1  0.40250000  0.84343000  0.62612000  1.0
  C  C166  1  0.90249000  0.34342000  0.87389000  1.0
  C  C167  1  0.59752000  0.15659000  0.37389000  1.0
  C  C168  1  0.12096000  0.33585000  0.07092000  1.0
  C  C169  1  0.37900000  0.16418000  0.57088000  1.0
  C  C170  1  0.87904000  0.66412000  0.92908000  1.0
  C  C171  1  0.62100000  0.83583000  0.42913000  1.0
  C  C172  1  0.22136000  0.25891000  0.06806000  1.0
  C  C173  1  0.27864000  0.24114000  0.56803000  1.0
  C  C174  1  0.77874000  0.74109000  0.93192000  1.0
  C  C175  1  0.72137000  0.75887000  0.43198000  1.0
  C  C176  1  0.17900000  0.18434000  0.08945000  1.0
  C  C177  1  0.32102000  0.31566000  0.58944000  1.0
  C  C178  1  0.82126000  0.81561000  0.91052000  1.0
  C  C179  1  0.67899000  0.68435000  0.41058000  1.0
  C  C180  1  0.03391000  0.18464000  0.11345000  1.0
  C  C181  1  0.46610000  0.31528000  0.61344000  1.0
  C  C182  1  0.96639000  0.81523000  0.88652000  1.0
  C  C183  1  0.53393000  0.68471000  0.38657000  1.0
  C  C184  1  0.93346000  0.26111000  0.11634000  1.0
  C  C185  1  0.56650000  0.23879000  0.61632000  1.0
  C  C186  1  0.06674000  0.73872000  0.88367000  1.0
  C  C187  1  0.43351000  0.76120000  0.38369000  1.0
  C  C188  1  0.97701000  0.33586000  0.09595000  1.0
  C  C189  1  0.52292000  0.16410000  0.59591000  1.0
  C  C190  1  0.02303000  0.66402000  0.90406000  1.0
  C  C191  1  0.47708000  0.83590000  0.40410000  1.0
  C  C192  1  0.60168000  0.47796000  0.79261000  1.0
  C  C193  1  0.89851000  0.02201000  0.29264000  1.0
  C  C194  1  0.39832000  0.52208000  0.20740000  1.0
  C  C195  1  0.10149000  0.97799000  0.70737000  1.0
  C  C196  1  0.89736000  0.87882000  0.14857000  1.0
  C  C197  1  0.60258000  0.62115000  0.64857000  1.0
  C  C198  1  0.10260000  0.12118000  0.85143000  1.0
  C  C199  1  0.39739000  0.37886000  0.35143000  1.0
  C  C200  1  0.98901000  0.10525000  0.13787000  1.0
  C  C201  1  0.51103000  0.39464000  0.63785000  1.0
  C  C202  1  0.01139000  0.89456000  0.86208000  1.0
  C  C203  1  0.48901000  0.60536000  0.36217000  1.0
  C  C204  1  0.55915000  0.85689000  0.20768000  1.0
  C  C205  1  0.94084000  0.64309000  0.70759000  1.0
  C  C206  1  0.44080000  0.14312000  0.79234000  1.0
  C  C207  1  0.05910000  0.35693000  0.29240000  1.0
  C  C208  1  0.42786000  0.81480000  0.21748000  1.0
  C  C209  1  0.07207000  0.68517000  0.71744000  1.0
  C  C210  1  0.57207000  0.18521000  0.78254000  1.0
  C  C211  1  0.92787000  0.31485000  0.28255000  1.0
  C  C212  1  0.28605000  0.86422000  0.22761000  1.0
  C  C213  1  0.21384000  0.63575000  0.72762000  1.0
  C  C214  1  0.71389000  0.13580000  0.77241000  1.0
  C  C215  1  0.78610000  0.36427000  0.27237000  1.0
  C  C216  1  0.27992000  0.95290000  0.22797000  1.0
  C  C217  1  0.21998000  0.54707000  0.72798000  1.0
  C  C218  1  0.72001000  0.04711000  0.77204000  1.0
  C  C219  1  0.77996000  0.45296000  0.27203000  1.0
  C  C220  1  0.41687000  0.99065000  0.21818000  1.0
  C  C221  1  0.08309000  0.50933000  0.71813000  1.0
  C  C222  1  0.58307000  0.00936000  0.78183000  1.0
  C  C223  1  0.91685000  0.49069000  0.28188000  1.0
  C  C224  1  0.42024000  0.08454000  0.21680000  1.0
  C  C225  1  0.07975000  0.41544000  0.71676000  1.0
  C  C226  1  0.57973000  0.91547000  0.78317000  1.0
  C  C227  1  0.92021000  0.58458000  0.28324000  1.0
  C  C228  1  0.28372000  0.14255000  0.21803000  1.0
  C  C229  1  0.21626000  0.35743000  0.71805000  1.0
  C  C230  1  0.71626000  0.85747000  0.78195000  1.0
  C  C231  1  0.78371000  0.64260000  0.28196000  1.0
  C  C232  1  0.29716000  0.22940000  0.21293000  1.0
  C  C233  1  0.20285000  0.27059000  0.71296000  1.0
  C  C234  1  0.70285000  0.77062000  0.78703000  1.0
  C  C235  1  0.79712000  0.72944000  0.28705000  1.0
  C  C236  1  0.44551000  0.25742000  0.20895000  1.0
  C  C237  1  0.05452000  0.24256000  0.70893000  1.0
  C  C238  1  0.55450000  0.74259000  0.79098000  1.0
  C  C239  1  0.94545000  0.75746000  0.29108000  1.0
  C  C240  1  0.57617000  0.19648000  0.20888000  1.0
  C  C241  1  0.92387000  0.30349000  0.70882000  1.0
  C  C242  1  0.42383000  0.80352000  0.79104000  1.0
  C  C243  1  0.07610000  0.69652000  0.29120000  1.0
  N  N244  1  0.56296000  0.11246000  0.21215000  1.0
  N  N245  1  0.93706000  0.38751000  0.71207000  1.0
  N  N246  1  0.43701000  0.88754000  0.78780000  1.0
  N  N247  1  0.06290000  0.61251000  0.28795000  1.0
  N  N248  1  0.55350000  0.94225000  0.20824000  1.0
  N  N249  1  0.94650000  0.55773000  0.70814000  1.0
  N  N250  1  0.44644000  0.05776000  0.79179000  1.0
  N  N251  1  0.05345000  0.44229000  0.29186000  1.0
  O  O252  1  0.71077000  0.52567000  0.78587000  1.0
  O  O253  1  0.78963000  0.97415000  0.28591000  1.0
  O  O254  1  0.28925000  0.47435000  0.21415000  1.0
  O  O255  1  0.21048000  0.02578000  0.71409000  1.0
  O  O256  1  0.56346000  0.42859000  0.75764000  1.0
  O  O257  1  0.93654000  0.07145000  0.25766000  1.0
  O  O258  1  0.43651000  0.57147000  0.24236000  1.0
  O  O259  1  0.06334000  0.92861000  0.74236000  1.0
  O  O260  1  0.80085000  0.93290000  0.12644000  1.0
  O  O261  1  0.69907000  0.56709000  0.62641000  1.0
  O  O262  1  0.19903000  0.06707000  0.87357000  1.0
  O  O263  1  0.30088000  0.43291000  0.37358000  1.0
  O  O264  1  0.92764000  0.88797000  0.19512000  1.0
  O  O265  1  0.57233000  0.61193000  0.69511000  1.0
  O  O266  1  0.07239000  0.11205000  0.80488000  1.0
  O  O267  1  0.42764000  0.38808000  0.30489000  1.0
  O  O268  1  0.08582000  0.04083000  0.14303000  1.0
  O  O269  1  0.41426000  0.45907000  0.64299000  1.0
  O  O270  1  0.91459000  0.95896000  0.85681000  1.0
  O  O271  1  0.58579000  0.54093000  0.35703000  1.0
  O  O272  1  0.84409000  0.11294000  0.15413000  1.0
  O  O273  1  0.65593000  0.38691000  0.65411000  1.0
  O  O274  1  0.15641000  0.88688000  0.84590000  1.0
  O  O275  1  0.34411000  0.61308000  0.34590000  1.0
