# generated using pymatgen
data_KH2C2(N3O)2
_symmetry_space_group_name_H-M   'P 1'
_cell_length_a   4.88384000
_cell_length_b   8.86360000
_cell_length_c   14.44280000
_cell_angle_alpha   74.46800000
_cell_angle_beta   89.99980000
_cell_angle_gamma   89.99970000
_symmetry_Int_Tables_number   1
_chemical_formula_structural   KH2C2(N3O)2
_chemical_formula_sum   'K4 H8 C8 N24 O8'
_cell_volume   602.37390575
_cell_formula_units_Z   4
loop_
 _symmetry_equiv_pos_site_id
 _symmetry_equiv_pos_as_xyz
  1  'x, y, z'
loop_
 _atom_site_type_symbol
 _atom_site_label
 _atom_site_symmetry_multiplicity
 _atom_site_fract_x
 _atom_site_fract_y
 _atom_site_fract_z
 _atom_site_occupancy
  K  K0  1  0.78607000  0.45320000  0.38060000  1.0
  K  K1  1  0.28608000  0.04678000  0.11940000  1.0
  K  K2  1  0.21393000  0.54680000  0.61940000  1.0
  K  K3  1  0.71392000  0.95322000  0.88060000  1.0
  H  H4  1  0.29900000  0.37549000  0.25357000  1.0
  H  H5  1  0.79900000  0.12451000  0.24643000  1.0
  H  H6  1  0.70100000  0.62451000  0.74643000  1.0
  H  H7  1  0.20100000  0.87549000  0.75357000  1.0
  H  H8  1  0.30523000  0.57266000  0.18714000  1.0
  H  H9  1  0.80523000  0.92734000  0.31286000  1.0
  H  H10  1  0.69477000  0.42734000  0.81286000  1.0
  H  H11  1  0.19477000  0.07266000  0.68714000  1.0
  C  C12  1  0.90990000  0.46331000  0.03885000  1.0
  C  C13  1  0.40990000  0.03669000  0.46115000  1.0
  C  C14  1  0.09010000  0.53669000  0.96115000  1.0
  C  C15  1  0.59010000  0.96331000  0.53885000  1.0
  C  C16  1  0.59274000  0.43329000  0.15048000  1.0
  C  C17  1  0.09274000  0.06671000  0.34953000  1.0
  C  C18  1  0.40726000  0.56671000  0.84952000  1.0
  C  C19  1  0.90726000  0.93329000  0.65048000  1.0
  N  N20  1  0.66691000  0.70390000  0.05648000  1.0
  N  N21  1  0.16691000  0.79610000  0.44352000  1.0
  N  N22  1  0.33309000  0.29611000  0.94352000  1.0
  N  N23  1  0.83309000  0.20389000  0.55648000  1.0
  N  N24  1  0.72621000  0.54482000  0.08087000  1.0
  N  N25  1  0.22621000  0.95518000  0.41913000  1.0
  N  N26  1  0.27379000  0.45517000  0.91913000  1.0
  N  N27  1  0.77379000  0.04482000  0.58087000  1.0
  N  N28  1  0.81685000  0.77605000  0.10922000  1.0
  N  N29  1  0.31684000  0.72395000  0.39078000  1.0
  N  N30  1  0.18316000  0.22395000  0.89078000  1.0
  N  N31  1  0.68316000  0.27605000  0.60922000  1.0
  N  N32  1  0.88993000  0.31186000  0.08134000  1.0
  N  N33  1  0.38993000  0.18814000  0.41866000  1.0
  N  N34  1  0.11007000  0.68814000  0.91866000  1.0
  N  N35  1  0.61007000  0.81186000  0.58134000  1.0
  N  N36  1  0.68867000  0.29166000  0.15130000  1.0
  N  N37  1  0.18866000  0.20834000  0.34870000  1.0
  N  N38  1  0.31133000  0.70835000  0.84870000  1.0
  N  N39  1  0.81134000  0.79166000  0.65130000  1.0
  N  N40  1  0.40772000  0.46879000  0.21026000  1.0
  N  N41  1  0.90772000  0.03121000  0.28974000  1.0
  N  N42  1  0.59228000  0.53121000  0.78974000  1.0
  N  N43  1  0.09228000  0.96879000  0.71026000  1.0
  O  O44  1  0.98264000  0.70852000  0.17455000  1.0
  O  O45  1  0.48264000  0.79148000  0.32545000  1.0
  O  O46  1  0.01735000  0.29148000  0.82546000  1.0
  O  O47  1  0.51736000  0.20852000  0.67455000  1.0
  O  O48  1  0.78210000  0.92383000  0.08819000  1.0
  O  O49  1  0.28209000  0.57618000  0.41181000  1.0
  O  O50  1  0.21791000  0.07618000  0.91181000  1.0
  O  O51  1  0.71791000  0.42382000  0.58819000  1.0
