# generated using pymatgen
data_CoH16C16(NO2)2
_symmetry_space_group_name_H-M   'P 1'
_cell_length_a   4.86255000
_cell_length_b   9.47081000
_cell_length_c   15.36690000
_cell_angle_alpha   102.51100000
_cell_angle_beta   89.98710000
_cell_angle_gamma   89.99610000
_symmetry_Int_Tables_number   1
_chemical_formula_structural   CoH16C16(NO2)2
_chemical_formula_sum   'Co2 H32 C32 N4 O8'
_cell_volume   690.87658707
_cell_formula_units_Z   2
loop_
 _symmetry_equiv_pos_site_id
 _symmetry_equiv_pos_as_xyz
  1  'x, y, z'
loop_
 _atom_site_type_symbol
 _atom_site_label
 _atom_site_symmetry_multiplicity
 _atom_site_fract_x
 _atom_site_fract_y
 _atom_site_fract_z
 _atom_site_occupancy
  Co  Co0  1  0.99999000  0.50000000  0.50000000  1.0
  Co  Co1  1  0.49999000  0.00000000  0.50000000  1.0
  H  H2  1  0.71824000  0.82537000  0.63107000  1.0
  H  H3  1  0.78238000  0.32562000  0.63027000  1.0
  H  H4  1  0.28175000  0.17463000  0.36893000  1.0
  H  H5  1  0.21760000  0.67438000  0.36973000  1.0
  H  H6  1  0.24581000  0.59488000  0.71779000  1.0
  H  H7  1  0.25425000  0.09628000  0.71773000  1.0
  H  H8  1  0.75417000  0.40511000  0.28221000  1.0
  H  H9  1  0.74572000  0.90372000  0.28227000  1.0
  H  H10  1  0.34628000  0.62339000  0.87820000  1.0
  H  H11  1  0.15539000  0.12587000  0.87840000  1.0
  H  H12  1  0.65371000  0.37661000  0.12180000  1.0
  H  H13  1  0.84461000  0.87414000  0.12160000  1.0
  H  H14  1  0.08976000  0.80483000  0.99097000  1.0
  H  H15  1  0.41296000  0.30785000  0.99046000  1.0
  H  H16  1  0.91025000  0.19517000  0.00903000  1.0
  H  H17  1  0.58709000  0.69215000  0.00955000  1.0
  H  H18  1  0.72802000  0.95720000  0.94094000  1.0
  H  H19  1  0.77682000  0.45847000  0.93962000  1.0
  H  H20  1  0.27199000  0.04280000  0.05907000  1.0
  H  H21  1  0.22322000  0.54151000  0.06038000  1.0
  H  H22  1  0.62847000  0.92889000  0.78006000  1.0
  H  H23  1  0.87397000  0.42896000  0.77851000  1.0
  H  H24  1  0.37154000  0.07111000  0.21993000  1.0
  H  H25  1  0.12603000  0.57103000  0.22149000  1.0
  H  H26  1  0.57096000  0.61134000  0.57208000  1.0
  H  H27  1  0.92873000  0.11186000  0.57102000  1.0
  H  H28  1  0.42903000  0.38867000  0.42792000  1.0
  H  H29  1  0.07126000  0.88814000  0.42898000  1.0
  H  H30  1  0.74051000  0.53955000  0.64424000  1.0
  H  H31  1  0.76264000  0.04031000  0.64384000  1.0
  H  H32  1  0.25948000  0.46045000  0.35576000  1.0
  H  H33  1  0.23737000  0.95969000  0.35616000  1.0
  C  C34  1  0.13271000  0.77549000  0.58982000  1.0
  C  C35  1  0.36786000  0.27585000  0.58928000  1.0
  C  C36  1  0.86728000  0.22451000  0.41018000  1.0
  C  C37  1  0.63213000  0.72413000  0.41071000  1.0
  C  C38  1  0.87409000  0.74594000  0.63981000  1.0
  C  C39  1  0.62645000  0.24635000  0.63917000  1.0
  C  C40  1  0.12591000  0.25407000  0.36019000  1.0
  C  C41  1  0.37354000  0.75365000  0.36083000  1.0
  C  C42  1  0.93344000  0.76198000  0.73802000  1.0
  C  C43  1  0.56761000  0.26271000  0.73736000  1.0
  C  C44  1  0.06657000  0.23803000  0.26198000  1.0
  C  C45  1  0.43238000  0.73729000  0.26264000  1.0
  C  C46  1  0.13472000  0.67586000  0.76661000  1.0
  C  C47  1  0.36623000  0.17714000  0.76632000  1.0
  C  C48  1  0.86530000  0.32415000  0.23339000  1.0
  C  C49  1  0.63374000  0.82287000  0.23368000  1.0
  C  C50  1  0.18936000  0.69127000  0.85726000  1.0
  C  C51  1  0.31238000  0.19333000  0.85707000  1.0
  C  C52  1  0.81064000  0.30874000  0.14274000  1.0
  C  C53  1  0.68762000  0.80666000  0.14293000  1.0
  C  C54  1  0.04526000  0.79305000  0.92026000  1.0
  C  C55  1  0.45731000  0.29537000  0.91968000  1.0
  C  C56  1  0.95478000  0.20696000  0.07974000  1.0
  C  C57  1  0.54272000  0.70462000  0.08032000  1.0
  C  C58  1  0.84412000  0.87867000  0.89223000  1.0
  C  C59  1  0.65920000  0.38017000  0.89124000  1.0
  C  C60  1  0.15589000  0.12134000  0.10777000  1.0
  C  C61  1  0.34079000  0.61982000  0.10876000  1.0
  C  C62  1  0.78832000  0.86304000  0.80148000  1.0
  C  C63  1  0.71410000  0.36369000  0.80039000  1.0
  C  C64  1  0.21171000  0.13697000  0.19853000  1.0
  C  C65  1  0.28592000  0.63630000  0.19961000  1.0
  N  N66  1  0.76504000  0.59965000  0.59694000  1.0
  N  N67  1  0.73557000  0.09996000  0.59643000  1.0
  N  N68  1  0.23496000  0.40035000  0.40306000  1.0
  N  N69  1  0.26443000  0.90004000  0.40357000  1.0
  O  O70  1  0.22983000  0.66606000  0.53210000  1.0
  O  O71  1  0.27092000  0.16651000  0.53150000  1.0
  O  O72  1  0.77016000  0.33394000  0.46790000  1.0
  O  O73  1  0.72907000  0.83349000  0.46850000  1.0
  O  O74  1  0.24145000  0.89837000  0.60664000  1.0
  O  O75  1  0.25862000  0.39859000  0.60633000  1.0
  O  O76  1  0.75854000  0.10163000  0.39336000  1.0
  O  O77  1  0.74136000  0.60141000  0.39367000  1.0
