# generated using pymatgen
data_MgH8C14O3
_symmetry_space_group_name_H-M   'P 1'
_cell_length_a   6.86237000
_cell_length_b   35.80860000
_cell_length_c   35.80720000
_cell_angle_alpha   119.59300000
_cell_angle_beta   93.67360000
_cell_angle_gamma   93.65210000
_symmetry_Int_Tables_number   1
_chemical_formula_structural   MgH8C14O3
_chemical_formula_sum   'Mg6 H48 C84 O18'
_cell_volume   7589.24634446
_cell_formula_units_Z   6
loop_
 _symmetry_equiv_pos_site_id
 _symmetry_equiv_pos_as_xyz
  1  'x, y, z'
loop_
 _atom_site_type_symbol
 _atom_site_label
 _atom_site_symmetry_multiplicity
 _atom_site_fract_x
 _atom_site_fract_y
 _atom_site_fract_z
 _atom_site_occupancy
  Mg  Mg0  1  0.59201000  0.69379000  0.32946000  1.0
  Mg  Mg1  1  0.31284000  0.30525000  0.66937000  1.0
  Mg  Mg2  1  0.26267000  0.67051000  0.36437000  1.0
  Mg  Mg3  1  0.64338000  0.33064000  0.63589000  1.0
  Mg  Mg4  1  0.89827000  0.63563000  0.30622000  1.0
  Mg  Mg5  1  0.00759000  0.36413000  0.69476000  1.0
  H  H6  1  0.12729000  0.57306000  0.18480000  1.0
  H  H7  1  0.38682000  0.52898000  0.08150000  1.0
  H  H8  1  0.99430000  0.54877000  0.11984000  1.0
  H  H9  1  0.53489000  0.50703000  0.00361000  1.0
  H  H10  1  0.74386000  0.54510000  0.07287000  1.0
  H  H11  1  0.45483000  0.44531000  0.93313000  1.0
  H  H12  1  0.82651000  0.43347000  0.88668000  1.0
  H  H13  1  0.79134000  0.41170000  0.81423000  1.0
  H  H14  1  0.07412000  0.37280000  0.79907000  1.0
  H  H15  1  0.26204000  0.40799000  0.87150000  1.0
  H  H16  1  0.88866000  0.39084000  0.91031000  1.0
  H  H17  1  0.19687000  0.36299000  0.91906000  1.0
  H  H18  1  0.40668000  0.40081000  0.99025000  1.0
  H  H19  1  0.30308000  0.46502000  0.05135000  1.0
  H  H20  1  0.66549000  0.57208000  0.12894000  1.0
  H  H21  1  0.84037000  0.61870000  0.20207000  1.0
  H  H22  1  0.94223000  0.81518000  0.38829000  1.0
  H  H23  1  0.30524000  0.91850000  0.44745000  1.0
  H  H24  1  0.87437000  0.88020000  0.42894000  1.0
  H  H25  1  0.53107000  0.99640000  0.50337000  1.0
  H  H26  1  0.67085000  0.92716000  0.47219000  1.0
  H  H27  1  0.52193000  0.06697000  0.51222000  1.0
  H  H28  1  0.94023000  0.11337000  0.54680000  1.0
  H  H29  1  0.97739000  0.18587000  0.59750000  1.0
  H  H30  1  0.27513000  0.20088000  0.57369000  1.0
  H  H31  1  0.39093000  0.12851000  0.53650000  1.0
  H  H32  1  0.97800000  0.08971000  0.48050000  1.0
  H  H33  1  0.27741000  0.08098000  0.44390000  1.0
  H  H34  1  0.41612000  0.00981000  0.41052000  1.0
  H  H35  1  0.25157000  0.94870000  0.41364000  1.0
  H  H36  1  0.53638000  0.87107000  0.44309000  1.0
  H  H37  1  0.63819000  0.79796000  0.41659000  1.0
  H  H38  1  0.55425000  0.61176000  0.42693000  1.0
  H  H39  1  0.85716000  0.55245000  0.47101000  1.0
  H  H40  1  0.44497000  0.57110000  0.45124000  1.0
  H  H41  1  0.02766000  0.49656000  0.49298000  1.0
  H  H42  1  0.19831000  0.52775000  0.45490000  1.0
  H  H43  1  0.00958000  0.48781000  0.55471000  1.0
  H  H44  1  0.39317000  0.45318000  0.56653000  1.0
  H  H45  1  0.37969000  0.40255000  0.58837000  1.0
  H  H46  1  0.70124000  0.42626000  0.62714000  1.0
  H  H47  1  0.85405000  0.46349000  0.59197000  1.0
  H  H48  1  0.49749000  0.51946000  0.60917000  1.0
  H  H49  1  0.83365000  0.55606000  0.63704000  1.0
  H  H50  1  0.00556000  0.58939000  0.59919000  1.0
  H  H51  1  0.83781000  0.58631000  0.53500000  1.0
  H  H52  1  0.09314000  0.55674000  0.42793000  1.0
  H  H53  1  0.22164000  0.58327000  0.38135000  1.0
  C  C54  1  0.58505000  0.62374000  0.23516000  1.0
  C  C55  1  0.37856000  0.61021000  0.22923000  1.0
  C  C56  1  0.28294000  0.58329000  0.18732000  1.0
  C  C57  1  0.38064000  0.56915000  0.15029000  1.0
  C  C58  1  0.28597000  0.54155000  0.10628000  1.0
  C  C59  1  0.08957000  0.53241000  0.09439000  1.0
  C  C60  1  0.98055000  0.50584000  0.05174000  1.0
  C  C61  1  0.04373000  0.46842000  0.01578000  1.0
  C  C62  1  0.92321000  0.44678000  0.97463000  1.0
  C  C63  1  0.73962000  0.46228000  0.96977000  1.0
  C  C64  1  0.67703000  0.49606000  0.00641000  1.0
  C  C65  1  0.79512000  0.51730000  0.04588000  1.0
  C  C66  1  0.61176000  0.44466000  0.92937000  1.0
  C  C67  1  0.66924000  0.43068000  0.88957000  1.0
  C  C68  1  0.54460000  0.41237000  0.84879000  1.0
  C  C69  1  0.63370000  0.40315000  0.81165000  1.0
  C  C70  1  0.53020000  0.38264000  0.77020000  1.0
  C  C71  1  0.32327000  0.37054000  0.76496000  1.0
  C  C72  1  0.23223000  0.38158000  0.80295000  1.0
  C  C73  1  0.33857000  0.40146000  0.84342000  1.0
  C  C74  1  0.64433000  0.37404000  0.73386000  1.0
  C  C75  1  0.98390000  0.40855000  0.94064000  1.0
  C  C76  1  0.15530000  0.39258000  0.94575000  1.0
  C  C77  1  0.27283000  0.41371000  0.98587000  1.0
  C  C78  1  0.21629000  0.45030000  0.02000000  1.0
  C  C79  1  0.58419000  0.58259000  0.15699000  1.0
  C  C80  1  0.68324000  0.60879000  0.19775000  1.0
  C  C81  1  0.26001000  0.62275000  0.26581000  1.0
  C  C82  1  0.34984000  0.76486000  0.38857000  1.0
  C  C83  1  0.14920000  0.77078000  0.38102000  1.0
  C  C84  1  0.09536000  0.81268000  0.39601000  1.0
  C  C85  1  0.23006000  0.84972000  0.41887000  1.0
  C  C86  1  0.17953000  0.89374000  0.43528000  1.0
  C  C87  1  0.99507000  0.90566000  0.43804000  1.0
  C  C88  1  0.92867000  0.94830000  0.45409000  1.0
  C  C89  1  0.02778000  0.98424000  0.45260000  1.0
  C  C90  1  0.94833000  0.02539000  0.47209000  1.0
  C  C91  1  0.76971000  0.03025000  0.49247000  1.0
  C  C92  1  0.67034000  0.99361000  0.48959000  1.0
  C  C93  1  0.74904000  0.95415000  0.47137000  1.0
  C  C94  1  0.68264000  0.07070000  0.51531000  1.0
  C  C95  1  0.78006000  0.11048000  0.54114000  1.0
  C  C96  1  0.69620000  0.15125000  0.56362000  1.0
  C  C97  1  0.82230000  0.18842000  0.59152000  1.0
  C  C98  1  0.76001000  0.22984000  0.61245000  1.0
  C  C99  1  0.55825000  0.23505000  0.60558000  1.0
  C  C100  1  0.42937000  0.19704000  0.57863000  1.0
  C  C101  1  0.49551000  0.15660000  0.55807000  1.0
  C  C102  1  0.91040000  0.26618000  0.64020000  1.0
  C  C103  1  0.04292000  0.05939000  0.46787000  1.0
  C  C104  1  0.20916000  0.05429000  0.44679000  1.0
  C  C105  1  0.28666000  0.01419000  0.42780000  1.0
  C  C106  1  0.19608000  0.98005000  0.43026000  1.0
  C  C107  1  0.42701000  0.84303000  0.42556000  1.0
  C  C108  1  0.48535000  0.80227000  0.41100000  1.0
  C  C109  1  0.99417000  0.73417000  0.35697000  1.0
  C  C110  1  0.96145000  0.61135000  0.37629000  1.0
  C  C111  1  0.76848000  0.61898000  0.38981000  1.0
  C  C112  1  0.69963000  0.60400000  0.41671000  1.0
  C  C113  1  0.81123000  0.58107000  0.43084000  1.0
  C  C114  1  0.74383000  0.56467000  0.45841000  1.0
  C  C115  1  0.55658000  0.56195000  0.46757000  1.0
  C  C116  1  0.47430000  0.54589000  0.49416000  1.0
  C  C117  1  0.57500000  0.54735000  0.53157000  1.0
  C  C118  1  0.47623000  0.52786000  0.55324000  1.0
  C  C119  1  0.27723000  0.50749000  0.53773000  1.0
  C  C120  1  0.18073000  0.51034000  0.50394000  1.0
  C  C121  1  0.27745000  0.52856000  0.48270000  1.0
  C  C122  1  0.16717000  0.48470000  0.55535000  1.0
  C  C123  1  0.23869000  0.45887000  0.56931000  1.0
  C  C124  1  0.13229000  0.43640000  0.58761000  1.0
  C  C125  1  0.23056000  0.40851000  0.59689000  1.0
  C  C126  1  0.14750000  0.38757000  0.61739000  1.0
  C  C127  1  0.95259000  0.39442000  0.62945000  1.0
  C  C128  1  0.85054000  0.42134000  0.61836000  1.0
  C  C129  1  0.93713000  0.44192000  0.59849000  1.0
  C  C130  1  0.27025000  0.35984000  0.62600000  1.0
  C  C131  1  0.57504000  0.53208000  0.59147000  1.0
  C  C132  1  0.76242000  0.55315000  0.60745000  1.0
  C  C133  1  0.85878000  0.57211000  0.58630000  1.0
  C  C134  1  0.76568000  0.56968000  0.54971000  1.0
  C  C135  1  0.00140000  0.57429000  0.41742000  1.0
  C  C136  1  0.07440000  0.58886000  0.39123000  1.0
  C  C137  1  0.63746000  0.64303000  0.37726000  1.0
  O  O138  1  0.07978000  0.60818000  0.25981000  1.0
  O  O139  1  0.34382000  0.64952000  0.30438000  1.0
  O  O140  1  0.68918000  0.64928000  0.27381000  1.0
  O  O141  1  0.82374000  0.38931000  0.74042000  1.0
  O  O142  1  0.55814000  0.34978000  0.69500000  1.0
  O  O143  1  0.21449000  0.34905000  0.72641000  1.0
  O  O144  1  0.81994000  0.74017000  0.34838000  1.0
  O  O145  1  0.03947000  0.69562000  0.34520000  1.0
  O  O146  1  0.41538000  0.72621000  0.37548000  1.0
  O  O147  1  0.08327000  0.25961000  0.64888000  1.0
  O  O148  1  0.86302000  0.30504000  0.65483000  1.0
  O  O149  1  0.48786000  0.27358000  0.62262000  1.0
  O  O150  1  0.47184000  0.65163000  0.39185000  1.0
  O  O151  1  0.69441000  0.65479000  0.35046000  1.0
  O  O152  1  0.04011000  0.62446000  0.35075000  1.0
  O  O153  1  0.43440000  0.35115000  0.61074000  1.0
  O  O154  1  0.20830000  0.34521000  0.65023000  1.0
  O  O155  1  0.86528000  0.37737000  0.65095000  1.0
