# generated using pymatgen
data_NiH18C10(NO4)2
_symmetry_space_group_name_H-M   'P 1'
_cell_length_a   7.84116000
_cell_length_b   8.54788000
_cell_length_c   11.80600000
_cell_angle_alpha   90.00030000
_cell_angle_beta   90.00000000
_cell_angle_gamma   114.49900000
_symmetry_Int_Tables_number   1
_chemical_formula_structural   NiH18C10(NO4)2
_chemical_formula_sum   'Ni2 H36 C20 N4 O16'
_cell_volume   720.05865378
_cell_formula_units_Z   2
loop_
 _symmetry_equiv_pos_site_id
 _symmetry_equiv_pos_as_xyz
  1  'x, y, z'
loop_
 _atom_site_type_symbol
 _atom_site_label
 _atom_site_symmetry_multiplicity
 _atom_site_fract_x
 _atom_site_fract_y
 _atom_site_fract_z
 _atom_site_occupancy
  Ni  Ni0  1  0.00001000  0.00000000  0.00000000  1.0
  Ni  Ni1  1  0.50000000  0.00000000  0.50000000  1.0
  H  H2  1  0.01594000  0.82813000  0.24551000  1.0
  H  H3  1  0.51594000  0.82813000  0.25449000  1.0
  H  H4  1  0.98405000  0.17187000  0.75449000  1.0
  H  H5  1  0.48406000  0.17188000  0.74552000  1.0
  H  H6  1  0.76979000  0.31543000  0.18685000  1.0
  H  H7  1  0.26981000  0.31544000  0.31315000  1.0
  H  H8  1  0.23020000  0.68456000  0.81315000  1.0
  H  H9  1  0.73019000  0.68456000  0.68685000  1.0
  H  H10  1  0.00953000  0.37463000  0.15279000  1.0
  H  H11  1  0.50954000  0.37465000  0.34721000  1.0
  H  H12  1  0.99046000  0.62536000  0.84721000  1.0
  H  H13  1  0.49045000  0.62535000  0.65279000  1.0
  H  H14  1  0.87356000  0.45312000  0.06800000  1.0
  H  H15  1  0.37357000  0.45313000  0.43200000  1.0
  H  H16  1  0.12643000  0.54687000  0.93200000  1.0
  H  H17  1  0.62642000  0.54687000  0.56801000  1.0
  H  H18  1  0.07644000  0.50286000  0.36220000  1.0
  H  H19  1  0.57643000  0.50285000  0.13780000  1.0
  H  H20  1  0.92356000  0.49714000  0.63780000  1.0
  H  H21  1  0.42356000  0.49716000  0.86221000  1.0
  H  H22  1  0.83446000  0.45371000  0.38249000  1.0
  H  H23  1  0.33446000  0.45371000  0.11751000  1.0
  H  H24  1  0.16553000  0.54629000  0.61751000  1.0
  H  H25  1  0.66553000  0.54630000  0.88249000  1.0
  H  H26  1  0.00758000  0.67276000  0.39006000  1.0
  H  H27  1  0.50757000  0.67275000  0.10994000  1.0
  H  H28  1  0.99241000  0.32724000  0.60994000  1.0
  H  H29  1  0.49242000  0.32725000  0.89007000  1.0
  H  H30  1  0.95502000  0.89672000  0.79616000  1.0
  H  H31  1  0.45501000  0.89671000  0.70383000  1.0
  H  H32  1  0.04499000  0.10328000  0.20383000  1.0
  H  H33  1  0.54499000  0.10329000  0.29617000  1.0
  H  H34  1  0.75888000  0.89001000  0.84106000  1.0
  H  H35  1  0.25887000  0.89001000  0.65893000  1.0
  H  H36  1  0.24113000  0.10999000  0.15894000  1.0
  H  H37  1  0.74113000  0.10999000  0.34107000  1.0
  C  C38  1  0.62139000  0.99555000  0.03403000  1.0
  C  C39  1  0.12138000  0.99556000  0.46596000  1.0
  C  C40  1  0.37862000  0.00444000  0.96597000  1.0
  C  C41  1  0.87862000  0.00444000  0.53402000  1.0
  C  C42  1  0.53522000  0.97000000  0.92043000  1.0
  C  C43  1  0.03522000  0.97000000  0.57956000  1.0
  C  C44  1  0.46480000  0.02999000  0.07957000  1.0
  C  C45  1  0.96479000  0.02999000  0.42043000  1.0
  C  C46  1  0.97832000  0.72478000  0.18189000  1.0
  C  C47  1  0.47832000  0.72478000  0.31810000  1.0
  C  C48  1  0.02168000  0.27522000  0.81810000  1.0
  C  C49  1  0.52167000  0.27522000  0.68191000  1.0
  C  C50  1  0.89719000  0.41974000  0.15423000  1.0
  C  C51  1  0.39720000  0.41975000  0.34577000  1.0
  C  C52  1  0.10280000  0.58025000  0.84577000  1.0
  C  C53  1  0.60280000  0.58025000  0.65424000  1.0
  C  C54  1  0.96653000  0.54882000  0.34715000  1.0
  C  C55  1  0.46653000  0.54882000  0.15285000  1.0
  C  C56  1  0.03346000  0.45118000  0.65285000  1.0
  C  C57  1  0.53347000  0.45119000  0.84716000  1.0
  N  N58  1  0.94685000  0.57062000  0.22618000  1.0
  N  N59  1  0.44686000  0.57062000  0.27382000  1.0
  N  N60  1  0.05314000  0.42938000  0.77381000  1.0
  N  N61  1  0.55314000  0.42938000  0.72619000  1.0
  O  O62  1  0.76411000  0.98857000  0.07845000  1.0
  O  O63  1  0.26411000  0.98858000  0.42154000  1.0
  O  O64  1  0.23590000  0.01143000  0.92154000  1.0
  O  O65  1  0.73590000  0.01143000  0.57845000  1.0
  O  O66  1  0.57890000  0.93292000  0.82440000  1.0
  O  O67  1  0.07890000  0.93292000  0.67560000  1.0
  O  O68  1  0.42111000  0.06708000  0.17561000  1.0
  O  O69  1  0.92111000  0.06709000  0.32439000  1.0
  O  O70  1  0.96661000  0.75167000  0.07845000  1.0
  O  O71  1  0.46661000  0.75168000  0.42156000  1.0
  O  O72  1  0.03339000  0.24832000  0.92155000  1.0
  O  O73  1  0.53339000  0.24832000  0.57845000  1.0
  O  O74  1  0.86901000  0.86446000  0.86305000  1.0
  O  O75  1  0.36901000  0.86446000  0.63695000  1.0
  O  O76  1  0.13100000  0.13554000  0.13695000  1.0
  O  O77  1  0.63100000  0.13554000  0.36305000  1.0
