# generated using pymatgen
data_ZnH22C23(NO)4
_symmetry_space_group_name_H-M   'P 1'
_cell_length_a   9.42545000
_cell_length_b   9.51367000
_cell_length_c   10.80210000
_cell_angle_alpha   94.90670000
_cell_angle_beta   89.99990000
_cell_angle_gamma   90.00000000
_symmetry_Int_Tables_number   1
_chemical_formula_structural   ZnH22C23(NO)4
_chemical_formula_sum   'Zn2 H44 C46 N8 O8'
_cell_volume   965.08127291
_cell_formula_units_Z   2
loop_
 _symmetry_equiv_pos_site_id
 _symmetry_equiv_pos_as_xyz
  1  'x, y, z'
loop_
 _atom_site_type_symbol
 _atom_site_label
 _atom_site_symmetry_multiplicity
 _atom_site_fract_x
 _atom_site_fract_y
 _atom_site_fract_z
 _atom_site_occupancy
  Zn  Zn0  1  0.72279000  0.44138000  0.08786000  1.0
  Zn  Zn1  1  0.22279000  0.55862000  0.91214000  1.0
  H  H2  1  0.64038000  0.08712000  0.45476000  1.0
  H  H3  1  0.14038000  0.91287000  0.54524000  1.0
  H  H4  1  0.08359000  0.48045000  0.21984000  1.0
  H  H5  1  0.58359000  0.51955000  0.78016000  1.0
  H  H6  1  0.00717000  0.46871000  0.36780000  1.0
  H  H7  1  0.50717000  0.53129000  0.63220000  1.0
  H  H8  1  0.05010000  0.73072000  0.39298000  1.0
  H  H9  1  0.55010000  0.26928000  0.60701000  1.0
  H  H10  1  0.94846000  0.96536000  0.35886000  1.0
  H  H11  1  0.44846000  0.03464000  0.64114000  1.0
  H  H12  1  0.74696000  0.97853000  0.20543000  1.0
  H  H13  1  0.24696000  0.02147000  0.79457000  1.0
  H  H14  1  0.65886000  0.75315000  0.09554000  1.0
  H  H15  1  0.15886000  0.24685000  0.90446000  1.0
  H  H16  1  0.04378000  0.17995000  0.18764000  1.0
  H  H17  1  0.54378000  0.82005000  0.81236000  1.0
  H  H18  1  0.06707000  0.32059000  0.09167000  1.0
  H  H19  1  0.56707000  0.67941000  0.90833000  1.0
  H  H20  1  0.05481000  0.01349000  0.99701000  1.0
  H  H21  1  0.55481000  0.98651000  0.00299000  1.0
  H  H22  1  0.92095000  0.90106000  0.81491000  1.0
  H  H23  1  0.42095000  0.09894000  0.18509000  1.0
  H  H24  1  0.68758000  0.00792000  0.75750000  1.0
  H  H25  1  0.18758000  0.99208000  0.24250000  1.0
  H  H26  1  0.60339000  0.22520000  0.88433000  1.0
  H  H27  1  0.10339000  0.77480000  0.11567000  1.0
  H  H28  1  0.85336000  0.31941000  0.40517000  1.0
  H  H29  1  0.35336000  0.68059000  0.59483000  1.0
  H  H30  1  0.85133000  0.16744000  0.30266000  1.0
  H  H31  1  0.35133000  0.83257000  0.69734000  1.0
  H  H32  1  0.39311000  0.29758000  0.22542000  1.0
  H  H33  1  0.89311000  0.70241000  0.77458000  1.0
  H  H34  1  0.28662000  0.50355000  0.33553000  1.0
  H  H35  1  0.78662000  0.49645000  0.66447000  1.0
  H  H36  1  0.41170000  0.41455000  0.42329000  1.0
  H  H37  1  0.91171000  0.58544000  0.57671000  1.0
  H  H38  1  0.65501000  0.52889000  0.46983000  1.0
  H  H39  1  0.15501000  0.47111000  0.53017000  1.0
  H  H40  1  0.76656000  0.75786000  0.54239000  1.0
  H  H41  1  0.26656000  0.24214000  0.45761000  1.0
  H  H42  1  0.42466000  0.97845000  0.38155000  1.0
  H  H43  1  0.92466000  0.02155000  0.61845000  1.0
  H  H44  1  0.31219000  0.75005000  0.31074000  1.0
  H  H45  1  0.81219000  0.24995000  0.68926000  1.0
  C  C46  1  0.98142000  0.47761000  0.26938000  1.0
  C  C47  1  0.48142000  0.52239000  0.73062000  1.0
  C  C48  1  0.91242000  0.61922000  0.25728000  1.0
  C  C49  1  0.41242000  0.38078000  0.74272000  1.0
  C  C50  1  0.96620000  0.73994000  0.32454000  1.0
  C  C51  1  0.46620000  0.26006000  0.67546000  1.0
  C  C52  1  0.90906000  0.87114000  0.30538000  1.0
  C  C53  1  0.40906000  0.12886000  0.69462000  1.0
  C  C54  1  0.79789000  0.87878000  0.22074000  1.0
  C  C55  1  0.29789000  0.12123000  0.77926000  1.0
  C  C56  1  0.74821000  0.75435000  0.15958000  1.0
  C  C57  1  0.24821000  0.24565000  0.84042000  1.0
  C  C58  1  0.98651000  0.25769000  0.13576000  1.0
  C  C59  1  0.48651000  0.74231000  0.86424000  1.0
  C  C60  1  0.90159000  0.18009000  0.03293000  1.0
  C  C61  1  0.40159000  0.81991000  0.96707000  1.0
  C  C62  1  0.95425000  0.05717000  0.96875000  1.0
  C  C63  1  0.45425000  0.94283000  0.03125000  1.0
  C  C64  1  0.87836000  0.99361000  0.86881000  1.0
  C  C65  1  0.37836000  0.00639000  0.13119000  1.0
  C  C66  1  0.74887000  0.05220000  0.83704000  1.0
  C  C67  1  0.24887000  0.94780000  0.16296000  1.0
  C  C68  1  0.70274000  0.17389000  0.90578000  1.0
  C  C69  1  0.20275000  0.82611000  0.09422000  1.0
  C  C70  1  0.82143000  0.27953000  0.31048000  1.0
  C  C71  1  0.32143000  0.72047000  0.68952000  1.0
  C  C72  1  0.65927000  0.28765000  0.30657000  1.0
  C  C73  1  0.15927000  0.71235000  0.69343000  1.0
  C  C74  1  0.45350000  0.39747000  0.22874000  1.0
  C  C75  1  0.95350000  0.60253000  0.77126000  1.0
  C  C76  1  0.41267000  0.46492000  0.10918000  1.0
  C  C77  1  0.91267000  0.53508000  0.89082000  1.0
  C  C78  1  0.40042000  0.48437000  0.34785000  1.0
  C  C79  1  0.90043000  0.51562000  0.65215000  1.0
  C  C80  1  0.47500000  0.62185000  0.38354000  1.0
  C  C81  1  0.97499000  0.37814000  0.61646000  1.0
  C  C82  1  0.60357000  0.62716000  0.44978000  1.0
  C  C83  1  0.10357000  0.37284000  0.55022000  1.0
  C  C84  1  0.66666667  0.75487000  0.49133000  1.0
  C  C85  1  0.16666000  0.24513000  0.50867000  1.0
  C  C86  1  0.60467000  0.88298000  0.46420000  1.0
  C  C87  1  0.10467000  0.11702000  0.53580000  1.0
  C  C88  1  0.47627000  0.87961000  0.39852000  1.0
  C  C89  1  0.97628000  0.12039000  0.60148000  1.0
  C  C90  1  0.41350000  0.75066000  0.35954000  1.0
  C  C91  1  0.91350000  0.24933000  0.64046000  1.0
  N  N92  1  0.90107000  0.35397000  0.21793000  1.0
  N  N93  1  0.40107000  0.64603000  0.78207000  1.0
  N  N94  1  0.80517000  0.62795000  0.17673000  1.0
  N  N95  1  0.30518000  0.37205000  0.82327000  1.0
  N  N96  1  0.77800000  0.23699000  0.00063000  1.0
  N  N97  1  0.27800000  0.76301000  0.99937000  1.0
  N  N98  1  0.60440000  0.37263000  0.22986000  1.0
  N  N99  1  0.10440000  0.62737000  0.77014000  1.0
  O  O100  1  0.59014000  0.21512000  0.38129000  1.0
  O  O101  1  0.09014000  0.78488000  0.61871000  1.0
  O  O102  1  0.51012000  0.49568000  0.03442000  1.0
  O  O103  1  0.01011000  0.50432000  0.96558000  1.0
  O  O104  1  0.28075000  0.48323000  0.09045000  1.0
  O  O105  1  0.78075000  0.51677000  0.90955000  1.0
  O  O106  1  0.67177000  0.00514000  0.50375000  1.0
  O  O107  1  0.17178000  0.99486000  0.49625000  1.0
