# generated using pymatgen
data_ZnH6C13N(ClO2)2
_symmetry_space_group_name_H-M   'P 1'
_cell_length_a   9.83375000
_cell_length_b   11.23390000
_cell_length_c   15.33230000
_cell_angle_alpha   90.70830000
_cell_angle_beta   102.68900000
_cell_angle_gamma   94.33620000
_symmetry_Int_Tables_number   1
_chemical_formula_structural   ZnH6C13N(ClO2)2
_chemical_formula_sum   'Zn2 H12 C26 N2 Cl4 O8'
_cell_volume   1646.95171734
_cell_formula_units_Z   2
loop_
 _symmetry_equiv_pos_site_id
 _symmetry_equiv_pos_as_xyz
  1  'x, y, z'
loop_
 _atom_site_type_symbol
 _atom_site_label
 _atom_site_symmetry_multiplicity
 _atom_site_fract_x
 _atom_site_fract_y
 _atom_site_fract_z
 _atom_site_occupancy
  Zn  Zn0  1  0.63864000  0.48639000  0.52424000  1.0
  Zn  Zn1  1  0.36178000  0.51365000  0.48036000  1.0
  H  H2  1  0.28573000  0.49626000  0.19708000  1.0
  H  H3  1  0.29759000  0.10353000  0.48179000  1.0
  H  H4  1  0.86848000  0.56188000  0.44767000  1.0
  H  H5  1  0.13081000  0.43670000  0.55433000  1.0
  H  H6  1  0.71398000  0.50462000  0.80751000  1.0
  H  H7  1  0.73278000  0.49971000  0.25321000  1.0
  H  H8  1  0.26687000  0.49984000  0.75116000  1.0
  H  H9  1  0.85061000  0.50649000  0.96373000  1.0
  H  H10  1  0.14889000  0.49344000  0.04069000  1.0
  H  H11  1  0.38149000  0.89588000  0.49412000  1.0
  H  H12  1  0.61912000  0.10430000  0.52151000  1.0
  H  H13  1  0.70287000  0.89663000  0.53021000  1.0
  C  C14  1  0.43462000  0.26951000  0.49549000  1.0
  C  C15  1  0.92659000  0.50598000  0.49852000  1.0
  C  C16  1  0.48842000  0.50235000  0.67263000  1.0
  C  C17  1  0.51150000  0.49796000  0.33193000  1.0
  C  C18  1  0.38147000  0.49735000  0.17224000  1.0
  C  C19  1  0.61820000  0.50334000  0.83230000  1.0
  C  C20  1  0.50950000  0.49829000  0.23376000  1.0
  C  C21  1  0.49021000  0.50219000  0.77075000  1.0
  C  C22  1  0.63435000  0.49960000  0.20412000  1.0
  C  C23  1  0.36527000  0.50033000  0.80033000  1.0
  C  C24  1  0.63367000  0.50089000  0.11261000  1.0
  C  C25  1  0.56578000  0.73054000  0.51274000  1.0
  C  C26  1  0.36591000  0.49894000  0.89186000  1.0
  C  C27  1  0.50266000  0.49956000  0.04897000  1.0
  C  C28  1  0.49691000  0.50038000  0.95556000  1.0
  C  C29  1  0.37576000  0.49740000  0.08013000  1.0
  C  C30  1  0.62380000  0.50284000  0.92439000  1.0
  C  C31  1  0.75857000  0.50341000  0.07770000  1.0
  C  C32  1  0.24095000  0.49619000  0.92672000  1.0
  C  C33  1  0.75438000  0.50446000  0.98814000  1.0
  C  C34  1  0.24518000  0.49548000  0.01633000  1.0
  C  C35  1  0.40714000  0.13809000  0.49483000  1.0
  C  C36  1  0.59334000  0.86208000  0.51752000  1.0
  C  C37  1  0.51153000  0.06411000  0.50874000  1.0
  C  C38  1  0.48906000  0.93608000  0.50642000  1.0
  C  C39  1  0.07315000  0.49324000  0.50378000  1.0
  N  N40  1  0.14938000  0.54406000  0.45396000  1.0
  N  N41  1  0.85099000  0.45580000  0.54898000  1.0
  Cl  Cl42  1  0.92005000  0.50530000  0.15221000  1.0
  Cl  Cl43  1  0.07950000  0.49384000  0.85212000  1.0
  Cl  Cl44  1  0.92365000  0.36492000  0.63146000  1.0
  Cl  Cl45  1  0.07777000  0.63609000  0.37204000  1.0
  O  O46  1  0.56198000  0.31252000  0.51113000  1.0
  O  O47  1  0.43846000  0.68740000  0.49687000  1.0
  O  O48  1  0.32765000  0.33059000  0.47993000  1.0
  O  O49  1  0.67268000  0.66944000  0.52483000  1.0
  O  O50  1  0.60591000  0.49682000  0.65111000  1.0
  O  O51  1  0.39441000  0.50542000  0.35359000  1.0
  O  O52  1  0.37091000  0.50795000  0.61820000  1.0
  O  O53  1  0.62867000  0.49023000  0.38630000  1.0
