# generated using pymatgen
data_CuH11C8SN2ClO7
_symmetry_space_group_name_H-M   'P 1'
_cell_length_a   10.79750000
_cell_length_b   12.28450000
_cell_length_c   12.92860000
_cell_angle_alpha   89.99990000
_cell_angle_beta   81.57970000
_cell_angle_gamma   89.99970000
_symmetry_Int_Tables_number   1
_chemical_formula_structural   CuH11C8SN2ClO7
_chemical_formula_sum   'Cu4 H44 C32 S4 N8 Cl4 O28'
_cell_volume   1696.38846237
_cell_formula_units_Z   4
loop_
 _symmetry_equiv_pos_site_id
 _symmetry_equiv_pos_as_xyz
  1  'x, y, z'
loop_
 _atom_site_type_symbol
 _atom_site_label
 _atom_site_symmetry_multiplicity
 _atom_site_fract_x
 _atom_site_fract_y
 _atom_site_fract_z
 _atom_site_occupancy
  Cu  Cu0  1  0.59713000  0.92550000  0.55500000  1.0
  Cu  Cu1  1  0.40287000  0.42550000  0.94500000  1.0
  Cu  Cu2  1  0.40287000  0.07450000  0.44500000  1.0
  Cu  Cu3  1  0.59714000  0.57450000  0.05500000  1.0
  H  H4  1  0.49420000  0.28300000  0.77469000  1.0
  H  H5  1  0.50580000  0.78300000  0.72531000  1.0
  H  H6  1  0.50580000  0.71700000  0.22531000  1.0
  H  H7  1  0.49420000  0.21700000  0.27469000  1.0
  H  H8  1  0.32841000  0.23607000  0.07992000  1.0
  H  H9  1  0.67159000  0.73607000  0.42008000  1.0
  H  H10  1  0.67159000  0.76394000  0.92008000  1.0
  H  H11  1  0.32841000  0.26393000  0.57992000  1.0
  H  H12  1  0.32484000  0.03528000  0.05889000  1.0
  H  H13  1  0.67516000  0.53528000  0.44111000  1.0
  H  H14  1  0.67515000  0.96473000  0.94111000  1.0
  H  H15  1  0.32485000  0.46472000  0.55889000  1.0
  H  H16  1  0.41806000  0.95388000  0.88399000  1.0
  H  H17  1  0.58195000  0.45388000  0.61601000  1.0
  H  H18  1  0.58194000  0.04612000  0.11601000  1.0
  H  H19  1  0.41806000  0.54612000  0.38399000  1.0
  H  H20  1  0.82091000  0.90356000  0.22042000  1.0
  H  H21  1  0.17909000  0.40356000  0.27958000  1.0
  H  H22  1  0.17909000  0.09645000  0.77958000  1.0
  H  H23  1  0.82091000  0.59644000  0.72042000  1.0
  H  H24  1  0.92779000  0.01789000  0.21961000  1.0
  H  H25  1  0.07221000  0.51789000  0.28039000  1.0
  H  H26  1  0.07221000  0.98211000  0.78039000  1.0
  H  H27  1  0.92780000  0.48211000  0.71961000  1.0
  H  H28  1  0.76090000  0.04115000  0.23666000  1.0
  H  H29  1  0.23910000  0.54115000  0.26334000  1.0
  H  H30  1  0.23910000  0.95885000  0.76334000  1.0
  H  H31  1  0.76091000  0.45885000  0.73666000  1.0
  H  H32  1  0.94403000  0.85698000  0.48056000  1.0
  H  H33  1  0.05597000  0.35698000  0.01944000  1.0
  H  H34  1  0.05597000  0.14303000  0.51944000  1.0
  H  H35  1  0.94403000  0.64302000  0.98056000  1.0
  H  H36  1  0.03751000  0.91823000  0.36961000  1.0
  H  H37  1  0.96249000  0.41823000  0.13039000  1.0
  H  H38  1  0.96249000  0.08177000  0.63040000  1.0
  H  H39  1  0.03751000  0.58177000  0.86961000  1.0
  H  H40  1  0.93272000  0.80697000  0.34990000  1.0
  H  H41  1  0.06728000  0.30697000  0.15010000  1.0
  H  H42  1  0.06728000  0.19303000  0.65010000  1.0
  H  H43  1  0.93272000  0.69303000  0.84990000  1.0
  H  H44  1  0.58302000  0.20675000  0.64292000  1.0
  H  H45  1  0.41699000  0.70675000  0.85709000  1.0
  H  H46  1  0.41698000  0.79324000  0.35709000  1.0
  H  H47  1  0.58302000  0.29325000  0.14291000  1.0
  C  C48  1  0.51270000  0.06329000  0.71300000  1.0
  C  C49  1  0.48729000  0.56329000  0.78700000  1.0
  C  C50  1  0.48729000  0.93671000  0.28700000  1.0
  C  C51  1  0.51271000  0.43671000  0.21300000  1.0
  C  C52  1  0.46560000  0.11077000  0.81579000  1.0
  C  C53  1  0.53440000  0.61078000  0.68422000  1.0
  C  C54  1  0.53440000  0.88922000  0.18421000  1.0
  C  C55  1  0.46560000  0.38922000  0.31578000  1.0
  C  C56  1  0.46211000  0.22300000  0.83466000  1.0
  C  C57  1  0.53789000  0.72300000  0.66534000  1.0
  C  C58  1  0.53789000  0.77700000  0.16534000  1.0
  C  C59  1  0.46211000  0.27700000  0.33466000  1.0
  C  C60  1  0.36793000  0.19778000  0.00651000  1.0
  C  C61  1  0.63207000  0.69778000  0.49349000  1.0
  C  C62  1  0.63207000  0.80222000  0.99349000  1.0
  C  C63  1  0.36793000  0.30222000  0.50651000  1.0
  C  C64  1  0.36682000  0.08547000  0.99365000  1.0
  C  C65  1  0.63318000  0.58547000  0.50635000  1.0
  C  C66  1  0.63318000  0.91454000  0.00635000  1.0
  C  C67  1  0.36682000  0.41453000  0.49365000  1.0
  C  C68  1  0.41663000  0.04131000  0.89760000  1.0
  C  C69  1  0.58338000  0.54132000  0.60240000  1.0
  C  C70  1  0.58337000  0.95869000  0.10240000  1.0
  C  C71  1  0.41663000  0.45869000  0.39760000  1.0
  C  C72  1  0.83546000  0.98513000  0.25106000  1.0
  C  C73  1  0.16454000  0.48513000  0.24894000  1.0
  C  C74  1  0.16454000  0.01487000  0.74894000  1.0
  C  C75  1  0.83547000  0.51487000  0.75106000  1.0
  C  C76  1  0.94801000  0.87809000  0.39771000  1.0
  C  C77  1  0.05198000  0.37808000  0.10229000  1.0
  C  C78  1  0.05198000  0.12192000  0.60229000  1.0
  C  C79  1  0.94802000  0.62192000  0.89771000  1.0
  S  S80  1  0.82529000  0.97497000  0.39038000  1.0
  S  S81  1  0.17471000  0.47497000  0.10962000  1.0
  S  S82  1  0.17471000  0.02503000  0.60962000  1.0
  S  S83  1  0.82529000  0.52503000  0.89038000  1.0
  N  N84  1  0.56614000  0.12599000  0.63562000  1.0
  N  N85  1  0.43385000  0.62599000  0.86438000  1.0
  N  N86  1  0.43385000  0.87400000  0.36438000  1.0
  N  N87  1  0.56615000  0.37401000  0.13561000  1.0
  N  N88  1  0.41522000  0.26498000  0.92783000  1.0
  N  N89  1  0.58478000  0.76498000  0.57217000  1.0
  N  N90  1  0.58478000  0.73502000  0.07217000  1.0
  N  N91  1  0.41522000  0.23502000  0.42783000  1.0
  Cl  Cl92  1  0.84500000  0.88356000  0.71889000  1.0
  Cl  Cl93  1  0.15500000  0.38356000  0.78112000  1.0
  Cl  Cl94  1  0.15499000  0.11643000  0.28111000  1.0
  Cl  Cl95  1  0.84501000  0.61643000  0.21889000  1.0
  O  O96  1  0.50201000  0.96080000  0.69634000  1.0
  O  O97  1  0.49798000  0.46080000  0.80365000  1.0
  O  O98  1  0.49798000  0.03920000  0.30366000  1.0
  O  O99  1  0.50202000  0.53921000  0.19634000  1.0
  O  O100  1  0.60172000  0.08359000  0.53921000  1.0
  O  O101  1  0.39827000  0.58359000  0.96079000  1.0
  O  O102  1  0.39828000  0.91641000  0.46079000  1.0
  O  O103  1  0.60173000  0.41641000  0.03921000  1.0
  O  O104  1  0.70279000  0.90811000  0.41819000  1.0
  O  O105  1  0.29720000  0.40811000  0.08181000  1.0
  O  O106  1  0.29721000  0.09189000  0.58180000  1.0
  O  O107  1  0.70280000  0.59189000  0.91819000  1.0
  O  O108  1  0.79336000  0.95398000  0.64346000  1.0
  O  O109  1  0.20664000  0.45398000  0.85654000  1.0
  O  O110  1  0.20664000  0.04602000  0.35653000  1.0
  O  O111  1  0.79336000  0.54602000  0.14347000  1.0
  O  O112  1  0.85973000  0.94754000  0.81168000  1.0
  O  O113  1  0.14027000  0.44753000  0.68832000  1.0
  O  O114  1  0.14026000  0.05246000  0.18832000  1.0
  O  O115  1  0.85974000  0.55246000  0.31168000  1.0
  O  O116  1  0.96659000  0.84189000  0.67057000  1.0
  O  O117  1  0.03341000  0.34189000  0.82943000  1.0
  O  O118  1  0.03341000  0.15811000  0.32943000  1.0
  O  O119  1  0.96659000  0.65811000  0.17057000  1.0
  O  O120  1  0.75966000  0.79258000  0.74830000  1.0
  O  O121  1  0.24033000  0.29257000  0.75170000  1.0
  O  O122  1  0.24033000  0.20742000  0.25170000  1.0
  O  O123  1  0.75967000  0.70742000  0.24830000  1.0
