# generated using pymatgen
data_Nd2H10C10O13
_symmetry_space_group_name_H-M   'P 1'
_cell_length_a   8.24431000
_cell_length_b   9.40517000
_cell_length_c   11.55700000
_cell_angle_alpha   79.94290000
_cell_angle_beta   69.77590000
_cell_angle_gamma   75.63310000
_symmetry_Int_Tables_number   1
_chemical_formula_structural   Nd2H10C10O13
_chemical_formula_sum   'Nd4 H20 C20 O26'
_cell_volume   810.67429874
_cell_formula_units_Z   2
loop_
 _symmetry_equiv_pos_site_id
 _symmetry_equiv_pos_as_xyz
  1  'x, y, z'
loop_
 _atom_site_type_symbol
 _atom_site_label
 _atom_site_symmetry_multiplicity
 _atom_site_fract_x
 _atom_site_fract_y
 _atom_site_fract_z
 _atom_site_occupancy
  Nd  Nd0  1  0.74890000  0.47284000  0.51382000  1.0
  Nd  Nd1  1  0.25110000  0.52716000  0.48618000  1.0
  Nd  Nd2  1  0.54959000  0.85175000  0.37252000  1.0
  Nd  Nd3  1  0.45041000  0.14825000  0.62748000  1.0
  H  H4  1  0.48607000  0.65726000  0.87191000  1.0
  H  H5  1  0.51392000  0.34274000  0.12809000  1.0
  H  H6  1  0.77899000  0.54545000  0.89061000  1.0
  H  H7  1  0.22102000  0.45455000  0.10939000  1.0
  H  H8  1  0.75975000  0.73579000  0.84588000  1.0
  H  H9  1  0.24025000  0.26421000  0.15412000  1.0
  H  H10  1  0.07304000  0.03534000  0.34202000  1.0
  H  H11  1  0.92696000  0.96465000  0.65799000  1.0
  H  H12  1  0.96124000  0.15698000  0.24765000  1.0
  H  H13  1  0.03877000  0.84301000  0.75235000  1.0
  H  H14  1  0.08738000  0.91216000  0.16575000  1.0
  H  H15  1  0.91262000  0.08784000  0.83425000  1.0
  H  H16  1  0.45292000  0.92361000  0.91199000  1.0
  H  H17  1  0.54708000  0.07639000  0.08800000  1.0
  H  H18  1  0.78493000  0.04316000  0.16877000  1.0
  H  H19  1  0.21507000  0.95684000  0.83123000  1.0
  H  H20  1  0.60873000  0.41214000  0.81447000  1.0
  H  H21  1  0.39127000  0.58786000  0.18553000  1.0
  H  H22  1  0.58126000  0.55844000  0.31315000  1.0
  H  H23  1  0.41874000  0.44156000  0.68685000  1.0
  C  C24  1  0.56517000  0.75785000  0.68643000  1.0
  C  C25  1  0.43483000  0.24215000  0.31357000  1.0
  C  C26  1  0.59704000  0.63371000  0.78600000  1.0
  C  C27  1  0.40296000  0.36629000  0.21400000  1.0
  C  C28  1  0.76717000  0.63024000  0.81365000  1.0
  C  C29  1  0.23283000  0.36977000  0.18635000  1.0
  C  C30  1  0.93453000  0.59979000  0.70491000  1.0
  C  C31  1  0.06547000  0.40022000  0.29508000  1.0
  C  C32  1  0.79267000  0.08790000  0.42298000  1.0
  C  C33  1  0.20733000  0.91210000  0.57701000  1.0
  C  C34  1  0.95581000  0.05531000  0.31175000  1.0
  C  C35  1  0.04420000  0.94468000  0.68825000  1.0
  C  C36  1  0.96576000  0.92395000  0.24580000  1.0
  C  C37  1  0.03424000  0.07605000  0.75420000  1.0
  C  C38  1  0.97773000  0.77651000  0.32807000  1.0
  C  C39  1  0.02227000  0.22349000  0.67193000  1.0
  C  C40  1  0.45438000  0.81613000  0.09747000  1.0
  C  C41  1  0.54562000  0.18387000  0.90253000  1.0
  C  C42  1  0.47592000  0.93844000  0.99610000  1.0
  C  C43  1  0.52408000  0.06156000  0.00390000  1.0
  O  O44  1  0.59915000  0.49855000  0.74639000  1.0
  O  O45  1  0.40085000  0.50145000  0.25362000  1.0
  O  O46  1  0.92189000  0.58913000  0.59834000  1.0
  O  O47  1  0.07811000  0.41087000  0.40166000  1.0
  O  O48  1  0.11771000  0.73090000  0.35432000  1.0
  O  O49  1  0.88230000  0.26910000  0.64568000  1.0
  O  O50  1  0.08295000  0.58762000  0.71809000  1.0
  O  O51  1  0.91705000  0.41239000  0.28191000  1.0
  O  O52  1  0.76204000  0.19964000  0.48026000  1.0
  O  O53  1  0.23796000  0.80036000  0.51974000  1.0
  O  O54  1  0.56807000  0.72199000  0.58393000  1.0
  O  O55  1  0.43193000  0.27801000  0.41607000  1.0
  O  O56  1  0.54839000  0.59375000  0.39454000  1.0
  O  O57  1  0.45161000  0.40625000  0.60546000  1.0
  O  O58  1  0.84613000  0.71211000  0.36159000  1.0
  O  O59  1  0.15387000  0.28789000  0.63842000  1.0
  O  O60  1  0.68413000  0.99997000  0.45982000  1.0
  O  O61  1  0.31587000  0.00003000  0.54018000  1.0
  O  O62  1  0.53365000  0.88846000  0.71411000  1.0
  O  O63  1  0.46635000  0.11154000  0.28589000  1.0
  O  O64  1  0.81561000  0.94179000  0.20339000  1.0
  O  O65  1  0.18440000  0.05821000  0.79661000  1.0
  O  O66  1  0.49670000  0.82209000  0.19265000  1.0
  O  O67  1  0.50330000  0.17791000  0.80735000  1.0
  O  O68  1  0.39335000  0.71176000  0.08197000  1.0
  O  O69  1  0.60665000  0.28824000  0.91803000  1.0
