# generated using pymatgen
data_Cd3H16C8(N8Cl3)2
_symmetry_space_group_name_H-M   'P 1'
_cell_length_a   9.02251000
_cell_length_b   9.11563000
_cell_length_c   9.40237597
_cell_angle_alpha   61.11950294
_cell_angle_beta   88.93457377
_cell_angle_gamma   107.99860000
_symmetry_Int_Tables_number   1
_chemical_formula_structural   Cd3H16C8(N8Cl3)2
_chemical_formula_sum   'Cd3 H16 C8 N16 Cl6'
_cell_volume   630.77987332
_cell_formula_units_Z   1
loop_
 _symmetry_equiv_pos_site_id
 _symmetry_equiv_pos_as_xyz
  1  'x, y, z'
loop_
 _atom_site_type_symbol
 _atom_site_label
 _atom_site_symmetry_multiplicity
 _atom_site_fract_x
 _atom_site_fract_y
 _atom_site_fract_z
 _atom_site_occupancy
  Cd  Cd0  1  1.00000000  0.00001000  0.00000000  1.0
  Cd  Cd1  1  0.35304000  0.25133000  0.62753000  1.0
  Cd  Cd2  1  0.64698000  0.74869000  0.37247000  1.0
  H  H3  1  0.72862000  0.13166000  0.71204000  1.0
  H  H4  1  0.27139000  0.86834000  0.28795000  1.0
  H  H5  1  0.09683000  0.24898000  0.34577000  1.0
  H  H6  1  0.90321000  0.75106000  0.65423000  1.0
  H  H7  1  0.92551000  0.42225000  0.84856000  1.0
  H  H8  1  0.07444000  0.57776000  0.15142000  1.0
  H  H9  1  0.48374000  0.10957000  0.18522000  1.0
  H  H10  1  0.51625000  0.89040000  0.81484000  1.0
  H  H11  1  0.51953000  0.41364000  0.96563000  1.0
  H  H12  1  0.48030000  0.58618000  0.03422000  1.0
  H  H13  1  0.64335000  0.50058000  0.79360000  1.0
  H  H14  1  0.35676000  0.49953000  0.20639000  1.0
  H  H15  1  0.75619000  0.35701000  0.36849000  1.0
  H  H16  1  0.24383000  0.64300000  0.63150000  1.0
  H  H17  1  0.69320000  0.15201000  0.39864000  1.0
  H  H18  1  0.30682000  0.84799000  0.60136000  1.0
  C  C19  1  0.83944000  0.14255000  0.65461000  1.0
  C  C20  1  0.16058000  0.85745000  0.34539000  1.0
  C  C21  1  0.03037000  0.20768000  0.46451000  1.0
  C  C22  1  0.96966000  0.79236000  0.53548000  1.0
  C  C23  1  0.82799000  0.30794000  0.94526000  1.0
  C  C24  1  0.17197000  0.69207000  0.05473000  1.0
  C  C25  1  0.59925000  0.14416000  0.11669000  1.0
  C  C26  1  0.40074000  0.85581000  0.88335000  1.0
  N  N27  1  0.95720000  0.10541000  0.72692000  1.0
  N  N28  1  0.04281000  0.89460000  0.27308000  1.0
  N  N29  1  0.07812000  0.14629000  0.60720000  1.0
  N  N30  1  0.92190000  0.85374000  0.39280000  1.0
  N  N31  1  0.68472000  0.04100000  0.14947000  1.0
  N  N32  1  0.31530000  0.95901000  0.85056000  1.0
  N  N33  1  0.82813000  0.14314000  0.04054000  1.0
  N  N34  1  0.17186000  0.85688000  0.95947000  1.0
  N  N35  1  0.88210000  0.20930000  0.48882000  1.0
  N  N36  1  0.11792000  0.79071000  0.51118000  1.0
  N  N37  1  0.68521000  0.31204000  0.98872000  1.0
  N  N38  1  0.31474000  0.68794000  0.01129000  1.0
  N  N39  1  0.63876000  0.46107000  0.91721000  1.0
  N  N40  1  0.36113000  0.53886000  0.08283000  1.0
  N  N41  1  0.79395000  0.26332000  0.36431000  1.0
  N  N42  1  0.20607000  0.73668000  0.63569000  1.0
  Cl  Cl43  1  0.65761000  0.42027000  0.59470000  1.0
  Cl  Cl44  1  0.34242000  0.57975000  0.40530000  1.0
  Cl  Cl45  1  0.40591000  0.18512000  0.39897000  1.0
  Cl  Cl46  1  0.59411000  0.81486000  0.60106000  1.0
  Cl  Cl47  1  0.25549000  0.29435000  0.86756000  1.0
  Cl  Cl48  1  0.74452000  0.70567000  0.13245000  1.0
