# generated using pymatgen
data_NiH20C18(NO3)2
_symmetry_space_group_name_H-M   'P 1'
_cell_length_a   9.26099000
_cell_length_b   13.51280000
_cell_length_c   19.23277211
_cell_angle_alpha   69.56805733
_cell_angle_beta   77.28053793
_cell_angle_gamma   89.86160000
_symmetry_Int_Tables_number   1
_chemical_formula_structural   NiH20C18(NO3)2
_chemical_formula_sum   'Ni4 H80 C72 N8 O24'
_cell_volume   2192.74948958
_cell_formula_units_Z   4
loop_
 _symmetry_equiv_pos_site_id
 _symmetry_equiv_pos_as_xyz
  1  'x, y, z'
loop_
 _atom_site_type_symbol
 _atom_site_label
 _atom_site_symmetry_multiplicity
 _atom_site_fract_x
 _atom_site_fract_y
 _atom_site_fract_z
 _atom_site_occupancy
  Ni  Ni0  1  0.17784000  0.14757000  0.26707000  1.0
  Ni  Ni1  1  0.32360000  0.41510000  0.73404000  1.0
  Ni  Ni2  1  0.82047000  0.85295000  0.73361000  1.0
  Ni  Ni3  1  0.67906000  0.58474000  0.26574000  1.0
  H  H4  1  0.43933000  0.11561000  0.22348000  1.0
  H  H5  1  0.06194000  0.34143000  0.77751000  1.0
  H  H6  1  0.55812000  0.88372000  0.77648000  1.0
  H  H7  1  0.94089000  0.65904000  0.22277000  1.0
  H  H8  1  0.43239000  0.23610000  0.22233000  1.0
  H  H9  1  0.06904000  0.46032000  0.77932000  1.0
  H  H10  1  0.56671000  0.76280000  0.77858000  1.0
  H  H11  1  0.93411000  0.53991000  0.22119000  1.0
  H  H12  1  0.06344000  0.34368000  0.24558000  1.0
  H  H13  1  0.43892000  0.58980000  0.75470000  1.0
  H  H14  1  0.93742000  0.65741000  0.75472000  1.0
  H  H15  1  0.56438000  0.40957000  0.24536000  1.0
  H  H16  1  0.23919000  0.34507000  0.22564000  1.0
  H  H17  1  0.26316000  0.57202000  0.77489000  1.0
  H  H18  1  0.76154000  0.65531000  0.77425000  1.0
  H  H19  1  0.74025000  0.42751000  0.22519000  1.0
  H  H20  1  0.77101000  0.96995000  0.50669000  1.0
  H  H21  1  0.72746000  0.47762000  0.49257000  1.0
  H  H22  1  0.22617000  0.03003000  0.49330000  1.0
  H  H23  1  0.27215000  0.52481000  0.50532000  1.0
  H  H24  1  0.05193000  0.74204000  0.59465000  1.0
  H  H25  1  0.44822000  0.33578000  0.40600000  1.0
  H  H26  1  0.94773000  0.25798000  0.40632000  1.0
  H  H27  1  0.55280000  0.66400000  0.59419000  1.0
  H  H28  1  0.14419000  0.86120000  0.45610000  1.0
  H  H29  1  0.35653000  0.31776000  0.54476000  1.0
  H  H30  1  0.85430000  0.13890000  0.54489000  1.0
  H  H31  1  0.64345000  0.68313000  0.45569000  1.0
  H  H32  1  0.02886000  0.02122000  0.42505000  1.0
  H  H33  1  0.47027000  0.44682000  0.57528000  1.0
  H  H34  1  0.96864000  0.97959000  0.57559000  1.0
  H  H35  1  0.52993000  0.55575000  0.42340000  1.0
  H  H36  1  0.45732000  0.81698000  0.38322000  1.0
  H  H37  1  0.04341000  0.20219000  0.61748000  1.0
  H  H38  1  0.53919000  0.18168000  0.61634000  1.0
  H  H39  1  0.95724000  0.79773000  0.38301000  1.0
  H  H40  1  0.35279000  0.68573000  0.51706000  1.0
  H  H41  1  0.14738000  0.20350000  0.48405000  1.0
  H  H42  1  0.64538000  0.31366000  0.48288000  1.0
  H  H43  1  0.85322000  0.79684000  0.51643000  1.0
  H  H44  1  0.87767000  0.20454000  0.23775000  1.0
  H  H45  1  0.62457000  0.44120000  0.76238000  1.0
  H  H46  1  0.12112000  0.79710000  0.76273000  1.0
  H  H47  1  0.37918000  0.55599000  0.23657000  1.0
  H  H48  1  0.61363000  0.16194000  0.31032000  1.0
  H  H49  1  0.88800000  0.47155000  0.68865000  1.0
  H  H50  1  0.38485000  0.83910000  0.68952000  1.0
  H  H51  1  0.11524000  0.52505000  0.30957000  1.0
  H  H52  1  0.16328000  0.26184000  0.10471000  1.0
  H  H53  1  0.33937000  0.36712000  0.89687000  1.0
  H  H54  1  0.83522000  0.73864000  0.89601000  1.0
  H  H55  1  0.66020000  0.63146000  0.10328000  1.0
  H  H56  1  0.06182000  0.95349000  0.25674000  1.0
  H  H57  1  0.44104000  0.21083000  0.74397000  1.0
  H  H58  1  0.93562000  0.04715000  0.74412000  1.0
  H  H59  1  0.56395000  0.78974000  0.25520000  1.0
  H  H60  1  0.95371000  0.89864000  0.16713000  1.0
  H  H61  1  0.54774000  0.06573000  0.83353000  1.0
  H  H62  1  0.04451000  0.10194000  0.83350000  1.0
  H  H63  1  0.45634000  0.93441000  0.16597000  1.0
  H  H64  1  0.47205000  0.11694000  0.46406000  1.0
  H  H65  1  0.02556000  0.58277000  0.53390000  1.0
  H  H66  1  0.52466000  0.88240000  0.53564000  1.0
  H  H67  1  0.97522000  0.41735000  0.46380000  1.0
  H  H68  1  0.44371000  0.01981000  0.42644000  1.0
  H  H69  1  0.05710000  0.44886000  0.57201000  1.0
  H  H70  1  0.55437000  0.97949000  0.57311000  1.0
  H  H71  1  0.94437000  0.55130000  0.42557000  1.0
  H  H72  1  0.05932000  0.22093000  0.00640000  1.0
  H  H73  1  0.44189000  0.22719000  0.99517000  1.0
  H  H74  1  0.93972000  0.77959000  0.99413000  1.0
  H  H75  1  0.55639000  0.77105000  0.00539000  1.0
  H  H76  1  0.84104000  0.96839000  0.05025000  1.0
  H  H77  1  0.65962000  0.01778000  0.95071000  1.0
  H  H78  1  0.15821000  0.03210000  0.95015000  1.0
  H  H79  1  0.34122000  0.98131000  0.04957000  1.0
  H  H80  1  0.90527000  0.09536000  0.97989000  1.0
  H  H81  1  0.59339000  0.07312000  0.02197000  1.0
  H  H82  1  0.09401000  0.90521000  0.02052000  1.0
  H  H83  1  0.40711000  0.92603000  0.97822000  1.0
  C  C84  1  0.78847000  0.02244000  0.44729000  1.0
  C  C85  1  0.71077000  0.47035000  0.55211000  1.0
  C  C86  1  0.20902000  0.97793000  0.55279000  1.0
  C  C87  1  0.28977000  0.53095000  0.44598000  1.0
  C  C88  1  0.15062000  0.69893000  0.58718000  1.0
  C  C89  1  0.34944000  0.28559000  0.41363000  1.0
  C  C90  1  0.84889000  0.30100000  0.41346000  1.0
  C  C91  1  0.65116000  0.71448000  0.58671000  1.0
  C  C92  1  0.66928000  0.06304000  0.41539000  1.0
  C  C93  1  0.83051000  0.47896000  0.58366000  1.0
  C  C94  1  0.32841000  0.93722000  0.58451000  1.0
  C  C95  1  0.17084000  0.52085000  0.41431000  1.0
  C  C96  1  0.24464000  0.81870000  0.45370000  1.0
  C  C97  1  0.25600000  0.27331000  0.54713000  1.0
  C  C98  1  0.75335000  0.18094000  0.54673000  1.0
  C  C99  1  0.74444000  0.72719000  0.45321000  1.0
  C  C100  1  0.93248000  0.05036000  0.40274000  1.0
  C  C101  1  0.56716000  0.45342000  0.59727000  1.0
  C  C102  1  0.06525000  0.95045000  0.59769000  1.0
  C  C103  1  0.43372000  0.54785000  0.40130000  1.0
  C  C104  1  0.35331000  0.85505000  0.38891000  1.0
  C  C105  1  0.14743000  0.24544000  0.61198000  1.0
  C  C106  1  0.64382000  0.14425000  0.61115000  1.0
  C  C107  1  0.85319000  0.75463000  0.38846000  1.0
  C  C108  1  0.25421000  0.73005000  0.52030000  1.0
  C  C109  1  0.24606000  0.25082000  0.48058000  1.0
  C  C110  1  0.74425000  0.26956000  0.47997000  1.0
  C  C111  1  0.75452000  0.74965000  0.51977000  1.0
  C  C112  1  0.34367000  0.95393000  0.32433000  1.0
  C  C113  1  0.15706000  0.27957000  0.67679000  1.0
  C  C114  1  0.65337000  0.04564000  0.67594000  1.0
  C  C115  1  0.84411000  0.72030000  0.32368000  1.0
  C  C116  1  0.84871000  0.15305000  0.29763000  1.0
  C  C117  1  0.65261000  0.45020000  0.70227000  1.0
  C  C118  1  0.14968000  0.84817000  0.70276000  1.0
  C  C119  1  0.35027000  0.54815000  0.29643000  1.0
  C  C120  1  0.16860000  0.60805000  0.65459000  1.0
  C  C121  1  0.33162000  0.26126000  0.34641000  1.0
  C  C122  1  0.83205000  0.39209000  0.34599000  1.0
  C  C123  1  0.66850000  0.73864000  0.65405000  1.0
  C  C124  1  0.70223000  0.12913000  0.33840000  1.0
  C  C125  1  0.79871000  0.46730000  0.66090000  1.0
  C  C126  1  0.29597000  0.87168000  0.66165000  1.0
  C  C127  1  0.20384000  0.53089000  0.33737000  1.0
  C  C128  1  0.11618000  0.18269000  0.11502000  1.0
  C  C129  1  0.38621000  0.29818000  0.88629000  1.0
  C  C130  1  0.88233000  0.81782000  0.88565000  1.0
  C  C131  1  0.61449000  0.70081000  0.11371000  1.0
  C  C132  1  0.05846000  0.00984000  0.20064000  1.0
  C  C133  1  0.44413000  0.21109000  0.80018000  1.0
  C  C134  1  0.93956000  0.99069000  0.80010000  1.0
  C  C135  1  0.55972000  0.78896000  0.19925000  1.0
  C  C136  1  0.99821000  0.98053000  0.15007000  1.0
  C  C137  1  0.50340000  0.13068000  0.85080000  1.0
  C  C138  1  0.00014000  0.02002000  0.85057000  1.0
  C  C139  1  0.49968000  0.86912000  0.14884000  1.0
  C  C140  1  0.51130000  0.04156000  0.46014000  1.0
  C  C141  1  0.98805000  0.50292000  0.53842000  1.0
  C  C142  1  0.48622000  0.95803000  0.53951000  1.0
  C  C143  1  0.01308000  0.49711000  0.45936000  1.0
  C  C144  1  0.05764000  0.15918000  0.06138000  1.0
  C  C145  1  0.44403000  0.22061000  0.93998000  1.0
  C  C146  1  0.94136000  0.84133000  0.93916000  1.0
  C  C147  1  0.55593000  0.77819000  0.06025000  1.0
  C  C148  1  0.99630000  0.05636000  0.07877000  1.0
  C  C149  1  0.50469000  0.13482000  0.92239000  1.0
  C  C150  1  0.00259000  0.94417000  0.92177000  1.0
  C  C151  1  0.49654000  0.86444000  0.07761000  1.0
  C  C152  1  0.93896000  0.02568000  0.02160000  1.0
  C  C153  1  0.56091000  0.04613000  0.97945000  1.0
  C  C154  1  0.06021000  0.97487000  0.97886000  1.0
  C  C155  1  0.43979000  0.95301000  0.02070000  1.0
  N  N156  1  0.96292000  0.11495000  0.32922000  1.0
  N  N157  1  0.53782000  0.44402000  0.67101000  1.0
  N  N158  1  0.03529000  0.88626000  0.67130000  1.0
  N  N159  1  0.46423000  0.55582000  0.32786000  1.0
  N  N160  1  0.11602000  0.10928000  0.18366000  1.0
  N  N161  1  0.38665000  0.29368000  0.81743000  1.0
  N  N162  1  0.88204000  0.89123000  0.81710000  1.0
  N  N163  1  0.61608000  0.70592000  0.18220000  1.0
  O  O164  1  0.40156000  0.18720000  0.19897000  1.0
  O  O165  1  0.10015000  0.38808000  0.80224000  1.0
  O  O166  1  0.59661000  0.81255000  0.80150000  1.0
  O  O167  1  0.90317000  0.61213000  0.19809000  1.0
  O  O168  1  0.21606000  0.99182000  0.32677000  1.0
  O  O169  1  0.28500000  0.31832000  0.67488000  1.0
  O  O170  1  0.78161000  0.00883000  0.67436000  1.0
  O  O171  1  0.71657000  0.68091000  0.32558000  1.0
  O  O172  1  0.26431000  0.54396000  0.64348000  1.0
  O  O173  1  0.23520000  0.18681000  0.35762000  1.0
  O  O174  1  0.73637000  0.45628000  0.35690000  1.0
  O  O175  1  0.76335000  0.81402000  0.64284000  1.0
  O  O176  1  0.08778000  0.59883000  0.72068000  1.0
  O  O177  1  0.41350000  0.31654000  0.28038000  1.0
  O  O178  1  0.91371000  0.40156000  0.28002000  1.0
  O  O179  1  0.58786000  0.68239000  0.72018000  1.0
  O  O180  1  0.14961000  0.31945000  0.21562000  1.0
  O  O181  1  0.35280000  0.53606000  0.78471000  1.0
  O  O182  1  0.85064000  0.68151000  0.78438000  1.0
  O  O183  1  0.65045000  0.46316000  0.21524000  1.0
  O  O184  1  0.46204000  0.99446000  0.27359000  1.0
  O  O185  1  0.03837000  0.27077000  0.72719000  1.0
  O  O186  1  0.53449000  0.00422000  0.72602000  1.0
  O  O187  1  0.96292000  0.72969000  0.27324000  1.0
