# generated using pymatgen
data_H10PbC14N2O9
_symmetry_space_group_name_H-M   'P 1'
_cell_length_a   6.68988000
_cell_length_b   6.73646000
_cell_length_c   17.38330000
_cell_angle_alpha   87.46250000
_cell_angle_beta   81.61290000
_cell_angle_gamma   84.88250000
_symmetry_Int_Tables_number   1
_chemical_formula_structural   H10PbC14N2O9
_chemical_formula_sum   'H20 Pb2 C28 N4 O18'
_cell_volume   771.54146479
_cell_formula_units_Z   2
loop_
 _symmetry_equiv_pos_site_id
 _symmetry_equiv_pos_as_xyz
  1  'x, y, z'
loop_
 _atom_site_type_symbol
 _atom_site_label
 _atom_site_symmetry_multiplicity
 _atom_site_fract_x
 _atom_site_fract_y
 _atom_site_fract_z
 _atom_site_occupancy
  H  H0  1  0.79262000  0.24103000  0.98790000  1.0
  H  H1  1  0.20738000  0.75900000  0.01208000  1.0
  H  H2  1  0.62610000  0.15707000  0.87393000  1.0
  H  H3  1  0.37390000  0.84297000  0.12607000  1.0
  H  H4  1  0.05080000  0.26144000  0.02050000  1.0
  H  H5  1  0.94919000  0.73854000  0.97951000  1.0
  H  H6  1  0.24043000  0.79609000  0.41954000  1.0
  H  H7  1  0.75963000  0.20387000  0.58047000  1.0
  H  H8  1  0.28710000  0.99312000  0.53179000  1.0
  H  H9  1  0.71296000  0.00685000  0.46822000  1.0
  H  H10  1  0.20473000  0.52524000  0.38760000  1.0
  H  H11  1  0.79524000  0.47476000  0.61241000  1.0
  H  H12  1  0.97883000  0.06994000  0.84117000  1.0
  H  H13  1  0.02116000  0.93005000  0.15884000  1.0
  H  H14  1  0.30721000  0.39517000  0.64281000  1.0
  H  H15  1  0.69279000  0.60482000  0.35719000  1.0
  H  H16  1  0.69799000  0.31582000  0.33856000  1.0
  H  H17  1  0.30198000  0.68416000  0.66144000  1.0
  H  H18  1  0.61730000  0.41650000  0.26105000  1.0
  H  H19  1  0.38272000  0.58348000  0.73895000  1.0
  Pb  Pb20  1  0.09761000  0.41931000  0.20628000  1.0
  Pb  Pb21  1  0.90249000  0.58070000  0.79369000  1.0
  C  C22  1  0.50813000  0.29623000  0.06218000  1.0
  C  C23  1  0.49186000  0.70383000  0.93782000  1.0
  C  C24  1  0.62915000  0.24524000  0.99247000  1.0
  C  C25  1  0.37085000  0.75483000  0.00753000  1.0
  C  C26  1  0.53803000  0.19924000  0.92944000  1.0
  C  C27  1  0.46197000  0.80077000  0.07056000  1.0
  C  C28  1  0.32711000  0.20282000  0.93783000  1.0
  C  C29  1  0.67289000  0.79720000  0.06217000  1.0
  C  C30  1  0.21569000  0.25589000  0.00974000  1.0
  C  C31  1  0.78429000  0.74413000  0.99026000  1.0
  C  C32  1  0.60594000  0.34821000  0.13115000  1.0
  C  C33  1  0.39403000  0.65181000  0.86885000  1.0
  C  C34  1  0.23335000  0.14309000  0.87026000  1.0
  C  C35  1  0.76666000  0.85691000  0.12974000  1.0
  C  C36  1  0.19256000  0.05676000  0.34546000  1.0
  C  C37  1  0.80743000  0.94320000  0.65454000  1.0
  C  C38  1  0.23253000  0.95736000  0.41425000  1.0
  C  C39  1  0.76749000  0.04258000  0.58576000  1.0
  C  C40  1  0.25990000  0.06770000  0.47703000  1.0
  C  C41  1  0.74013000  0.93226000  0.52298000  1.0
  C  C42  1  0.25053000  0.27549000  0.46910000  1.0
  C  C43  1  0.74943000  0.72448000  0.53090000  1.0
  C  C44  1  0.21272000  0.36399000  0.39761000  1.0
  C  C45  1  0.78727000  0.63598000  0.60239000  1.0
  C  C46  1  0.15460000  0.94139000  0.27708000  1.0
  C  C47  1  0.84542000  0.05860000  0.72292000  1.0
  C  C48  1  0.27333000  0.40293000  0.53481000  1.0
  C  C49  1  0.72664000  0.59708000  0.46519000  1.0
  N  N50  1  0.30445000  0.30205000  0.07006000  1.0
  N  N51  1  0.69553000  0.69798000  0.92993000  1.0
  N  N52  1  0.18313000  0.25732000  0.33786000  1.0
  N  N53  1  0.81685000  0.74264000  0.66214000  1.0
  O  O54  1  0.48779000  0.39509000  0.19401000  1.0
  O  O55  1  0.51217000  0.60489000  0.80599000  1.0
  O  O56  1  0.79625000  0.34424000  0.12187000  1.0
  O  O57  1  0.20371000  0.65582000  0.87815000  1.0
  O  O58  1  0.03173000  0.13976000  0.88557000  1.0
  O  O59  1  0.96828000  0.86024000  0.11442000  1.0
  O  O60  1  0.33506000  0.09913000  0.80778000  1.0
  O  O61  1  0.66495000  0.90091000  0.19221000  1.0
  O  O62  1  0.11186000  0.04570000  0.21639000  1.0
  O  O63  1  0.88815000  0.95430000  0.78360000  1.0
  O  O64  1  0.16431000  0.75523000  0.28326000  1.0
  O  O65  1  0.83570000  0.24476000  0.71674000  1.0
  O  O66  1  0.26204000  0.58716000  0.52929000  1.0
  O  O67  1  0.73796000  0.41282000  0.47072000  1.0
  O  O68  1  0.30280000  0.29751000  0.59925000  1.0
  O  O69  1  0.69719000  0.70250000  0.40075000  1.0
  O  O70  1  0.71301000  0.42795000  0.30136000  1.0
  O  O71  1  0.28698000  0.57204000  0.69865000  1.0
