# generated using pymatgen
data_CdNiH66(C19N5)2
_symmetry_space_group_name_H-M   'P 1'
_cell_length_a   9.00360000
_cell_length_b   14.75543246
_cell_length_c   17.00710000
_cell_angle_alpha   76.32003277
_cell_angle_beta   89.99490000
_cell_angle_gamma   72.24863562
_symmetry_Int_Tables_number   1
_chemical_formula_structural   CdNiH66(C19N5)2
_chemical_formula_sum   'Cd2 Ni2 H132 C76 N20'
_cell_volume   2084.46754164
_cell_formula_units_Z   2
loop_
 _symmetry_equiv_pos_site_id
 _symmetry_equiv_pos_as_xyz
  1  'x, y, z'
loop_
 _atom_site_type_symbol
 _atom_site_label
 _atom_site_symmetry_multiplicity
 _atom_site_fract_x
 _atom_site_fract_y
 _atom_site_fract_z
 _atom_site_occupancy
  Cd  Cd0  1  0.00000000  0.00000000  0.00000000  1.0
  Cd  Cd1  1  0.00000000  0.00000000  0.50000000  1.0
  Ni  Ni2  1  0.34948000  0.99971000  0.75006000  1.0
  Ni  Ni3  1  0.65051000  0.00030000  0.24994000  1.0
  H  H4  1  0.02774000  0.16137000  0.06140000  1.0
  H  H5  1  0.18906000  0.83872000  0.43858000  1.0
  H  H6  1  0.97226000  0.83863000  0.93860000  1.0
  H  H7  1  0.81094000  0.16128000  0.56142000  1.0
  H  H8  1  0.19764000  0.07507000  0.07395000  1.0
  H  H9  1  0.27280000  0.92500000  0.42608000  1.0
  H  H10  1  0.80237000  0.92493000  0.92605000  1.0
  H  H11  1  0.72720000  0.07500000  0.57392000  1.0
  H  H12  1  0.25450000  0.13407000  0.93723000  1.0
  H  H13  1  0.38869000  0.86594000  0.56271000  1.0
  H  H14  1  0.74551000  0.86592000  0.06277000  1.0
  H  H15  1  0.61131000  0.13406000  0.43729000  1.0
  H  H16  1  0.23338000  0.22033000  0.99670000  1.0
  H  H17  1  0.45338000  0.77950000  0.50337000  1.0
  H  H18  1  0.76662000  0.77967000  0.00330000  1.0
  H  H19  1  0.54662000  0.22050000  0.49663000  1.0
  H  H20  1  0.98636000  0.21901000  0.87370000  1.0
  H  H21  1  0.20514000  0.78137000  0.62646000  1.0
  H  H22  1  0.01364000  0.78099000  0.12630000  1.0
  H  H23  1  0.79487000  0.21863000  0.37354000  1.0
  H  H24  1  0.94711000  0.29420000  0.94327000  1.0
  H  H25  1  0.24050000  0.70607000  0.55697000  1.0
  H  H26  1  0.05289000  0.70580000  0.05672000  1.0
  H  H27  1  0.75950000  0.29393000  0.44303000  1.0
  H  H28  1  0.17970000  0.29781000  0.81146000  1.0
  H  H29  1  0.47695000  0.70239000  0.68870000  1.0
  H  H30  1  0.82030000  0.70219000  0.18854000  1.0
  H  H31  1  0.52306000  0.29760000  0.31130000  1.0
  H  H32  1  0.16018000  0.36526000  0.88565000  1.0
  H  H33  1  0.52491000  0.63513000  0.61438000  1.0
  H  H34  1  0.83981000  0.63474000  0.11435000  1.0
  H  H35  1  0.47509000  0.36487000  0.38562000  1.0
  H  H36  1  0.87664000  0.45056000  0.83712000  1.0
  H  H37  1  0.32703000  0.54946000  0.66286000  1.0
  H  H38  1  0.12335000  0.54944000  0.16288000  1.0
  H  H39  1  0.67297000  0.45054000  0.33714000  1.0
  H  H40  1  0.89748000  0.38481000  0.76166000  1.0
  H  H41  1  0.28205000  0.61505000  0.73843000  1.0
  H  H42  1  0.10251000  0.61519000  0.23834000  1.0
  H  H43  1  0.71796000  0.38494000  0.26157000  1.0
  H  H44  1  0.10171000  0.46126000  0.70216000  1.0
  H  H45  1  0.56295000  0.53903000  0.79759000  1.0
  H  H46  1  0.89829000  0.53874000  0.29784000  1.0
  H  H47  1  0.43704000  0.46097000  0.20242000  1.0
  H  H48  1  0.07461000  0.52859000  0.77687000  1.0
  H  H49  1  0.60308000  0.47170000  0.72289000  1.0
  H  H50  1  0.92538000  0.47141000  0.22313000  1.0
  H  H51  1  0.39693000  0.52830000  0.27711000  1.0
  H  H52  1  0.82152000  0.54169000  0.65020000  1.0
  H  H53  1  0.36348000  0.45834000  0.84983000  1.0
  H  H54  1  0.17847000  0.45831000  0.34980000  1.0
  H  H55  1  0.63651000  0.54166000  0.15017000  1.0
  H  H56  1  0.78942000  0.60735000  0.72554000  1.0
  H  H57  1  0.39724000  0.39255000  0.77454000  1.0
  H  H58  1  0.21058000  0.39265000  0.27446000  1.0
  H  H59  1  0.60276000  0.60745000  0.22546000  1.0
  H  H60  1  0.97576000  0.69432000  0.67001000  1.0
  H  H61  1  0.67060000  0.30590000  0.82999000  1.0
  H  H62  1  0.02425000  0.30567000  0.32999000  1.0
  H  H63  1  0.32940000  0.69410000  0.17001000  1.0
  H  H64  1  0.02581000  0.62499000  0.59729000  1.0
  H  H65  1  0.65114000  0.37535000  0.90266000  1.0
  H  H66  1  0.97419000  0.37501000  0.40271000  1.0
  H  H67  1  0.34886000  0.62465000  0.09734000  1.0
  H  H68  1  0.69644000  0.76429000  0.60491000  1.0
  H  H69  1  0.46120000  0.23594000  0.89508000  1.0
  H  H70  1  0.30356000  0.23571000  0.39509000  1.0
  H  H71  1  0.53881000  0.76405000  0.10492000  1.0
  H  H72  1  0.75231000  0.69372000  0.53316000  1.0
  H  H73  1  0.44649000  0.30646000  0.96685000  1.0
  H  H74  1  0.24768000  0.30628000  0.46683000  1.0
  H  H75  1  0.55351000  0.69354000  0.03315000  1.0
  H  H76  1  0.75079000  0.85980000  0.46963000  1.0
  H  H77  1  0.61088000  0.14046000  0.03039000  1.0
  H  H78  1  0.24921000  0.14020000  0.53037000  1.0
  H  H79  1  0.38912000  0.85954000  0.96961000  1.0
  H  H80  1  0.94736000  0.78363000  0.48545000  1.0
  H  H81  1  0.73156000  0.21649000  0.01445000  1.0
  H  H82  1  0.05264000  0.21637000  0.51455000  1.0
  H  H83  1  0.26844000  0.78351000  0.98555000  1.0
  H  H84  1  0.95291000  0.84074000  0.61229000  1.0
  H  H85  1  0.79386000  0.15917000  0.88765000  1.0
  H  H86  1  0.04708000  0.15926000  0.38771000  1.0
  H  H87  1  0.20615000  0.84083000  0.11235000  1.0
  H  H88  1  0.77965000  0.91797000  0.58298000  1.0
  H  H89  1  0.69758000  0.08207000  0.91710000  1.0
  H  H90  1  0.22035000  0.08203000  0.41702000  1.0
  H  H91  1  0.30242000  0.91793000  0.08290000  1.0
  H  H92  1  0.53333000  0.41682000  0.56031000  1.0
  H  H93  1  0.95029000  0.58321000  0.93967000  1.0
  H  H94  1  0.46668000  0.58318000  0.43969000  1.0
  H  H95  1  0.04971000  0.41679000  0.06033000  1.0
  H  H96  1  0.03094000  0.34410000  0.60269000  1.0
  H  H97  1  0.37537000  0.65585000  0.89725000  1.0
  H  H98  1  0.96906000  0.65590000  0.39731000  1.0
  H  H99  1  0.62465000  0.34414000  0.10275000  1.0
  H  H100  1  0.03650000  0.19164000  0.70326000  1.0
  H  H101  1  0.22872000  0.80828000  0.79661000  1.0
  H  H102  1  0.96351000  0.80835000  0.29674000  1.0
  H  H103  1  0.77128000  0.19172000  0.20339000  1.0
  H  H104  1  0.39337000  0.31759000  0.63190000  1.0
  H  H105  1  0.71119000  0.68250000  0.86789000  1.0
  H  H106  1  0.60664000  0.68241000  0.36810000  1.0
  H  H107  1  0.28881000  0.31750000  0.13211000  1.0
  H  H108  1  0.49594000  0.19036000  0.64759000  1.0
  H  H109  1  0.68685000  0.80974000  0.85221000  1.0
  H  H110  1  0.50406000  0.80965000  0.35241000  1.0
  H  H111  1  0.31316000  0.19026000  0.14779000  1.0
  H  H112  1  0.47514000  0.24517000  0.73032000  1.0
  H  H113  1  0.72085000  0.75491000  0.76949000  1.0
  H  H114  1  0.52486000  0.75483000  0.26968000  1.0
  H  H115  1  0.27915000  0.24509000  0.23051000  1.0
  H  H116  1  0.75347000  0.48018000  0.44902000  1.0
  H  H117  1  0.23394000  0.51990000  0.05096000  1.0
  H  H118  1  0.24653000  0.51982000  0.55098000  1.0
  H  H119  1  0.76605000  0.48010000  0.94904000  1.0
  H  H120  1  0.68333000  0.54870000  0.52147000  1.0
  H  H121  1  0.23223000  0.45129000  0.97859000  1.0
  H  H122  1  0.31667000  0.45130000  0.47853000  1.0
  H  H123  1  0.76777000  0.54870000  0.02141000  1.0
  H  H124  1  0.88715000  0.50081000  0.51397000  1.0
  H  H125  1  0.38815000  0.49924000  0.98595000  1.0
  H  H126  1  0.11285000  0.49919000  0.48603000  1.0
  H  H127  1  0.61186000  0.50075000  0.01405000  1.0
  H  H128  1  0.70007000  0.10734000  0.75140000  1.0
  H  H129  1  0.80799000  0.89255000  0.74851000  1.0
  H  H130  1  0.29993000  0.89266000  0.24860000  1.0
  H  H131  1  0.19201000  0.10745000  0.25149000  1.0
  H  H132  1  0.89639000  0.08479000  0.77186000  1.0
  H  H133  1  0.98171000  0.91516000  0.72799000  1.0
  H  H134  1  0.10361000  0.91521000  0.22815000  1.0
  H  H135  1  0.01830000  0.08484000  0.27201000  1.0
  C  C136  1  0.16938000  0.18158000  0.96850000  1.0
  C  C137  1  0.35079000  0.81848000  0.53151000  1.0
  C  C138  1  0.83061000  0.81842000  0.03150000  1.0
  C  C139  1  0.64921000  0.18152000  0.46849000  1.0
  C  C140  1  0.03943000  0.25685000  0.90861000  1.0
  C  C141  1  0.29584000  0.74340000  0.59152000  1.0
  C  C142  1  0.96056000  0.74315000  0.09139000  1.0
  C  C143  1  0.70418000  0.25659000  0.40848000  1.0
  C  C144  1  0.09523000  0.33359000  0.85050000  1.0
  C  C145  1  0.42832000  0.66663000  0.64961000  1.0
  C  C146  1  0.90477000  0.66641000  0.14950000  1.0
  C  C147  1  0.57171667  0.33333333  0.35039000  1.0
  C  C148  1  0.96150000  0.41610000  0.79758000  1.0
  C  C149  1  0.37728000  0.58398000  0.70240000  1.0
  C  C150  1  0.03850000  0.58390000  0.20242000  1.0
  C  C151  1  0.62272000  0.41602000  0.29760000  1.0
  C  C152  1  0.01432000  0.49535000  0.74085000  1.0
  C  C153  1  0.50960000  0.50481000  0.75902000  1.0
  C  C154  1  0.98567000  0.50465000  0.25915000  1.0
  C  C155  1  0.49040000  0.49519000  0.24098000  1.0
  C  C156  1  0.87900000  0.57549000  0.68701000  1.0
  C  C157  1  0.45468000  0.42460000  0.81299000  1.0
  C  C158  1  0.12099000  0.42451000  0.31299000  1.0
  C  C159  1  0.54531000  0.57540000  0.18701000  1.0
  C  C160  1  0.92835000  0.65732000  0.63165000  1.0
  C  C161  1  0.58604000  0.34290000  0.86834000  1.0
  C  C162  1  0.07165000  0.34267000  0.36835000  1.0
  C  C163  1  0.41396000  0.65710000  0.13166000  1.0
  C  C164  1  0.79609000  0.73197000  0.57178000  1.0
  C  C165  1  0.52850000  0.26822000  0.92825000  1.0
  C  C166  1  0.20391000  0.26803000  0.42822000  1.0
  C  C167  1  0.47151000  0.73177000  0.07175000  1.0
  C  C168  1  0.84467000  0.81471000  0.51692000  1.0
  C  C169  1  0.65975000  0.18546000  0.98305000  1.0
  C  C170  1  0.15533000  0.18529000  0.48308000  1.0
  C  C171  1  0.34025000  0.81454000  0.01696000  1.0
  C  C172  1  0.19934000  0.00862000  0.82298000  1.0
  C  C173  1  0.20785000  0.99125000  0.67711000  1.0
  C  C174  1  0.80065000  0.99139000  0.17702000  1.0
  C  C175  1  0.79215000  0.00876000  0.32289000  1.0
  C  C176  1  0.49256000  0.00596000  0.82390000  1.0
  C  C177  1  0.49879000  0.99332000  0.67613000  1.0
  C  C178  1  0.50743000  0.99404000  0.17610000  1.0
  C  C179  1  0.50121000  0.00668000  0.32388000  1.0
  C  C180  1  0.78748000  0.21738000  0.68991000  1.0
  C  C181  1  0.00536000  0.78255000  0.81001000  1.0
  C  C182  1  0.21252000  0.78262000  0.31009000  1.0
  C  C183  1  0.99463000  0.21745000  0.18999000  1.0
  C  C184  1  0.64368000  0.28201000  0.64816000  1.0
  C  C185  1  0.92604000  0.71795000  0.85173000  1.0
  C  C186  1  0.35632000  0.71799000  0.35185000  1.0
  C  C187  1  0.07396000  0.28205000  0.14826000  1.0
  C  C188  1  0.64474000  0.36731000  0.59146000  1.0
  C  C189  1  0.01228000  0.63269000  0.90849000  1.0
  C  C190  1  0.35526000  0.63269000  0.40855000  1.0
  C  C191  1  0.98772000  0.36731000  0.09151000  1.0
  C  C192  1  0.78139000  0.39227000  0.57328000  1.0
  C  C193  1  0.17392000  0.60771000  0.92664000  1.0
  C  C194  1  0.21861000  0.60773000  0.42672000  1.0
  C  C195  1  0.82609000  0.39229000  0.07336000  1.0
  C  C196  1  0.92182000  0.32732000  0.61478000  1.0
  C  C197  1  0.24947000  0.67267000  0.88516000  1.0
  C  C198  1  0.07819000  0.67268000  0.38523000  1.0
  C  C199  1  0.75053000  0.32733000  0.11485000  1.0
  C  C200  1  0.92553000  0.24136000  0.67183000  1.0
  C  C201  1  0.16735000  0.75864000  0.82810000  1.0
  C  C202  1  0.07447000  0.75864000  0.32817000  1.0
  C  C203  1  0.83266000  0.24136000  0.17190000  1.0
  C  C204  1  0.49464000  0.25782000  0.66522000  1.0
  C  C205  1  0.75283000  0.74225000  0.83460000  1.0
  C  C206  1  0.50536000  0.74218000  0.33478000  1.0
  C  C207  1  0.24717000  0.25775000  0.16540000  1.0
  C  C208  1  0.77610000  0.48498000  0.51134000  1.0
  C  C209  1  0.26130000  0.51506000  0.98863000  1.0
  C  C210  1  0.22389000  0.51503000  0.48866000  1.0
  C  C211  1  0.73871000  0.48493000  0.01137000  1.0
  N  N212  1  0.10713000  0.11831000  0.03148000  1.0
  N  N213  1  0.22543000  0.88177000  0.46851000  1.0
  N  N214  1  0.89286000  0.88170000  0.96852000  1.0
  N  N215  1  0.77456000  0.11823000  0.53149000  1.0
  N  N216  1  0.88108000  0.88095000  0.56117000  1.0
  N  N217  1  0.76214000  0.11908000  0.93883000  1.0
  N  N218  1  0.11892000  0.11905000  0.43883000  1.0
  N  N219  1  0.23787000  0.88092000  0.06118000  1.0
  N  N220  1  0.09760000  0.01550000  0.86662000  1.0
  N  N221  1  0.11279000  0.98477000  0.63335000  1.0
  N  N222  1  0.90239000  0.98450000  0.13338000  1.0
  N  N223  1  0.88722000  0.01523000  0.36664000  1.0
  N  N224  1  0.58859000  0.00823000  0.86951000  1.0
  N  N225  1  0.59688000  0.99126000  0.63043000  1.0
  N  N226  1  0.41142000  0.99177000  0.13050000  1.0
  N  N227  1  0.40313000  0.00873000  0.36958000  1.0
  N  N228  1  0.79085000  0.13470000  0.74928000  1.0
  N  N229  1  0.92612000  0.86523000  0.75064000  1.0
  N  N230  1  0.20915000  0.86530000  0.25072000  1.0
  N  N231  1  0.07389000  0.13477000  0.24936000  1.0
