# generated using pymatgen
data_CuH3C3S3N3Cl
_symmetry_space_group_name_H-M   'P 1'
_cell_length_a   11.66470000
_cell_length_b   11.66460000
_cell_length_c   11.66460000
_cell_angle_alpha   90.00010000
_cell_angle_beta   89.99990000
_cell_angle_gamma   89.99990000
_symmetry_Int_Tables_number   1
_chemical_formula_structural   CuH3C3S3N3Cl
_chemical_formula_sum   'Cu8 H24 C24 S24 N24 Cl8'
_cell_volume   1587.13282984
_cell_formula_units_Z   8
loop_
 _symmetry_equiv_pos_site_id
 _symmetry_equiv_pos_as_xyz
  1  'x, y, z'
loop_
 _atom_site_type_symbol
 _atom_site_label
 _atom_site_symmetry_multiplicity
 _atom_site_fract_x
 _atom_site_fract_y
 _atom_site_fract_z
 _atom_site_occupancy
  Cu  Cu0  1  0.89424000  0.10576000  0.10576000  1.0
  Cu  Cu1  1  0.10576000  0.39424000  0.60576000  1.0
  Cu  Cu2  1  0.60576000  0.60576000  0.89424000  1.0
  Cu  Cu3  1  0.39424000  0.89424000  0.39424000  1.0
  Cu  Cu4  1  0.10576000  0.89424000  0.89424000  1.0
  Cu  Cu5  1  0.89424000  0.60576000  0.39424000  1.0
  Cu  Cu6  1  0.39424000  0.39424000  0.10576000  1.0
  Cu  Cu7  1  0.60576000  0.10576000  0.60576000  1.0
  H  H8  1  0.91625000  0.16225000  0.33023000  1.0
  H  H9  1  0.83775000  0.33023000  0.08375000  1.0
  H  H10  1  0.66978000  0.08376000  0.16225000  1.0
  H  H11  1  0.33022000  0.41625000  0.66225000  1.0
  H  H12  1  0.66225000  0.83023000  0.91625000  1.0
  H  H13  1  0.16977000  0.91625000  0.33775000  1.0
  H  H14  1  0.16225000  0.16977000  0.58375000  1.0
  H  H15  1  0.33775000  0.66978000  0.41625000  1.0
  H  H16  1  0.83023000  0.58375000  0.83775000  1.0
  H  H17  1  0.08375000  0.33775000  0.83023000  1.0
  H  H18  1  0.58374000  0.66225000  0.66978000  1.0
  H  H19  1  0.41626000  0.83775000  0.16978000  1.0
  H  H20  1  0.08375000  0.83775000  0.66978000  1.0
  H  H21  1  0.16225000  0.66977000  0.91625000  1.0
  H  H22  1  0.33023000  0.91625000  0.83775000  1.0
  H  H23  1  0.66977000  0.58375000  0.33775000  1.0
  H  H24  1  0.33775000  0.16978000  0.08375000  1.0
  H  H25  1  0.83022000  0.08375000  0.66225000  1.0
  H  H26  1  0.83775000  0.83022000  0.41625000  1.0
  H  H27  1  0.66225000  0.33022000  0.58375000  1.0
  H  H28  1  0.16978000  0.41625000  0.16225000  1.0
  H  H29  1  0.91625000  0.66225000  0.16977000  1.0
  H  H30  1  0.41625000  0.33775000  0.33022000  1.0
  H  H31  1  0.58375000  0.16225000  0.83022000  1.0
  C  C32  1  0.03418000  0.03001000  0.32083000  1.0
  C  C33  1  0.96998000  0.32083000  0.96582000  1.0
  C  C34  1  0.67917000  0.96582000  0.03001000  1.0
  C  C35  1  0.32083000  0.53419000  0.53002000  1.0
  C  C36  1  0.53002000  0.82082000  0.03419000  1.0
  C  C37  1  0.17918000  0.03419000  0.46999000  1.0
  C  C38  1  0.03001000  0.17918000  0.46582000  1.0
  C  C39  1  0.46998000  0.67917000  0.53419000  1.0
  C  C40  1  0.82082000  0.46581000  0.96999000  1.0
  C  C41  1  0.96581000  0.46998000  0.82083000  1.0
  C  C42  1  0.46580000  0.53002000  0.67917000  1.0
  C  C43  1  0.53419000  0.96999000  0.17918000  1.0
  C  C44  1  0.96581000  0.96998000  0.67918000  1.0
  C  C45  1  0.03001000  0.67919000  0.03419000  1.0
  C  C46  1  0.32083000  0.03419000  0.96998000  1.0
  C  C47  1  0.67918000  0.46581000  0.46999000  1.0
  C  C48  1  0.46998000  0.17917000  0.96582000  1.0
  C  C49  1  0.82083000  0.96581000  0.53002000  1.0
  C  C50  1  0.96998000  0.82083000  0.53419000  1.0
  C  C51  1  0.53002000  0.32082000  0.46581000  1.0
  C  C52  1  0.17918000  0.53418000  0.03001000  1.0
  C  C53  1  0.03419000  0.53001000  0.17918000  1.0
  C  C54  1  0.53418000  0.46999000  0.32082000  1.0
  C  C55  1  0.46581000  0.03001000  0.82083000  1.0
  S  S56  1  0.97680000  0.96299000  0.20887000  1.0
  S  S57  1  0.03702000  0.20887000  0.02320000  1.0
  S  S58  1  0.79113000  0.02320000  0.96299000  1.0
  S  S59  1  0.20886000  0.47680000  0.46298000  1.0
  S  S60  1  0.46299000  0.70887000  0.97680000  1.0
  S  S61  1  0.29112000  0.97680000  0.53701000  1.0
  S  S62  1  0.96299000  0.29112000  0.52319000  1.0
  S  S63  1  0.53702000  0.79113000  0.47681000  1.0
  S  S64  1  0.70887000  0.52320000  0.03701000  1.0
  S  S65  1  0.02320000  0.53701000  0.70887000  1.0
  S  S66  1  0.52320000  0.46298000  0.79113000  1.0
  S  S67  1  0.47681000  0.03702000  0.29113000  1.0
  S  S68  1  0.02320000  0.03701000  0.79113000  1.0
  S  S69  1  0.96299000  0.79113000  0.97680000  1.0
  S  S70  1  0.20888000  0.97681000  0.03701000  1.0
  S  S71  1  0.79112000  0.52319000  0.53701000  1.0
  S  S72  1  0.53702000  0.29113000  0.02319000  1.0
  S  S73  1  0.70887000  0.02319000  0.46299000  1.0
  S  S74  1  0.03701000  0.70887000  0.47681000  1.0
  S  S75  1  0.46299000  0.20888000  0.52319000  1.0
  S  S76  1  0.29113000  0.47681000  0.96299000  1.0
  S  S77  1  0.97681000  0.46299000  0.29113000  1.0
  S  S78  1  0.47681000  0.53701000  0.20887000  1.0
  S  S79  1  0.52320000  0.96299000  0.70887000  1.0
  N  N80  1  0.98826000  0.12669000  0.36934000  1.0
  N  N81  1  0.87331000  0.36934000  0.01174000  1.0
  N  N82  1  0.63066000  0.01174000  0.12669000  1.0
  N  N83  1  0.36934000  0.48826000  0.62669000  1.0
  N  N84  1  0.62670000  0.86935000  0.98827000  1.0
  N  N85  1  0.13065000  0.98826000  0.37331000  1.0
  N  N86  1  0.12669000  0.13065000  0.51174000  1.0
  N  N87  1  0.37330000  0.63065000  0.48827000  1.0
  N  N88  1  0.86934000  0.51174000  0.87331000  1.0
  N  N89  1  0.01174000  0.37331000  0.86935000  1.0
  N  N90  1  0.51173000  0.62669000  0.63065000  1.0
  N  N91  1  0.48826000  0.87330000  0.13066000  1.0
  N  N92  1  0.01174000  0.87331000  0.63066000  1.0
  N  N93  1  0.12670000  0.63066000  0.98826000  1.0
  N  N94  1  0.36935000  0.98826000  0.87330000  1.0
  N  N95  1  0.63065000  0.51174000  0.37330000  1.0
  N  N96  1  0.37331000  0.13066000  0.01174000  1.0
  N  N97  1  0.86935000  0.01174000  0.62669000  1.0
  N  N98  1  0.87330000  0.86934000  0.48827000  1.0
  N  N99  1  0.62669000  0.36934000  0.51174000  1.0
  N  N100  1  0.13066000  0.48827000  0.12669000  1.0
  N  N101  1  0.98826000  0.62670000  0.13065000  1.0
  N  N102  1  0.48826000  0.37331000  0.36934000  1.0
  N  N103  1  0.51173000  0.12669000  0.86934000  1.0
  Cl  Cl104  1  0.77626000  0.22375000  0.22374000  1.0
  Cl  Cl105  1  0.22374000  0.27626000  0.72374000  1.0
  Cl  Cl106  1  0.72374000  0.72374000  0.77625000  1.0
  Cl  Cl107  1  0.27626000  0.77625000  0.27625000  1.0
  Cl  Cl108  1  0.22375000  0.77625000  0.77625000  1.0
  Cl  Cl109  1  0.77626000  0.72374000  0.27625000  1.0
  Cl  Cl110  1  0.27626000  0.27626000  0.22374000  1.0
  Cl  Cl111  1  0.72374000  0.22374000  0.72374000  1.0
