# generated using pymatgen
data_Zn4H25C40I2N16F
_symmetry_space_group_name_H-M   'P 1'
_cell_length_a   12.95220000
_cell_length_b   13.06140000
_cell_length_c   14.88223524
_cell_angle_alpha   64.24031475
_cell_angle_beta   65.42996528
_cell_angle_gamma   75.90400000
_symmetry_Int_Tables_number   1
_chemical_formula_structural   Zn4H25C40I2N16F
_chemical_formula_sum   'Zn4 H25 C40 I2 N16 F1'
_cell_volume   2056.09906487
_cell_formula_units_Z   1
loop_
 _symmetry_equiv_pos_site_id
 _symmetry_equiv_pos_as_xyz
  1  'x, y, z'
loop_
 _atom_site_type_symbol
 _atom_site_label
 _atom_site_symmetry_multiplicity
 _atom_site_fract_x
 _atom_site_fract_y
 _atom_site_fract_z
 _atom_site_occupancy
  Zn  Zn0  1  0.82734000  0.66924000  0.00145000  1.0
  Zn  Zn1  1  0.11515000  0.36568000  0.00589000  1.0
  Zn  Zn2  1  0.99135000  0.52566000  0.14408000  1.0
  Zn  Zn3  1  0.96409000  0.49152000  0.86041000  1.0
  H  H4  1  0.85475000  0.92745000  0.98123000  1.0
  H  H5  1  0.34304000  0.26817000  0.84002000  1.0
  H  H6  1  0.08580000  0.81821000  0.53473000  1.0
  H  H7  1  0.51637000  0.35194000  0.66221000  1.0
  H  H8  1  0.67857000  0.37811000  0.49311000  1.0
  H  H9  1  0.45813000  0.36309000  0.34876000  1.0
  H  H10  1  0.29558000  0.33739000  0.51810000  1.0
  H  H11  1  0.53135000  0.55106000  0.81477000  1.0
  H  H12  1  0.15233000  0.89460000  0.98512000  1.0
  H  H13  1  0.16074000  0.07980000  0.93154000  1.0
  H  H14  1  0.19397000  0.70317000  0.03284000  1.0
  H  H15  1  0.19507000  0.13737000  0.18758000  1.0
  H  H16  1  0.14594000  0.65523000  0.67046000  1.0
  H  H17  1  0.34309000  0.49222000  0.84467000  1.0
  H  H18  1  0.97694000  0.87990000  0.84259000  1.0
  H  H19  1  0.16000000  0.46331000  0.62410000  1.0
  H  H20  1  0.04488000  0.71265000  0.18528000  1.0
  H  H21  1  0.60256000  0.75340000  0.92497000  1.0
  H  H22  1  0.83598000  0.32865000  0.32958000  1.0
  H  H23  1  0.93101000  0.25033000  0.87139000  1.0
  H  H24  1  0.03347000  0.13971000  0.14282000  1.0
  H  H25  1  0.75693000  0.49260000  0.79304000  1.0
  H  H26  1  0.03491000  0.34665000  0.37609000  1.0
  H  H27  1  0.15936000  0.19374000  0.49246000  1.0
  H  H28  1  0.10031000  0.98147000  0.36634000  1.0
  C  C29  1  0.89108000  0.85860000  0.03658000  1.0
  C  C30  1  0.66600000  0.50517000  0.20712000  1.0
  C  C31  1  0.73622000  0.55645000  0.82763000  1.0
  C  C32  1  0.28275000  0.31953000  0.80098000  1.0
  C  C33  1  0.07267000  0.31115000  0.31449000  1.0
  C  C34  1  0.63458000  0.62559000  0.85046000  1.0
  C  C35  1  0.12182000  0.20042000  0.32229000  1.0
  C  C36  1  0.67248000  0.41663000  0.30290000  1.0
  C  C37  1  0.99649000  0.14617000  0.00583000  1.0
  C  C38  1  0.13490000  0.01765000  0.59683000  1.0
  C  C39  1  0.14245000  0.11134000  0.50150000  1.0
  C  C40  1  0.29357000  0.35626000  0.69385000  1.0
  C  C41  1  0.12837000  0.10121000  0.41722000  1.0
  C  C42  1  0.11322000  0.99225000  0.42953000  1.0
  C  C43  1  0.10552000  0.90004000  0.52446000  1.0
  C  C44  1  0.21222000  0.64368000  0.99439000  1.0
  C  C45  1  0.11228000  0.90935000  0.61294000  1.0
  C  C46  1  0.50333000  0.35254000  0.59409000  1.0
  C  C47  1  0.59496000  0.36716000  0.49868000  1.0
  C  C48  1  0.57994000  0.37760000  0.40654000  1.0
  C  C49  1  0.47128000  0.36199000  0.41689000  1.0
  C  C50  1  0.37951000  0.34771000  0.51237000  1.0
  C  C51  1  0.31543000  0.61885000  0.92057000  1.0
  C  C52  1  0.39254000  0.34822000  0.60138000  1.0
  C  C53  1  0.52914000  0.61309000  0.84653000  1.0
  C  C54  1  0.42449000  0.65599000  0.89314000  1.0
  C  C55  1  0.06916000  0.93902000  0.01325000  1.0
  C  C56  1  0.09482000  0.69541000  0.72728000  1.0
  C  C57  1  0.07467000  0.05119000  0.98171000  1.0
  C  C58  1  0.28987000  0.53569000  0.89822000  1.0
  C  C59  1  0.00977000  0.80953000  0.81584000  1.0
  C  C60  1  0.18845000  0.41774000  0.69161000  1.0
  C  C61  1  0.98812000  0.74927000  0.14004000  1.0
  C  C62  1  0.08209000  0.81071000  0.71415000  1.0
  C  C63  1  0.97816000  0.86158000  0.06853000  1.0
  C  C64  1  0.65744000  0.68955000  0.89491000  1.0
  C  C65  1  0.15239000  0.20390000  0.21881000  1.0
  C  C66  1  0.79039000  0.39206000  0.27956000  1.0
  C  C67  1  0.94763000  0.24139000  0.94041000  1.0
  C  C68  1  0.00095000  0.18540000  0.07800000  1.0
  I  I69  1  0.52283000  0.60292000  0.17691000  1.0
  I  I70  1  0.15687000  0.04822000  0.71605000  1.0
  N  N71  1  0.85677000  0.75205000  0.08100000  1.0
  N  N72  1  0.13259000  0.57850000  0.01545000  1.0
  N  N73  1  0.03259000  0.63240000  0.82806000  1.0
  N  N74  1  0.18036000  0.51277000  0.95627000  1.0
  N  N75  1  0.98007000  0.70286000  0.88242000  1.0
  N  N76  1  0.12157000  0.41818000  0.78884000  1.0
  N  N77  1  0.91731000  0.68347000  0.14706000  1.0
  N  N78  1  0.76233000  0.65904000  0.90008000  1.0
  N  N79  1  0.12350000  0.30782000  0.15508000  1.0
  N  N80  1  0.84805000  0.46074000  0.17933000  1.0
  N  N81  1  0.92826000  0.33093000  0.96976000  1.0
  N  N82  1  0.96317000  0.29748000  0.05447000  1.0
  N  N83  1  0.77112000  0.53079000  0.13420000  1.0
  N  N84  1  0.81171000  0.57618000  0.85763000  1.0
  N  N85  1  0.07341000  0.37458000  0.21460000  1.0
  N  N86  1  0.17957000  0.35624000  0.85733000  1.0
  F  F87  1  0.41563000  0.73424000  0.93599000  1.0
