# generated using pymatgen
data_CuH14C16IN5OF3
_symmetry_space_group_name_H-M   'P 1'
_cell_length_a   7.65357000
_cell_length_b   7.76349000
_cell_length_c   18.18350000
_cell_angle_alpha   87.87910000
_cell_angle_beta   81.82550000
_cell_angle_gamma   74.56650000
_symmetry_Int_Tables_number   1
_chemical_formula_structural   CuH14C16IN5OF3
_chemical_formula_sum   'Cu2 H28 C32 I2 N10 O2 F6'
_cell_volume   1030.89205384
_cell_formula_units_Z   2
loop_
 _symmetry_equiv_pos_site_id
 _symmetry_equiv_pos_as_xyz
  1  'x, y, z'
loop_
 _atom_site_type_symbol
 _atom_site_label
 _atom_site_symmetry_multiplicity
 _atom_site_fract_x
 _atom_site_fract_y
 _atom_site_fract_z
 _atom_site_occupancy
  Cu  Cu0  1  0.66091000  0.45309000  0.33117000  1.0
  Cu  Cu1  1  0.44853000  0.24837000  0.34039000  1.0
  H  H2  1  0.91056000  0.29210000  0.44777000  1.0
  H  H3  1  0.59824000  0.80232000  0.40272000  1.0
  H  H4  1  0.95760000  0.66434000  0.64108000  1.0
  H  H5  1  0.57704000  0.92349000  0.63387000  1.0
  H  H6  1  0.69616000  0.88836000  0.71325000  1.0
  H  H7  1  0.62251000  0.71254000  0.67854000  1.0
  H  H8  1  0.21464000  0.93484000  0.81097000  1.0
  H  H9  1  0.80690000  0.40663000  0.75796000  1.0
  H  H10  1  0.77612000  0.25219000  0.64296000  1.0
  H  H11  1  0.48288000  0.23679000  0.51982000  1.0
  H  H12  1  0.17826000  0.99811000  0.39945000  1.0
  H  H13  1  0.23288000  0.74610000  0.57429000  1.0
  H  H14  1  0.11885000  0.77369000  0.49427000  1.0
  H  H15  1  0.12134000  0.28660000  0.26626000  1.0
  H  H16  1  0.65568000  0.96550000  0.22475000  1.0
  H  H17  1  0.35143000  0.84181000  0.03165000  1.0
  H  H18  1  0.15462000  0.07364000  0.95581000  1.0
  H  H19  1  0.32154000  0.15706000  0.99103000  1.0
  H  H20  1  0.09066000  0.22132000  0.03340000  1.0
  H  H21  1  0.24332000  0.60039000  0.09993000  1.0
  H  H22  1  0.17965000  0.74427000  0.17853000  1.0
  H  H23  1  0.75899000  0.02465000  0.02211000  1.0
  H  H24  1  0.65141000  0.95041000  0.90588000  1.0
  H  H25  1  0.14637000  0.52473000  0.86152000  1.0
  H  H26  1  0.73589000  0.35981000  0.15114000  1.0
  H  H27  1  0.92113000  0.71224000  0.27190000  1.0
  H  H28  1  0.77849000  0.99306000  0.51891000  1.0
  H  H29  1  0.97221000  0.06787000  0.14935000  1.0
  C  C30  1  0.86001000  0.43349000  0.46234000  1.0
  C  C31  1  0.68518000  0.71441000  0.43881000  1.0
  C  C32  1  0.83248000  0.68191000  0.54298000  1.0
  C  C33  1  0.90862000  0.50313000  0.52308000  1.0
  C  C34  1  0.86192000  0.76549000  0.61200000  1.0
  C  C35  1  0.67792000  0.82739000  0.66248000  1.0
  C  C36  1  0.95314000  0.92272000  0.59083000  1.0
  C  C37  1  0.97622000  0.01087000  0.66119000  1.0
  C  C38  1  0.09652000  0.92613000  0.71058000  1.0
  C  C39  1  0.11913000  0.00632000  0.77427000  1.0
  C  C40  1  0.01271000  0.17947000  0.78937000  1.0
  C  C41  1  0.88772000  0.27103000  0.74389000  1.0
  C  C42  1  0.87169000  0.18456000  0.68031000  1.0
  C  C43  1  0.39518000  0.15725000  0.50582000  1.0
  C  C44  1  0.24316000  0.03865000  0.44280000  1.0
  C  C45  1  0.14043000  0.84275000  0.54255000  1.0
  C  C46  1  0.22412000  0.18803000  0.23102000  1.0
  C  C47  1  0.51795000  0.00870000  0.20939000  1.0
  C  C48  1  0.47061000  0.93782000  0.14870000  1.0
  C  C49  1  0.29659000  0.00387000  0.12803000  1.0
  C  C50  1  0.23845000  0.94837000  0.05894000  1.0
  C  C51  1  0.19822000  0.10969000  0.00660000  1.0
  C  C52  1  0.13113000  0.70264000  0.12975000  1.0
  C  C53  1  0.06972000  0.86804000  0.07944000  1.0
  C  C54  1  0.00883000  0.81856000  0.00856000  1.0
  C  C55  1  0.84209000  0.91491000  0.98661000  1.0
  C  C56  1  0.78136000  0.87417000  0.92226000  1.0
  C  C57  1  0.89200000  0.73301000  0.87873000  1.0
  C  C58  1  0.06072000  0.63470000  0.89624000  1.0
  C  C59  1  0.11466000  0.68121000  0.96077000  1.0
  C  C60  1  0.80785000  0.45434000  0.16533000  1.0
  C  C61  1  0.89824000  0.63157000  0.22850000  1.0
  I  I62  1  0.80992000  0.09915000  0.33618000  1.0
  I  I63  1  0.30413000  0.59739000  0.33689000  1.0
  N  N64  1  0.34690000  0.15390000  0.43635000  1.0
  N  N65  1  0.32873000  0.05033000  0.55404000  1.0
  N  N66  1  0.23252000  0.97575000  0.51280000  1.0
  N  N67  1  0.74331000  0.53967000  0.42019000  1.0
  N  N68  1  0.72382000  0.78647000  0.49752000  1.0
  N  N69  1  0.39405000  0.13837000  0.25064000  1.0
  N  N70  1  0.17335000  0.12750000  0.17232000  1.0
  N  N71  1  0.78387000  0.52653000  0.23478000  1.0
  N  N72  1  0.98690000  0.62000000  0.15867000  1.0
  N  N73  1  0.93098000  0.50704000  0.11737000  1.0
  O  O74  1  0.84232000  0.05546000  0.54884000  1.0
  O  O75  1  0.91964000  0.99448000  0.11934000  1.0
  F  F76  1  0.03044000  0.39660000  0.56352000  1.0
  F  F77  1  0.19912000  0.75300000  0.69775000  1.0
  F  F78  1  0.03189000  0.26085000  0.85200000  1.0
  F  F79  1  0.59417000  0.80403000  0.10903000  1.0
  F  F80  1  0.28349000  0.58428000  0.97643000  1.0
  F  F81  1  0.83498000  0.68974000  0.81562000  1.0
