# generated using pymatgen
data_CdFeP2H28C26Br2O3
_symmetry_space_group_name_H-M   'P 1'
_cell_length_a   11.16810000
_cell_length_b   11.35040000
_cell_length_c   13.08100000
_cell_angle_alpha   70.43090000
_cell_angle_beta   78.87590000
_cell_angle_gamma   61.10170000
_symmetry_Int_Tables_number   1
_chemical_formula_structural   CdFeP2H28C26Br2O3
_chemical_formula_sum   'Cd2 Fe2 P4 H56 C52 Br4 O6'
_cell_volume   1366.87720111
_cell_formula_units_Z   2
loop_
 _symmetry_equiv_pos_site_id
 _symmetry_equiv_pos_as_xyz
  1  'x, y, z'
loop_
 _atom_site_type_symbol
 _atom_site_label
 _atom_site_symmetry_multiplicity
 _atom_site_fract_x
 _atom_site_fract_y
 _atom_site_fract_z
 _atom_site_occupancy
  Cd  Cd0  1  0.47858000  0.48908000  0.85389000  1.0
  Cd  Cd1  1  0.52142000  0.51092000  0.14611000  1.0
  Fe  Fe2  1  0.20492000  0.63398000  0.55607000  1.0
  Fe  Fe3  1  0.79508000  0.36602000  0.44393000  1.0
  P  P4  1  0.26279000  0.46109000  0.36534000  1.0
  P  P5  1  0.73720000  0.53891000  0.63467000  1.0
  P  P6  1  0.72927000  0.28040000  0.23930000  1.0
  P  P7  1  0.27073000  0.71961000  0.76070000  1.0
  H  H8  1  0.98596000  0.63162000  0.48364000  1.0
  H  H9  1  0.01404000  0.36838000  0.51636000  1.0
  H  H10  1  0.99153000  0.60015000  0.69723000  1.0
  H  H11  1  0.00847000  0.39985000  0.30278000  1.0
  H  H12  1  0.25508000  0.42678000  0.75937000  1.0
  H  H13  1  0.74492000  0.57322000  0.24063000  1.0
  H  H14  1  0.40929000  0.35395000  0.58744000  1.0
  H  H15  1  0.59071000  0.64604000  0.41256000  1.0
  H  H16  1  0.45810000  0.62608000  0.56057000  1.0
  H  H17  1  0.54190000  0.37392000  0.43943000  1.0
  H  H18  1  0.34173000  0.72461000  0.36440000  1.0
  H  H19  1  0.65828000  0.27539000  0.63560000  1.0
  H  H20  1  0.06982000  0.88388000  0.39317000  1.0
  H  H21  1  0.93019000  0.11612000  0.60683000  1.0
  H  H22  1  0.01822000  0.88412000  0.60409000  1.0
  H  H23  1  0.98178000  0.11588000  0.39591000  1.0
  H  H24  1  0.64496000  0.22439000  0.07085000  1.0
  H  H25  1  0.35504000  0.77561000  0.92915000  1.0
  H  H26  1  0.59532000  0.03557000  0.06976000  1.0
  H  H27  1  0.40467000  0.96443000  0.93024000  1.0
  H  H28  1  0.62111000  0.83882000  0.23674000  1.0
  H  H29  1  0.37888000  0.16118000  0.76327000  1.0
  H  H30  1  0.69973000  0.83144000  0.40652000  1.0
  H  H31  1  0.30027000  0.16855000  0.59348000  1.0
  H  H32  1  0.74774000  0.02249000  0.40835000  1.0
  H  H33  1  0.25226000  0.97751000  0.59165000  1.0
  H  H34  1  0.86337000  0.45856000  0.12695000  1.0
  H  H35  1  0.13663000  0.54144000  0.87305000  1.0
  H  H36  1  0.10142000  0.40492000  0.05607000  1.0
  H  H37  1  0.89858000  0.59508000  0.94393000  1.0
  H  H38  1  0.27021000  0.16058000  0.05697000  1.0
  H  H39  1  0.72979000  0.83942000  0.94303000  1.0
  H  H40  1  0.20156000  0.96873000  0.13126000  1.0
  H  H41  1  0.79844000  0.03127000  0.86874000  1.0
  H  H42  1  0.96379000  0.02157000  0.20630000  1.0
  H  H43  1  0.03621000  0.97843000  0.79369000  1.0
  H  H44  1  0.41874000  0.21549000  0.28210000  1.0
  H  H45  1  0.58126000  0.78451000  0.71790000  1.0
  H  H46  1  0.24907000  0.30249000  0.23587000  1.0
  H  H47  1  0.75093000  0.69751000  0.76413000  1.0
  H  H48  1  0.36632000  0.03433000  0.42669000  1.0
  H  H49  1  0.63368000  0.96567000  0.57331000  1.0
  H  H50  1  0.32921000  0.04322000  0.29748000  1.0
  H  H51  1  0.67079000  0.95678000  0.70252000  1.0
  H  H52  1  0.19318000  0.12415000  0.38548000  1.0
  H  H53  1  0.80682000  0.87585000  0.61452000  1.0
  H  H54  1  0.20632000  0.71054000  0.19736000  1.0
  H  H55  1  0.79369000  0.28946000  0.80263000  1.0
  H  H56  1  0.06514000  0.77066000  0.29008000  1.0
  H  H57  1  0.93486000  0.22934000  0.70992000  1.0
  H  H58  1  0.05641000  0.70113000  0.08419000  1.0
  H  H59  1  0.94360000  0.29887000  0.91580000  1.0
  H  H60  1  0.98241000  0.87220000  0.10072000  1.0
  H  H61  1  0.01759000  0.12780000  0.89928000  1.0
  H  H62  1  0.91538000  0.75437000  0.17876000  1.0
  H  H63  1  0.08462000  0.24563000  0.82124000  1.0
  C  C64  1  0.21266000  0.48733000  0.49617000  1.0
  C  C65  1  0.78734000  0.51267000  0.50383000  1.0
  C  C66  1  0.07516000  0.56835000  0.53333000  1.0
  C  C67  1  0.92484000  0.43165000  0.46667000  1.0
  C  C68  1  0.07825000  0.55094000  0.64618000  1.0
  C  C69  1  0.92174000  0.44906000  0.35382000  1.0
  C  C70  1  0.21616000  0.46021000  0.67935000  1.0
  C  C71  1  0.78384000  0.53979000  0.32065000  1.0
  C  C72  1  0.29982000  0.42139000  0.58754000  1.0
  C  C73  1  0.70018000  0.57861000  0.41246000  1.0
  C  C74  1  0.75426000  0.25097000  0.37927000  1.0
  C  C75  1  0.24574000  0.74904000  0.62073000  1.0
  C  C76  1  0.35163000  0.69636000  0.54159000  1.0
  C  C77  1  0.64837000  0.30364000  0.45841000  1.0
  C  C78  1  0.28961000  0.74835000  0.43963000  1.0
  C  C79  1  0.71039000  0.25165000  0.56037000  1.0
  C  C80  1  0.14567000  0.83222000  0.45479000  1.0
  C  C81  1  0.85433000  0.16778000  0.54521000  1.0
  C  C82  1  0.11770000  0.83279000  0.56613000  1.0
  C  C83  1  0.88230000  0.16721000  0.43386000  1.0
  C  C84  1  0.70047000  0.13541000  0.24004000  1.0
  C  C85  1  0.29953000  0.86459000  0.75996000  1.0
  C  C86  1  0.65775000  0.13829000  0.14458000  1.0
  C  C87  1  0.34224000  0.86171000  0.85542000  1.0
  C  C88  1  0.62985000  0.03132000  0.14403000  1.0
  C  C89  1  0.37015000  0.96868000  0.85597000  1.0
  C  C90  1  0.64446000  0.92109000  0.23807000  1.0
  C  C91  1  0.35554000  0.07891000  0.76193000  1.0
  C  C92  1  0.68769000  0.91737000  0.33295000  1.0
  C  C93  1  0.31231000  0.08264000  0.66705000  1.0
  C  C94  1  0.71537000  0.02441000  0.33417000  1.0
  C  C95  1  0.28463000  0.97559000  0.66583000  1.0
  C  C96  1  0.89901000  0.24272000  0.17467000  1.0
  C  C97  1  0.10099000  0.75728000  0.82533000  1.0
  C  C98  1  0.93773000  0.35075000  0.12979000  1.0
  C  C99  1  0.06227000  0.64925000  0.87020000  1.0
  C  C100  1  0.07114000  0.32085000  0.08865000  1.0
  C  C101  1  0.92886000  0.67915000  0.91135000  1.0
  C  C102  1  0.16615000  0.18336000  0.08949000  1.0
  C  C103  1  0.83385000  0.81664000  0.91051000  1.0
  C  C104  1  0.12722000  0.07583000  0.13115000  1.0
  C  C105  1  0.87278000  0.92417000  0.86885000  1.0
  C  C106  1  0.99439000  0.10534000  0.17375000  1.0
  C  C107  1  0.00561000  0.89466000  0.82625000  1.0
  C  C108  1  0.31251000  0.23565000  0.30699000  1.0
  C  C109  1  0.68748000  0.76435000  0.69302000  1.0
  C  C110  1  0.29938000  0.10164000  0.35766000  1.0
  C  C111  1  0.70062000  0.89836000  0.64234000  1.0
  C  C112  1  0.10871000  0.70910000  0.23100000  1.0
  C  C113  1  0.89130000  0.29090000  0.76900000  1.0
  C  C114  1  0.00987000  0.76159000  0.14360000  1.0
  C  C115  1  0.99013000  0.23840000  0.85640000  1.0
  Br  Br116  1  0.53096000  0.24284000  0.84855000  1.0
  Br  Br117  1  0.46904000  0.75716000  0.15145000  1.0
  Br  Br118  1  0.33762000  0.48860000  0.05812000  1.0
  Br  Br119  1  0.66238000  0.51140000  0.94188000  1.0
  O  O120  1  0.39343000  0.46792000  0.31947000  1.0
  O  O121  1  0.60657000  0.53207000  0.68054000  1.0
  O  O122  1  0.26587000  0.31290000  0.38873000  1.0
  O  O123  1  0.73413000  0.68709000  0.61127000  1.0
  O  O124  1  0.13526000  0.56489000  0.29028000  1.0
  O  O125  1  0.86474000  0.43511000  0.70973000  1.0
