# generated using pymatgen
data_AlH9C15O5F
_symmetry_space_group_name_H-M   'P 1'
_cell_length_a   6.69347000
_cell_length_b   11.01884735
_cell_length_c   17.57960000
_cell_angle_alpha   91.82694946
_cell_angle_beta   96.50820000
_cell_angle_gamma   106.52180896
_symmetry_Int_Tables_number   1
_chemical_formula_structural   AlH9C15O5F
_chemical_formula_sum   'Al2 H18 C30 O10 F2'
_cell_volume   1232.22669562
_cell_formula_units_Z   2
loop_
 _symmetry_equiv_pos_site_id
 _symmetry_equiv_pos_as_xyz
  1  'x, y, z'
loop_
 _atom_site_type_symbol
 _atom_site_label
 _atom_site_symmetry_multiplicity
 _atom_site_fract_x
 _atom_site_fract_y
 _atom_site_fract_z
 _atom_site_occupancy
  Al  Al0  1  0.00452000  0.49766000  0.50177000  1.0
  Al  Al1  1  0.50505000  0.49765000  0.50115000  1.0
  H  H2  1  0.34256000  0.64437000  0.55554000  1.0
  H  H3  1  0.66684000  0.34241000  0.46347000  1.0
  H  H4  1  0.85691000  0.49437000  0.28355000  1.0
  H  H5  1  0.76504000  0.49901000  0.14262000  1.0
  H  H6  1  0.39727000  0.49978000  0.11136000  1.0
  H  H7  1  0.61579000  0.51701000  0.89123000  1.0
  H  H8  1  0.14057000  0.48318000  0.71973000  1.0
  H  H9  1  0.22838000  0.47928000  0.86090000  1.0
  H  H10  1  0.54278000  0.76457000  0.39451000  1.0
  H  H11  1  0.80727000  0.23350000  0.39853000  1.0
  H  H12  1  0.35055000  0.11183000  0.55060000  1.0
  H  H13  1  0.22743000  0.87479000  0.54228000  1.0
  H  H14  1  0.14447000  0.89282000  0.32766000  1.0
  H  H15  1  0.24208000  0.76113000  0.31245000  1.0
  H  H16  1  0.27904000  0.88416000  0.24776000  1.0
  H  H17  1  0.41157000  0.11457000  0.24997000  1.0
  H  H18  1  0.51332000  0.24541000  0.31926000  1.0
  H  H19  1  0.27585000  0.12638000  0.32904000  1.0
  C  C20  1  0.86114000  0.72288000  0.48669000  1.0
  C  C21  1  0.79450000  0.50444000  0.64003000  1.0
  C  C22  1  0.14158000  0.27027000  0.50130000  1.0
  C  C23  1  0.21450000  0.49143000  0.36253000  1.0
  C  C24  1  0.17418000  0.49525000  0.27748000  1.0
  C  C25  1  0.97282000  0.49591000  0.24467000  1.0
  C  C26  1  0.92214000  0.49849000  0.16629000  1.0
  C  C27  1  0.07377000  0.49948000  0.11645000  1.0
  C  C28  1  0.27663000  0.49924000  0.14810000  1.0
  C  C29  1  0.32258000  0.49747000  0.22688000  1.0
  C  C30  1  0.02325000  0.49949000  0.03619000  1.0
  C  C31  1  0.97820000  0.49827000  0.96686000  1.0
  C  C32  1  0.92892000  0.49765000  0.88647000  1.0
  C  C33  1  0.73247000  0.50846000  0.85461000  1.0
  C  C34  1  0.68852000  0.50990000  0.77570000  1.0
  C  C35  1  0.83250000  0.50080000  0.72525000  1.0
  C  C36  1  0.02740000  0.48962000  0.75831000  1.0
  C  C37  1  0.07614000  0.48770000  0.83686000  1.0
  C  C38  1  0.92760000  0.86293000  0.48026000  1.0
  C  C39  1  0.79505000  0.92958000  0.44174000  1.0
  C  C40  1  0.12716000  0.92824000  0.51574000  1.0
  C  C41  1  0.59973000  0.86770000  0.39705000  1.0
  C  C42  1  0.48098000  0.93361000  0.35588000  1.0
  C  C43  1  0.06810000  0.12953000  0.48776000  1.0
  C  C44  1  0.19689000  0.06114000  0.52010000  1.0
  C  C45  1  0.86909000  0.06581000  0.44454000  1.0
  C  C46  1  0.74645000  0.13101000  0.40053000  1.0
  C  C47  1  0.55694000  0.06900000  0.35727000  1.0
  C  C48  1  0.27647000  0.86395000  0.30868000  1.0
  C  C49  1  0.43393000  0.14310000  0.31167000  1.0
  O  O50  1  0.00239000  0.66671000  0.48317000  1.0
  O  O51  1  0.60903000  0.49271000  0.60831000  1.0
  O  O52  1  0.33579000  0.32469000  0.49826000  1.0
  O  O53  1  0.05226000  0.47372000  0.39721000  1.0
  O  O54  1  0.00663000  0.32630000  0.51589000  1.0
  O  O55  1  0.40098000  0.50486000  0.39374000  1.0
  O  O56  1  0.67259000  0.66978000  0.49855000  1.0
  O  O57  1  0.95756000  0.51991000  0.60591000  1.0
  O  O58  1  0.29321000  0.55815000  0.53289000  1.0
  O  O59  1  0.71541000  0.43444000  0.47009000  1.0
  F  F60  1  0.52034000  0.49635000  0.25369000  1.0
  F  F61  1  0.49839000  0.52345000  0.74870000  1.0
