# generated using pymatgen
data_CuH12C15S(N3O2)2
_symmetry_space_group_name_H-M   'P 1'
_cell_length_a   8.54995000
_cell_length_b   9.78785000
_cell_length_c   9.89836000
_cell_angle_alpha   81.53020000
_cell_angle_beta   82.53250000
_cell_angle_gamma   86.53740000
_symmetry_Int_Tables_number   1
_chemical_formula_structural   CuH12C15S(N3O2)2
_chemical_formula_sum   'Cu2 H24 C30 S2 N12 O8'
_cell_volume   811.64824910
_cell_formula_units_Z   2
loop_
 _symmetry_equiv_pos_site_id
 _symmetry_equiv_pos_as_xyz
  1  'x, y, z'
loop_
 _atom_site_type_symbol
 _atom_site_label
 _atom_site_symmetry_multiplicity
 _atom_site_fract_x
 _atom_site_fract_y
 _atom_site_fract_z
 _atom_site_occupancy
  Cu  Cu0  1  0.50000000  0.50000000  0.50000000  1.0
  Cu  Cu1  1  0.00000000  0.50000000  0.00000000  1.0
  H  H2  1  0.37543000  0.97716000  0.18172000  1.0
  H  H3  1  0.62456000  0.02284000  0.81828000  1.0
  H  H4  1  0.11940000  0.67215000  0.47319000  1.0
  H  H5  1  0.88060000  0.32786000  0.52681000  1.0
  H  H6  1  0.22559000  0.06052000  0.59625000  1.0
  H  H7  1  0.77441000  0.93948000  0.40375000  1.0
  H  H8  1  0.44775000  0.18060000  0.55051000  1.0
  H  H9  1  0.55226000  0.81940000  0.44949000  1.0
  H  H10  1  0.43654000  0.47439000  0.19494000  1.0
  H  H11  1  0.56345000  0.52561000  0.80506000  1.0
  H  H12  1  0.31186000  0.23147000  0.14738000  1.0
  H  H13  1  0.68813000  0.76853000  0.85262000  1.0
  H  H14  1  0.02648000  0.62777000  0.28254000  1.0
  H  H15  1  0.97352000  0.37223000  0.71746000  1.0
  H  H16  1  0.34740000  0.60779000  0.92322000  1.0
  H  H17  1  0.65260000  0.39221000  0.07678000  1.0
  H  H18  1  0.46409000  0.78307000  0.08164000  1.0
  H  H19  1  0.53591000  0.21693000  0.91836000  1.0
  H  H20  1  0.10879000  0.59336000  0.68594000  1.0
  H  H21  1  0.89121000  0.40664000  0.31406000  1.0
  H  H22  1  0.92485000  0.82941000  0.00002000  1.0
  H  H23  1  0.07515000  0.17059000  0.99998000  1.0
  H  H24  1  0.04645000  0.00967000  0.76950000  1.0
  H  H25  1  0.95355000  0.99033000  0.23050000  1.0
  C  C26  1  0.30615000  0.02985000  0.38596000  1.0
  C  C27  1  0.69385000  0.97015000  0.61404000  1.0
  C  C28  1  0.31644000  0.94404000  0.28445000  1.0
  C  C29  1  0.68356000  0.05596000  0.71555000  1.0
  C  C30  1  0.24692000  0.81591000  0.31717000  1.0
  C  C31  1  0.75308000  0.18409000  0.68283000  1.0
  C  C32  1  0.17175000  0.77285000  0.44925000  1.0
  C  C33  1  0.82825000  0.22715000  0.55075000  1.0
  C  C34  1  0.16589000  0.86074000  0.54946000  1.0
  C  C35  1  0.83411000  0.13927000  0.45054000  1.0
  C  C36  1  0.23132000  0.99055000  0.51901000  1.0
  C  C37  1  0.76868000  0.00945000  0.48099000  1.0
  C  C38  1  0.43283000  0.22705000  0.44656000  1.0
  C  C39  1  0.56716000  0.77295000  0.55344000  1.0
  C  C40  1  0.42254000  0.37564000  0.25970000  1.0
  C  C41  1  0.57746000  0.62436000  0.74030000  1.0
  C  C42  1  0.36356000  0.25603000  0.23463000  1.0
  C  C43  1  0.63644000  0.74397000  0.76537000  1.0
  C  C44  1  0.12998000  0.64408000  0.20591000  1.0
  C  C45  1  0.87002000  0.35592000  0.79410000  1.0
  C  C46  1  0.29856000  0.64067000  0.02015000  1.0
  C  C47  1  0.70144000  0.35933000  0.97985000  1.0
  C  C48  1  0.35478000  0.72960000  0.09528000  1.0
  C  C49  1  0.64522000  0.27040000  0.90472000  1.0
  C  C50  1  0.06957000  0.68166000  0.73925000  1.0
  C  C51  1  0.93043000  0.31834000  0.26074000  1.0
  C  C52  1  0.98051000  0.80889000  0.89949000  1.0
  C  C53  1  0.01949000  0.19111000  0.10051000  1.0
  C  C54  1  0.03779000  0.89832000  0.78636000  1.0
  C  C55  1  0.96221000  0.10168000  0.21364000  1.0
  S  S56  1  0.27687000  0.34439000  0.72860000  1.0
  S  S57  1  0.72314000  0.65561000  0.27140000  1.0
  N  N58  1  0.37010000  0.16273000  0.35464000  1.0
  N  N59  1  0.62990000  0.83727000  0.64536000  1.0
  N  N60  1  0.46533000  0.35571000  0.39154000  1.0
  N  N61  1  0.53467000  0.64429000  0.60846000  1.0
  N  N62  1  0.24676000  0.73130000  0.21292000  1.0
  N  N63  1  0.75324000  0.26869000  0.78708000  1.0
  N  N64  1  0.15865000  0.58912000  0.09002000  1.0
  N  N65  1  0.84135000  0.41088000  0.90998000  1.0
  N  N66  1  0.09309000  0.81659000  0.68471000  1.0
  N  N67  1  0.90690000  0.18341000  0.31528000  1.0
  N  N68  1  0.00220000  0.67502000  0.86811000  1.0
  N  N69  1  0.99780000  0.32498000  0.13189000  1.0
  O  O70  1  0.45137000  0.36871000  0.67388000  1.0
  O  O71  1  0.54863000  0.63129000  0.32612000  1.0
  O  O72  1  0.18158000  0.41557000  0.62051000  1.0
  O  O73  1  0.81842000  0.58443000  0.37950000  1.0
  O  O74  1  0.25571000  0.19312000  0.75215000  1.0
  O  O75  1  0.74430000  0.80688000  0.24786000  1.0
  O  O76  1  0.24020000  0.40406000  0.85882000  1.0
  O  O77  1  0.75982000  0.59594000  0.14118000  1.0
