# generated using pymatgen
data_CdH20C26(IN3)2
_symmetry_space_group_name_H-M   'P 1'
_cell_length_a   7.08194000
_cell_length_b   9.11965000
_cell_length_c   22.17750000
_cell_angle_alpha   94.23310000
_cell_angle_beta   90.00000000
_cell_angle_gamma   112.84700000
_symmetry_Int_Tables_number   1
_chemical_formula_structural   CdH20C26(IN3)2
_chemical_formula_sum   'Cd2 H40 C52 I4 N12'
_cell_volume   1315.71515356
_cell_formula_units_Z   2
loop_
 _symmetry_equiv_pos_site_id
 _symmetry_equiv_pos_as_xyz
  1  'x, y, z'
loop_
 _atom_site_type_symbol
 _atom_site_label
 _atom_site_symmetry_multiplicity
 _atom_site_fract_x
 _atom_site_fract_y
 _atom_site_fract_z
 _atom_site_occupancy
  Cd  Cd0  1  0.35581000  0.00009000  0.74989000  1.0
  Cd  Cd1  1  0.64420000  0.99991000  0.25011000  1.0
  H  H2  1  0.31160000  0.33707000  0.79861000  1.0
  H  H3  1  0.97404000  0.66268000  0.70135000  1.0
  H  H4  1  0.68840000  0.66292000  0.20139000  1.0
  H  H5  1  0.02596000  0.33732000  0.29865000  1.0
  H  H6  1  0.08701000  0.42596000  0.86282000  1.0
  H  H7  1  0.66092000  0.57375000  0.63701000  1.0
  H  H8  1  0.91299000  0.57404000  0.13718000  1.0
  H  H9  1  0.33909000  0.42625000  0.36299000  1.0
  H  H10  1  0.77503000  0.93140000  0.90588000  1.0
  H  H11  1  0.84327000  0.06841000  0.59408000  1.0
  H  H12  1  0.22497000  0.06860000  0.09412000  1.0
  H  H13  1  0.15673000  0.93159000  0.40592000  1.0
  H  H14  1  0.01858000  0.86845000  0.84153000  1.0
  H  H15  1  0.14964000  0.13137000  0.65849000  1.0
  H  H16  1  0.98142000  0.13155000  0.15848000  1.0
  H  H17  1  0.85037000  0.86863000  0.34151000  1.0
  H  H18  1  0.74101000  0.38409000  0.83138000  1.0
  H  H19  1  0.35755000  0.61651000  0.66853000  1.0
  H  H20  1  0.25899000  0.61591000  0.16861000  1.0
  H  H21  1  0.64245000  0.38349000  0.33147000  1.0
  H  H22  1  0.70977000  0.64630000  0.83889000  1.0
  H  H23  1  0.06414000  0.35436000  0.66140000  1.0
  H  H24  1  0.29023000  0.35371000  0.16111000  1.0
  H  H25  1  0.93586000  0.64563000  0.33859000  1.0
  H  H26  1  0.73235000  0.67474000  0.02607000  1.0
  H  H27  1  0.05669000  0.32442000  0.47421000  1.0
  H  H28  1  0.26765000  0.32526000  0.97393000  1.0
  H  H29  1  0.94331000  0.67559000  0.52579000  1.0
  H  H30  1  0.75573000  0.40930000  0.02720000  1.0
  H  H31  1  0.34554000  0.58971000  0.47271000  1.0
  H  H32  1  0.24427000  0.59070000  0.97280000  1.0
  H  H33  1  0.65446000  0.41030000  0.52729000  1.0
  H  H34  1  0.37076000  0.10389000  0.91574000  1.0
  H  H35  1  0.26703000  0.89571000  0.58425000  1.0
  H  H36  1  0.62923000  0.89611000  0.08426000  1.0
  H  H37  1  0.73297000  0.10428000  0.41575000  1.0
  H  H38  1  0.12367000  0.90234000  0.97814000  1.0
  H  H39  1  0.22147000  0.09763000  0.52208000  1.0
  H  H40  1  0.87632000  0.09766000  0.02186000  1.0
  H  H41  1  0.77853000  0.90237000  0.47792000  1.0
  C  C42  1  0.19062000  0.25125000  0.82346000  1.0
  C  C43  1  0.93895000  0.74852000  0.67649000  1.0
  C  C44  1  0.80938000  0.74875000  0.17654000  1.0
  C  C45  1  0.06106000  0.25148000  0.32351000  1.0
  C  C46  1  0.06309000  0.30030000  0.85956000  1.0
  C  C47  1  0.76258000  0.69944000  0.64031000  1.0
  C  C48  1  0.93690000  0.69970000  0.14044000  1.0
  C  C49  1  0.23743000  0.30056000  0.35969000  1.0
  C  C50  1  0.90573000  0.18668000  0.89066000  1.0
  C  C51  1  0.71897000  0.81309000  0.60919000  1.0
  C  C52  1  0.09427000  0.81332000  0.10934000  1.0
  C  C53  1  0.28103000  0.18691000  0.39081000  1.0
  C  C54  1  0.88984000  0.02724000  0.88337000  1.0
  C  C55  1  0.86227000  0.97257000  0.61658000  1.0
  C  C56  1  0.11016000  0.97277000  0.11663000  1.0
  C  C57  1  0.13773000  0.02743000  0.38342000  1.0
  C  C58  1  0.02616000  0.99056000  0.84698000  1.0
  C  C59  1  0.03517000  0.00926000  0.65301000  1.0
  C  C60  1  0.97383000  0.00944000  0.15303000  1.0
  C  C61  1  0.96484000  0.99074000  0.34699000  1.0
  C  C62  1  0.75779000  0.37761000  0.92918000  1.0
  C  C63  1  0.38015000  0.62218000  0.57071000  1.0
  C  C64  1  0.24220000  0.62239000  0.07082000  1.0
  C  C65  1  0.61985000  0.37782000  0.42929000  1.0
  C  C66  1  0.74321000  0.44551000  0.87568000  1.0
  C  C67  1  0.29803000  0.55475000  0.62431000  1.0
  C  C68  1  0.25678000  0.55449000  0.12432000  1.0
  C  C69  1  0.70197000  0.44525000  0.37569000  1.0
  C  C70  1  0.72658000  0.59298000  0.88005000  1.0
  C  C71  1  0.13391000  0.40733000  0.62015000  1.0
  C  C72  1  0.27342000  0.40702000  0.11995000  1.0
  C  C73  1  0.86610000  0.59266000  0.37985000  1.0
  C  C74  1  0.73587000  0.60752000  0.98354000  1.0
  C  C75  1  0.12785000  0.39193000  0.51666000  1.0
  C  C76  1  0.26412000  0.39248000  0.01646000  1.0
  C  C77  1  0.87215000  0.60807000  0.48334000  1.0
  C  C78  1  0.75067000  0.45981000  0.98450000  1.0
  C  C79  1  0.29039000  0.53956000  0.51550000  1.0
  C  C80  1  0.24933000  0.54019000  0.01550000  1.0
  C  C81  1  0.70962000  0.46044000  0.48451000  1.0
  C  C82  1  0.63683000  0.11243000  0.96528000  1.0
  C  C83  1  0.52443000  0.88735000  0.53459000  1.0
  C  C84  1  0.36316000  0.88758000  0.03472000  1.0
  C  C85  1  0.47558000  0.11265000  0.46541000  1.0
  C  C86  1  0.42590000  0.05908000  0.95324000  1.0
  C  C87  1  0.36695000  0.94070000  0.54677000  1.0
  C  C88  1  0.57409000  0.94092000  0.04676000  1.0
  C  C89  1  0.63305000  0.05930000  0.45323000  1.0
  C  C90  1  0.28822000  0.94624000  0.98783000  1.0
  C  C91  1  0.34207000  0.05374000  0.51231000  1.0
  C  C92  1  0.71177000  0.05376000  0.01217000  1.0
  C  C93  1  0.65793000  0.94626000  0.48769000  1.0
  I  I94  1  0.62629000  0.26571000  0.70157000  1.0
  I  I95  1  0.36181000  0.73480000  0.79818000  1.0
  I  I96  1  0.37371000  0.73429000  0.29843000  1.0
  I  I97  1  0.63820000  0.26520000  0.20182000  1.0
  N  N98  1  0.17525000  0.09880000  0.81692000  1.0
  N  N99  1  0.07598000  0.90099000  0.68307000  1.0
  N  N100  1  0.82475000  0.90119000  0.18308000  1.0
  N  N101  1  0.92402000  0.09901000  0.31693000  1.0
  N  N102  1  0.77431000  0.22746000  0.92814000  1.0
  N  N103  1  0.54698000  0.77219000  0.57161000  1.0
  N  N104  1  0.22569000  0.77254000  0.07186000  1.0
  N  N105  1  0.45302000  0.22781000  0.42840000  1.0
  N  N106  1  0.72469000  0.67544000  0.93271000  1.0
  N  N107  1  0.04914000  0.32447000  0.56760000  1.0
  N  N108  1  0.27531000  0.32456000  0.06729000  1.0
  N  N109  1  0.95086000  0.67553000  0.43240000  1.0
