# generated using pymatgen
data_CdH12C12N2(ClF)2
_symmetry_space_group_name_H-M   'P 1'
_cell_length_a   6.60792000
_cell_length_b   7.36769000
_cell_length_c   14.78790000
_cell_angle_alpha   83.68200000
_cell_angle_beta   82.00290000
_cell_angle_gamma   72.30480000
_symmetry_Int_Tables_number   1
_chemical_formula_structural   CdH12C12N2(ClF)2
_chemical_formula_sum   'Cd2 H24 C24 N4 Cl4 F4'
_cell_volume   677.46308257
_cell_formula_units_Z   2
loop_
 _symmetry_equiv_pos_site_id
 _symmetry_equiv_pos_as_xyz
  1  'x, y, z'
loop_
 _atom_site_type_symbol
 _atom_site_label
 _atom_site_symmetry_multiplicity
 _atom_site_fract_x
 _atom_site_fract_y
 _atom_site_fract_z
 _atom_site_occupancy
  Cd  Cd0  1  0.25087000  0.57016000  0.44391000  1.0
  Cd  Cd1  1  0.74912000  0.42985000  0.55609000  1.0
  H  H2  1  0.95896000  0.99618000  0.33497000  1.0
  H  H3  1  0.04104000  0.00383000  0.66503000  1.0
  H  H4  1  0.50681000  0.50929000  0.20027000  1.0
  H  H5  1  0.49319000  0.49071000  0.79973000  1.0
  H  H6  1  0.63187000  0.94601000  0.27259000  1.0
  H  H7  1  0.36814000  0.05398000  0.72741000  1.0
  H  H8  1  0.82216000  0.61330000  0.23631000  1.0
  H  H9  1  0.17784000  0.38671000  0.76369000  1.0
  H  H10  1  0.79768000  0.79241000  0.08382000  1.0
  H  H11  1  0.20233000  0.20759000  0.91617000  1.0
  H  H12  1  0.56201000  0.11672000  0.12043000  1.0
  H  H13  1  0.43799000  0.88328000  0.87957000  1.0
  H  H14  1  0.19072000  0.23155000  0.07578000  1.0
  H  H15  1  0.80928000  0.76844000  0.92422000  1.0
  H  H16  1  0.13122000  0.82984000  0.98836000  1.0
  H  H17  1  0.86879000  0.17016000  0.01163000  1.0
  H  H18  1  0.25055000  0.94714000  0.45231000  1.0
  H  H19  1  0.74945000  0.05286000  0.54769000  1.0
  H  H20  1  0.03950000  0.41118000  0.33746000  1.0
  H  H21  1  0.96050000  0.58882000  0.66254000  1.0
  H  H22  1  0.49602000  0.82941000  0.41229000  1.0
  H  H23  1  0.50398000  0.17059000  0.58772000  1.0
  H  H24  1  0.30120000  0.32188000  0.31138000  1.0
  H  H25  1  0.69879000  0.67812000  0.68862000  1.0
  C  C26  1  0.16376000  0.55201000  0.22815000  1.0
  C  C27  1  0.83624000  0.44798000  0.77185000  1.0
  C  C28  1  0.09294000  0.02036000  0.28863000  1.0
  C  C29  1  0.90705000  0.97964000  0.71138000  1.0
  C  C30  1  0.35035000  0.57308000  0.17621000  1.0
  C  C31  1  0.64965000  0.42692000  0.82379000  1.0
  C  C32  1  0.47052000  0.99169000  0.25250000  1.0
  C  C33  1  0.52948000  0.00831000  0.74750000  1.0
  C  C34  1  0.96513000  0.63334000  0.19527000  1.0
  C  C35  1  0.03487000  0.36666000  0.80472000  1.0
  C  C36  1  0.06138000  0.11547000  0.20315000  1.0
  C  C37  1  0.93861000  0.88453000  0.79685000  1.0
  C  C38  1  0.30145000  0.95805000  0.31348000  1.0
  C  C39  1  0.69855000  0.04195000  0.68652000  1.0
  C  C40  1  0.95287000  0.73301000  0.10943000  1.0
  C  C41  1  0.04714000  0.26699000  0.89057000  1.0
  C  C42  1  0.43114000  0.08727000  0.16685000  1.0
  C  C43  1  0.56886000  0.91273000  0.83315000  1.0
  C  C44  1  0.33053000  0.67405000  0.09156000  1.0
  C  C45  1  0.66948000  0.32595000  0.90844000  1.0
  C  C46  1  0.22486000  0.15143000  0.14094000  1.0
  C  C47  1  0.77513000  0.84857000  0.85907000  1.0
  C  C48  1  0.13652000  0.75459000  0.05594000  1.0
  C  C49  1  0.86349000  0.24540000  0.94406000  1.0
  N  N50  1  0.17782000  0.44614000  0.31484000  1.0
  N  N51  1  0.82218000  0.55386000  0.68516000  1.0
  N  N52  1  0.33818000  0.86146000  0.40148000  1.0
  N  N53  1  0.66182000  0.13855000  0.59852000  1.0
  Cl  Cl54  1  0.83817000  0.75755000  0.47443000  1.0
  Cl  Cl55  1  0.16181000  0.24246000  0.52557000  1.0
  Cl  Cl56  1  0.33952000  0.61776000  0.60651000  1.0
  Cl  Cl57  1  0.66047000  0.38223000  0.39350000  1.0
  F  F58  1  0.85716000  0.17900000  0.17937000  1.0
  F  F59  1  0.14284000  0.82100000  0.82063000  1.0
  F  F60  1  0.51249000  0.69459000  0.04015000  1.0
  F  F61  1  0.48751000  0.30541000  0.95985000  1.0
