# generated using pymatgen
data_VH4C5SeNO4
_symmetry_space_group_name_H-M   'P 1'
_cell_length_a   7.18351000
_cell_length_b   10.80660000
_cell_length_c   11.04960000
_cell_angle_alpha   115.12400000
_cell_angle_beta   107.52900000
_cell_angle_gamma   92.71920000
_symmetry_Int_Tables_number   1
_chemical_formula_structural   VH4C5SeNO4
_chemical_formula_sum   'V4 H16 C20 Se4 N4 O16'
_cell_volume   725.12734456
_cell_formula_units_Z   4
loop_
 _symmetry_equiv_pos_site_id
 _symmetry_equiv_pos_as_xyz
  1  'x, y, z'
loop_
 _atom_site_type_symbol
 _atom_site_label
 _atom_site_symmetry_multiplicity
 _atom_site_fract_x
 _atom_site_fract_y
 _atom_site_fract_z
 _atom_site_occupancy
  V  V0  1  0.24341000  0.32493000  0.96654000  1.0
  V  V1  1  0.75659000  0.67507000  0.03346000  1.0
  V  V2  1  0.23596000  0.82106000  0.48989000  1.0
  V  V3  1  0.76404000  0.17894000  0.51011000  1.0
  H  H4  1  0.46361000  0.09224000  0.92021000  1.0
  H  H5  1  0.53639000  0.90776000  0.07979000  1.0
  H  H6  1  0.78998000  0.04229000  0.02793000  1.0
  H  H7  1  0.21001000  0.95771000  0.97207000  1.0
  H  H8  1  0.96759000  0.47945000  0.34057000  1.0
  H  H9  1  0.03241000  0.52055000  0.65943000  1.0
  H  H10  1  0.63124000  0.50840000  0.22443000  1.0
  H  H11  1  0.36876000  0.49160000  0.77557000  1.0
  H  H12  1  0.34613000  0.99455000  0.32952000  1.0
  H  H13  1  0.65387000  0.00545000  0.67048000  1.0
  H  H14  1  0.00828000  0.02035000  0.21522000  1.0
  H  H15  1  0.99172000  0.97965000  0.78478000  1.0
  H  H16  1  0.26763000  0.43904000  0.31921000  1.0
  H  H17  1  0.73237000  0.56096000  0.68079000  1.0
  H  H18  1  0.59592000  0.39697000  0.43463000  1.0
  H  H19  1  0.40408000  0.60303000  0.56537000  1.0
  C  C20  1  0.57772000  0.17348000  0.01645000  1.0
  C  C21  1  0.42228000  0.82652000  0.98355000  1.0
  C  C22  1  0.76052000  0.14695000  0.07655000  1.0
  C  C23  1  0.23948000  0.85305000  0.92345000  1.0
  C  C24  1  0.90839000  0.25670000  0.19525000  1.0
  C  C25  1  0.09161000  0.74330000  0.80475000  1.0
  C  C26  1  0.86145000  0.38928000  0.24858000  1.0
  C  C27  1  0.13855000  0.61072000  0.75142000  1.0
  C  C28  1  0.67364000  0.40728000  0.18493000  1.0
  C  C29  1  0.32636000  0.59272000  0.81507000  1.0
  C  C30  1  0.32165000  0.09229000  0.32695000  1.0
  C  C31  1  0.67835000  0.90771000  0.67305000  1.0
  C  C32  1  0.13261000  0.10767000  0.26203000  1.0
  C  C33  1  0.86739000  0.89233000  0.73797000  1.0
  C  C34  1  0.10605000  0.23468000  0.26055000  1.0
  C  C35  1  0.89395000  0.76532000  0.73945000  1.0
  C  C36  1  0.27652000  0.34078000  0.32386000  1.0
  C  C37  1  0.72348000  0.65922000  0.67614000  1.0
  C  C38  1  0.46053000  0.31772000  0.38640000  1.0
  C  C39  1  0.53947000  0.68228000  0.61360000  1.0
  Se  Se40  1  0.21148000  0.65075000  0.14914000  1.0
  Se  Se41  1  0.78852000  0.34925000  0.85087000  1.0
  Se  Se42  1  0.20987000  0.14946000  0.62933000  1.0
  Se  Se43  1  0.79013000  0.85054000  0.37067000  1.0
  N  N44  1  0.53266000  0.30168000  0.07054000  1.0
  N  N45  1  0.46734000  0.69832000  0.92946000  1.0
  N  N46  1  0.48455000  0.19570000  0.38995000  1.0
  N  N47  1  0.51545000  0.80430000  0.61005000  1.0
  O  O48  1  0.30521000  0.50046000  0.13519000  1.0
  O  O49  1  0.69479000  0.49954000  0.86480000  1.0
  O  O50  1  0.33426000  0.27039000  0.80617000  1.0
  O  O51  1  0.66574000  0.72961000  0.19383000  1.0
  O  O52  1  0.11788000  0.19802000  0.96708000  1.0
  O  O53  1  0.88211000  0.80199000  0.03292000  1.0
  O  O54  1  0.09957000  0.70669000  0.50130000  1.0
  O  O55  1  0.90043000  0.29331000  0.49870000  1.0
  O  O56  1  0.33463000  0.74768000  0.33371000  1.0
  O  O57  1  0.66537000  0.25233000  0.66629000  1.0
  O  O58  1  0.97013000  0.60224000  0.13411000  1.0
  O  O59  1  0.02987000  0.39776000  0.86589000  1.0
  O  O60  1  0.96924000  0.11270000  0.62447000  1.0
  O  O61  1  0.03076000  0.88730000  0.37553000  1.0
  O  O62  1  0.30430000  0.00755000  0.64419000  1.0
  O  O63  1  0.69570000  0.99244000  0.35581000  1.0
