# generated using pymatgen
data_Co3H40C66N4O15
_symmetry_space_group_name_H-M   'P 1'
_cell_length_a   11.03270000
_cell_length_b   11.03270000
_cell_length_c   25.86990000
_cell_angle_alpha   90.74520000
_cell_angle_beta   90.74540000
_cell_angle_gamma   94.83590000
_symmetry_Int_Tables_number   1
_chemical_formula_structural   Co3H40C66N4O15
_chemical_formula_sum   'Co6 H80 C132 N8 O30'
_cell_volume   3137.10721638
_cell_formula_units_Z   2
loop_
 _symmetry_equiv_pos_site_id
 _symmetry_equiv_pos_as_xyz
  1  'x, y, z'
loop_
 _atom_site_type_symbol
 _atom_site_label
 _atom_site_symmetry_multiplicity
 _atom_site_fract_x
 _atom_site_fract_y
 _atom_site_fract_z
 _atom_site_occupancy
  Co  Co0  1  0.29346000  0.65115000  0.00526000  1.0
  Co  Co1  1  0.34885000  0.70654000  0.49474000  1.0
  Co  Co2  1  0.70654000  0.34885000  0.99474000  1.0
  Co  Co3  1  0.65115000  0.29347000  0.50526000  1.0
  Co  Co4  1  0.00000000  0.50000000  0.00000000  1.0
  Co  Co5  1  0.50001000  0.00000000  0.50000000  1.0
  H  H6  1  0.11413000  0.78256000  0.07737000  1.0
  H  H7  1  0.21744000  0.88587000  0.42263000  1.0
  H  H8  1  0.88587000  0.21745000  0.92263000  1.0
  H  H9  1  0.78256000  0.11413000  0.57737000  1.0
  H  H10  1  0.13686000  0.95948000  0.13975000  1.0
  H  H11  1  0.04052000  0.86315000  0.36025000  1.0
  H  H12  1  0.86315000  0.04052000  0.86026000  1.0
  H  H13  1  0.95948000  0.13686000  0.63974000  1.0
  H  H14  1  0.33904000  0.08177000  0.14854000  1.0
  H  H15  1  0.91823000  0.66096000  0.35146000  1.0
  H  H16  1  0.66096000  0.91823000  0.85146000  1.0
  H  H17  1  0.08176000  0.33905000  0.64854000  1.0
  H  H18  1  0.55877000  0.11456000  0.11798000  1.0
  H  H19  1  0.88544000  0.44123000  0.38202000  1.0
  H  H20  1  0.44124000  0.88544000  0.88202000  1.0
  H  H21  1  0.11455000  0.55877000  0.61798000  1.0
  H  H22  1  0.72379000  0.04668000  0.06377000  1.0
  H  H23  1  0.95331000  0.27622000  0.43623000  1.0
  H  H24  1  0.27622000  0.95332000  0.93623000  1.0
  H  H25  1  0.04667000  0.72379000  0.56377000  1.0
  H  H26  1  0.79906000  0.88729000  0.00185000  1.0
  H  H27  1  0.11269000  0.20093000  0.49815000  1.0
  H  H28  1  0.20094000  0.11270000  0.99814000  1.0
  H  H29  1  0.88729000  0.79906000  0.50185000  1.0
  H  H30  1  0.74863000  0.69711000  0.94943000  1.0
  H  H31  1  0.30288000  0.25135000  0.55057000  1.0
  H  H32  1  0.25135000  0.30289000  0.05057000  1.0
  H  H33  1  0.69710000  0.74864000  0.44943000  1.0
  H  H34  1  0.53561000  0.59923000  0.94855000  1.0
  H  H35  1  0.40076000  0.46437000  0.55145000  1.0
  H  H36  1  0.46438000  0.40077000  0.05145000  1.0
  H  H37  1  0.59922000  0.53561000  0.44855000  1.0
  H  H38  1  0.52868000  0.99965000  0.63239000  1.0
  H  H39  1  0.00036000  0.47133000  0.86761000  1.0
  H  H40  1  0.47133000  0.00034000  0.36761000  1.0
  H  H41  1  0.99965000  0.52867000  0.13239000  1.0
  H  H42  1  0.46244000  0.95347000  0.72304000  1.0
  H  H43  1  0.04654000  0.53757000  0.77696000  1.0
  H  H44  1  0.53758000  0.04654000  0.27696000  1.0
  H  H45  1  0.95346000  0.46243000  0.22304000  1.0
  H  H46  1  0.44369000  0.36979000  0.65398000  1.0
  H  H47  1  0.63022000  0.55630000  0.84602000  1.0
  H  H48  1  0.55632000  0.63022000  0.34602000  1.0
  H  H49  1  0.36978000  0.44370000  0.15398000  1.0
  H  H50  1  0.37261000  0.32356000  0.74327000  1.0
  H  H51  1  0.67644000  0.62739000  0.75673000  1.0
  H  H52  1  0.62741000  0.67644000  0.25672000  1.0
  H  H53  1  0.32355000  0.37261000  0.24327000  1.0
  H  H54  1  0.25975000  0.79459000  0.87077000  1.0
  H  H55  1  0.20541000  0.74026000  0.62924000  1.0
  H  H56  1  0.74025000  0.20542000  0.12924000  1.0
  H  H57  1  0.79457000  0.25975000  0.37077000  1.0
  H  H58  1  0.23985000  0.90555000  0.78781000  1.0
  H  H59  1  0.09444000  0.76015000  0.71218000  1.0
  H  H60  1  0.76015000  0.09445000  0.21219000  1.0
  H  H61  1  0.90554000  0.23985000  0.28782000  1.0
  H  H62  1  0.85137000  0.87768000  0.80472000  1.0
  H  H63  1  0.12232000  0.14863000  0.69528000  1.0
  H  H64  1  0.14862000  0.12232000  0.19529000  1.0
  H  H65  1  0.87767000  0.85138000  0.30472000  1.0
  H  H66  1  0.87336000  0.77199000  0.88946000  1.0
  H  H67  1  0.22801000  0.12664000  0.61054000  1.0
  H  H68  1  0.12664000  0.22800000  0.11054000  1.0
  H  H69  1  0.77199000  0.87336000  0.38947000  1.0
  H  H70  1  0.08526000  0.27216000  0.88024000  1.0
  H  H71  1  0.72785000  0.91474000  0.61976000  1.0
  H  H72  1  0.91474000  0.72784000  0.11976000  1.0
  H  H73  1  0.27215000  0.08526000  0.38024000  1.0
  H  H74  1  0.15088000  0.12726000  0.81237000  1.0
  H  H75  1  0.87275000  0.84912000  0.68763000  1.0
  H  H76  1  0.84913000  0.87275000  0.18763000  1.0
  H  H77  1  0.12725000  0.15088000  0.31237000  1.0
  H  H78  1  0.52295000  0.27053000  0.83601000  1.0
  H  H79  1  0.72947000  0.47705000  0.66399000  1.0
  H  H80  1  0.47706000  0.72948000  0.16399000  1.0
  H  H81  1  0.27053000  0.52295000  0.33601000  1.0
  H  H82  1  0.45725000  0.41508000  0.90243000  1.0
  H  H83  1  0.58492000  0.54276000  0.59757000  1.0
  H  H84  1  0.54276000  0.58493000  0.09757000  1.0
  H  H85  1  0.41508000  0.45724000  0.40243000  1.0
  C  C86  1  0.20063000  0.83728000  0.08254000  1.0
  C  C87  1  0.16271000  0.79937000  0.41746000  1.0
  C  C88  1  0.79937000  0.16272000  0.91746000  1.0
  C  C89  1  0.83728000  0.20063000  0.58253000  1.0
  C  C90  1  0.21459000  0.93620000  0.11737000  1.0
  C  C91  1  0.06379000  0.78542000  0.38263000  1.0
  C  C92  1  0.78542000  0.06379000  0.88264000  1.0
  C  C93  1  0.93620000  0.21458000  0.61736000  1.0
  C  C94  1  0.32612000  0.00353000  0.12217000  1.0
  C  C95  1  0.99646000  0.67389000  0.37783000  1.0
  C  C96  1  0.67389000  0.99647000  0.87783000  1.0
  C  C97  1  0.00353000  0.32611000  0.62217000  1.0
  C  C98  1  0.42442000  0.97087000  0.09211000  1.0
  C  C99  1  0.02911000  0.57558000  0.40790000  1.0
  C  C100  1  0.57558000  0.02912000  0.90790000  1.0
  C  C101  1  0.97087000  0.42442000  0.59210000  1.0
  C  C102  1  0.54304000  0.03421000  0.09303000  1.0
  C  C103  1  0.96578000  0.45696000  0.40697000  1.0
  C  C104  1  0.45696000  0.96578000  0.90697000  1.0
  C  C105  1  0.03420000  0.54304000  0.59303000  1.0
  C  C106  1  0.63456000  0.99599000  0.06335000  1.0
  C  C107  1  0.00400000  0.36544000  0.43665000  1.0
  C  C108  1  0.36544000  0.00401000  0.93665000  1.0
  C  C109  1  0.99598000  0.63456000  0.56335000  1.0
  C  C110  1  0.61519000  0.89030000  0.03058000  1.0
  C  C111  1  0.10968000  0.38480000  0.46942000  1.0
  C  C112  1  0.38481000  0.10969000  0.96942000  1.0
  C  C113  1  0.89030000  0.61519000  0.53057000  1.0
  C  C114  1  0.70689000  0.84281000  0.00072000  1.0
  C  C115  1  0.15718000  0.29310000  0.49928000  1.0
  C  C116  1  0.29311000  0.15719000  0.99928000  1.0
  C  C117  1  0.84281000  0.70689000  0.50072000  1.0
  C  C118  1  0.67870000  0.73853000  0.97119000  1.0
  C  C119  1  0.26146000  0.32129000  0.52881000  1.0
  C  C120  1  0.32130000  0.26146000  0.02881000  1.0
  C  C121  1  0.73853000  0.67870000  0.47119000  1.0
  C  C122  1  0.55941000  0.68249000  0.97078000  1.0
  C  C123  1  0.31750000  0.44057000  0.52922000  1.0
  C  C124  1  0.44059000  0.31751000  0.02922000  1.0
  C  C125  1  0.68249000  0.55941000  0.47078000  1.0
  C  C126  1  0.49800000  0.82720000  0.02816000  1.0
  C  C127  1  0.17279000  0.50200000  0.47184000  1.0
  C  C128  1  0.50200000  0.17280000  0.97184000  1.0
  C  C129  1  0.82720000  0.49799000  0.52815000  1.0
  C  C130  1  0.40218000  0.86816000  0.05875000  1.0
  C  C131  1  0.13183000  0.59782000  0.44125000  1.0
  C  C132  1  0.59783000  0.13184000  0.94126000  1.0
  C  C133  1  0.86816000  0.40218000  0.55874000  1.0
  C  C134  1  0.53623000  0.22151000  0.58576000  1.0
  C  C135  1  0.77850000  0.46377000  0.91424000  1.0
  C  C136  1  0.46378000  0.77850000  0.41424000  1.0
  C  C137  1  0.22150000  0.53623000  0.08576000  1.0
  C  C138  1  0.49055000  0.18789000  0.63760000  1.0
  C  C139  1  0.81211000  0.50945000  0.86239000  1.0
  C  C140  1  0.50947000  0.81211000  0.36240000  1.0
  C  C141  1  0.18789000  0.49055000  0.13761000  1.0
  C  C142  1  0.49574000  0.07021000  0.65716000  1.0
  C  C143  1  0.92979000  0.50426000  0.84284000  1.0
  C  C144  1  0.50428000  0.92979000  0.34284000  1.0
  C  C145  1  0.07021000  0.49574000  0.15716000  1.0
  C  C146  1  0.45908000  0.04438000  0.70732000  1.0
  C  C147  1  0.95563000  0.54092000  0.79268000  1.0
  C  C148  1  0.54093000  0.95563000  0.29268000  1.0
  C  C149  1  0.04437000  0.45908000  0.20732000  1.0
  C  C150  1  0.44650000  0.27837000  0.66921000  1.0
  C  C151  1  0.72163000  0.55349000  0.83079000  1.0
  C  C152  1  0.55351000  0.72163000  0.33079000  1.0
  C  C153  1  0.27836000  0.44651000  0.16921000  1.0
  C  C154  1  0.40744000  0.25315000  0.71910000  1.0
  C  C155  1  0.74685000  0.59255000  0.78090000  1.0
  C  C156  1  0.59258000  0.74685000  0.28090000  1.0
  C  C157  1  0.25315000  0.40745000  0.21910000  1.0
  C  C158  1  0.08733000  0.71884000  0.93636000  1.0
  C  C159  1  0.28117000  0.91268000  0.56364000  1.0
  C  C160  1  0.91267000  0.28116000  0.06364000  1.0
  C  C161  1  0.71884000  0.08734000  0.43636000  1.0
  C  C162  1  0.06862000  0.78023000  0.88603000  1.0
  C  C163  1  0.21977000  0.93138000  0.61397000  1.0
  C  C164  1  0.93138000  0.21977000  0.11397000  1.0
  C  C165  1  0.78023000  0.06863000  0.38603000  1.0
  C  C166  1  0.17082000  0.81506000  0.85628000  1.0
  C  C167  1  0.18495000  0.82919000  0.64372000  1.0
  C  C168  1  0.82918000  0.18495000  0.14372000  1.0
  C  C169  1  0.81504000  0.17082000  0.35628000  1.0
  C  C170  1  0.15989000  0.87502000  0.80987000  1.0
  C  C171  1  0.12499000  0.84010000  0.69013000  1.0
  C  C172  1  0.84010000  0.12499000  0.19013000  1.0
  C  C173  1  0.87500000  0.15990000  0.30987000  1.0
  C  C174  1  0.04405000  0.90006000  0.79284000  1.0
  C  C175  1  0.09993000  0.95594000  0.70716000  1.0
  C  C176  1  0.95594000  0.09994000  0.20716000  1.0
  C  C177  1  0.90005000  0.04406000  0.29284000  1.0
  C  C178  1  0.94050000  0.86129000  0.82049000  1.0
  C  C179  1  0.13871000  0.05949000  0.67951000  1.0
  C  C180  1  0.05949000  0.13871000  0.17951000  1.0
  C  C181  1  0.86129000  0.94051000  0.32050000  1.0
  C  C182  1  0.95317000  0.80225000  0.86729000  1.0
  C  C183  1  0.19775000  0.04683000  0.63271000  1.0
  C  C184  1  0.04683000  0.19775000  0.13271000  1.0
  C  C185  1  0.80225000  0.95317000  0.36730000  1.0
  C  C186  1  0.22833000  0.43794000  0.93683000  1.0
  C  C187  1  0.56206000  0.77168000  0.56317000  1.0
  C  C188  1  0.77168000  0.56205000  0.06317000  1.0
  C  C189  1  0.43794000  0.22832000  0.43683000  1.0
  C  C190  1  0.26661000  0.35314000  0.89540000  1.0
  C  C191  1  0.64687000  0.73339000  0.60460000  1.0
  C  C192  1  0.73340000  0.64687000  0.10460000  1.0
  C  C193  1  0.35313000  0.26660000  0.39540000  1.0
  C  C194  1  0.18075000  0.27158000  0.86999000  1.0
  C  C195  1  0.72843000  0.81926000  0.63001000  1.0
  C  C196  1  0.81926000  0.72843000  0.13001000  1.0
  C  C197  1  0.27157000  0.18074000  0.36999000  1.0
  C  C198  1  0.21683000  0.19073000  0.83246000  1.0
  C  C199  1  0.80927000  0.78317000  0.66754000  1.0
  C  C200  1  0.78318000  0.80927000  0.16754000  1.0
  C  C201  1  0.19073000  0.21683000  0.33246000  1.0
  C  C202  1  0.34005000  0.19067000  0.82096000  1.0
  C  C203  1  0.80933000  0.65995000  0.67904000  1.0
  C  C204  1  0.65996000  0.80933000  0.17904000  1.0
  C  C205  1  0.19066000  0.34005000  0.32096000  1.0
  C  C206  1  0.42701000  0.27187000  0.84543000  1.0
  C  C207  1  0.72814000  0.57299000  0.65457000  1.0
  C  C208  1  0.57300000  0.72814000  0.15457000  1.0
  C  C209  1  0.27186000  0.42700000  0.34543000  1.0
  C  C210  1  0.38969000  0.35318000  0.88242000  1.0
  C  C211  1  0.64682000  0.61030000  0.61758000  1.0
  C  C212  1  0.61031000  0.64682000  0.11758000  1.0
  C  C213  1  0.35318000  0.38969000  0.38242000  1.0
  C  C214  1  0.41452000  0.13567000  0.73818000  1.0
  C  C215  1  0.86434000  0.58548000  0.76182000  1.0
  C  C216  1  0.58549000  0.86434000  0.26182000  1.0
  C  C217  1  0.13566000  0.41452000  0.23818000  1.0
  N  N218  1  0.47064000  0.72576000  0.99830000  1.0
  N  N219  1  0.27424000  0.52934000  0.50170000  1.0
  N  N220  1  0.52935000  0.27425000  0.00170000  1.0
  N  N221  1  0.72575000  0.47064000  0.49830000  1.0
  N  N222  1  0.29232000  0.80348000  0.05423000  1.0
  N  N223  1  0.19651000  0.70769000  0.44577000  1.0
  N  N224  1  0.70769000  0.19652000  0.94577000  1.0
  N  N225  1  0.80348000  0.29231000  0.55423000  1.0
  O  O226  1  0.56882000  0.14169000  0.55291000  1.0
  O  O227  1  0.85832000  0.43118000  0.94709000  1.0
  O  O228  1  0.43119000  0.85832000  0.44709000  1.0
  O  O229  1  0.14168000  0.56882000  0.05291000  1.0
  O  O230  1  0.55194000  0.33385000  0.57439000  1.0
  O  O231  1  0.66616000  0.44806000  0.92561000  1.0
  O  O232  1  0.44807000  0.66615000  0.42561000  1.0
  O  O233  1  0.33384000  0.55194000  0.07439000  1.0
  O  O234  1  0.11621000  0.43120000  0.94826000  1.0
  O  O235  1  0.56880000  0.88380000  0.55174000  1.0
  O  O236  1  0.88379000  0.56880000  0.05174000  1.0
  O  O237  1  0.43121000  0.11620000  0.44826000  1.0
  O  O238  1  0.31256000  0.51043000  0.95722000  1.0
  O  O239  1  0.48958000  0.68745000  0.54278000  1.0
  O  O240  1  0.68744000  0.48957000  0.04278000  1.0
  O  O241  1  0.51042000  0.31257000  0.45722000  1.0
  O  O242  1  0.99795000  0.65877000  0.95698000  1.0
  O  O243  1  0.34124000  0.00206000  0.54302000  1.0
  O  O244  1  0.00205000  0.34122000  0.04302000  1.0
  O  O245  1  0.65879000  0.99796000  0.45699000  1.0
  O  O246  1  0.19636000  0.73386000  0.95439000  1.0
  O  O247  1  0.26616000  0.80365000  0.54561000  1.0
  O  O248  1  0.80364000  0.26615000  0.04561000  1.0
  O  O249  1  0.73385000  0.19638000  0.45438000  1.0
  O  O250  1  0.02825000  0.97174000  0.75000000  1.0
  O  O251  1  0.97174000  0.02826000  0.25000000  1.0
  O  O252  1  0.37584000  0.10188000  0.78669000  1.0
  O  O253  1  0.89812000  0.62416000  0.71331000  1.0
  O  O254  1  0.62418000  0.89813000  0.21331000  1.0
  O  O255  1  0.10187000  0.37583000  0.28669000  1.0
