# generated using pymatgen
data_ZnH16C23Br2N2(ClO2)2
_symmetry_space_group_name_H-M   'P 1'
_cell_length_a   10.07570000
_cell_length_b   11.33320000
_cell_length_c   12.49440000
_cell_angle_alpha   104.12400000
_cell_angle_beta   96.85310000
_cell_angle_gamma   96.45620000
_symmetry_Int_Tables_number   1
_chemical_formula_structural   ZnH16C23Br2N2(ClO2)2
_chemical_formula_sum   'Zn2 H32 C46 Br4 N4 Cl4 O8'
_cell_volume   1358.79044344
_cell_formula_units_Z   2
loop_
 _symmetry_equiv_pos_site_id
 _symmetry_equiv_pos_as_xyz
  1  'x, y, z'
loop_
 _atom_site_type_symbol
 _atom_site_label
 _atom_site_symmetry_multiplicity
 _atom_site_fract_x
 _atom_site_fract_y
 _atom_site_fract_z
 _atom_site_occupancy
  Zn  Zn0  1  0.48606000  0.80215000  0.17575000  1.0
  Zn  Zn1  1  0.51394000  0.19785000  0.82425000  1.0
  H  H2  1  0.30785000  0.99111000  0.22202000  1.0
  H  H3  1  0.69215000  0.00889000  0.77799000  1.0
  H  H4  1  0.15848000  0.10066000  0.11479000  1.0
  H  H5  1  0.84152000  0.89934000  0.88521000  1.0
  H  H6  1  0.30239000  0.91309000  0.81644000  1.0
  H  H7  1  0.69761000  0.08691000  0.18356000  1.0
  H  H8  1  0.44135000  0.80713000  0.93530000  1.0
  H  H9  1  0.55865000  0.19287000  0.06470000  1.0
  H  H10  1  0.21189000  0.22299000  0.70067000  1.0
  H  H11  1  0.78811000  0.77701000  0.29933000  1.0
  H  H12  1  0.88994000  0.93686000  0.69290000  1.0
  H  H13  1  0.11007000  0.06314000  0.30710000  1.0
  H  H14  1  0.74843000  0.99461000  0.54020000  1.0
  H  H15  1  0.25157000  0.00539000  0.45980000  1.0
  H  H16  1  0.19037000  0.34764000  0.55873000  1.0
  H  H17  1  0.80963000  0.65237000  0.44127000  1.0
  H  H18  1  0.82654000  0.28309000  0.32209000  1.0
  H  H19  1  0.17346000  0.71691000  0.67791000  1.0
  H  H20  1  0.72428000  0.12217000  0.40769000  1.0
  H  H21  1  0.27572000  0.87783000  0.59231000  1.0
  H  H22  1  0.27114000  0.78273000  0.31665000  1.0
  H  H23  1  0.72886000  0.21727000  0.68335000  1.0
  H  H24  1  0.13640000  0.61849000  0.37793000  1.0
  H  H25  1  0.86360000  0.38151000  0.62207000  1.0
  H  H26  1  0.30600000  0.35010000  0.14461000  1.0
  H  H27  1  0.69399000  0.64990000  0.85539000  1.0
  H  H28  1  0.43276000  0.52524000  0.09174000  1.0
  H  H29  1  0.56724000  0.47476000  0.90826000  1.0
  H  H30  1  0.93355000  0.56289000  0.18380000  1.0
  H  H31  1  0.06645000  0.43711000  0.81620000  1.0
  H  H32  1  0.80392000  0.54601000  0.06517000  1.0
  H  H33  1  0.19608000  0.45399000  0.93483000  1.0
  C  C34  1  0.30091000  0.97554000  0.13174000  1.0
  C  C35  1  0.69908000  0.02446000  0.86826000  1.0
  C  C36  1  0.21905000  0.03578000  0.07225000  1.0
  C  C37  1  0.78095000  0.96422000  0.92775000  1.0
  C  C38  1  0.21729000  0.01241000  0.95706000  1.0
  C  C39  1  0.78271000  0.98759000  0.04294000  1.0
  C  C40  1  0.29914000  0.93075000  0.90560000  1.0
  C  C41  1  0.70086000  0.06925000  0.09440000  1.0
  C  C42  1  0.37682000  0.87289000  0.97070000  1.0
  C  C43  1  0.62318000  0.12711000  0.02930000  1.0
  C  C44  1  0.12519000  0.07340000  0.89226000  1.0
  C  C45  1  0.87481000  0.92660000  0.10774000  1.0
  C  C46  1  0.10966000  0.17646000  0.66620000  1.0
  C  C47  1  0.89035000  0.82354000  0.33380000  1.0
  C  C48  1  0.05496000  0.08158000  0.70527000  1.0
  C  C49  1  0.94505000  0.91842000  0.29473000  1.0
  C  C50  1  0.92489000  0.01511000  0.66205000  1.0
  C  C51  1  0.07511000  0.98489000  0.33796000  1.0
  C  C52  1  0.84848000  0.04597000  0.57667000  1.0
  C  C53  1  0.15152000  0.95403000  0.42333000  1.0
  C  C54  1  0.90054000  0.14188000  0.53142000  1.0
  C  C55  1  0.09946000  0.85812000  0.46858000  1.0
  C  C56  1  0.03385000  0.20752000  0.57658000  1.0
  C  C57  1  0.96616000  0.79248000  0.42342000  1.0
  C  C58  1  0.08889000  0.29779000  0.52661000  1.0
  C  C59  1  0.91111000  0.70221000  0.47339000  1.0
  C  C60  1  0.01383000  0.31980000  0.43617000  1.0
  C  C61  1  0.98617000  0.68020000  0.56383000  1.0
  C  C62  1  0.88142000  0.25967000  0.39280000  1.0
  C  C63  1  0.11858000  0.74033000  0.60720000  1.0
  C  C64  1  0.82570000  0.17219000  0.44076000  1.0
  C  C65  1  0.17430000  0.82780000  0.55924000  1.0
  C  C66  1  0.14695000  0.36773000  0.30528000  1.0
  C  C67  1  0.85305000  0.63227000  0.69471000  1.0
  C  C68  1  0.27422000  0.68560000  0.27978000  1.0
  C  C69  1  0.72578000  0.31440000  0.72022000  1.0
  C  C70  1  0.20024000  0.59410000  0.31403000  1.0
  C  C71  1  0.79976000  0.40589000  0.68597000  1.0
  C  C72  1  0.21311000  0.47137000  0.26698000  1.0
  C  C73  1  0.78688000  0.52863000  0.73302000  1.0
  C  C74  1  0.29558000  0.44464000  0.18445000  1.0
  C  C75  1  0.70442000  0.55536000  0.81555000  1.0
  C  C76  1  0.36548000  0.54137000  0.15434000  1.0
  C  C77  1  0.63451000  0.45863000  0.84566000  1.0
  C  C78  1  0.85076000  0.50148000  0.12511000  1.0
  C  C79  1  0.14924000  0.49852000  0.87489000  1.0
  Br  Br80  1  0.92117000  0.35840000  0.04584000  1.0
  Br  Br81  1  0.07883000  0.64160000  0.95416000  1.0
  Br  Br82  1  0.71169000  0.46040000  0.21175000  1.0
  Br  Br83  1  0.28831000  0.53961000  0.78825000  1.0
  N  N84  1  0.37688000  0.89445000  0.08157000  1.0
  N  N85  1  0.62312000  0.10555000  0.91843000  1.0
  N  N86  1  0.35631000  0.65967000  0.20237000  1.0
  N  N87  1  0.64369000  0.34033000  0.79763000  1.0
  Cl  Cl88  1  0.54032000  0.92986000  0.34526000  1.0
  Cl  Cl89  1  0.45968000  0.07014000  0.65474000  1.0
  Cl  Cl90  1  0.62416000  0.71083000  0.06603000  1.0
  Cl  Cl91  1  0.37584000  0.28917000  0.93397000  1.0
  O  O92  1  0.04706000  0.14053000  0.93176000  1.0
  O  O93  1  0.95293000  0.85948000  0.06824000  1.0
  O  O94  1  0.13762000  0.03960000  0.78233000  1.0
  O  O95  1  0.86238000  0.96041000  0.21768000  1.0
  O  O96  1  0.07052000  0.40859000  0.38601000  1.0
  O  O97  1  0.92947000  0.59141000  0.61398000  1.0
  O  O98  1  0.16268000  0.26061000  0.27123000  1.0
  O  O99  1  0.83732000  0.73939000  0.72877000  1.0
