# generated using pymatgen
data_HgH4C7ClOF2
_symmetry_space_group_name_H-M   'P 1'
_cell_length_a   6.72146000
_cell_length_b   11.45640000
_cell_length_c   11.45590000
_cell_angle_alpha   86.38510000
_cell_angle_beta   75.08250000
_cell_angle_gamma   75.08380000
_symmetry_Int_Tables_number   1
_chemical_formula_structural   HgH4C7ClOF2
_chemical_formula_sum   'Hg4 H16 C28 Cl4 O4 F8'
_cell_volume   823.68804710
_cell_formula_units_Z   4
loop_
 _symmetry_equiv_pos_site_id
 _symmetry_equiv_pos_as_xyz
  1  'x, y, z'
loop_
 _atom_site_type_symbol
 _atom_site_label
 _atom_site_symmetry_multiplicity
 _atom_site_fract_x
 _atom_site_fract_y
 _atom_site_fract_z
 _atom_site_occupancy
  Hg  Hg0  1  0.05233000  0.28470000  0.59271000  1.0
  Hg  Hg1  1  0.55238000  0.59268000  0.28471000  1.0
  Hg  Hg2  1  0.50786000  0.48366000  0.64102000  1.0
  Hg  Hg3  1  0.00790000  0.64101000  0.48368000  1.0
  H  H4  1  0.06541000  0.89683000  0.57980000  1.0
  H  H5  1  0.56536000  0.57985000  0.89686000  1.0
  H  H6  1  0.37478000  0.93886000  0.42722000  1.0
  H  H7  1  0.87471000  0.42726000  0.93887000  1.0
  H  H8  1  0.31920000  0.09237000  0.26790000  1.0
  H  H9  1  0.81916000  0.26792000  0.09237000  1.0
  H  H10  1  0.95133000  0.20993000  0.26664000  1.0
  H  H11  1  0.45127000  0.26666000  0.20993000  1.0
  H  H12  1  0.64087000  0.16852000  0.42120000  1.0
  H  H13  1  0.14080000  0.42120000  0.16853000  1.0
  H  H14  1  0.56398000  0.77382000  0.76100000  1.0
  H  H15  1  0.06397000  0.76103000  0.77382000  1.0
  H  H16  1  0.37017000  0.89657000  0.71641000  1.0
  H  H17  1  0.87011000  0.71646000  0.89657000  1.0
  H  H18  1  0.49040000  0.91891000  0.83285000  1.0
  H  H19  1  0.99039000  0.83287000  0.91892000  1.0
  C  C20  1  0.79157000  0.24446000  0.71559000  1.0
  C  C21  1  0.29162000  0.71558000  0.24447000  1.0
  C  C22  1  0.58567000  0.31967000  0.72890000  1.0
  C  C23  1  0.08574000  0.72890000  0.31967000  1.0
  C  C24  1  0.41773000  0.29034000  0.81406000  1.0
  C  C25  1  0.91781000  0.81404000  0.29035000  1.0
  C  C26  1  0.44670000  0.19040000  0.88909000  1.0
  C  C27  1  0.94679000  0.88908000  0.19041000  1.0
  C  C28  1  0.65066000  0.11573000  0.87587000  1.0
  C  C29  1  0.15075000  0.87585000  0.11573000  1.0
  C  C30  1  0.82050000  0.14344000  0.78929000  1.0
  C  C31  1  0.32057000  0.78927000  0.14342000  1.0
  C  C32  1  0.83339000  0.02837000  0.50818000  1.0
  C  C33  1  0.33333333  0.50820000  0.02838000  1.0
  C  C34  1  0.04059000  0.96438000  0.51033000  1.0
  C  C35  1  0.54053000  0.51036000  0.96439000  1.0
  C  C36  1  0.21448000  0.98820000  0.42473000  1.0
  C  C37  1  0.71442000  0.42477000  0.98821000  1.0
  C  C38  1  0.18279000  0.07532000  0.33582000  1.0
  C  C39  1  0.68274000  0.33586000  0.07532000  1.0
  C  C40  1  0.97648000  0.14025000  0.33420000  1.0
  C  C41  1  0.47641000  0.33423000  0.14024000  1.0
  C  C42  1  0.80221000  0.11753000  0.42037000  1.0
  C  C43  1  0.30216000  0.42039000  0.11753000  1.0
  C  C44  1  0.64320000  0.00603000  0.59757000  1.0
  C  C45  1  0.14311000  0.59759000  0.00604000  1.0
  C  C46  1  0.51559000  0.87138000  0.74825000  1.0
  C  C47  1  0.01554000  0.74827000  0.87139000  1.0
  Cl  Cl48  1  0.31847000  0.35604000  0.45335000  1.0
  Cl  Cl49  1  0.81847000  0.45332000  0.35608000  1.0
  Cl  Cl50  1  0.40346000  0.67881000  0.56154000  1.0
  Cl  Cl51  1  0.90345000  0.56152000  0.67883000  1.0
  O  O52  1  0.46336000  0.07278000  0.61465000  1.0
  O  O53  1  0.96332000  0.61467000  0.07279000  1.0
  O  O54  1  0.69069000  0.90090000  0.65841000  1.0
  O  O55  1  0.19063000  0.65843000  0.90091000  1.0
  F  F56  1  0.21544000  0.36075000  0.82811000  1.0
  F  F57  1  0.71552000  0.82809000  0.36077000  1.0
  F  F58  1  0.28165000  0.16652000  0.97388000  1.0
  F  F59  1  0.78175000  0.97388000  0.16653000  1.0
  F  F60  1  0.68158000  0.01769000  0.94707000  1.0
  F  F61  1  0.18168000  0.94706000  0.01768000  1.0
  F  F62  1  0.01649000  0.06831000  0.78062000  1.0
  F  F63  1  0.51655000  0.78058000  0.06830000  1.0
