# generated using pymatgen
data_NdH2C4N3O5
_symmetry_space_group_name_H-M   'P 1'
_cell_length_a   8.63977321
_cell_length_b   8.64014000
_cell_length_c   9.94840000
_cell_angle_alpha   89.99910000
_cell_angle_beta   89.99989999
_cell_angle_gamma   119.99821284
_symmetry_Int_Tables_number   1
_chemical_formula_structural   NdH2C4N3O5
_chemical_formula_sum   'Nd3 H6 C12 N9 O15'
_cell_volume   643.15376062
_cell_formula_units_Z   3
loop_
 _symmetry_equiv_pos_site_id
 _symmetry_equiv_pos_as_xyz
  1  'x, y, z'
loop_
 _atom_site_type_symbol
 _atom_site_label
 _atom_site_symmetry_multiplicity
 _atom_site_fract_x
 _atom_site_fract_y
 _atom_site_fract_z
 _atom_site_occupancy
  Nd  Nd0  1  0.21783000  0.21780000  0.33333333  1.0
  Nd  Nd1  1  0.00003000  0.78220000  0.66663000  1.0
  Nd  Nd2  1  0.78221000  0.00000000  0.00000000  1.0
  H  H3  1  0.90948000  0.27287000  0.20646000  1.0
  H  H4  1  0.36341000  0.09051000  0.53975000  1.0
  H  H5  1  0.72723000  0.63669000  0.87300000  1.0
  H  H6  1  0.27292000  0.90952000  0.46025000  1.0
  H  H7  1  0.09053000  0.36331000  0.12700000  1.0
  H  H8  1  0.63661000  0.72712000  0.79355000  1.0
  C  C9  1  0.60939000  0.51617000  0.50224000  1.0
  C  C10  1  0.90674000  0.39063000  0.83558000  1.0
  C  C11  1  0.48386000  0.09322000  0.16890000  1.0
  C  C12  1  0.51612000  0.60937000  0.16442000  1.0
  C  C13  1  0.39064000  0.90677000  0.83109000  1.0
  C  C14  1  0.09322000  0.48384000  0.49776000  1.0
  C  C15  1  0.69635000  0.66025000  0.39887000  1.0
  C  C16  1  0.96383000  0.30363000  0.73221000  1.0
  C  C17  1  0.33979000  0.03619000  0.06552000  1.0
  C  C18  1  0.66022000  0.69638000  0.26779000  1.0
  C  C19  1  0.30360000  0.96380000  0.93448000  1.0
  C  C20  1  0.03610000  0.33975000  0.60113000  1.0
  N  N21  1  0.91689000  0.91693000  0.33333333  1.0
  N  N22  1  0.99996000  0.08307000  0.66666667  1.0
  N  N23  1  0.08308000  0.00000000  0.00000000  1.0
  N  N24  1  0.85688000  0.80121000  0.43462000  1.0
  N  N25  1  0.94424000  0.14310000  0.76797000  1.0
  N  N26  1  0.19884000  0.05576000  0.10128000  1.0
  N  N27  1  0.80115000  0.85690000  0.23203000  1.0
  N  N28  1  0.14308000  0.94424000  0.89872000  1.0
  N  N29  1  0.05567000  0.19880000  0.56538000  1.0
  O  O30  1  0.99999000  0.24976000  0.16677000  1.0
  O  O31  1  0.24983000  0.00000000  0.50001000  1.0
  O  O32  1  0.75022000  0.75023000  0.83324000  1.0
  O  O33  1  0.69822000  0.53818000  0.60930000  1.0
  O  O34  1  0.83991000  0.30183000  0.94265000  1.0
  O  O35  1  0.46189000  0.16003000  0.27599000  1.0
  O  O36  1  0.53808000  0.69816000  0.05735000  1.0
  O  O37  1  0.30185000  0.83994000  0.72401000  1.0
  O  O38  1  0.16005000  0.46183000  0.39070000  1.0
  O  O39  1  0.45524000  0.38206000  0.48315000  1.0
  O  O40  1  0.92687000  0.54482000  0.81647000  1.0
  O  O41  1  0.61794000  0.07316000  0.14977000  1.0
  O  O42  1  0.38206000  0.45518000  0.18354000  1.0
  O  O43  1  0.54479000  0.92684000  0.85023000  1.0
  O  O44  1  0.07317000  0.61794000  0.51684000  1.0
