# generated using pymatgen
data_LiH8C8(NO)3
_symmetry_space_group_name_H-M   'P 1'
_cell_length_a   7.25431000
_cell_length_b   9.49259000
_cell_length_c   12.88510000
_cell_angle_alpha   90.00000000
_cell_angle_beta   100.63200000
_cell_angle_gamma   89.99960000
_symmetry_Int_Tables_number   1
_chemical_formula_structural   LiH8C8(NO)3
_chemical_formula_sum   'Li4 H32 C32 N12 O12'
_cell_volume   872.06351665
_cell_formula_units_Z   4
loop_
 _symmetry_equiv_pos_site_id
 _symmetry_equiv_pos_as_xyz
  1  'x, y, z'
loop_
 _atom_site_type_symbol
 _atom_site_label
 _atom_site_symmetry_multiplicity
 _atom_site_fract_x
 _atom_site_fract_y
 _atom_site_fract_z
 _atom_site_occupancy
  Li  Li0  1  0.85537000  0.36576000  0.39290000  1.0
  Li  Li1  1  0.64463000  0.86576000  0.60710000  1.0
  Li  Li2  1  0.14463000  0.63424000  0.60710000  1.0
  Li  Li3  1  0.35537000  0.13424000  0.39290000  1.0
  H  H4  1  0.74040000  0.13350000  0.33452000  1.0
  H  H5  1  0.75960000  0.63350000  0.66548000  1.0
  H  H6  1  0.25960000  0.86650000  0.66548000  1.0
  H  H7  1  0.24040000  0.36651000  0.33452000  1.0
  H  H8  1  0.95297000  0.13149000  0.32478000  1.0
  H  H9  1  0.54703000  0.63149000  0.67522000  1.0
  H  H10  1  0.04703000  0.86851000  0.67522000  1.0
  H  H11  1  0.45297000  0.36851000  0.32478000  1.0
  H  H12  1  0.75145000  0.61299000  0.49043000  1.0
  H  H13  1  0.74855000  0.11299000  0.50957000  1.0
  H  H14  1  0.24855000  0.38702000  0.50957000  1.0
  H  H15  1  0.25145000  0.88701000  0.49043000  1.0
  H  H16  1  0.52421000  0.44439000  0.18294000  1.0
  H  H17  1  0.97579000  0.94439000  0.81706000  1.0
  H  H18  1  0.47579000  0.55561000  0.81706000  1.0
  H  H19  1  0.02421000  0.05561000  0.18294000  1.0
  H  H20  1  0.40369000  0.47372000  0.05363000  1.0
  H  H21  1  0.09631000  0.97372000  0.94637000  1.0
  H  H22  1  0.59631000  0.52628000  0.94637000  1.0
  H  H23  1  0.90369000  0.02628000  0.05363000  1.0
  H  H24  1  0.34944000  0.71022000  0.98443000  1.0
  H  H25  1  0.15056000  0.21022000  0.01557000  1.0
  H  H26  1  0.65056000  0.28978000  0.01557000  1.0
  H  H27  1  0.84944000  0.78978000  0.98443000  1.0
  H  H28  1  0.35787000  0.96559000  0.02043000  1.0
  H  H29  1  0.14213000  0.46559000  0.97957000  1.0
  H  H30  1  0.64212000  0.03441000  0.97957000  1.0
  H  H31  1  0.85788000  0.53441000  0.02043000  1.0
  H  H32  1  0.47400000  0.05847000  0.20125000  1.0
  H  H33  1  0.02600000  0.55847000  0.79875000  1.0
  H  H34  1  0.52599000  0.94153000  0.79875000  1.0
  H  H35  1  0.97401000  0.44153000  0.20125000  1.0
  C  C36  1  0.62478000  0.61308000  0.33392000  1.0
  C  C37  1  0.87522000  0.11307000  0.66608000  1.0
  C  C38  1  0.37522000  0.38693000  0.66608000  1.0
  C  C39  1  0.12478000  0.88692000  0.33392000  1.0
  C  C40  1  0.54645000  0.70432000  0.24722000  1.0
  C  C41  1  0.95354000  0.20431000  0.75278000  1.0
  C  C42  1  0.45355000  0.29569000  0.75278000  1.0
  C  C43  1  0.04646000  0.79569000  0.24722000  1.0
  C  C44  1  0.47531000  0.65102000  0.14369000  1.0
  C  C45  1  0.02468000  0.15102000  0.85631000  1.0
  C  C46  1  0.52469000  0.34898000  0.85631000  1.0
  C  C47  1  0.97531000  0.84898000  0.14369000  1.0
  C  C48  1  0.40485000  0.74875000  0.06385000  1.0
  C  C49  1  0.09516000  0.24874000  0.93615000  1.0
  C  C50  1  0.59516000  0.25125000  0.93615000  1.0
  C  C51  1  0.90485000  0.75126000  0.06385000  1.0
  C  C52  1  0.40821000  0.89258000  0.08472000  1.0
  C  C53  1  0.09179000  0.39257000  0.91528000  1.0
  C  C54  1  0.59178000  0.10742000  0.91528000  1.0
  C  C55  1  0.90822000  0.60742000  0.08472000  1.0
  C  C56  1  0.47618000  0.94600000  0.18509000  1.0
  C  C57  1  0.02382000  0.44600000  0.81491000  1.0
  C  C58  1  0.52382000  0.05400000  0.81491000  1.0
  C  C59  1  0.97618000  0.55400000  0.18509000  1.0
  C  C60  1  0.54408000  0.85174000  0.26672000  1.0
  C  C61  1  0.95592000  0.35174000  0.73328000  1.0
  C  C62  1  0.45591000  0.14826000  0.73328000  1.0
  C  C63  1  0.04408000  0.64826000  0.26672000  1.0
  C  C64  1  0.60738000  0.90274000  0.37476000  1.0
  C  C65  1  0.89262000  0.40274000  0.62524000  1.0
  C  C66  1  0.39262000  0.09726000  0.62525000  1.0
  C  C67  1  0.10738000  0.59726000  0.37476000  1.0
  N  N68  1  0.68372000  0.67519000  0.42833000  1.0
  N  N69  1  0.81628000  0.17519000  0.57167000  1.0
  N  N70  1  0.31628000  0.32481000  0.57167000  1.0
  N  N71  1  0.18373000  0.82481000  0.42833000  1.0
  N  N72  1  0.67334000  0.81471000  0.45274000  1.0
  N  N73  1  0.82666000  0.31471000  0.54726000  1.0
  N  N74  1  0.32666000  0.18529000  0.54726000  1.0
  N  N75  1  0.17334000  0.68529000  0.45274000  1.0
  N  N76  1  0.48099000  0.51100000  0.12146000  1.0
  N  N77  1  0.01901000  0.01100000  0.87854000  1.0
  N  N78  1  0.51901000  0.48900000  0.87854000  1.0
  N  N79  1  0.98099000  0.98900000  0.12146000  1.0
  O  O80  1  0.64433000  0.47897000  0.32658000  1.0
  O  O81  1  0.85567000  0.97897000  0.67341000  1.0
  O  O82  1  0.35567000  0.52103000  0.67342000  1.0
  O  O83  1  0.14433000  0.02103000  0.32659000  1.0
  O  O84  1  0.59526000  0.03661000  0.39641000  1.0
  O  O85  1  0.90474000  0.53661000  0.60359000  1.0
  O  O86  1  0.40473000  0.96339000  0.60359000  1.0
  O  O87  1  0.09526000  0.46339000  0.39641000  1.0
  O  O88  1  0.84145000  0.19368000  0.31488000  1.0
  O  O89  1  0.65855000  0.69368000  0.68512000  1.0
  O  O90  1  0.15855000  0.80632000  0.68512000  1.0
  O  O91  1  0.34145000  0.30632000  0.31488000  1.0
