# generated using pymatgen
data_CoSi2H32C30(SN3)2
_symmetry_space_group_name_H-M   'P 1'
_cell_length_a   9.81298000
_cell_length_b   9.82013000
_cell_length_c   10.38200000
_cell_angle_alpha   63.19190000
_cell_angle_beta   63.37480000
_cell_angle_gamma   79.80910000
_symmetry_Int_Tables_number   1
_chemical_formula_structural   CoSi2H32C30(SN3)2
_chemical_formula_sum   'Co1 Si2 H32 C30 S2 N6'
_cell_volume   797.84462736
_cell_formula_units_Z   1
loop_
 _symmetry_equiv_pos_site_id
 _symmetry_equiv_pos_as_xyz
  1  'x, y, z'
loop_
 _atom_site_type_symbol
 _atom_site_label
 _atom_site_symmetry_multiplicity
 _atom_site_fract_x
 _atom_site_fract_y
 _atom_site_fract_z
 _atom_site_occupancy
  Co  Co0  1  0.30280000  0.69732000  0.49989000  1.0
  Si  Si1  1  0.46730000  0.07917000  0.84204000  1.0
  Si  Si2  1  0.92084000  0.53260000  0.15795000  1.0
  H  H3  1  0.45071000  0.88074000  0.16042000  1.0
  H  H4  1  0.11864000  0.54969000  0.83995000  1.0
  H  H5  1  0.11213000  0.08760000  0.97538000  1.0
  H  H6  1  0.91257000  0.88780000  0.02450000  1.0
  H  H7  1  0.91433000  0.96649000  0.25199000  1.0
  H  H8  1  0.03344000  0.08624000  0.74791000  1.0
  H  H9  1  0.99598000  0.80631000  0.47351000  1.0
  H  H10  1  0.19335000  0.00484000  0.52666000  1.0
  H  H11  1  0.34291000  0.35957000  0.64958000  1.0
  H  H12  1  0.64091000  0.65679000  0.34976000  1.0
  H  H13  1  0.61192000  0.26900000  0.91336000  1.0
  H  H14  1  0.73092000  0.38800000  0.08677000  1.0
  H  H15  1  0.61608000  0.54871000  0.83629000  1.0
  H  H16  1  0.45134000  0.38354000  0.16358000  1.0
  H  H17  1  0.47293000  0.72049000  0.67498000  1.0
  H  H18  1  0.27991000  0.52659000  0.32456000  1.0
  H  H19  1  0.38679000  0.93935000  0.73823000  1.0
  H  H20  1  0.06073000  0.61304000  0.26185000  1.0
  H  H21  1  0.42700000  0.13114000  0.59612000  1.0
  H  H22  1  0.86919000  0.57253000  0.40369000  1.0
  H  H23  1  0.64267000  0.93536000  0.53165000  1.0
  H  H24  1  0.06501000  0.35670000  0.46872000  1.0
  H  H25  1  0.70238000  0.10198000  0.51791000  1.0
  H  H26  1  0.89839000  0.29712000  0.48215000  1.0
  H  H27  1  0.81244000  0.88078000  0.67983000  1.0
  H  H28  1  0.11941000  0.18726000  0.32071000  1.0
  H  H29  1  0.62996000  0.79033000  0.80646000  1.0
  H  H30  1  0.20958000  0.37000000  0.19396000  1.0
  H  H31  1  0.74217000  0.07989000  0.77703000  1.0
  H  H32  1  0.92012000  0.25770000  0.22311000  1.0
  H  H33  1  0.65867000  0.91411000  0.95136000  1.0
  H  H34  1  0.08562000  0.34152000  0.04895000  1.0
  C  C35  1  0.33355000  0.90301000  0.17444000  1.0
  C  C36  1  0.09649000  0.66687000  0.82591000  1.0
  C  C37  1  0.30145000  0.99284000  0.04259000  1.0
  C  C38  1  0.00697000  0.69869000  0.95760000  1.0
  C  C39  1  0.14674000  0.01659000  0.07179000  1.0
  C  C40  1  0.98340000  0.85342000  0.92820000  1.0
  C  C41  1  0.03512000  0.94979000  0.22712000  1.0
  C  C42  1  0.05007000  0.96544000  0.77288000  1.0
  C  C43  1  0.07925000  0.86160000  0.35049000  1.0
  C  C44  1  0.13798000  0.92149000  0.64977000  1.0
  C  C45  1  0.40312000  0.39487000  0.69643000  1.0
  C  C46  1  0.60561000  0.59652000  0.30299000  1.0
  C  C47  1  0.47526000  0.28886000  0.78896000  1.0
  C  C48  1  0.71137000  0.52450000  0.21079000  1.0
  C  C49  1  0.55242000  0.34558000  0.84148000  1.0
  C  C50  1  0.65447000  0.44737000  0.15844000  1.0
  C  C51  1  0.55383000  0.50170000  0.80018000  1.0
  C  C52  1  0.49840000  0.44578000  0.19960000  1.0
  C  C53  1  0.47609000  0.59771000  0.70995000  1.0
  C  C54  1  0.40269000  0.52341000  0.28952000  1.0
  C  C55  1  0.46455000  0.03802000  0.68191000  1.0
  C  C56  1  0.96218000  0.53518000  0.31809000  1.0
  C  C57  1  0.63165000  0.99623000  0.60235000  1.0
  C  C58  1  0.00407000  0.36790000  0.39785000  1.0
  C  C59  1  0.69005000  0.90278000  0.73175000  1.0
  C  C60  1  0.09729000  0.30974000  0.26863000  1.0
  C  C61  1  0.65561000  0.98826000  0.83605000  1.0
  C  C62  1  0.01165000  0.34434000  0.16415000  1.0
  C  C63  1  0.05703000  0.45390000  0.68358000  1.0
  C  C64  1  0.54630000  0.94298000  0.31634000  1.0
  S  S65  1  0.92810000  0.32075000  0.81755000  1.0
  S  S66  1  0.67945000  0.07188000  0.18243000  1.0
  N  N67  1  0.22682000  0.83854000  0.32496000  1.0
  N  N68  1  0.16073000  0.77393000  0.67555000  1.0
  N  N69  1  0.40206000  0.54543000  0.65801000  1.0
  N  N70  1  0.45529000  0.59741000  0.34109000  1.0
  N  N71  1  0.15321000  0.55070000  0.58591000  1.0
  N  N72  1  0.44950000  0.84677000  0.41393000  1.0
