# generated using pymatgen
data_CuH15C11N5O
_symmetry_space_group_name_H-M   'P 1'
_cell_length_a   6.77001000
_cell_length_b   10.28660000
_cell_length_c   10.61340281
_cell_angle_alpha   118.57467004
_cell_angle_beta   108.04023280
_cell_angle_gamma   91.08590000
_symmetry_Int_Tables_number   1
_chemical_formula_structural   CuH15C11N5O
_chemical_formula_sum   'Cu2 H30 C22 N10 O2'
_cell_volume   604.70232659
_cell_formula_units_Z   2
loop_
 _symmetry_equiv_pos_site_id
 _symmetry_equiv_pos_as_xyz
  1  'x, y, z'
loop_
 _atom_site_type_symbol
 _atom_site_label
 _atom_site_symmetry_multiplicity
 _atom_site_fract_x
 _atom_site_fract_y
 _atom_site_fract_z
 _atom_site_occupancy
  Cu  Cu0  1  0.63006000  0.28287000  0.06323000  1.0
  Cu  Cu1  1  0.06714000  0.21971000  0.93695000  1.0
  H  H2  1  0.33921000  0.26964000  0.61376000  1.0
  H  H3  1  0.22543000  0.65613000  0.38637000  1.0
  H  H4  1  0.36233000  0.48482000  0.57422000  1.0
  H  H5  1  0.28690000  0.91076000  0.42550000  1.0
  H  H6  1  0.49888000  0.74946000  0.79914000  1.0
  H  H7  1  0.19856000  0.95018000  0.20035000  1.0
  H  H8  1  0.60693000  0.79069000  0.06535000  1.0
  H  H9  1  0.04143000  0.72504000  0.93427000  1.0
  H  H10  1  0.60933000  0.70905000  0.23187000  1.0
  H  H11  1  0.87773000  0.47708000  0.76812000  1.0
  H  H12  1  0.65068000  0.67358000  0.41451000  1.0
  H  H13  1  0.73597000  0.25916000  0.58565000  1.0
  H  H14  1  0.50252000  0.49852000  0.35653000  1.0
  H  H15  1  0.64592000  0.14208000  0.64370000  1.0
  H  H16  1  0.86194000  0.57995000  0.56664000  1.0
  H  H17  1  0.79495000  0.01339000  0.43342000  1.0
  H  H18  1  0.98332000  0.55681000  0.43388000  1.0
  H  H19  1  0.04906000  0.12297000  0.56598000  1.0
  H  H20  1  0.95723000  0.33690000  0.47737000  1.0
  H  H21  1  0.97995000  0.85970000  0.52269000  1.0
  H  H22  1  0.67617000  0.31105000  0.40317000  1.0
  H  H23  1  0.77312000  0.90791000  0.59696000  1.0
  H  H24  1  0.90449000  0.07764000  0.28691000  1.0
  H  H25  1  0.11770000  0.79078000  0.71307000  1.0
  H  H26  1  0.79524000  0.01984000  0.08761000  1.0
  H  H27  1  0.20782000  0.93217000  0.91240000  1.0
  H  H28  1  0.62561000  0.06019000  0.19567000  1.0
  H  H29  1  0.93014000  0.86453000  0.80440000  1.0
  H  H30  1  0.96392000  0.27828000  0.23853000  1.0
  H  H31  1  0.22547000  0.03980000  0.76147000  1.0
  C  C32  1  0.46450000  0.40293000  0.86280000  1.0
  C  C33  1  0.10194000  0.54019000  0.13731000  1.0
  C  C34  1  0.39737000  0.38396000  0.71306000  1.0
  C  C35  1  0.18417000  0.67102000  0.28697000  1.0
  C  C36  1  0.41141000  0.50628000  0.69177000  1.0
  C  C37  1  0.21885000  0.81456000  0.30801000  1.0
  C  C38  1  0.48927000  0.65476000  0.81805000  1.0
  C  C39  1  0.17043000  0.83661000  0.18159000  1.0
  C  C40  1  0.54956000  0.67676000  0.96508000  1.0
  C  C41  1  0.08432000  0.71151000  0.03464000  1.0
  C  C42  1  0.54050000  0.55484000  0.99109000  1.0
  C  C43  1  0.04962000  0.56368000  0.00888000  1.0
  C  C44  1  0.59433000  0.58945000  0.14702000  1.0
  C  C45  1  0.94758000  0.44236000  0.85299000  1.0
  C  C46  1  0.64565000  0.55115000  0.35625000  1.0
  C  C47  1  0.78929000  0.19497000  0.64391000  1.0
  C  C48  1  0.84088000  0.51599000  0.44401000  1.0
  C  C49  1  0.89661000  0.07204000  0.55601000  1.0
  C  C50  1  0.82265000  0.35061000  0.39672000  1.0
  C  C51  1  0.92595000  0.95397000  0.60333000  1.0
  C  C52  1  0.78416000  0.09238000  0.20017000  1.0
  C  C53  1  0.08415000  0.89224000  0.79986000  1.0
  N  N54  1  0.72784000  0.10467000  0.92023000  1.0
  N  N55  1  0.30773000  0.18433000  0.07990000  1.0
  N  N56  1  0.59746000  0.00955000  0.79986000  1.0
  N  N57  1  0.29763000  0.20958000  0.20028000  1.0
  N  N58  1  0.47304000  0.91489000  0.68123000  1.0
  N  N59  1  0.29173000  0.23351000  0.31888000  1.0
  N  N60  1  0.61984000  0.49509000  0.19630000  1.0
  N  N61  1  0.92363000  0.29875000  0.80381000  1.0
  N  N62  1  0.81710000  0.25118000  0.23863000  1.0
  N  N63  1  0.07857000  0.01260000  0.76141000  1.0
  O  O64  1  0.45110000  0.28421000  0.87801000  1.0
  O  O65  1  0.07369000  0.40632000  0.12224000  1.0
