# generated using pymatgen
data_MgH12C17NO5
_symmetry_space_group_name_H-M   'P 1'
_cell_length_a   11.36660000
_cell_length_b   11.36660000
_cell_length_c   14.25400000
_cell_angle_alpha   71.25690000
_cell_angle_beta   71.25720000
_cell_angle_gamma   88.87960000
_symmetry_Int_Tables_number   1
_chemical_formula_structural   MgH12C17NO5
_chemical_formula_sum   'Mg4 H48 C68 N4 O20'
_cell_volume   1644.25909360
_cell_formula_units_Z   4
loop_
 _symmetry_equiv_pos_site_id
 _symmetry_equiv_pos_as_xyz
  1  'x, y, z'
loop_
 _atom_site_type_symbol
 _atom_site_label
 _atom_site_symmetry_multiplicity
 _atom_site_fract_x
 _atom_site_fract_y
 _atom_site_fract_z
 _atom_site_occupancy
  Mg  Mg0  1  0.99718000  0.00283000  0.25000000  1.0
  Mg  Mg1  1  0.00282000  0.99717000  0.75000000  1.0
  Mg  Mg2  1  0.00000000  0.00000000  0.50000000  1.0
  Mg  Mg3  1  0.00000000  0.00000000  0.00000000  1.0
  H  H4  1  0.85767000  0.84068000  0.46930000  1.0
  H  H5  1  0.15932000  0.14233000  0.03070000  1.0
  H  H6  1  0.14233000  0.15932000  0.53070000  1.0
  H  H7  1  0.84068000  0.85767000  0.96930000  1.0
  H  H8  1  0.82572000  0.97946000  0.42579000  1.0
  H  H9  1  0.02053000  0.17428000  0.07420000  1.0
  H  H10  1  0.17428000  0.02054000  0.57421000  1.0
  H  H11  1  0.97946000  0.82572000  0.92579000  1.0
  H  H12  1  0.39252000  0.14771000  0.14451000  1.0
  H  H13  1  0.85230000  0.60749000  0.35548000  1.0
  H  H14  1  0.60748000  0.85229000  0.85548000  1.0
  H  H15  1  0.14770000  0.39251000  0.64451000  1.0
  H  H16  1  0.62621000  0.15706000  0.08661000  1.0
  H  H17  1  0.84294000  0.37380000  0.41339000  1.0
  H  H18  1  0.37380000  0.84293000  0.91339000  1.0
  H  H19  1  0.15706000  0.62620000  0.58661000  1.0
  H  H20  1  0.71782000  0.79783000  0.32885000  1.0
  H  H21  1  0.20216000  0.28217000  0.17115000  1.0
  H  H22  1  0.28217000  0.20217000  0.67115000  1.0
  H  H23  1  0.79784000  0.71782000  0.82885000  1.0
  H  H24  1  0.59105000  0.61486000  0.47445000  1.0
  H  H25  1  0.38514000  0.40893000  0.02556000  1.0
  H  H26  1  0.40894000  0.38515000  0.52555000  1.0
  H  H27  1  0.61486000  0.59106000  0.97445000  1.0
  H  H28  1  0.35942000  0.60654000  0.53528000  1.0
  H  H29  1  0.39347000  0.64057000  0.96473000  1.0
  H  H30  1  0.64058000  0.39347000  0.46473000  1.0
  H  H31  1  0.60653000  0.35942000  0.03527000  1.0
  H  H32  1  0.25289000  0.78028000  0.44857000  1.0
  H  H33  1  0.21974000  0.74710000  0.05143000  1.0
  H  H34  1  0.74711000  0.21972000  0.55143000  1.0
  H  H35  1  0.78027000  0.25289000  0.94857000  1.0
  H  H36  1  0.63786000  0.83729000  0.60450000  1.0
  H  H37  1  0.16271000  0.36213000  0.89550000  1.0
  H  H38  1  0.36213000  0.16271000  0.39550000  1.0
  H  H39  1  0.83729000  0.63787000  0.10450000  1.0
  H  H40  1  0.47225000  0.67527000  0.73744000  1.0
  H  H41  1  0.32473000  0.52775000  0.76257000  1.0
  H  H42  1  0.52775000  0.32473000  0.26257000  1.0
  H  H43  1  0.67527000  0.47225000  0.23743000  1.0
  H  H44  1  0.71889000  0.39804000  0.66510000  1.0
  H  H45  1  0.60195000  0.28111000  0.83491000  1.0
  H  H46  1  0.28111000  0.60195000  0.33490000  1.0
  H  H47  1  0.39805000  0.71889000  0.16509000  1.0
  H  H48  1  0.87553000  0.57291000  0.53668000  1.0
  H  H49  1  0.42708000  0.12446000  0.96332000  1.0
  H  H50  1  0.12447000  0.42709000  0.46332000  1.0
  H  H51  1  0.57292000  0.87553000  0.03667000  1.0
  C  C52  1  0.22857000  0.99032000  0.31149000  1.0
  C  C53  1  0.00971000  0.77144000  0.18849000  1.0
  C  C54  1  0.77143000  0.00969000  0.68850000  1.0
  C  C55  1  0.99030000  0.22856000  0.81150000  1.0
  C  C56  1  0.36692000  0.98385000  0.27793000  1.0
  C  C57  1  0.01617000  0.63308000  0.22206000  1.0
  C  C58  1  0.63308000  0.01616000  0.72206000  1.0
  C  C59  1  0.98383000  0.36692000  0.77794000  1.0
  C  C60  1  0.43902000  0.07740000  0.18873000  1.0
  C  C61  1  0.92261000  0.56099000  0.31127000  1.0
  C  C62  1  0.56098000  0.92261000  0.81127000  1.0
  C  C63  1  0.07739000  0.43902000  0.68873000  1.0
  C  C64  1  0.56978000  0.08306000  0.15663000  1.0
  C  C65  1  0.91695000  0.43023000  0.34336000  1.0
  C  C66  1  0.43023000  0.91695000  0.84336000  1.0
  C  C67  1  0.08305000  0.56977000  0.65664000  1.0
  C  C68  1  0.62875000  0.99504000  0.21358000  1.0
  C  C69  1  0.00495000  0.37125000  0.28642000  1.0
  C  C70  1  0.37125000  0.00496000  0.78642000  1.0
  C  C71  1  0.99505000  0.62875000  0.71358000  1.0
  C  C72  1  0.55817000  0.89289000  0.30215000  1.0
  C  C73  1  0.10712000  0.44183000  0.19785000  1.0
  C  C74  1  0.44183000  0.10712000  0.69785000  1.0
  C  C75  1  0.89288000  0.55817000  0.80215000  1.0
  C  C76  1  0.61625000  0.79305000  0.35446000  1.0
  C  C77  1  0.20695000  0.38374000  0.14555000  1.0
  C  C78  1  0.38375000  0.20695000  0.64554000  1.0
  C  C79  1  0.79305000  0.61625000  0.85446000  1.0
  C  C80  1  0.54555000  0.69165000  0.43578000  1.0
  C  C81  1  0.30835000  0.45443000  0.06422000  1.0
  C  C82  1  0.45445000  0.30835000  0.56422000  1.0
  C  C83  1  0.69165000  0.54555000  0.93578000  1.0
  C  C84  1  0.41390000  0.68708000  0.47010000  1.0
  C  C85  1  0.31293000  0.58609000  0.02990000  1.0
  C  C86  1  0.58610000  0.31293000  0.52990000  1.0
  C  C87  1  0.68707000  0.41390000  0.97010000  1.0
  C  C88  1  0.35443000  0.78289000  0.42184000  1.0
  C  C89  1  0.21712000  0.64556000  0.07816000  1.0
  C  C90  1  0.64556000  0.21711000  0.57816000  1.0
  C  C91  1  0.78288000  0.35443000  0.92184000  1.0
  C  C92  1  0.42432000  0.88739000  0.33562000  1.0
  C  C93  1  0.11261000  0.57568000  0.16438000  1.0
  C  C94  1  0.57568000  0.11261000  0.66438000  1.0
  C  C95  1  0.88739000  0.42432000  0.83562000  1.0
  C  C96  1  0.76820000  0.00655000  0.17789000  1.0
  C  C97  1  0.99344000  0.23181000  0.32211000  1.0
  C  C98  1  0.23180000  0.99345000  0.82211000  1.0
  C  C99  1  0.00656000  0.76819000  0.67790000  1.0
  C  C100  1  0.65219000  0.73856000  0.61937000  1.0
  C  C101  1  0.26144000  0.34781000  0.88064000  1.0
  C  C102  1  0.34781000  0.26144000  0.38063000  1.0
  C  C103  1  0.73856000  0.65219000  0.11936000  1.0
  C  C104  1  0.55922000  0.64700000  0.69388000  1.0
  C  C105  1  0.35300000  0.44078000  0.80613000  1.0
  C  C106  1  0.44078000  0.35300000  0.30612000  1.0
  C  C107  1  0.64700000  0.55922000  0.19387000  1.0
  C  C108  1  0.57902000  0.52038000  0.71220000  1.0
  C  C109  1  0.47962000  0.42097000  0.78782000  1.0
  C  C110  1  0.42097000  0.47962000  0.28781000  1.0
  C  C111  1  0.52038000  0.57902000  0.21219000  1.0
  C  C112  1  0.69638000  0.49394000  0.65510000  1.0
  C  C113  1  0.50606000  0.30362000  0.84491000  1.0
  C  C114  1  0.30362000  0.50606000  0.34490000  1.0
  C  C115  1  0.49394000  0.69638000  0.15509000  1.0
  C  C116  1  0.78412000  0.59173000  0.58206000  1.0
  C  C117  1  0.40826000  0.21588000  0.91795000  1.0
  C  C118  1  0.21588000  0.40826000  0.41795000  1.0
  C  C119  1  0.59174000  0.78412000  0.08205000  1.0
  N  N120  1  0.76273000  0.71263000  0.56248000  1.0
  N  N121  1  0.28736000  0.23727000  0.93752000  1.0
  N  N122  1  0.23728000  0.28737000  0.43752000  1.0
  N  N123  1  0.71264000  0.76273000  0.06248000  1.0
  O  O124  1  0.17738000  0.00323000  0.24230000  1.0
  O  O125  1  0.99683000  0.82263000  0.25769000  1.0
  O  O126  1  0.82263000  0.99679000  0.75769000  1.0
  O  O127  1  0.00319000  0.17737000  0.74231000  1.0
  O  O128  1  0.17444000  0.98694000  0.40535000  1.0
  O  O129  1  0.01306000  0.82555000  0.09466000  1.0
  O  O130  1  0.82556000  0.01306000  0.59465000  1.0
  O  O131  1  0.98693000  0.17444000  0.90534000  1.0
  O  O132  1  0.82295000  0.01089000  0.08405000  1.0
  O  O133  1  0.98911000  0.17705000  0.41595000  1.0
  O  O134  1  0.17705000  0.98911000  0.91595000  1.0
  O  O135  1  0.01089000  0.82295000  0.58405000  1.0
  O  O136  1  0.82029000  0.01241000  0.24301000  1.0
  O  O137  1  0.98756000  0.17971000  0.25700000  1.0
  O  O138  1  0.17971000  0.98759000  0.75699000  1.0
  O  O139  1  0.01244000  0.82028000  0.74301000  1.0
  O  O140  1  0.89708000  0.92967000  0.42241000  1.0
  O  O141  1  0.07032000  0.10293000  0.07758000  1.0
  O  O142  1  0.10292000  0.07033000  0.57758000  1.0
  O  O143  1  0.92967000  0.89708000  0.92241000  1.0
