# generated using pymatgen
data_Al2H22C30N4O11
_symmetry_space_group_name_H-M   'P 1'
_cell_length_a   6.66488000
_cell_length_b   23.16700000
_cell_length_c   25.96670000
_cell_angle_alpha   100.94500000
_cell_angle_beta   89.99850000
_cell_angle_gamma   89.99930000
_symmetry_Int_Tables_number   1
_chemical_formula_structural   Al2H22C30N4O11
_chemical_formula_sum   'Al4 H44 C60 N8 O22'
_cell_volume   3936.46412562
_cell_formula_units_Z   2
loop_
 _symmetry_equiv_pos_site_id
 _symmetry_equiv_pos_as_xyz
  1  'x, y, z'
loop_
 _atom_site_type_symbol
 _atom_site_label
 _atom_site_symmetry_multiplicity
 _atom_site_fract_x
 _atom_site_fract_y
 _atom_site_fract_z
 _atom_site_occupancy
  Al  Al0  1  0.88662000  0.50046000  0.50044000  1.0
  Al  Al1  1  0.38663000  0.49954000  0.49956000  1.0
  Al  Al2  1  0.32529000  0.99933000  0.00028000  1.0
  Al  Al3  1  0.82529000  0.00067000  0.99972000  1.0
  H  H4  1  0.93696000  0.27051000  0.17107000  1.0
  H  H5  1  0.43660000  0.72956000  0.82891000  1.0
  H  H6  1  0.95852000  0.34603000  0.24470000  1.0
  H  H7  1  0.45829000  0.65401000  0.75530000  1.0
  H  H8  1  0.44275000  0.28293000  0.28347000  1.0
  H  H9  1  0.94275000  0.71700000  0.71657000  1.0
  H  H10  1  0.33987000  0.33303000  0.24727000  1.0
  H  H11  1  0.83964000  0.66691000  0.75276000  1.0
  H  H12  1  0.31691000  0.25813000  0.17315000  1.0
  H  H13  1  0.81663000  0.74181000  0.82688000  1.0
  H  H14  1  0.42293000  0.20817000  0.20897000  1.0
  H  H15  1  0.92295000  0.79174000  0.79109000  1.0
  H  H16  1  0.95507000  0.23427000  0.33190000  1.0
  H  H17  1  0.45527000  0.76576000  0.66810000  1.0
  H  H18  1  0.21796000  0.22532000  0.33333333  1.0
  H  H19  1  0.71817000  0.77464000  0.66666667  1.0
  H  H20  1  0.93612000  0.15877000  0.25817000  1.0
  H  H21  1  0.43654000  0.84130000  0.74180000  1.0
  H  H22  1  0.80269000  0.30572000  0.27990000  1.0
  H  H23  1  0.30261000  0.69433000  0.72007000  1.0
  H  H24  1  0.78229000  0.22988000  0.20630000  1.0
  H  H25  1  0.28222000  0.77021000  0.79364000  1.0
  H  H26  1  0.19908000  0.15009000  0.25950000  1.0
  H  H27  1  0.69956000  0.84987000  0.74050000  1.0
  H  H28  1  0.40559000  0.09894000  0.89071000  1.0
  H  H29  1  0.90559000  0.90107000  0.10930000  1.0
  H  H30  1  0.42256000  0.16636000  0.82553000  1.0
  H  H31  1  0.92256000  0.83365000  0.17448000  1.0
  H  H32  1  0.77845000  0.17744000  0.82595000  1.0
  H  H33  1  0.27846000  0.82256000  0.17406000  1.0
  H  H34  1  0.76328000  0.11027000  0.89145000  1.0
  H  H35  1  0.26329000  0.88974000  0.10856000  1.0
  H  H36  1  0.44565000  0.37197000  0.58846000  1.0
  H  H37  1  0.94564000  0.62803000  0.41154000  1.0
  H  H38  1  0.82675000  0.41274000  0.62443000  1.0
  H  H39  1  0.32676000  0.58727000  0.37557000  1.0
  H  H40  1  0.83548000  0.34762000  0.69175000  1.0
  H  H41  1  0.33548000  0.65238000  0.30825000  1.0
  H  H42  1  0.58804000  0.30522000  0.63013000  1.0
  H  H43  1  0.08802000  0.69478000  0.36987000  1.0
  H  H44  1  0.63908000  0.42651000  0.47136000  1.0
  H  H45  1  0.13907000  0.57349000  0.52863000  1.0
  H  H46  1  0.57301000  0.07495000  0.02508000  1.0
  H  H47  1  0.07303000  0.92505000  0.97492000  1.0
  C  C48  1  0.63594000  0.56530000  0.43712000  1.0
  C  C49  1  0.13600000  0.43470000  0.56288000  1.0
  C  C50  1  0.63583000  0.57663000  0.57801000  1.0
  C  C51  1  0.13589000  0.42336000  0.42199000  1.0
  C  C52  1  0.94009000  0.30309000  0.25619000  1.0
  C  C53  1  0.43997000  0.69695000  0.74379000  1.0
  C  C54  1  0.31589000  0.29012000  0.25840000  1.0
  C  C55  1  0.81579000  0.70983000  0.74163000  1.0
  C  C56  1  0.30206000  0.24051000  0.20937000  1.0
  C  C57  1  0.80197000  0.75944000  0.79066000  1.0
  C  C58  1  0.07847000  0.12251000  0.12397000  1.0
  C  C59  1  0.57851000  0.87750000  0.87603000  1.0
  C  C60  1  0.12034000  0.29257000  0.29100000  1.0
  C  C61  1  0.62032000  0.70742000  0.70900000  1.0
  C  C62  1  0.92643000  0.25311000  0.20749000  1.0
  C  C63  1  0.42629000  0.74695000  0.79247000  1.0
  C  C64  1  0.09802000  0.20820000  0.20836000  1.0
  C  C65  1  0.59803000  0.79181000  0.79163000  1.0
  C  C66  1  0.07911000  0.18250000  0.25912000  1.0
  C  C67  1  0.57943000  0.81751000  0.74087000  1.0
  C  C68  1  0.09177000  0.23241000  0.30800000  1.0
  C  C69  1  0.59198000  0.76759000  0.69199000  1.0
  C  C70  1  0.08625000  0.16136000  0.16261000  1.0
  C  C71  1  0.58631000  0.83864000  0.83738000  1.0
  C  C72  1  0.12981000  0.33896000  0.33711000  1.0
  C  C73  1  0.62979000  0.66103000  0.66289000  1.0
  C  C74  1  0.13330000  0.37772000  0.37589000  1.0
  C  C75  1  0.63328000  0.62227000  0.62412000  1.0
  C  C76  1  0.26980000  0.11643000  0.87604000  1.0
  C  C77  1  0.76981000  0.88357000  0.12397000  1.0
  C  C78  1  0.27901000  0.15356000  0.83995000  1.0
  C  C79  1  0.77901000  0.84644000  0.16005000  1.0
  C  C80  1  0.10149000  0.17600000  0.82205000  1.0
  C  C81  1  0.60151000  0.82400000  0.17795000  1.0
  C  C82  1  0.91467000  0.15966000  0.84009000  1.0
  C  C83  1  0.41467000  0.84035000  0.15991000  1.0
  C  C84  1  0.90633000  0.12261000  0.87635000  1.0
  C  C85  1  0.40634000  0.87740000  0.12366000  1.0
  C  C86  1  0.08369000  0.10119000  0.89492000  1.0
  C  C87  1  0.58368000  0.89882000  0.10509000  1.0
  C  C88  1  0.13495000  0.28567000  0.71788000  1.0
  C  C89  1  0.63496000  0.71433000  0.28211000  1.0
  C  C90  1  0.11209000  0.21766000  0.78591000  1.0
  C  C91  1  0.61210000  0.78234000  0.21409000  1.0
  C  C92  1  0.31571000  0.32817000  0.64725000  1.0
  C  C93  1  0.81571000  0.67183000  0.35275000  1.0
  C  C94  1  0.31149000  0.36585000  0.61101000  1.0
  C  C95  1  0.81147000  0.63415000  0.38899000  1.0
  C  C96  1  0.13628000  0.39568000  0.60257000  1.0
  C  C97  1  0.63629000  0.60432000  0.39743000  1.0
  C  C98  1  0.96173000  0.38862000  0.63100000  1.0
  C  C99  1  0.46171000  0.61138000  0.36900000  1.0
  C  C100  1  0.96690000  0.35263000  0.66799000  1.0
  C  C101  1  0.46690000  0.64737000  0.33201000  1.0
  C  C102  1  0.14197000  0.32189000  0.67720000  1.0
  C  C103  1  0.64196000  0.67811000  0.32280000  1.0
  C  C104  1  0.57594000  0.92283000  0.92244000  1.0
  C  C105  1  0.07588000  0.07717000  0.07756000  1.0
  C  C106  1  0.57711000  0.93647000  0.06432000  1.0
  C  C107  1  0.07707000  0.06354000  0.93568000  1.0
  N  N108  1  0.93856000  0.23309000  0.76489000  1.0
  N  N109  1  0.43856000  0.76690000  0.23510000  1.0
  N  N110  1  0.95040000  0.26729000  0.73008000  1.0
  N  N111  1  0.45040000  0.73269000  0.26991000  1.0
  N  N112  1  0.30393000  0.27740000  0.74463000  1.0
  N  N113  1  0.80394000  0.72261000  0.25538000  1.0
  N  N114  1  0.29190000  0.24234000  0.77901000  1.0
  N  N115  1  0.79192000  0.75766000  0.22100000  1.0
  O  O116  1  0.46629000  0.55823000  0.55892000  1.0
  O  O117  1  0.96629000  0.44176000  0.44109000  1.0
  O  O118  1  0.80621000  0.55174000  0.45376000  1.0
  O  O119  1  0.30619000  0.44825000  0.54624000  1.0
  O  O120  1  0.80721000  0.55880000  0.55987000  1.0
  O  O121  1  0.30720000  0.44119000  0.44013000  1.0
  O  O122  1  0.96523000  0.45044000  0.54839000  1.0
  O  O123  1  0.46525000  0.54956000  0.45161000  1.0
  O  O124  1  0.63720000  0.46413000  0.49531000  1.0
  O  O125  1  0.13718000  0.53586000  0.50469000  1.0
  O  O126  1  0.74577000  0.95129000  0.04778000  1.0
  O  O127  1  0.24578000  0.04871000  0.95222000  1.0
  O  O128  1  0.40504000  0.93988000  0.94142000  1.0
  O  O129  1  0.90504000  0.06012000  0.05858000  1.0
  O  O130  1  0.40494000  0.94977000  0.04860000  1.0
  O  O131  1  0.90497000  0.05023000  0.95140000  1.0
  O  O132  1  0.24607000  0.05848000  0.05923000  1.0
  O  O133  1  0.74607000  0.94152000  0.94077000  1.0
  O  O134  1  0.57445000  0.03571000  0.00388000  1.0
  O  O135  1  0.07447000  0.96429000  0.99612000  1.0
  O  O136  1  0.48229000  0.29625000  0.65340000  1.0
  O  O137  1  0.98228000  0.70375000  0.34660000  1.0
