# generated using pymatgen
data_ZnH22C20(SN3)2
_symmetry_space_group_name_H-M   'P 1'
_cell_length_a   9.93494000
_cell_length_b   10.88960000
_cell_length_c   11.44500000
_cell_angle_alpha   71.52030000
_cell_angle_beta   74.31490000
_cell_angle_gamma   85.95860000
_symmetry_Int_Tables_number   1
_chemical_formula_structural   ZnH22C20(SN3)2
_chemical_formula_sum   'Zn2 H44 C40 S4 N12'
_cell_volume   1130.47168680
_cell_formula_units_Z   2
loop_
 _symmetry_equiv_pos_site_id
 _symmetry_equiv_pos_as_xyz
  1  'x, y, z'
loop_
 _atom_site_type_symbol
 _atom_site_label
 _atom_site_symmetry_multiplicity
 _atom_site_fract_x
 _atom_site_fract_y
 _atom_site_fract_z
 _atom_site_occupancy
  Zn  Zn0  1  0.33176000  0.25349000  0.32211000  1.0
  Zn  Zn1  1  0.66824000  0.74651000  0.67788000  1.0
  H  H2  1  0.91824000  0.22361000  0.41654000  1.0
  H  H3  1  0.08177000  0.77639000  0.58346000  1.0
  H  H4  1  0.85338000  0.04847000  0.34689000  1.0
  H  H5  1  0.14662000  0.95153000  0.65311000  1.0
  H  H6  1  0.06658000  0.30146000  0.51501000  1.0
  H  H7  1  0.93342000  0.69854000  0.48499000  1.0
  H  H8  1  0.99577000  0.20705000  0.67520000  1.0
  H  H9  1  0.00423000  0.79295000  0.32480000  1.0
  H  H10  1  0.07275000  0.20612000  0.86213000  1.0
  H  H11  1  0.92725000  0.79388000  0.13787000  1.0
  H  H12  1  0.17841000  0.07659000  0.92673000  1.0
  H  H13  1  0.82159000  0.92341000  0.07327000  1.0
  H  H14  1  0.05151000  0.05044000  0.85229000  1.0
  H  H15  1  0.94850000  0.94955000  0.14770000  1.0
  H  H16  1  0.44551000  0.10971000  0.76816000  1.0
  H  H17  1  0.55450000  0.89029000  0.23183000  1.0
  H  H18  1  0.61540000  0.06757000  0.50223000  1.0
  H  H19  1  0.38461000  0.93243000  0.49777000  1.0
  H  H20  1  0.65288000  0.21344000  0.52391000  1.0
  H  H21  1  0.34713000  0.78656000  0.47609000  1.0
  H  H22  1  0.59547000  0.21927000  0.38828000  1.0
  H  H23  1  0.40453000  0.78073000  0.61172000  1.0
  H  H24  1  0.25196000  0.52962000  0.49183000  1.0
  H  H25  1  0.74804000  0.47039000  0.50817000  1.0
  H  H26  1  0.31027000  0.48522000  0.69578000  1.0
  H  H27  1  0.68972000  0.51478000  0.30422000  1.0
  H  H28  1  0.32191000  0.53511000  0.26934000  1.0
  H  H29  1  0.67808000  0.46489000  0.73066000  1.0
  H  H30  1  0.44643000  0.66308000  0.20336000  1.0
  H  H31  1  0.55357000  0.33692000  0.79664000  1.0
  H  H32  1  0.59960000  0.73967000  0.00179000  1.0
  H  H33  1  0.40040000  0.26033000  0.99821000  1.0
  H  H34  1  0.77343000  0.69070000  0.94899000  1.0
  H  H35  1  0.22657000  0.30930000  0.05101000  1.0
  H  H36  1  0.71093000  0.70445000  0.10542000  1.0
  H  H37  1  0.28907000  0.29555000  0.89458000  1.0
  H  H38  1  0.80146000  0.43156000  0.97516000  1.0
  H  H39  1  0.19854000  0.56844000  0.02484000  1.0
  H  H40  1  0.60255000  0.11730000  0.22374000  1.0
  H  H41  1  0.39745000  0.88270000  0.77626000  1.0
  H  H42  1  0.75654000  0.16947000  0.09649000  1.0
  H  H43  1  0.24346000  0.83052000  0.90351000  1.0
  H  H44  1  0.59450000  0.15833000  0.06392000  1.0
  H  H45  1  0.40550000  0.84167000  0.93608000  1.0
  C  C46  1  0.95366000  0.12535000  0.45390000  1.0
  C  C47  1  0.04634000  0.87465000  0.54610000  1.0
  C  C48  1  0.91814000  0.02676000  0.41402000  1.0
  C  C49  1  0.08186000  0.97323000  0.58598000  1.0
  C  C50  1  0.03586000  0.09947000  0.54043000  1.0
  C  C51  1  0.96414000  0.90053000  0.45957000  1.0
  C  C52  1  0.07130000  0.20655000  0.58521000  1.0
  C  C53  1  0.92871000  0.79345000  0.41479000  1.0
  C  C54  1  0.12993000  0.11953000  0.84774000  1.0
  C  C55  1  0.87007000  0.88046000  0.15226000  1.0
  C  C56  1  0.23953000  0.15059000  0.72401000  1.0
  C  C57  1  0.76047000  0.84941000  0.27599000  1.0
  C  C58  1  0.38416000  0.13935000  0.69880000  1.0
  C  C59  1  0.61585000  0.86065000  0.30120000  1.0
  C  C60  1  0.43543000  0.17210000  0.56546000  1.0
  C  C61  1  0.56458000  0.82790000  0.43454000  1.0
  C  C62  1  0.58232000  0.16830000  0.48997000  1.0
  C  C63  1  0.41769000  0.83170000  0.51003000  1.0
  C  C64  1  0.36134000  0.51739000  0.49422000  1.0
  C  C65  1  0.63865000  0.48261000  0.50578000  1.0
  C  C66  1  0.39448000  0.49067000  0.61039000  1.0
  C  C67  1  0.60552000  0.50933000  0.38961000  1.0
  C  C68  1  0.46697000  0.52742000  0.38229000  1.0
  C  C69  1  0.53303000  0.47258000  0.61771000  1.0
  C  C70  1  0.43161000  0.55902000  0.25553000  1.0
  C  C71  1  0.56839000  0.44097000  0.74447000  1.0
  C  C72  1  0.68241000  0.67514000  0.03164000  1.0
  C  C73  1  0.31759000  0.32486000  0.96836000  1.0
  C  C74  1  0.63826000  0.53650000  0.07934000  1.0
  C  C75  1  0.36174000  0.46350000  0.92066000  1.0
  C  C76  1  0.70346000  0.43059000  0.04610000  1.0
  C  C77  1  0.29654000  0.56941000  0.95390000  1.0
  C  C78  1  0.61934000  0.32194000  0.12487000  1.0
  C  C79  1  0.38066000  0.67806000  0.87513000  1.0
  C  C80  1  0.64392000  0.18477000  0.12799000  1.0
  C  C81  1  0.35608000  0.81523000  0.87201000  1.0
  C  C82  1  0.08726000  0.44086000  0.26367000  1.0
  C  C83  1  0.91274000  0.55914000  0.73633000  1.0
  C  C84  1  0.30026000  0.02007000  0.22997000  1.0
  C  C85  1  0.69974000  0.97993000  0.77003000  1.0
  S  S86  1  0.27614000  0.91221000  0.16800000  1.0
  S  S87  1  0.72385000  0.08779000  0.83200000  1.0
  S  S88  1  0.96473000  0.53936000  0.23166000  1.0
  S  S89  1  0.03527000  0.46065000  0.76834000  1.0
  N  N90  1  0.17860000  0.36859000  0.28723000  1.0
  N  N91  1  0.82140000  0.63141000  0.71278000  1.0
  N  N92  1  0.32132000  0.09872000  0.27522000  1.0
  N  N93  1  0.67868000  0.90128000  0.72478000  1.0
  N  N94  1  0.20913000  0.19217000  0.60879000  1.0
  N  N95  1  0.79088000  0.80783000  0.39121000  1.0
  N  N96  1  0.32780000  0.20398000  0.51100000  1.0
  N  N97  1  0.67220000  0.79602000  0.48900000  1.0
  N  N98  1  0.50725000  0.35882000  0.20329000  1.0
  N  N99  1  0.49275000  0.64118000  0.79671000  1.0
  N  N100  1  0.51958000  0.49040000  0.17317000  1.0
  N  N101  1  0.48042000  0.50960000  0.82683000  1.0
