# generated using pymatgen
data_Zn4H8C24S4Br4N4O13
_symmetry_space_group_name_H-M   'P 1'
_cell_length_a   19.72170000
_cell_length_b   19.83070000
_cell_length_c   33.53130000
_cell_angle_alpha   78.26480000
_cell_angle_beta   78.57900000
_cell_angle_gamma   63.59070000
_symmetry_Int_Tables_number   1
_chemical_formula_structural   Zn4H8C24S4Br4N4O13
_chemical_formula_sum   'Zn16 H32 C96 S16 Br16 N16 O52'
_cell_volume   11413.02920346
_cell_formula_units_Z   4
loop_
 _symmetry_equiv_pos_site_id
 _symmetry_equiv_pos_as_xyz
  1  'x, y, z'
loop_
 _atom_site_type_symbol
 _atom_site_label
 _atom_site_symmetry_multiplicity
 _atom_site_fract_x
 _atom_site_fract_y
 _atom_site_fract_z
 _atom_site_occupancy
  Zn  Zn0  1  0.05535000  0.40142000  0.47835000  1.0
  Zn  Zn1  1  0.98595000  0.48370000  0.55966000  1.0
  Zn  Zn2  1  0.05778000  0.56220000  0.48380000  1.0
  Zn  Zn3  1  0.90148000  0.55259000  0.47881000  1.0
  Zn  Zn4  1  0.69418000  0.34850000  0.27183000  1.0
  Zn  Zn5  1  0.69121000  0.18899000  0.26626000  1.0
  Zn  Zn6  1  0.76807000  0.26392000  0.18998000  1.0
  Zn  Zn7  1  0.84684000  0.19836000  0.27236000  1.0
  Zn  Zn8  1  0.26480000  0.76538000  0.69053000  1.0
  Zn  Zn9  1  0.34905000  0.69814000  0.77088000  1.0
  Zn  Zn10  1  0.19421000  0.84819000  0.77215000  1.0
  Zn  Zn11  1  0.19154000  0.68848000  0.76646000  1.0
  Zn  Zn12  1  0.55796000  0.06194000  0.98397000  1.0
  Zn  Zn13  1  0.40387000  0.05207000  0.97707000  1.0
  Zn  Zn14  1  0.55546000  0.90115000  0.97851000  1.0
  Zn  Zn15  1  0.48291000  0.98493000  0.06000000  1.0
  H  H16  1  0.79748000  0.53387000  0.42198000  1.0
  H  H17  1  0.72380000  0.52824000  0.40486000  1.0
  H  H18  1  0.94551000  0.21153000  0.33412000  1.0
  H  H19  1  0.99488000  0.19388000  0.37469000  1.0
  H  H20  1  0.71461000  0.45411000  0.32813000  1.0
  H  H21  1  0.72155000  0.52713000  0.34463000  1.0
  H  H22  1  0.04053000  0.30329000  0.41579000  1.0
  H  H23  1  0.05629000  0.25266000  0.37631000  1.0
  H  H24  1  0.14631000  0.63576000  0.52169000  1.0
  H  H25  1  0.21544000  0.65633000  0.53342000  1.0
  H  H26  1  0.11467000  0.60302000  0.72851000  1.0
  H  H27  1  0.09183000  0.53561000  0.71688000  1.0
  H  H28  1  0.22272000  0.73346000  0.60975000  1.0
  H  H29  1  0.18786000  0.74533000  0.56449000  1.0
  H  H30  1  0.01590000  0.52771000  0.64033000  1.0
  H  H31  1  0.00260000  0.56375000  0.68515000  1.0
  H  H32  1  0.72274000  0.23322000  0.10947000  1.0
  H  H33  1  0.68745000  0.24531000  0.06434000  1.0
  H  H34  1  0.51559000  0.02799000  0.14082000  1.0
  H  H35  1  0.50398000  0.06248000  0.18594000  1.0
  H  H36  1  0.64610000  0.13502000  0.02180000  1.0
  H  H37  1  0.71476000  0.15644000  0.03340000  1.0
  H  H38  1  0.61588000  0.10256000  0.22856000  1.0
  H  H39  1  0.59368000  0.03468000  0.21704000  1.0
  H  H40  1  0.21520000  0.95330000  0.82817000  1.0
  H  H41  1  0.22184000  0.02603000  0.84523000  1.0
  H  H42  1  0.54115000  0.80188000  0.91591000  1.0
  H  H43  1  0.55738000  0.75173000  0.87614000  1.0
  H  H44  1  0.29857000  0.03310000  0.92169000  1.0
  H  H45  1  0.22465000  0.02624000  0.90563000  1.0
  H  H46  1  0.44595000  0.71030000  0.83414000  1.0
  H  H47  1  0.49581000  0.69285000  0.87450000  1.0
  C  C48  1  0.06126000  0.31684000  0.56191000  1.0
  C  C49  1  0.07042000  0.57018000  0.56961000  1.0
  C  C50  1  0.18308000  0.44137000  0.43915000  1.0
  C  C51  1  0.93590000  0.68356000  0.43883000  1.0
  C  C52  1  0.93056000  0.42967000  0.43036000  1.0
  C  C53  1  0.81796000  0.56037000  0.56215000  1.0
  C  C54  1  0.56644000  0.30911000  0.31133000  1.0
  C  C55  1  0.68127000  0.17864000  0.18037000  1.0
  C  C56  1  0.68959000  0.43160000  0.18779000  1.0
  C  C57  1  0.93477000  0.18773000  0.18965000  1.0
  C  C58  1  0.81858000  0.32205000  0.31958000  1.0
  C  C59  1  0.81271000  0.06737000  0.31168000  1.0
  C  C60  1  0.43260000  0.69085000  0.68765000  1.0
  C  C61  1  0.31951000  0.82132000  0.81923000  1.0
  C  C62  1  0.18709000  0.93228000  0.68837000  1.0
  C  C63  1  0.06646000  0.80874000  0.81140000  1.0
  C  C64  1  0.18064000  0.67854000  0.68063000  1.0
  C  C65  1  0.31497000  0.56700000  0.81090000  1.0
  C  C66  1  0.43690000  0.18387000  0.93865000  1.0
  C  C67  1  0.43218000  0.92899000  0.92955000  1.0
  C  C68  1  0.68310000  0.94127000  0.93919000  1.0
  C  C69  1  0.56029000  0.81746000  0.06230000  1.0
  C  C70  1  0.56879000  0.07079000  0.06998000  1.0
  C  C71  1  0.31593000  0.06087000  0.05970000  1.0
  C  C72  1  0.90225000  0.40245000  0.40229000  1.0
  C  C73  1  0.84688000  0.34928000  0.34763000  1.0
  C  C74  1  0.82883000  0.44754000  0.38880000  1.0
  C  C75  1  0.91941000  0.30328000  0.36199000  1.0
  C  C76  1  0.80240000  0.42213000  0.36108000  1.0
  C  C77  1  0.94749000  0.33032000  0.38807000  1.0
  C  C78  1  0.09798000  0.59798000  0.59770000  1.0
  C  C79  1  0.15238000  0.65149000  0.65252000  1.0
  C  C80  1  0.14216000  0.64055000  0.58206000  1.0
  C  C81  1  0.10931000  0.60777000  0.66814000  1.0
  C  C82  1  0.16749000  0.66845000  0.60906000  1.0
  C  C83  1  0.08103000  0.58284000  0.64113000  1.0
  C  C84  1  0.30508000  0.45498000  0.40052000  1.0
  C  C85  1  0.44421000  0.29579000  0.34974000  1.0
  C  C86  1  0.25795000  0.41747000  0.41408000  1.0
  C  C87  1  0.49131000  0.33333333  0.33617000  1.0
  C  C88  1  0.37626000  0.34016000  0.37311000  1.0
  C  C89  1  0.37289000  0.41081000  0.37699000  1.0
  C  C90  1  0.72571000  0.57620000  0.63002000  1.0
  C  C91  1  0.52472000  0.67421000  0.61975000  1.0
  C  C92  1  0.74350000  0.58460000  0.58758000  1.0
  C  C93  1  0.50701000  0.66571000  0.66220000  1.0
  C  C94  1  0.60442000  0.64117000  0.60799000  1.0
  C  C95  1  0.64600000  0.60840000  0.64179000  1.0
  C  C96  1  0.07633000  0.22453000  0.62990000  1.0
  C  C97  1  0.17300000  0.02448000  0.62034000  1.0
  C  C98  1  0.08565000  0.24242000  0.58744000  1.0
  C  C99  1  0.16370000  0.00659000  0.66279000  1.0
  C  C100  1  0.14152000  0.10389000  0.60830000  1.0
  C  C101  1  0.10850000  0.14513000  0.64190000  1.0
  C  C102  1  0.84242000  0.80182000  0.39663000  1.0
  C  C103  1  0.90710000  0.94819000  0.35288000  1.0
  C  C104  1  0.91038000  0.75813000  0.41348000  1.0
  C  C105  1  0.83900000  0.99199000  0.33617000  1.0
  C  C106  1  0.90868000  0.87864000  0.37472000  1.0
  C  C107  1  0.84141000  0.87086000  0.37433000  1.0
  C  C108  1  0.65279000  0.15136000  0.15244000  1.0
  C  C109  1  0.59742000  0.09793000  0.09793000  1.0
  C  C110  1  0.66749000  0.16820000  0.10895000  1.0
  C  C111  1  0.58114000  0.08267000  0.14141000  1.0
  C  C112  1  0.64187000  0.14024000  0.08210000  1.0
  C  C113  1  0.60993000  0.10746000  0.16826000  1.0
  C  C114  1  0.67384000  0.52461000  0.11987000  1.0
  C  C115  1  0.57617000  0.72439000  0.13016000  1.0
  C  C116  1  0.66525000  0.50612000  0.16230000  1.0
  C  C117  1  0.58496000  0.74288000  0.08774000  1.0
  C  C118  1  0.60871000  0.64488000  0.14188000  1.0
  C  C119  1  0.64159000  0.60410000  0.10810000  1.0
  C  C120  1  0.08267000  0.12314000  0.17747000  1.0
  C  C121  1  0.16803000  0.12608000  0.07184000  1.0
  C  C122  1  0.01017000  0.16245000  0.16512000  1.0
  C  C123  1  0.24052000  0.08692000  0.08420000  1.0
  C  C124  1  0.11043000  0.13969000  0.10580000  1.0
  C  C125  1  0.14021000  0.11024000  0.14351000  1.0
  C  C126  1  0.34770000  0.84829000  0.84746000  1.0
  C  C127  1  0.40338000  0.90140000  0.90194000  1.0
  C  C128  1  0.30315000  0.92103000  0.86107000  1.0
  C  C129  1  0.44838000  0.82916000  0.88787000  1.0
  C  C130  1  0.32974000  0.94644000  0.88870000  1.0
  C  C131  1  0.42020000  0.80218000  0.86182000  1.0
  C  C132  1  0.40858000  0.44840000  0.85291000  1.0
  C  C133  1  0.34322000  0.30261000  0.89692000  1.0
  C  C134  1  0.34079000  0.49210000  0.83591000  1.0
  C  C135  1  0.41123000  0.25879000  0.91371000  1.0
  C  C136  1  0.34234000  0.37160000  0.87460000  1.0
  C  C137  1  0.40969000  0.37920000  0.87500000  1.0
  C  C138  1  0.94416000  0.79550000  0.84979000  1.0
  C  C139  1  0.80505000  0.95485000  0.90048000  1.0
  C  C140  1  0.99128000  0.83301000  0.83618000  1.0
  C  C141  1  0.75793000  0.91733000  0.91409000  1.0
  C  C142  1  0.87284000  0.91063000  0.87695000  1.0
  C  C143  1  0.87620000  0.83994000  0.87313000  1.0
  S  S144  1  0.29670000  0.32796000  0.39794000  1.0
  S  S145  1  0.45230000  0.42314000  0.35199000  1.0
  S  S146  1  0.66254000  0.63187000  0.56202000  1.0
  S  S147  1  0.58787000  0.61734000  0.68776000  1.0
  S  S148  1  0.13380000  0.16199000  0.56221000  1.0
  S  S149  1  0.11652000  0.08708000  0.68802000  1.0
  S  S150  1  0.97317000  0.80154000  0.40199000  1.0
  S  S151  1  0.77693000  0.94781000  0.34704000  1.0
  S  S152  1  0.61761000  0.58625000  0.18782000  1.0
  S  S153  1  0.63313000  0.66280000  0.06218000  1.0
  S  S154  1  0.01246000  0.18354000  0.11187000  1.0
  S  S155  1  0.23822000  0.06688000  0.13746000  1.0
  S  S156  1  0.27824000  0.44844000  0.84702000  1.0
  S  S157  1  0.47407000  0.30210000  0.90231000  1.0
  S  S158  1  0.95228000  0.92287000  0.85193000  1.0
  S  S159  1  0.79665000  0.82779000  0.89800000  1.0
  Br  Br160  1  0.28628000  0.55224000  0.41009000  1.0
  Br  Br161  1  0.46252000  0.19898000  0.33975000  1.0
  Br  Br162  1  0.79418000  0.52833000  0.66944000  1.0
  Br  Br163  1  0.45622000  0.72221000  0.58039000  1.0
  Br  Br164  1  0.02847000  0.29234000  0.66908000  1.0
  Br  Br165  1  0.22115000  0.95650000  0.58119000  1.0
  Br  Br166  1  0.75920000  0.77762000  0.40098000  1.0
  Br  Br167  1  0.99038000  0.97250000  0.34833000  1.0
  Br  Br168  1  0.72189000  0.45710000  0.08049000  1.0
  Br  Br169  1  0.52867000  0.79175000  0.16958000  1.0
  Br  Br170  1  0.10738000  0.08893000  0.23141000  1.0
  Br  Br171  1  0.14338000  0.16020000  0.01786000  1.0
  Br  Br172  1  0.49190000  0.47253000  0.84862000  1.0
  Br  Br173  1  0.25980000  0.27862000  0.90142000  1.0
  Br  Br174  1  0.96255000  0.69859000  0.83994000  1.0
  Br  Br175  1  0.78625000  0.05213000  0.91000000  1.0
  N  N176  1  0.77973000  0.51886000  0.40009000  1.0
  N  N177  1  0.96829000  0.23156000  0.35104000  1.0
  N  N178  1  0.73065000  0.47152000  0.34972000  1.0
  N  N179  1  0.01920000  0.28088000  0.39942000  1.0
  N  N180  1  0.16146000  0.65969000  0.54046000  1.0
  N  N181  1  0.08984000  0.58883000  0.70971000  1.0
  N  N182  1  0.20900000  0.71003000  0.59006000  1.0
  N  N183  1  0.03884000  0.54190000  0.66013000  1.0
  N  N184  1  0.70887000  0.20983000  0.08981000  1.0
  N  N185  1  0.53935000  0.04143000  0.16053000  1.0
  N  N186  1  0.66097000  0.15933000  0.04049000  1.0
  N  N187  1  0.59106000  0.08815000  0.20987000  1.0
  N  N188  1  0.23126000  0.97035000  0.84990000  1.0
  N  N189  1  0.52005000  0.77968000  0.89928000  1.0
  N  N190  1  0.28040000  0.01761000  0.90020000  1.0
  N  N191  1  0.46885000  0.73042000  0.85093000  1.0
  O  O192  1  0.00065000  0.49946000  0.49964000  1.0
  O  O193  1  0.08042000  0.31566000  0.52314000  1.0
  O  O194  1  0.03803000  0.52497000  0.58475000  1.0
  O  O195  1  0.15607000  0.50516000  0.45251000  1.0
  O  O196  1  0.02352000  0.37525000  0.58037000  1.0
  O  O197  1  0.15213000  0.39476000  0.44524000  1.0
  O  O198  1  0.07925000  0.59148000  0.53065000  1.0
  O  O199  1  0.00346000  0.65688000  0.44879000  1.0
  O  O200  1  0.88974000  0.49672000  0.44088000  1.0
  O  O201  1  0.88958000  0.65252000  0.44866000  1.0
  O  O202  1  0.99529000  0.38603000  0.44379000  1.0
  O  O203  1  0.87719000  0.53141000  0.58060000  1.0
  O  O204  1  0.81591000  0.57124000  0.52330000  1.0
  O  O205  1  0.74915000  0.25088000  0.25005000  1.0
  O  O206  1  0.59463000  0.35821000  0.30230000  1.0
  O  O207  1  0.66202000  0.16757000  0.21942000  1.0
  O  O208  1  0.72154000  0.37290000  0.16933000  1.0
  O  O209  1  0.59657000  0.24243000  0.30120000  1.0
  O  O210  1  0.67581000  0.43329000  0.22668000  1.0
  O  O211  1  0.72487000  0.21292000  0.16516000  1.0
  O  O212  1  0.87755000  0.22467000  0.16926000  1.0
  O  O213  1  0.86321000  0.25892000  0.30535000  1.0
  O  O214  1  0.93276000  0.17090000  0.22845000  1.0
  O  O215  1  0.75026000  0.36160000  0.30983000  1.0
  O  O216  1  0.74889000  0.09051000  0.29776000  1.0
  O  O217  1  0.85464000  0.10284000  0.30666000  1.0
  O  O218  1  0.24941000  0.75049000  0.75053000  1.0
  O  O219  1  0.37344000  0.72822000  0.66926000  1.0
  O  O220  1  0.36417000  0.75843000  0.80476000  1.0
  O  O221  1  0.17486000  0.93371000  0.72725000  1.0
  O  O222  1  0.43461000  0.67250000  0.72647000  1.0
  O  O223  1  0.21681000  0.87375000  0.66983000  1.0
  O  O224  1  0.25114000  0.86107000  0.80959000  1.0
  O  O225  1  0.09469000  0.85780000  0.80252000  1.0
  O  O226  1  0.16172000  0.66714000  0.71970000  1.0
  O  O227  1  0.09657000  0.74213000  0.80116000  1.0
  O  O228  1  0.22398000  0.71306000  0.66544000  1.0
  O  O229  1  0.35805000  0.60148000  0.80454000  1.0
  O  O230  1  0.25028000  0.59055000  0.79784000  1.0
  O  O231  1  0.50099000  0.99912000  0.99993000  1.0
  O  O232  1  0.50423000  0.15703000  0.94894000  1.0
  O  O233  1  0.39269000  0.99719000  0.93862000  1.0
  O  O234  1  0.65213000  0.89465000  0.94533000  1.0
  O  O235  1  0.39084000  0.15251000  0.94779000  1.0
  O  O236  1  0.65611000  0.00507000  0.95251000  1.0
  O  O237  1  0.49588000  0.88480000  0.94394000  1.0
  O  O238  1  0.57956000  0.81609000  0.02354000  1.0
  O  O239  1  0.53377000  0.02788000  0.08516000  1.0
  O  O240  1  0.52241000  0.87597000  0.08067000  1.0
  O  O241  1  0.57931000  0.09065000  0.03096000  1.0
  O  O242  1  0.31782000  0.06938000  0.02089000  1.0
  O  O243  1  0.37321000  0.03138000  0.08015000  1.0
