# generated using pymatgen
data_NiH8C10(SN3)2
_symmetry_space_group_name_H-M   'P 1'
_cell_length_a   6.96428000
_cell_length_b   7.05784000
_cell_length_c   7.05789000
_cell_angle_alpha   91.74550000
_cell_angle_beta   108.63600000
_cell_angle_gamma   108.63400000
_symmetry_Int_Tables_number   1
_chemical_formula_structural   NiH8C10(SN3)2
_chemical_formula_sum   'Ni1 H8 C10 S2 N6'
_cell_volume   308.07967251
_cell_formula_units_Z   1
loop_
 _symmetry_equiv_pos_site_id
 _symmetry_equiv_pos_as_xyz
  1  'x, y, z'
loop_
 _atom_site_type_symbol
 _atom_site_label
 _atom_site_symmetry_multiplicity
 _atom_site_fract_x
 _atom_site_fract_y
 _atom_site_fract_z
 _atom_site_occupancy
  Ni  Ni0  1  0.50000000  0.00000000  0.00000000  1.0
  H  H1  1  0.18905000  0.56168000  0.77291000  1.0
  H  H2  1  0.81094000  0.22709000  0.43833000  1.0
  H  H3  1  0.81094000  0.43832000  0.22709000  1.0
  H  H4  1  0.18906000  0.77291000  0.56167000  1.0
  H  H5  1  0.79411000  0.78692000  0.22420000  1.0
  H  H6  1  0.20589000  0.77581000  0.21308000  1.0
  H  H7  1  0.20589000  0.21309000  0.77580000  1.0
  H  H8  1  0.79411000  0.22420000  0.78693000  1.0
  C  C9  1  0.00083000  0.79433000  0.79432000  1.0
  C  C10  1  0.99918000  0.20566000  0.20565000  1.0
  C  C11  1  0.32987000  0.53598000  0.87484000  1.0
  C  C12  1  0.67012000  0.12516000  0.46403000  1.0
  C  C13  1  0.67012000  0.46402000  0.12516000  1.0
  C  C14  1  0.32988000  0.87484000  0.53599000  1.0
  C  C15  1  0.66220000  0.65841000  0.12380000  1.0
  C  C16  1  0.33780000  0.87620000  0.34159000  1.0
  C  C17  1  0.33779000  0.34158000  0.87620000  1.0
  C  C18  1  0.66220000  0.12380000  0.65841000  1.0
  S  S19  1  0.76747000  0.64470000  0.64469000  1.0
  S  S20  1  0.23261000  0.35535000  0.35534000  1.0
  N  N21  1  0.17569000  0.90177000  0.90177000  1.0
  N  N22  1  0.82427000  0.09821000  0.09821000  1.0
  N  N23  1  0.49212000  0.69547000  0.99808000  1.0
  N  N24  1  0.50788000  0.00193000  0.30453000  1.0
  N  N25  1  0.50787000  0.30453000  0.00192000  1.0
  N  N26  1  0.49212000  0.99807000  0.69547000  1.0
