# generated using pymatgen
data_ZnH14C11(SO4)2
_symmetry_space_group_name_H-M   'P 1'
_cell_length_a   7.79687000
_cell_length_b   11.97310000
_cell_length_c   16.37800000
_cell_angle_alpha   90.00000000
_cell_angle_beta   90.00000000
_cell_angle_gamma   90.00000000
_symmetry_Int_Tables_number   1
_chemical_formula_structural   ZnH14C11(SO4)2
_chemical_formula_sum   'Zn4 H56 C44 S8 O32'
_cell_volume   1528.93058934
_cell_formula_units_Z   4
loop_
 _symmetry_equiv_pos_site_id
 _symmetry_equiv_pos_as_xyz
  1  'x, y, z'
loop_
 _atom_site_type_symbol
 _atom_site_label
 _atom_site_symmetry_multiplicity
 _atom_site_fract_x
 _atom_site_fract_y
 _atom_site_fract_z
 _atom_site_occupancy
  Zn  Zn0  1  0.62187000  0.25000000  0.75000000  1.0
  Zn  Zn1  1  0.87813000  0.25000000  0.25000000  1.0
  Zn  Zn2  1  0.37813000  0.75000000  0.25000000  1.0
  Zn  Zn3  1  0.12187000  0.75000000  0.75000000  1.0
  H  H4  1  0.39280000  0.53337000  0.61498000  1.0
  H  H5  1  0.10720000  0.53337000  0.38502000  1.0
  H  H6  1  0.39280000  0.96663000  0.88502000  1.0
  H  H7  1  0.10721000  0.96663000  0.11498000  1.0
  H  H8  1  0.60720000  0.46663000  0.38502000  1.0
  H  H9  1  0.89280000  0.46663000  0.61498000  1.0
  H  H10  1  0.60720000  0.03337000  0.11498000  1.0
  H  H11  1  0.89280000  0.03337000  0.88502000  1.0
  H  H12  1  0.04243000  0.99235000  0.70453000  1.0
  H  H13  1  0.45757000  0.99235000  0.29547000  1.0
  H  H14  1  0.04243000  0.50765000  0.79547000  1.0
  H  H15  1  0.45757000  0.50765000  0.20453000  1.0
  H  H16  1  0.95757000  0.00765000  0.29547000  1.0
  H  H17  1  0.54243000  0.00765000  0.70453000  1.0
  H  H18  1  0.95757000  0.49235000  0.20453000  1.0
  H  H19  1  0.54243000  0.49235000  0.79547000  1.0
  H  H20  1  0.08388000  0.09707000  0.78113000  1.0
  H  H21  1  0.41612000  0.09707000  0.21887000  1.0
  H  H22  1  0.08388000  0.40293000  0.71887000  1.0
  H  H23  1  0.41612000  0.40293000  0.28113000  1.0
  H  H24  1  0.91612000  0.90293000  0.21887000  1.0
  H  H25  1  0.58388000  0.90293000  0.78113000  1.0
  H  H26  1  0.91612000  0.59707000  0.28113000  1.0
  H  H27  1  0.58388000  0.59707000  0.71887000  1.0
  H  H28  1  0.22500000  0.08506000  0.69498000  1.0
  H  H29  1  0.27500000  0.08507000  0.30502000  1.0
  H  H30  1  0.22500000  0.41494000  0.80502000  1.0
  H  H31  1  0.27500000  0.41493000  0.19498000  1.0
  H  H32  1  0.77500000  0.91493000  0.30502000  1.0
  H  H33  1  0.72500000  0.91493000  0.69498000  1.0
  H  H34  1  0.77500000  0.58506000  0.19498000  1.0
  H  H35  1  0.72500000  0.58507000  0.80502000  1.0
  H  H36  1  0.93608000  0.02960000  0.56596000  1.0
  H  H37  1  0.56392000  0.02960000  0.43404000  1.0
  H  H38  1  0.93608000  0.47040000  0.93404000  1.0
  H  H39  1  0.56392000  0.47040000  0.06596000  1.0
  H  H40  1  0.06392000  0.97040000  0.43404000  1.0
  H  H41  1  0.43608000  0.97040000  0.56596000  1.0
  H  H42  1  0.06392000  0.52960000  0.06596000  1.0
  H  H43  1  0.43609000  0.52960000  0.93404000  1.0
  H  H44  1  0.11390000  0.12295000  0.54307000  1.0
  H  H45  1  0.38610000  0.12295000  0.45693000  1.0
  H  H46  1  0.11390000  0.37705000  0.95693000  1.0
  H  H47  1  0.38610000  0.37705000  0.04307000  1.0
  H  H48  1  0.88610000  0.87705000  0.45693000  1.0
  H  H49  1  0.61390000  0.87705000  0.54307000  1.0
  H  H50  1  0.88610000  0.62295000  0.04307000  1.0
  H  H51  1  0.61390000  0.62295000  0.95693000  1.0
  H  H52  1  0.89882000  0.16772000  0.52248000  1.0
  H  H53  1  0.60118000  0.16772000  0.47752000  1.0
  H  H54  1  0.89882000  0.33228000  0.97752000  1.0
  H  H55  1  0.60118000  0.33228000  0.02248000  1.0
  H  H56  1  0.10118000  0.83228000  0.47752000  1.0
  H  H57  1  0.39882000  0.83228000  0.52248000  1.0
  H  H58  1  0.10118000  0.66772000  0.02248000  1.0
  H  H59  1  0.39882000  0.66772000  0.97752000  1.0
  C  C60  1  0.32808000  0.37911000  0.56116000  1.0
  C  C61  1  0.17192000  0.37911000  0.43884000  1.0
  C  C62  1  0.32808000  0.12089000  0.93884000  1.0
  C  C63  1  0.17192000  0.12089000  0.06116000  1.0
  C  C64  1  0.67192000  0.62089000  0.43884000  1.0
  C  C65  1  0.82808000  0.62089000  0.56116000  1.0
  C  C66  1  0.67192000  0.87911000  0.06116000  1.0
  C  C67  1  0.82808000  0.87911000  0.93884000  1.0
  C  C68  1  0.32953000  0.49248000  0.56392000  1.0
  C  C69  1  0.17047000  0.49248000  0.43608000  1.0
  C  C70  1  0.32953000  0.00752000  0.93608000  1.0
  C  C71  1  0.17047000  0.00752000  0.06392000  1.0
  C  C72  1  0.67047000  0.50752000  0.43608000  1.0
  C  C73  1  0.82953000  0.50752000  0.56392000  1.0
  C  C74  1  0.67047000  0.99248000  0.06392000  1.0
  C  C75  1  0.82953000  0.99248000  0.93608000  1.0
  C  C76  1  0.25000000  0.55909000  0.50000000  1.0
  C  C77  1  0.25000000  0.94091000  0.00000000  1.0
  C  C78  1  0.75000000  0.44091000  0.50000000  1.0
  C  C79  1  0.75000000  0.05909000  0.00000000  1.0
  C  C80  1  0.09248000  0.07618000  0.71617000  1.0
  C  C81  1  0.40752000  0.07618000  0.28383000  1.0
  C  C82  1  0.09248000  0.42382000  0.78383000  1.0
  C  C83  1  0.40752000  0.42382000  0.21617000  1.0
  C  C84  1  0.90752000  0.92382000  0.28383000  1.0
  C  C85  1  0.59248000  0.92382000  0.71617000  1.0
  C  C86  1  0.90753000  0.57618000  0.21617000  1.0
  C  C87  1  0.59248000  0.57618000  0.78383000  1.0
  C  C88  1  0.97962000  0.11657000  0.56239000  1.0
  C  C89  1  0.52038000  0.11657000  0.43761000  1.0
  C  C90  1  0.97962000  0.38343000  0.93761000  1.0
  C  C91  1  0.52038000  0.38343000  0.06239000  1.0
  C  C92  1  0.02038000  0.88343000  0.43761000  1.0
  C  C93  1  0.47962000  0.88343000  0.56239000  1.0
  C  C94  1  0.02038000  0.61657000  0.06239000  1.0
  C  C95  1  0.47962000  0.61657000  0.93761000  1.0
  C  C96  1  0.41022000  0.30243000  0.62303000  1.0
  C  C97  1  0.08978000  0.30242000  0.37697000  1.0
  C  C98  1  0.41022000  0.19757000  0.87697000  1.0
  C  C99  1  0.08978000  0.19757000  0.12303000  1.0
  C  C100  1  0.58978000  0.69758000  0.37697000  1.0
  C  C101  1  0.91022000  0.69758000  0.62303000  1.0
  C  C102  1  0.58978000  0.80243000  0.12303000  1.0
  C  C103  1  0.91022000  0.80243000  0.87697000  1.0
  S  S104  1  0.96473000  0.17552000  0.66216000  1.0
  S  S105  1  0.53527000  0.17552000  0.33784000  1.0
  S  S106  1  0.96473000  0.32448000  0.83784000  1.0
  S  S107  1  0.53527000  0.32448000  0.16216000  1.0
  S  S108  1  0.03527000  0.82448000  0.33784000  1.0
  S  S109  1  0.46473000  0.82448000  0.66216000  1.0
  S  S110  1  0.03527000  0.67552000  0.16216000  1.0
  S  S111  1  0.46473000  0.67552000  0.83784000  1.0
  O  O112  1  0.25000000  0.32152000  0.50000000  1.0
  O  O113  1  0.25000000  0.17847000  0.00000000  1.0
  O  O114  1  0.75000000  0.67848000  0.50000000  1.0
  O  O115  1  0.75000000  0.82153000  0.00000000  1.0
  O  O116  1  0.25000000  0.66367000  0.50000000  1.0
  O  O117  1  0.25000000  0.83633000  0.00000000  1.0
  O  O118  1  0.75000000  0.33633000  0.50000000  1.0
  O  O119  1  0.75000000  0.16367000  0.00000000  1.0
  O  O120  1  0.77947000  0.14858000  0.68882000  1.0
  O  O121  1  0.72053000  0.14858000  0.31118000  1.0
  O  O122  1  0.77947000  0.35142000  0.81118000  1.0
  O  O123  1  0.72053000  0.35142000  0.18882000  1.0
  O  O124  1  0.22053000  0.85142000  0.31118000  1.0
  O  O125  1  0.27947000  0.85142000  0.68882000  1.0
  O  O126  1  0.22053000  0.64858000  0.18882000  1.0
  O  O127  1  0.27947000  0.64858000  0.81118000  1.0
  O  O128  1  0.50315000  0.35404000  0.67638000  1.0
  O  O129  1  0.99685000  0.35403000  0.32362000  1.0
  O  O130  1  0.50315000  0.14596000  0.82362000  1.0
  O  O131  1  0.99685000  0.14596000  0.17638000  1.0
  O  O132  1  0.49685000  0.64596000  0.32362000  1.0
  O  O133  1  0.00314000  0.64596000  0.67638000  1.0
  O  O134  1  0.49685000  0.85404000  0.17638000  1.0
  O  O135  1  0.00315000  0.85404000  0.82362000  1.0
  O  O136  1  0.38415000  0.19987000  0.61914000  1.0
  O  O137  1  0.11585000  0.19986000  0.38086000  1.0
  O  O138  1  0.38415000  0.30013000  0.88086000  1.0
  O  O139  1  0.11585000  0.30013000  0.11914000  1.0
  O  O140  1  0.61585000  0.80014000  0.38086000  1.0
  O  O141  1  0.88415000  0.80014000  0.61914000  1.0
  O  O142  1  0.61585000  0.69987000  0.11914000  1.0
  O  O143  1  0.88415000  0.69987000  0.88086000  1.0
