# generated using pymatgen
data_CdH16C12S2(NO4)2
_symmetry_space_group_name_H-M   'P 1'
_cell_length_a   5.71583000
_cell_length_b   7.24209000
_cell_length_c   19.14990000
_cell_angle_alpha   97.42020000
_cell_angle_beta   89.99930000
_cell_angle_gamma   89.99950000
_symmetry_Int_Tables_number   1
_chemical_formula_structural   CdH16C12S2(NO4)2
_chemical_formula_sum   'Cd2 H32 C24 S4 N4 O16'
_cell_volume   786.06326766
_cell_formula_units_Z   2
loop_
 _symmetry_equiv_pos_site_id
 _symmetry_equiv_pos_as_xyz
  1  'x, y, z'
loop_
 _atom_site_type_symbol
 _atom_site_label
 _atom_site_symmetry_multiplicity
 _atom_site_fract_x
 _atom_site_fract_y
 _atom_site_fract_z
 _atom_site_occupancy
  Cd  Cd0  1  0.00000000  0.00000000  0.00000000  1.0
  Cd  Cd1  1  0.50000000  0.50000000  0.50000000  1.0
  H  H2  1  0.66104000  0.78213000  0.42546000  1.0
  H  H3  1  0.83897000  0.28214000  0.92546000  1.0
  H  H4  1  0.33897000  0.21787000  0.57454000  1.0
  H  H5  1  0.16102000  0.71787000  0.07454000  1.0
  H  H6  1  0.89923000  0.65797000  0.43913000  1.0
  H  H7  1  0.60078000  0.15797000  0.93912000  1.0
  H  H8  1  0.10078000  0.34203000  0.56088000  1.0
  H  H9  1  0.39922000  0.84202000  0.06088000  1.0
  H  H10  1  0.39497000  0.69205000  0.32515000  1.0
  H  H11  1  0.10503000  0.19206000  0.82514000  1.0
  H  H12  1  0.60503000  0.30796000  0.67485000  1.0
  H  H13  1  0.89497000  0.80794000  0.17485000  1.0
  H  H14  1  0.40642000  0.58190000  0.19731000  1.0
  H  H15  1  0.09358000  0.08190000  0.69731000  1.0
  H  H16  1  0.59358000  0.41811000  0.80269000  1.0
  H  H17  1  0.90641000  0.91810000  0.30269000  1.0
  H  H18  1  0.08407000  0.33714000  0.22175000  1.0
  H  H19  1  0.41595000  0.83714000  0.72176000  1.0
  H  H20  1  0.91593000  0.66287000  0.77825000  1.0
  H  H21  1  0.58406000  0.16285000  0.27824000  1.0
  H  H22  1  0.07349000  0.44831000  0.34971000  1.0
  H  H23  1  0.42652000  0.94831000  0.84972000  1.0
  H  H24  1  0.92651000  0.55169000  0.65029000  1.0
  H  H25  1  0.57349000  0.05168000  0.15029000  1.0
  H  H26  1  0.62587000  0.73191000  0.97495000  1.0
  H  H27  1  0.87413000  0.23191000  0.47495000  1.0
  H  H28  1  0.37412000  0.26809000  0.02505000  1.0
  H  H29  1  0.12587000  0.76808000  0.52505000  1.0
  H  H30  1  0.76774000  0.69463000  0.04219000  1.0
  H  H31  1  0.73226000  0.19462000  0.54219000  1.0
  H  H32  1  0.23225000  0.30538000  0.95781000  1.0
  H  H33  1  0.26775000  0.80537000  0.45781000  1.0
  C  C34  1  0.73524000  0.58068000  0.34570000  1.0
  C  C35  1  0.76476000  0.08067000  0.84570000  1.0
  C  C36  1  0.26476000  0.41933000  0.65430000  1.0
  C  C37  1  0.23525000  0.91932000  0.15430000  1.0
  C  C38  1  0.54643000  0.61545000  0.30260000  1.0
  C  C39  1  0.95358000  0.11546000  0.80260000  1.0
  C  C40  1  0.45357000  0.38455000  0.69740000  1.0
  C  C41  1  0.04643000  0.88454000  0.19740000  1.0
  C  C42  1  0.55279000  0.55462000  0.23081000  1.0
  C  C43  1  0.94720000  0.05462000  0.73081000  1.0
  C  C44  1  0.44720000  0.44538000  0.76919000  1.0
  C  C45  1  0.05280000  0.94537000  0.26919000  1.0
  C  C46  1  0.74790000  0.45667000  0.20171000  1.0
  C  C47  1  0.75210000  0.95667000  0.70171000  1.0
  C  C48  1  0.25210000  0.54334000  0.79829000  1.0
  C  C49  1  0.24790000  0.04333000  0.29829000  1.0
  C  C50  1  0.93429000  0.41628000  0.24446000  1.0
  C  C51  1  0.56571000  0.91627000  0.74446000  1.0
  C  C52  1  0.06572000  0.58373000  0.75554000  1.0
  C  C53  1  0.43429000  0.08371000  0.25554000  1.0
  C  C54  1  0.92734000  0.47800000  0.31639000  1.0
  C  C55  1  0.57266000  0.97800000  0.81639000  1.0
  C  C56  1  0.07266000  0.52200000  0.68361000  1.0
  C  C57  1  0.42734000  0.02199000  0.18361000  1.0
  S  S58  1  0.75945000  0.39352000  0.10950000  1.0
  S  S59  1  0.74054000  0.89352000  0.60950000  1.0
  S  S60  1  0.24054000  0.60649000  0.89050000  1.0
  S  S61  1  0.25946000  0.10648000  0.39050000  1.0
  N  N62  1  0.73171000  0.65049000  0.41867000  1.0
  N  N63  1  0.76830000  0.15050000  0.91867000  1.0
  N  N64  1  0.26829000  0.34951000  0.58133000  1.0
  N  N65  1  0.23170000  0.84950000  0.08133000  1.0
  O  O66  1  0.86421000  0.20561000  0.09775000  1.0
  O  O67  1  0.63578000  0.70561000  0.59774000  1.0
  O  O68  1  0.13578000  0.79440000  0.90226000  1.0
  O  O69  1  0.36423000  0.29438000  0.40226000  1.0
  O  O70  1  0.51600000  0.40117000  0.08533000  1.0
  O  O71  1  0.98398000  0.90117000  0.58532000  1.0
  O  O72  1  0.48399000  0.59883000  0.91467000  1.0
  O  O73  1  0.01601000  0.09883000  0.41467000  1.0
  O  O74  1  0.90847000  0.53184000  0.08017000  1.0
  O  O75  1  0.59151000  0.03184000  0.58017000  1.0
  O  O76  1  0.09152000  0.46817000  0.91983000  1.0
  O  O77  1  0.40849000  0.96816000  0.41983000  1.0
  O  O78  1  0.69822000  0.79818000  0.01897000  1.0
  O  O79  1  0.80178000  0.29818000  0.51897000  1.0
  O  O80  1  0.30177000  0.20182000  0.98103000  1.0
  O  O81  1  0.19822000  0.70182000  0.48103000  1.0
