# generated using pymatgen
data_AlH12C21NO12
_symmetry_space_group_name_H-M   'P 1'
_cell_length_a   4.18286000
_cell_length_b   13.46970359
_cell_length_c   13.46950000
_cell_angle_alpha   59.99950000
_cell_angle_beta   89.99990000
_cell_angle_gamma   90.00000000
_symmetry_Int_Tables_number   1
_chemical_formula_structural   AlH12C21NO12
_chemical_formula_sum   'Al1 H12 C21 N1 O12'
_cell_volume   657.22077940
_cell_formula_units_Z   1
loop_
 _symmetry_equiv_pos_site_id
 _symmetry_equiv_pos_as_xyz
  1  'x, y, z'
loop_
 _atom_site_type_symbol
 _atom_site_label
 _atom_site_symmetry_multiplicity
 _atom_site_fract_x
 _atom_site_fract_y
 _atom_site_fract_z
 _atom_site_occupancy
  Al  Al0  1  0.00000000  0.50000000  1.00000000  1.0
  H  H1  1  0.80885000  0.10627000  0.86417000  1.0
  H  H2  1  0.19120000  0.36418000  0.60627000  1.0
  H  H3  1  0.19113000  0.02956000  0.86417000  1.0
  H  H4  1  0.80883000  0.02955000  0.60628000  1.0
  H  H5  1  0.19108000  0.10629000  0.52956000  1.0
  H  H6  1  0.80894000  0.36415000  0.52956000  1.0
  H  H7  1  0.02383000  0.48917000  0.76618000  1.0
  H  H8  1  0.97625000  0.26618000  0.98916000  1.0
  H  H9  1  0.02374000  0.74466000  0.98916000  1.0
  H  H10  1  0.97618000  0.74466000  0.76619000  1.0
  H  H11  1  0.02373000  0.26622000  0.24465000  1.0
  H  H12  1  0.97627000  0.48914000  0.24465000  1.0
  C  C13  1  0.50000000  0.67833000  0.91085000  1.0
  C  C14  1  0.50000000  0.41084000  0.17833000  1.0
  C  C15  1  0.50003000  0.41084000  0.91082000  1.0
  C  C16  1  0.68468000  0.24710000  0.88684000  1.0
  C  C17  1  0.67308000  0.18527000  0.82964000  1.0
  C  C18  1  0.50003000  0.22737000  0.72738000  1.0
  C  C19  1  0.32697000  0.32965000  0.68525000  1.0
  C  C20  1  0.31539000  0.38685000  0.74709000  1.0
  C  C21  1  0.50003000  0.34753000  0.84752000  1.0
  C  C22  1  0.32689000  0.98510000  0.82964000  1.0
  C  C23  1  0.31531000  0.86606000  0.88685000  1.0
  C  C24  1  0.49996000  0.80495000  0.84754000  1.0
  C  C25  1  0.68460000  0.86606000  0.74711000  1.0
  C  C26  1  0.67303000  0.98509000  0.68528000  1.0
  C  C27  1  0.49998000  0.04525000  0.72738000  1.0
  C  C28  1  0.32689000  0.18527000  0.48510000  1.0
  C  C29  1  0.31531000  0.24711000  0.36606000  1.0
  C  C30  1  0.49999000  0.34753000  0.30494000  1.0
  C  C31  1  0.68471000  0.38683000  0.36607000  1.0
  C  C32  1  0.67311000  0.32962000  0.48509000  1.0
  C  C33  1  0.50001000  0.22738000  0.54526000  1.0
  N  N34  1  0.50001000  0.16667000  0.66666000  1.0
  O  O35  1  0.26238000  0.39620000  0.97718000  1.0
  O  O36  1  0.26236000  0.62663000  0.89620000  1.0
  O  O37  1  0.26237000  0.47718000  0.12663000  1.0
  O  O38  1  0.73764000  0.47718000  0.89620000  1.0
  O  O39  1  0.73762000  0.39621000  0.12662000  1.0
  O  O40  1  0.73761000  0.62663000  0.97718000  1.0
  O  O41  1  0.13010000  0.48341000  0.70431000  1.0
  O  O42  1  0.87000000  0.20432000  0.98340000  1.0
  O  O43  1  0.12997000  0.81229000  0.98340000  1.0
  O  O44  1  0.86993000  0.81227000  0.70433000  1.0
  O  O45  1  0.12993000  0.20435000  0.31227000  1.0
  O  O46  1  0.87006000  0.48337000  0.31229000  1.0
