# generated using pymatgen
data_CdH14C9S(NCl)2
_symmetry_space_group_name_H-M   'P 1'
_cell_length_a   9.93493000
_cell_length_b   10.92500000
_cell_length_c   12.32140000
_cell_angle_alpha   89.99990000
_cell_angle_beta   79.50300000
_cell_angle_gamma   89.99990000
_symmetry_Int_Tables_number   1
_chemical_formula_structural   CdH14C9S(NCl)2
_chemical_formula_sum   'Cd4 H56 C36 S4 N8 Cl8'
_cell_volume   1314.97243915
_cell_formula_units_Z   4
loop_
 _symmetry_equiv_pos_site_id
 _symmetry_equiv_pos_as_xyz
  1  'x, y, z'
loop_
 _atom_site_type_symbol
 _atom_site_label
 _atom_site_symmetry_multiplicity
 _atom_site_fract_x
 _atom_site_fract_y
 _atom_site_fract_z
 _atom_site_occupancy
  Cd  Cd0  1  0.15271000  0.76925000  0.72800000  1.0
  Cd  Cd1  1  0.34729000  0.26925000  0.27200000  1.0
  Cd  Cd2  1  0.84729000  0.23075000  0.27200000  1.0
  Cd  Cd3  1  0.65271000  0.73075000  0.72800000  1.0
  H  H4  1  0.36114000  0.59972000  0.74693000  1.0
  H  H5  1  0.13886000  0.09972000  0.25307000  1.0
  H  H6  1  0.63886000  0.40028000  0.25307000  1.0
  H  H7  1  0.86114000  0.90028000  0.74693000  1.0
  H  H8  1  0.04578000  0.87233000  0.98881000  1.0
  H  H9  1  0.45422000  0.37233000  0.01119000  1.0
  H  H10  1  0.95422000  0.12767000  0.01119000  1.0
  H  H11  1  0.54578000  0.62767000  0.98881000  1.0
  H  H12  1  0.04855000  0.80464000  0.18220000  1.0
  H  H13  1  0.45146000  0.30464000  0.81780000  1.0
  H  H14  1  0.95145000  0.19536000  0.81780000  1.0
  H  H15  1  0.54854000  0.69536000  0.18220000  1.0
  H  H16  1  0.14163000  0.59153000  0.21082000  1.0
  H  H17  1  0.35837000  0.09153000  0.78918000  1.0
  H  H18  1  0.85837000  0.40847000  0.78918000  1.0
  H  H19  1  0.64163000  0.90847000  0.21082000  1.0
  H  H20  1  0.20780000  0.45685000  0.04888000  1.0
  H  H21  1  0.29220000  0.95685000  0.95113000  1.0
  H  H22  1  0.79220000  0.54315000  0.95112000  1.0
  H  H23  1  0.70780000  0.04315000  0.04887000  1.0
  H  H24  1  0.25458000  0.43248000  0.85096000  1.0
  H  H25  1  0.24542000  0.93248000  0.14904000  1.0
  H  H26  1  0.74542000  0.56752000  0.14904000  1.0
  H  H27  1  0.75458000  0.06752000  0.85096000  1.0
  H  H28  1  0.09686000  0.47777000  0.81448000  1.0
  H  H29  1  0.40314000  0.97777000  0.18553000  1.0
  H  H30  1  0.90314000  0.52223000  0.18553000  1.0
  H  H31  1  0.59686000  0.02223000  0.81447000  1.0
  H  H32  1  0.17222000  0.48326000  0.62110000  1.0
  H  H33  1  0.32778000  0.98326000  0.37890000  1.0
  H  H34  1  0.82778000  0.51674000  0.37890000  1.0
  H  H35  1  0.67222000  0.01674000  0.62110000  1.0
  H  H36  1  0.33638000  0.42731000  0.63483000  1.0
  H  H37  1  0.16361000  0.92731000  0.36517000  1.0
  H  H38  1  0.66362000  0.57269000  0.36517000  1.0
  H  H39  1  0.83638000  0.07269000  0.63483000  1.0
  H  H40  1  0.36827000  0.53514000  0.45912000  1.0
  H  H41  1  0.13173000  0.03514000  0.54088000  1.0
  H  H42  1  0.63174000  0.46486000  0.54088000  1.0
  H  H43  1  0.86827000  0.96486000  0.45912000  1.0
  H  H44  1  0.44290000  0.62488000  0.55364000  1.0
  H  H45  1  0.05710000  0.12488000  0.44636000  1.0
  H  H46  1  0.55710000  0.37512000  0.44636000  1.0
  H  H47  1  0.94290000  0.87512000  0.55364000  1.0
  H  H48  1  0.16699000  0.58239000  0.38371000  1.0
  H  H49  1  0.33301000  0.08239000  0.61629000  1.0
  H  H50  1  0.83301000  0.41761000  0.61629000  1.0
  H  H51  1  0.66699000  0.91761000  0.38371000  1.0
  H  H52  1  0.06833000  0.72099000  0.40447000  1.0
  H  H53  1  0.43167000  0.22099000  0.59553000  1.0
  H  H54  1  0.93167000  0.27901000  0.59553000  1.0
  H  H55  1  0.56833000  0.77901000  0.40447000  1.0
  H  H56  1  0.04309000  0.60662000  0.50914000  1.0
  H  H57  1  0.45691000  0.10662000  0.49085000  1.0
  H  H58  1  0.95692000  0.39338000  0.49085000  1.0
  H  H59  1  0.54309000  0.89338000  0.50914000  1.0
  C  C60  1  0.08127000  0.78090000  0.00613000  1.0
  C  C61  1  0.41873000  0.28090000  0.99387000  1.0
  C  C62  1  0.91873000  0.21910000  0.99387000  1.0
  C  C63  1  0.58127000  0.71910000  0.00613000  1.0
  C  C64  1  0.08462000  0.74282000  0.11362000  1.0
  C  C65  1  0.41538000  0.24282000  0.88638000  1.0
  C  C66  1  0.91538000  0.25718000  0.88638000  1.0
  C  C67  1  0.58462000  0.75718000  0.11362000  1.0
  C  C68  1  0.13382000  0.62574000  0.12926000  1.0
  C  C69  1  0.36618000  0.12574000  0.87074000  1.0
  C  C70  1  0.86618000  0.37426000  0.87074000  1.0
  C  C71  1  0.63382000  0.87426000  0.12926000  1.0
  C  C72  1  0.17232000  0.54966000  0.03809000  1.0
  C  C73  1  0.32768000  0.04966000  0.96191000  1.0
  C  C74  1  0.82768000  0.45034000  0.96191000  1.0
  C  C75  1  0.67232000  0.95034000  0.03809000  1.0
  C  C76  1  0.16336000  0.59342000  0.93327000  1.0
  C  C77  1  0.33664000  0.09342000  0.06673000  1.0
  C  C78  1  0.83664000  0.40658000  0.06673000  1.0
  C  C79  1  0.66336000  0.90658000  0.93327000  1.0
  C  C80  1  0.19456000  0.51220000  0.83262000  1.0
  C  C81  1  0.30545000  0.01220000  0.16738000  1.0
  C  C82  1  0.80545000  0.48780000  0.16738000  1.0
  C  C83  1  0.69455000  0.98780000  0.83262000  1.0
  C  C84  1  0.27514000  0.51138000  0.63212000  1.0
  C  C85  1  0.22486000  0.01138000  0.36788000  1.0
  C  C86  1  0.72486000  0.48862000  0.36788000  1.0
  C  C87  1  0.77514000  0.98862000  0.63212000  1.0
  C  C88  1  0.34590000  0.58901000  0.53566000  1.0
  C  C89  1  0.15410000  0.08901000  0.46434000  1.0
  C  C90  1  0.65410000  0.41099000  0.46434000  1.0
  C  C91  1  0.84590000  0.91099000  0.53566000  1.0
  C  C92  1  0.11929000  0.64967000  0.44498000  1.0
  C  C93  1  0.38071000  0.14966000  0.55502000  1.0
  C  C94  1  0.88071000  0.35034000  0.55502000  1.0
  C  C95  1  0.61929000  0.85034000  0.44498000  1.0
  S  S96  1  0.25162000  0.72321000  0.50469000  1.0
  S  S97  1  0.24838000  0.22321000  0.49531000  1.0
  S  S98  1  0.74838000  0.27679000  0.49531000  1.0
  S  S99  1  0.75162000  0.77679000  0.50469000  1.0
  N  N100  1  0.12133000  0.70849000  0.91821000  1.0
  N  N101  1  0.37867000  0.20850000  0.08179000  1.0
  N  N102  1  0.87867000  0.29150000  0.08179000  1.0
  N  N103  1  0.62133000  0.79151000  0.91821000  1.0
  N  N104  1  0.26337000  0.57942000  0.73565000  1.0
  N  N105  1  0.23663000  0.07942000  0.26435000  1.0
  N  N106  1  0.73663000  0.42058000  0.26435000  1.0
  N  N107  1  0.76337000  0.92058000  0.73565000  1.0
  Cl  Cl108  1  0.92275000  0.65044000  0.71304000  1.0
  Cl  Cl109  1  0.57725000  0.15044000  0.28696000  1.0
  Cl  Cl110  1  0.07724000  0.34956000  0.28696000  1.0
  Cl  Cl111  1  0.42275000  0.84956000  0.71304000  1.0
  Cl  Cl112  1  0.07522000  0.98656000  0.75507000  1.0
  Cl  Cl113  1  0.42478000  0.48656000  0.24493000  1.0
  Cl  Cl114  1  0.92478000  0.01344000  0.24493000  1.0
  Cl  Cl115  1  0.57522000  0.51345000  0.75507000  1.0
