# generated using pymatgen
data_CdH16C16(N5O)2
_symmetry_space_group_name_H-M   'P 1'
_cell_length_a   7.41530000
_cell_length_b   9.83090000
_cell_length_c   12.44780000
_cell_angle_alpha   79.31000000
_cell_angle_beta   89.99980000
_cell_angle_gamma   89.99960000
_symmetry_Int_Tables_number   1
_chemical_formula_structural   CdH16C16(N5O)2
_chemical_formula_sum   'Cd2 H32 C32 N20 O4'
_cell_volume   891.68474618
_cell_formula_units_Z   2
loop_
 _symmetry_equiv_pos_site_id
 _symmetry_equiv_pos_as_xyz
  1  'x, y, z'
loop_
 _atom_site_type_symbol
 _atom_site_label
 _atom_site_symmetry_multiplicity
 _atom_site_fract_x
 _atom_site_fract_y
 _atom_site_fract_z
 _atom_site_occupancy
  Cd  Cd0  1  0.00001000  0.00000000  0.50000000  1.0
  Cd  Cd1  1  0.50000000  0.50000000  0.50000000  1.0
  H  H2  1  0.59102000  0.92075000  0.43227000  1.0
  H  H3  1  0.09102000  0.57926000  0.56773000  1.0
  H  H4  1  0.40898000  0.07927000  0.56773000  1.0
  H  H5  1  0.90897000  0.42073000  0.43227000  1.0
  H  H6  1  0.36888000  0.98073000  0.27952000  1.0
  H  H7  1  0.86889000  0.51927000  0.72048000  1.0
  H  H8  1  0.63111000  0.01928000  0.72049000  1.0
  H  H9  1  0.13110000  0.48072000  0.27952000  1.0
  H  H10  1  0.44133000  0.17640000  0.12460000  1.0
  H  H11  1  0.94133000  0.32360000  0.87540000  1.0
  H  H12  1  0.55866000  0.82361000  0.87540000  1.0
  H  H13  1  0.05866000  0.67639000  0.12460000  1.0
  H  H14  1  0.93809000  0.23304000  0.29110000  1.0
  H  H15  1  0.43808000  0.26696000  0.70889000  1.0
  H  H16  1  0.06193000  0.76696000  0.70889000  1.0
  H  H17  1  0.56192000  0.73304000  0.29111000  1.0
  H  H18  1  0.81491000  0.50879000  0.93691000  1.0
  H  H19  1  0.31491000  0.99121000  0.06309000  1.0
  H  H20  1  0.18510000  0.49121000  0.06309000  1.0
  H  H21  1  0.68509000  0.00880000  0.93691000  1.0
  H  H22  1  0.44545000  0.40073000  0.19331000  1.0
  H  H23  1  0.94545000  0.09927000  0.80669000  1.0
  H  H24  1  0.55455000  0.59927000  0.80669000  1.0
  H  H25  1  0.05455000  0.90073000  0.19331000  1.0
  H  H26  1  0.47371000  0.57759000  0.13224000  1.0
  H  H27  1  0.97371000  0.92241000  0.86776000  1.0
  H  H28  1  0.52630000  0.42241000  0.86775000  1.0
  H  H29  1  0.02629000  0.07759000  0.13225000  1.0
  H  H30  1  0.69407000  0.64270000  0.98300000  1.0
  H  H31  1  0.19407000  0.85730000  0.01700000  1.0
  H  H32  1  0.30594000  0.35730000  0.01700000  1.0
  H  H33  1  0.80593000  0.14270000  0.98300000  1.0
  C  C34  1  0.61566000  0.00654000  0.36473000  1.0
  C  C35  1  0.11566000  0.49347000  0.63528000  1.0
  C  C36  1  0.38434000  0.99347000  0.63527000  1.0
  C  C37  1  0.88434000  0.50653000  0.36473000  1.0
  C  C38  1  0.49320000  0.03977000  0.27909000  1.0
  C  C39  1  0.99320000  0.46024000  0.72091000  1.0
  C  C40  1  0.50679000  0.96024000  0.72091000  1.0
  C  C41  1  0.00679000  0.53976000  0.27909000  1.0
  C  C42  1  0.53135000  0.15036000  0.19465000  1.0
  C  C43  1  0.03135000  0.34965000  0.80535000  1.0
  C  C44  1  0.46865000  0.84965000  0.80535000  1.0
  C  C45  1  0.96864000  0.65035000  0.19465000  1.0
  C  C46  1  0.69119000  0.22476000  0.19883000  1.0
  C  C47  1  0.19118000  0.27524000  0.80117000  1.0
  C  C48  1  0.30882000  0.77524000  0.80116000  1.0
  C  C49  1  0.80882000  0.72476000  0.19884000  1.0
  C  C50  1  0.80845000  0.18211000  0.28642000  1.0
  C  C51  1  0.30844000  0.31789000  0.71358000  1.0
  C  C52  1  0.19156000  0.81788000  0.71357000  1.0
  C  C53  1  0.69156000  0.68212000  0.28643000  1.0
  C  C54  1  0.75402000  0.33630000  0.10748000  1.0
  C  C55  1  0.25402000  0.16370000  0.89252000  1.0
  C  C56  1  0.24598000  0.66371000  0.89252000  1.0
  C  C57  1  0.74598000  0.83630000  0.10748000  1.0
  C  C58  1  0.68392000  0.53712000  0.96651000  1.0
  C  C59  1  0.18392000  0.96288000  0.03349000  1.0
  C  C60  1  0.31609000  0.46288000  0.03349000  1.0
  C  C61  1  0.81609000  0.03712000  0.96651000  1.0
  C  C62  1  0.46763000  0.47142000  0.11547000  1.0
  C  C63  1  0.96763000  0.02858000  0.88453000  1.0
  C  C64  1  0.53237000  0.52859000  0.88453000  1.0
  C  C65  1  0.03237000  0.97142000  0.11547000  1.0
  N  N66  1  0.91069000  0.15241000  0.61374000  1.0
  N  N67  1  0.41071000  0.34757000  0.38627000  1.0
  N  N68  1  0.08932000  0.84759000  0.38626000  1.0
  N  N69  1  0.58930000  0.65242000  0.61373000  1.0
  N  N70  1  0.67671000  0.31824000  0.59829000  1.0
  N  N71  1  0.17669000  0.18178000  0.40171000  1.0
  N  N72  1  0.32329000  0.68175000  0.40171000  1.0
  N  N73  1  0.82331000  0.81823000  0.59828000  1.0
  N  N74  1  0.79304000  0.23554000  0.60229000  1.0
  N  N75  1  0.29303000  0.26446000  0.39772000  1.0
  N  N76  1  0.20696000  0.76446000  0.39771000  1.0
  N  N77  1  0.70697000  0.73555000  0.60228000  1.0
  N  N78  1  0.77158000  0.07606000  0.36784000  1.0
  N  N79  1  0.27157000  0.42395000  0.63216000  1.0
  N  N80  1  0.22843000  0.92394000  0.63215000  1.0
  N  N81  1  0.72843000  0.57606000  0.36785000  1.0
  N  N82  1  0.64158000  0.44276000  0.06878000  1.0
  N  N83  1  0.14157000  0.05724000  0.93122000  1.0
  N  N84  1  0.35842000  0.55724000  0.93122000  1.0
  N  N85  1  0.85842000  0.94276000  0.06878000  1.0
  O  O86  1  0.90740000  0.32438000  0.06817000  1.0
  O  O87  1  0.40740000  0.17561000  0.93183000  1.0
  O  O88  1  0.09260000  0.67561000  0.93183000  1.0
  O  O89  1  0.59260000  0.82438000  0.06817000  1.0
