# generated using pymatgen
data_AgH8C6NO2
_symmetry_space_group_name_H-M   'P 1'
_cell_length_a   4.96400000
_cell_length_b   8.57288000
_cell_length_c   9.45744000
_cell_angle_alpha   82.75320000
_cell_angle_beta   77.67120000
_cell_angle_gamma   84.54580000
_symmetry_Int_Tables_number   1
_chemical_formula_structural   AgH8C6NO2
_chemical_formula_sum   'Ag2 H16 C12 N2 O4'
_cell_volume   389.08173177
_cell_formula_units_Z   2
loop_
 _symmetry_equiv_pos_site_id
 _symmetry_equiv_pos_as_xyz
  1  'x, y, z'
loop_
 _atom_site_type_symbol
 _atom_site_label
 _atom_site_symmetry_multiplicity
 _atom_site_fract_x
 _atom_site_fract_y
 _atom_site_fract_z
 _atom_site_occupancy
  Ag  Ag0  1  0.27357000  0.99690000  0.12617000  1.0
  Ag  Ag1  1  0.72643000  0.00310000  0.87383000  1.0
  H  H2  1  0.39297000  0.72207000  0.27155000  1.0
  H  H3  1  0.60704000  0.27793000  0.72845000  1.0
  H  H4  1  0.66964000  0.77653000  0.14997000  1.0
  H  H5  1  0.33037000  0.22347000  0.85002000  1.0
  H  H6  1  0.38849000  0.37974000  0.25704000  1.0
  H  H7  1  0.61150000  0.62025000  0.74297000  1.0
  H  H8  1  0.93849000  0.41362000  0.83904000  1.0
  H  H9  1  0.06151000  0.58638000  0.16097000  1.0
  H  H10  1  0.81561000  0.93021000  0.29367000  1.0
  H  H11  1  0.18439000  0.06980000  0.70633000  1.0
  H  H12  1  0.70962000  0.75989000  0.41403000  1.0
  H  H13  1  0.29040000  0.24011000  0.58597000  1.0
  H  H14  1  0.25308000  0.90410000  0.50286000  1.0
  H  H15  1  0.74691000  0.09591000  0.49714000  1.0
  H  H16  1  0.35590000  0.06908000  0.37485000  1.0
  H  H17  1  0.64411000  0.93092000  0.62514000  1.0
  C  C18  1  0.68253000  0.38356000  0.05410000  1.0
  C  C19  1  0.31746000  0.61645000  0.94590000  1.0
  C  C20  1  0.43667000  0.43437000  0.14499000  1.0
  C  C21  1  0.56332000  0.56562000  0.85502000  1.0
  C  C22  1  0.87290000  0.25873000  0.11487000  1.0
  C  C23  1  0.12710000  0.74127000  0.88513000  1.0
  C  C24  1  0.74412000  0.45046000  0.90874000  1.0
  C  C25  1  0.25588000  0.54953000  0.09126000  1.0
  C  C26  1  0.63511000  0.86414000  0.34804000  1.0
  C  C27  1  0.36490000  0.13586000  0.65195000  1.0
  C  C28  1  0.43240000  0.96916000  0.44490000  1.0
  C  C29  1  0.56760000  0.03084000  0.55510000  1.0
  N  N30  1  0.51387000  0.81422000  0.23210000  1.0
  N  N31  1  0.48614000  0.18578000  0.76790000  1.0
  O  O32  1  0.04729000  0.18311000  0.01830000  1.0
  O  O33  1  0.95270000  0.81690000  0.98169000  1.0
  O  O34  1  0.85539000  0.23109000  0.24912000  1.0
  O  O35  1  0.14459000  0.76889000  0.75088000  1.0
