# generated using pymatgen
data_CuH11C9N2ClO2
_symmetry_space_group_name_H-M   'P 1'
_cell_length_a   7.47655000
_cell_length_b   8.58650000
_cell_length_c   17.94402287
_cell_angle_alpha   103.84359209
_cell_angle_beta   96.74384141
_cell_angle_gamma   89.98280000
_symmetry_Int_Tables_number   1
_chemical_formula_structural   CuH11C9N2ClO2
_chemical_formula_sum   'Cu4 H44 C36 N8 Cl4 O8'
_cell_volume   1110.29756235
_cell_formula_units_Z   4
loop_
 _symmetry_equiv_pos_site_id
 _symmetry_equiv_pos_as_xyz
  1  'x, y, z'
loop_
 _atom_site_type_symbol
 _atom_site_label
 _atom_site_symmetry_multiplicity
 _atom_site_fract_x
 _atom_site_fract_y
 _atom_site_fract_z
 _atom_site_occupancy
  Cu  Cu0  1  0.34150000  0.99083000  0.70259000  1.0
  Cu  Cu1  1  0.65836000  0.28858000  0.29723000  1.0
  Cu  Cu2  1  0.77922000  0.16676000  0.70270000  1.0
  Cu  Cu3  1  0.22049000  0.46377000  0.29757000  1.0
  H  H4  1  0.40884000  0.95575000  0.83551000  1.0
  H  H5  1  0.59119000  0.12058000  0.16424000  1.0
  H  H6  1  0.42182000  0.73918000  0.55979000  1.0
  H  H7  1  0.57858000  0.17944000  0.43988000  1.0
  H  H8  1  0.38402000  0.43991000  0.51747000  1.0
  H  H9  1  0.61692000  0.92253000  0.48219000  1.0
  H  H10  1  0.27497000  0.29232000  0.61117000  1.0
  H  H11  1  0.72610000  0.68131000  0.38844000  1.0
  H  H12  1  0.19972000  0.45274000  0.73880000  1.0
  H  H13  1  0.80096000  0.71431000  0.26078000  1.0
  H  H14  1  0.05769000  0.79030000  0.77792000  1.0
  H  H15  1  0.94261000  0.01310000  0.22184000  1.0
  H  H16  1  0.23735000  0.72512000  0.83588000  1.0
  H  H17  1  0.76323000  0.88971000  0.16383000  1.0
  H  H18  1  0.03103000  0.04462000  0.80981000  1.0
  H  H19  1  0.96892000  0.23520000  0.19001000  1.0
  H  H20  1  0.11127000  0.98708000  0.93793000  1.0
  H  H21  1  0.88878000  0.05023000  0.06170000  1.0
  H  H22  1  0.09305000  0.19733000  0.94984000  1.0
  H  H23  1  0.90654000  0.24887000  0.05009000  1.0
  H  H24  1  0.30945000  0.11235000  0.95581000  1.0
  H  H25  1  0.69032000  0.15758000  0.04408000  1.0
  H  H26  1  0.54462000  0.33635000  0.76773000  1.0
  H  H27  1  0.45498000  0.56818000  0.23236000  1.0
  H  H28  1  0.87202000  0.19999000  0.54782000  1.0
  H  H29  1  0.12770000  0.65210000  0.45238000  1.0
  H  H30  1  0.88531000  0.43001000  0.48374000  1.0
  H  H31  1  0.11493000  0.94629000  0.51650000  1.0
  H  H32  1  0.83220000  0.70934000  0.56252000  1.0
  H  H33  1  0.16867000  0.14661000  0.43774000  1.0
  H  H34  1  0.76709000  0.74536000  0.69795000  1.0
  H  H35  1  0.23353000  0.04716000  0.30233000  1.0
  H  H36  1  0.88831000  0.52240000  0.81302000  1.0
  H  H37  1  0.11117000  0.70910000  0.18726000  1.0
  H  H38  1  0.67079000  0.60214000  0.79811000  1.0
  H  H39  1  0.32872000  0.80356000  0.20202000  1.0
  H  H40  1  0.87288000  0.32006000  0.87255000  1.0
  H  H41  1  0.12631000  0.44730000  0.12782000  1.0
  H  H42  1  0.68252000  0.53360000  0.93553000  1.0
  H  H43  1  0.31628000  0.59749000  0.06465000  1.0
  H  H44  1  0.66238000  0.36551000  0.97549000  1.0
  H  H45  1  0.33653000  0.38942000  0.02472000  1.0
  H  H46  1  0.48615000  0.40586000  0.90774000  1.0
  H  H47  1  0.51284000  0.49765000  0.09239000  1.0
  C  C48  1  0.36926000  0.66927000  0.59612000  1.0
  C  C49  1  0.63127000  0.07325000  0.40353000  1.0
  C  C50  1  0.34873000  0.50315000  0.57386000  1.0
  C  C51  1  0.65212000  0.92942000  0.42578000  1.0
  C  C52  1  0.28692000  0.42285000  0.62531000  1.0
  C  C53  1  0.71402000  0.79773000  0.37432000  1.0
  C  C54  1  0.24502000  0.51148000  0.69659000  1.0
  C  C55  1  0.75567000  0.81521000  0.30303000  1.0
  C  C56  1  0.26379000  0.67787000  0.71426000  1.0
  C  C57  1  0.73664000  0.96396000  0.28540000  1.0
  C  C58  1  0.20534000  0.78167000  0.78707000  1.0
  C  C59  1  0.79498000  0.99510000  0.21264000  1.0
  C  C60  1  0.16900000  0.07489000  0.83911000  1.0
  C  C61  1  0.83095000  0.23635000  0.16075000  1.0
  C  C62  1  0.22223000  0.23009000  0.81766000  1.0
  C  C63  1  0.77773000  0.41299000  0.18229000  1.0
  C  C64  1  0.17173000  0.09354000  0.92580000  1.0
  C  C65  1  0.82811000  0.16875000  0.07401000  1.0
  C  C66  1  0.84885000  0.32313000  0.57790000  1.0
  C  C67  1  0.15107000  0.74510000  0.42233000  1.0
  C  C68  1  0.85624000  0.45130000  0.54339000  1.0
  C  C69  1  0.14400000  0.90779000  0.45685000  1.0
  C  C70  1  0.82702000  0.60493000  0.58683000  1.0
  C  C71  1  0.17358000  0.01786000  0.41342000  1.0
  C  C72  1  0.79153000  0.62608000  0.66317000  1.0
  C  C73  1  0.20893000  0.96265000  0.33708000  1.0
  C  C74  1  0.78617000  0.49217000  0.69407000  1.0
  C  C75  1  0.21374000  0.79781000  0.30615000  1.0
  C  C76  1  0.75686000  0.50114000  0.77671000  1.0
  C  C77  1  0.24271000  0.72406000  0.22350000  1.0
  C  C78  1  0.72512000  0.30457000  0.85814000  1.0
  C  C79  1  0.27410000  0.44600000  0.14214000  1.0
  C  C80  1  0.68481000  0.12252000  0.84252000  1.0
  C  C81  1  0.31451000  0.27957000  0.15774000  1.0
  C  C82  1  0.63284000  0.40843000  0.92272000  1.0
  C  C83  1  0.36613000  0.48515000  0.07747000  1.0
  N  N84  1  0.32705000  0.75462000  0.66472000  1.0
  N  N85  1  0.67328000  0.09019000  0.33496000  1.0
  N  N86  1  0.28316000  0.94484000  0.80282000  1.0
  N  N87  1  0.71684000  0.14247000  0.19694000  1.0
  N  N88  1  0.81421000  0.34363000  0.65134000  1.0
  N  N89  1  0.18552000  0.69206000  0.34886000  1.0
  N  N90  1  0.68283000  0.34658000  0.78271000  1.0
  N  N91  1  0.31670000  0.56345000  0.21751000  1.0
  Cl  Cl92  1  0.48551000  0.05240000  0.60907000  1.0
  Cl  Cl93  1  0.51504000  0.44396000  0.39102000  1.0
  Cl  Cl94  1  0.98029000  0.99725000  0.64332000  1.0
  Cl  Cl95  1  0.02020000  0.35374000  0.35718000  1.0
  O  O96  1  0.32603000  0.21433000  0.76284000  1.0
  O  O97  1  0.67390000  0.45200000  0.23713000  1.0
  O  O98  1  0.16372000  0.36142000  0.85032000  1.0
  O  O99  1  0.83628000  0.51167000  0.14968000  1.0
  O  O100  1  0.72507000  0.03753000  0.77639000  1.0
  O  O101  1  0.27464000  0.26077000  0.22394000  1.0
  O  O102  1  0.62053000  0.06265000  0.89071000  1.0
  O  O103  1  0.37857000  0.17149000  0.10944000  1.0
