# generated using pymatgen
data_CdH18C26(N2O3)2
_symmetry_space_group_name_H-M   'P 1'
_cell_length_a   9.53960000
_cell_length_b   11.47500000
_cell_length_c   12.12660000
_cell_angle_alpha   83.05640000
_cell_angle_beta   89.21390000
_cell_angle_gamma   89.60190000
_symmetry_Int_Tables_number   1
_chemical_formula_structural   CdH18C26(N2O3)2
_chemical_formula_sum   'Cd2 H36 C52 N8 O12'
_cell_volume   1317.58261236
_cell_formula_units_Z   2
loop_
 _symmetry_equiv_pos_site_id
 _symmetry_equiv_pos_as_xyz
  1  'x, y, z'
loop_
 _atom_site_type_symbol
 _atom_site_label
 _atom_site_symmetry_multiplicity
 _atom_site_fract_x
 _atom_site_fract_y
 _atom_site_fract_z
 _atom_site_occupancy
  Cd  Cd0  1  0.62408000  0.87660000  0.56868000  1.0
  Cd  Cd1  1  0.37592000  0.12340000  0.43132000  1.0
  H  H2  1  0.86168000  0.08220000  0.50875000  1.0
  H  H3  1  0.13832000  0.91780000  0.49124000  1.0
  H  H4  1  0.92580000  0.80182000  0.82805000  1.0
  H  H5  1  0.07421000  0.19818000  0.17196000  1.0
  H  H6  1  0.95231000  0.59469000  0.16343000  1.0
  H  H7  1  0.04769000  0.40531000  0.83658000  1.0
  H  H8  1  0.02977000  0.24203000  0.49242000  1.0
  H  H9  1  0.97023000  0.75797000  0.50756000  1.0
  H  H10  1  0.38346000  0.67840000  0.64594000  1.0
  H  H11  1  0.61653000  0.32161000  0.35406000  1.0
  H  H12  1  0.02846000  0.94886000  0.67999000  1.0
  H  H13  1  0.97155000  0.05114000  0.32002000  1.0
  H  H14  1  0.33945000  0.72474000  0.95618000  1.0
  H  H15  1  0.66057000  0.27526000  0.04382000  1.0
  H  H16  1  0.04501000  0.43368000  0.29360000  1.0
  H  H17  1  0.95498000  0.56631000  0.70641000  1.0
  H  H18  1  0.63809000  0.97338000  0.79648000  1.0
  H  H19  1  0.36192000  0.02662000  0.20352000  1.0
  H  H20  1  0.28505000  0.49473000  0.36648000  1.0
  H  H21  1  0.71497000  0.50527000  0.63351000  1.0
  H  H22  1  0.45127000  0.62513000  0.25232000  1.0
  H  H23  1  0.54875000  0.37486000  0.74767000  1.0
  H  H24  1  0.28578000  0.54246000  0.92981000  1.0
  H  H25  1  0.71422000  0.45754000  0.07020000  1.0
  H  H26  1  0.44041000  0.86450000  0.80658000  1.0
  H  H27  1  0.55960000  0.13550000  0.19343000  1.0
  H  H28  1  0.38009000  0.37936000  0.06407000  1.0
  H  H29  1  0.61989000  0.62064000  0.93593000  1.0
  H  H30  1  0.57699000  0.78115000  0.34143000  1.0
  H  H31  1  0.42301000  0.21885000  0.65857000  1.0
  H  H32  1  0.75078000  0.12570000  0.89843000  1.0
  H  H33  1  0.24921000  0.87431000  0.10157000  1.0
  H  H34  1  0.92568000  0.26261000  0.79573000  1.0
  H  H35  1  0.07431000  0.73740000  0.20426000  1.0
  H  H36  1  0.18383000  0.38602000  0.47721000  1.0
  H  H37  1  0.81617000  0.61398000  0.52278000  1.0
  C  C38  1  0.30180000  0.99781000  0.64002000  1.0
  C  C39  1  0.69821000  0.00219000  0.35999000  1.0
  C  C40  1  0.27860000  0.30315000  0.27183000  1.0
  C  C41  1  0.72140000  0.69683000  0.72816000  1.0
  C  C42  1  0.90600000  0.18574000  0.64300000  1.0
  C  C43  1  0.09400000  0.81426000  0.35700000  1.0
  C  C44  1  0.32183000  0.57515000  0.51686000  1.0
  C  C45  1  0.67816000  0.42486000  0.48314000  1.0
  C  C46  1  0.83863000  0.09678000  0.59431000  1.0
  C  C47  1  0.16137000  0.90321000  0.40568000  1.0
  C  C48  1  0.22341000  0.39927000  0.19003000  1.0
  C  C49  1  0.77657000  0.60072000  0.80996000  1.0
  C  C50  1  0.03821000  0.81716000  0.82185000  1.0
  C  C51  1  0.96180000  0.18283000  0.17816000  1.0
  C  C52  1  0.04907000  0.55084000  0.14288000  1.0
  C  C53  1  0.95093000  0.44916000  0.85714000  1.0
  C  C54  1  0.00632000  0.26110000  0.57733000  1.0
  C  C55  1  0.99367000  0.73890000  0.42266000  1.0
  C  C56  1  0.39627000  0.66471000  0.55891000  1.0
  C  C57  1  0.60371000  0.33529000  0.44109000  1.0
  C  C58  1  0.11989000  0.58476000  0.04260000  1.0
  C  C59  1  0.88012000  0.41525000  0.95741000  1.0
  C  C60  1  0.12615000  0.75251000  0.89848000  1.0
  C  C61  1  0.87386000  0.24749000  0.10153000  1.0
  C  C62  1  0.09575000  0.89855000  0.74019000  1.0
  C  C63  1  0.90426000  0.10144000  0.25981000  1.0
  C  C64  1  0.24133000  0.91609000  0.73272000  1.0
  C  C65  1  0.75868000  0.08390000  0.26729000  1.0
  C  C66  1  0.27089000  0.77228000  0.89520000  1.0
  C  C67  1  0.72912000  0.22772000  0.10480000  1.0
  C  C68  1  0.10137000  0.45952000  0.21606000  1.0
  C  C69  1  0.89862000  0.54047000  0.78396000  1.0
  C  C70  1  0.71431000  0.03513000  0.75588000  1.0
  C  C71  1  0.28569000  0.96487000  0.24412000  1.0
  C  C72  1  0.22656000  0.50217000  0.59656000  1.0
  C  C73  1  0.77343000  0.49783000  0.40344000  1.0
  C  C74  1  0.34112000  0.56141000  0.40458000  1.0
  C  C75  1  0.65888000  0.43860000  0.59542000  1.0
  C  C76  1  0.43384000  0.63481000  0.33975000  1.0
  C  C77  1  0.56617000  0.36519000  0.66024000  1.0
  C  C78  1  0.23780000  0.52192000  0.01173000  1.0
  C  C79  1  0.76220000  0.47809000  0.98828000  1.0
  C  C80  1  0.32741000  0.85289000  0.81165000  1.0
  C  C81  1  0.67260000  0.14710000  0.18836000  1.0
  C  C82  1  0.28871000  0.42968000  0.08616000  1.0
  C  C83  1  0.71127000  0.57031000  0.91384000  1.0
  C  C84  1  0.50368000  0.72112000  0.38838000  1.0
  C  C85  1  0.49632000  0.27888000  0.61162000  1.0
  C  C86  1  0.77736000  0.12002000  0.81153000  1.0
  C  C87  1  0.22263000  0.87998000  0.18847000  1.0
  C  C88  1  0.87411000  0.19568000  0.75493000  1.0
  C  C89  1  0.12588000  0.80433000  0.24506000  1.0
  N  N90  1  0.74534000  0.02349000  0.64926000  1.0
  N  N91  1  0.25468000  0.97650000  0.35074000  1.0
  N  N92  1  0.48457000  0.73595000  0.49613000  1.0
  N  N93  1  0.51542000  0.26405000  0.50387000  1.0
  N  N94  1  0.06555000  0.34597000  0.62015000  1.0
  N  N95  1  0.93444000  0.65404000  0.37984000  1.0
  N  N96  1  0.15850000  0.41198000  0.55431000  1.0
  N  N97  1  0.84149000  0.58803000  0.44568000  1.0
  O  O98  1  0.43304000  0.99261000  0.61610000  1.0
  O  O99  1  0.56696000  0.00739000  0.38390000  1.0
  O  O100  1  0.22633000  0.29183000  0.37125000  1.0
  O  O101  1  0.77369000  0.70817000  0.62875000  1.0
  O  O102  1  0.22101000  0.07095000  0.58386000  1.0
  O  O103  1  0.77900000  0.92905000  0.41616000  1.0
  O  O104  1  0.05736000  0.67693000  0.97747000  1.0
  O  O105  1  0.94265000  0.32307000  0.02254000  1.0
  O  O106  1  0.37443000  0.23511000  0.24312000  1.0
  O  O107  1  0.62555000  0.76487000  0.75687000  1.0
  O  O108  1  0.21113000  0.52433000  0.69326000  1.0
  O  O109  1  0.78886000  0.47568000  0.30674000  1.0
