# generated using pymatgen
data_CdH5C8N5O4
_symmetry_space_group_name_H-M   'P 1'
_cell_length_a   7.95845000
_cell_length_b   10.63090000
_cell_length_c   11.76780000
_cell_angle_alpha   89.99990000
_cell_angle_beta   74.63500000
_cell_angle_gamma   89.99980000
_symmetry_Int_Tables_number   1
_chemical_formula_structural   CdH5C8N5O4
_chemical_formula_sum   'Cd4 H20 C32 N20 O16'
_cell_volume   960.03441942
_cell_formula_units_Z   4
loop_
 _symmetry_equiv_pos_site_id
 _symmetry_equiv_pos_as_xyz
  1  'x, y, z'
loop_
 _atom_site_type_symbol
 _atom_site_label
 _atom_site_symmetry_multiplicity
 _atom_site_fract_x
 _atom_site_fract_y
 _atom_site_fract_z
 _atom_site_occupancy
  Cd  Cd0  1  0.25473000  0.24918000  0.21959000  1.0
  Cd  Cd1  1  0.74527000  0.74919000  0.28041000  1.0
  Cd  Cd2  1  0.74527000  0.75081000  0.78041000  1.0
  Cd  Cd3  1  0.25473000  0.25082000  0.71959000  1.0
  H  H4  1  0.10415000  0.77072000  0.41983000  1.0
  H  H5  1  0.89585000  0.27072000  0.08018000  1.0
  H  H6  1  0.89585000  0.22928000  0.58018000  1.0
  H  H7  1  0.10415000  0.72928000  0.91982000  1.0
  H  H8  1  0.36740000  0.91408000  0.44444000  1.0
  H  H9  1  0.63260000  0.41408000  0.05556000  1.0
  H  H10  1  0.63260000  0.08592000  0.55556000  1.0
  H  H11  1  0.36740000  0.58592000  0.94444000  1.0
  H  H12  1  0.32114000  0.07942000  0.44588000  1.0
  H  H13  1  0.67886000  0.57943000  0.05413000  1.0
  H  H14  1  0.67886000  0.92058000  0.55413000  1.0
  H  H15  1  0.32114000  0.42057000  0.94587000  1.0
  H  H16  1  0.84761000  0.04832000  0.27361000  1.0
  H  H17  1  0.15240000  0.54832000  0.22639000  1.0
  H  H18  1  0.15240000  0.95168000  0.72639000  1.0
  H  H19  1  0.84761000  0.45168000  0.77360000  1.0
  H  H20  1  0.78698000  0.04910000  0.91382000  1.0
  H  H21  1  0.21302000  0.54910000  0.58618000  1.0
  H  H22  1  0.21302000  0.95090000  0.08618000  1.0
  H  H23  1  0.78698000  0.45090000  0.41382000  1.0
  C  C24  1  0.81419000  0.89826000  0.04041000  1.0
  C  C25  1  0.18582000  0.39826000  0.45959000  1.0
  C  C26  1  0.18582000  0.10174000  0.95959000  1.0
  C  C27  1  0.81418000  0.60174000  0.54041000  1.0
  C  C28  1  0.07206000  0.85782000  0.38245000  1.0
  C  C29  1  0.92794000  0.35782000  0.11755000  1.0
  C  C30  1  0.92794000  0.14218000  0.61755000  1.0
  C  C31  1  0.07206000  0.64218000  0.88245000  1.0
  C  C32  1  0.33291000  0.99229000  0.39424000  1.0
  C  C33  1  0.66709000  0.49229000  0.10576000  1.0
  C  C34  1  0.66709000  0.00771000  0.60576000  1.0
  C  C35  1  0.33291000  0.50770000  0.89424000  1.0
  C  C36  1  0.58196000  0.07824000  0.10174000  1.0
  C  C37  1  0.41803000  0.57824000  0.39826000  1.0
  C  C38  1  0.41803000  0.92176000  0.89826000  1.0
  C  C39  1  0.58197000  0.42176000  0.60173000  1.0
  C  C40  1  0.60020000  0.16256000  0.99982000  1.0
  C  C41  1  0.39979000  0.66255000  0.50018000  1.0
  C  C42  1  0.39979000  0.83745000  0.00019000  1.0
  C  C43  1  0.60021000  0.33745000  0.49981000  1.0
  C  C44  1  0.94103000  0.00122000  0.31109000  1.0
  C  C45  1  0.05897000  0.50122000  0.18891000  1.0
  C  C46  1  0.05898000  0.99878000  0.68891000  1.0
  C  C47  1  0.94103000  0.49878000  0.81109000  1.0
  C  C48  1  0.46513000  0.00704000  0.27819000  1.0
  C  C49  1  0.53488000  0.50704000  0.22181000  1.0
  C  C50  1  0.53487000  0.99295000  0.72181000  1.0
  C  C51  1  0.46512000  0.49296000  0.77819000  1.0
  C  C52  1  0.67129000  0.96962000  0.12021000  1.0
  C  C53  1  0.32871000  0.46962000  0.37979000  1.0
  C  C54  1  0.32871000  0.03038000  0.87979000  1.0
  C  C55  1  0.67129000  0.53038000  0.62021000  1.0
  N  N56  1  0.07980000  0.05801000  0.32821000  1.0
  N  N57  1  0.92021000  0.55802000  0.17179000  1.0
  N  N58  1  0.92021000  0.94198000  0.67179000  1.0
  N  N59  1  0.07979000  0.44198000  0.82821000  1.0
  N  N60  1  0.16173000  0.96607000  0.37419000  1.0
  N  N61  1  0.83827000  0.46607000  0.12581000  1.0
  N  N62  1  0.83827000  0.03393000  0.62581000  1.0
  N  N63  1  0.16173000  0.53393000  0.87419000  1.0
  N  N64  1  0.59606000  0.92633000  0.23200000  1.0
  N  N65  1  0.40394000  0.42633000  0.26800000  1.0
  N  N66  1  0.40395000  0.07367000  0.76800000  1.0
  N  N67  1  0.59605000  0.57367000  0.73200000  1.0
  N  N68  1  0.45395000  0.10034000  0.20317000  1.0
  N  N69  1  0.54605000  0.60034000  0.29683000  1.0
  N  N70  1  0.54605000  0.89966000  0.79683000  1.0
  N  N71  1  0.45395000  0.39966000  0.70317000  1.0
  N  N72  1  0.93039000  0.87756000  0.34365000  1.0
  N  N73  1  0.06960000  0.37756000  0.15635000  1.0
  N  N74  1  0.06960000  0.12244000  0.65636000  1.0
  N  N75  1  0.93039000  0.62244000  0.84365000  1.0
  O  O76  1  0.72298000  0.13626000  0.90336000  1.0
  O  O77  1  0.27701000  0.63626000  0.59664000  1.0
  O  O78  1  0.27701000  0.86374000  0.09664000  1.0
  O  O79  1  0.72299000  0.36374000  0.40336000  1.0
  O  O80  1  0.87816000  0.80560000  0.08174000  1.0
  O  O81  1  0.12184000  0.30560000  0.41826000  1.0
  O  O82  1  0.12184000  0.19440000  0.91825000  1.0
  O  O83  1  0.87816000  0.69440000  0.58175000  1.0
  O  O84  1  0.86334000  0.93207000  0.93156000  1.0
  O  O85  1  0.13666000  0.43207000  0.56843000  1.0
  O  O86  1  0.13666000  0.06793000  0.06843000  1.0
  O  O87  1  0.86333000  0.56793000  0.43157000  1.0
  O  O88  1  0.50280000  0.25613000  0.00691000  1.0
  O  O89  1  0.49720000  0.75613000  0.49309000  1.0
  O  O90  1  0.49720000  0.74387000  0.99309000  1.0
  O  O91  1  0.50280000  0.24387000  0.50690000  1.0
