# generated using pymatgen
data_LaH4C4N2Cl3
_symmetry_space_group_name_H-M   'P 1'
_cell_length_a   6.95006000
_cell_length_b   7.49508000
_cell_length_c   8.40152670
_cell_angle_alpha   63.50611901
_cell_angle_beta   90.00001078
_cell_angle_gamma   89.99990000
_symmetry_Int_Tables_number   1
_chemical_formula_structural   LaH4C4N2Cl3
_chemical_formula_sum   'La2 H8 C8 N4 Cl6'
_cell_volume   391.68536421
_cell_formula_units_Z   2
loop_
 _symmetry_equiv_pos_site_id
 _symmetry_equiv_pos_as_xyz
  1  'x, y, z'
loop_
 _atom_site_type_symbol
 _atom_site_label
 _atom_site_symmetry_multiplicity
 _atom_site_fract_x
 _atom_site_fract_y
 _atom_site_fract_z
 _atom_site_occupancy
  La  La0  1  0.79835000  0.25000000  0.00000000  1.0
  La  La1  1  0.20166000  0.75000000  1.00000000  1.0
  H  H2  1  0.32838000  0.13994000  0.21963000  1.0
  H  H3  1  0.32839000  0.36006000  0.78037000  1.0
  H  H4  1  0.67162000  0.63994000  0.21963000  1.0
  H  H5  1  0.67161000  0.86006000  0.78037000  1.0
  H  H6  1  0.84828000  0.00355000  0.49330000  1.0
  H  H7  1  0.84828000  0.49645000  0.50670000  1.0
  H  H8  1  0.15172000  0.50355000  0.49330000  1.0
  H  H9  1  0.15172000  0.99645000  0.50670000  1.0
  C  C10  1  0.40706000  0.07754000  0.34444000  1.0
  C  C11  1  0.40706000  0.42245000  0.65557000  1.0
  C  C12  1  0.59294000  0.57755000  0.34443000  1.0
  C  C13  1  0.59294000  0.92245000  0.65557000  1.0
  C  C14  1  0.69197000  0.00294000  0.49445000  1.0
  C  C15  1  0.69197000  0.49706000  0.50555000  1.0
  C  C16  1  0.30803000  0.50294000  0.49445000  1.0
  C  C17  1  0.30803000  0.99706000  0.50555000  1.0
  N  N18  1  0.60029000  0.08130000  0.33727000  1.0
  N  N19  1  0.60030000  0.41871000  0.66273000  1.0
  N  N20  1  0.39970000  0.58129000  0.33727000  1.0
  N  N21  1  0.39970000  0.91870000  0.66273000  1.0
  Cl  Cl22  1  0.99995000  0.88847000  0.22297000  1.0
  Cl  Cl23  1  0.99995000  0.61153000  0.77703000  1.0
  Cl  Cl24  1  0.00005000  0.11153000  0.77703000  1.0
  Cl  Cl25  1  0.00005000  0.38847000  0.22297000  1.0
  Cl  Cl26  1  0.50000000  0.50000000  0.00000000  1.0
  Cl  Cl27  1  0.50000000  0.00000000  0.00000000  1.0
