# generated using pymatgen
data_CuH12C20(NO)6
_symmetry_space_group_name_H-M   'P 1'
_cell_length_a   8.72278000
_cell_length_b   10.54530000
_cell_length_c   12.02170000
_cell_angle_alpha   73.16700000
_cell_angle_beta   74.58010000
_cell_angle_gamma   70.86500000
_symmetry_Int_Tables_number   1
_chemical_formula_structural   CuH12C20(NO)6
_chemical_formula_sum   'Cu2 H24 C40 N12 O12'
_cell_volume   981.91322720
_cell_formula_units_Z   2
loop_
 _symmetry_equiv_pos_site_id
 _symmetry_equiv_pos_as_xyz
  1  'x, y, z'
loop_
 _atom_site_type_symbol
 _atom_site_label
 _atom_site_symmetry_multiplicity
 _atom_site_fract_x
 _atom_site_fract_y
 _atom_site_fract_z
 _atom_site_occupancy
  Cu  Cu0  1  0.63849000  0.32743000  0.44977000  1.0
  Cu  Cu1  1  0.36158000  0.67262000  0.55016000  1.0
  H  H2  1  0.14224000  0.26626000  0.60999000  1.0
  H  H3  1  0.85776000  0.73373000  0.39001000  1.0
  H  H4  1  0.33621000  0.08932000  0.50222000  1.0
  H  H5  1  0.66380000  0.91068000  0.49776000  1.0
  H  H6  1  0.23555000  0.01773000  0.35761000  1.0
  H  H7  1  0.76445000  0.98228000  0.64237000  1.0
  H  H8  1  0.94286000  0.12189000  0.33261000  1.0
  H  H9  1  0.05714000  0.87810000  0.66738000  1.0
  H  H10  1  0.59498000  0.61241000  0.73977000  1.0
  H  H11  1  0.40501000  0.38756000  0.26021000  1.0
  H  H12  1  0.28769000  0.44847000  0.71247000  1.0
  H  H13  1  0.71231000  0.55153000  0.28754000  1.0
  H  H14  1  0.21756000  0.39384000  0.93159000  1.0
  H  H15  1  0.78243000  0.60618000  0.06841000  1.0
  H  H16  1  0.93294000  0.36076000  0.03213000  1.0
  H  H17  1  0.06706000  0.63927000  0.96787000  1.0
  H  H18  1  0.73427000  0.38978000  0.90387000  1.0
  H  H19  1  0.26572000  0.61024000  0.09613000  1.0
  H  H20  1  0.53630000  0.01402000  0.34840000  1.0
  H  H21  1  0.46369000  0.98597000  0.65161000  1.0
  H  H22  1  0.63231000  0.84397000  0.04507000  1.0
  H  H23  1  0.36768000  0.15604000  0.95492000  1.0
  H  H24  1  0.82108000  0.18332000  0.02072000  1.0
  H  H25  1  0.17890000  0.81671000  0.97928000  1.0
  C  C26  1  0.93963000  0.28529000  0.52951000  1.0
  C  C27  1  0.06039000  0.71468000  0.47048000  1.0
  C  C28  1  0.10115000  0.23066000  0.54964000  1.0
  C  C29  1  0.89886000  0.76932000  0.45035000  1.0
  C  C30  1  0.20958000  0.13266000  0.48781000  1.0
  C  C31  1  0.79044000  0.86733000  0.51217000  1.0
  C  C32  1  0.15469000  0.09332000  0.40775000  1.0
  C  C33  1  0.84531000  0.90668000  0.59225000  1.0
  C  C34  1  0.99071000  0.15107000  0.39343000  1.0
  C  C35  1  0.00928000  0.84894000  0.60657000  1.0
  C  C36  1  0.81147000  0.39303000  0.57994000  1.0
  C  C37  1  0.18854000  0.60694000  0.42007000  1.0
  C  C38  1  0.64434000  0.54652000  0.67719000  1.0
  C  C39  1  0.35567000  0.45344000  0.32281000  1.0
  C  C40  1  0.91085000  0.43539000  0.74397000  1.0
  C  C41  1  0.08915000  0.56460000  0.25603000  1.0
  C  C42  1  0.16576000  0.43593000  0.75758000  1.0
  C  C43  1  0.83425000  0.56407000  0.24242000  1.0
  C  C44  1  0.12600000  0.40430000  0.88093000  1.0
  C  C45  1  0.87399000  0.59572000  0.11907000  1.0
  C  C46  1  0.96977000  0.38741000  0.93611000  1.0
  C  C47  1  0.03022000  0.61261000  0.06389000  1.0
  C  C48  1  0.85723000  0.40402000  0.86585000  1.0
  C  C49  1  0.14277000  0.59599000  0.13416000  1.0
  C  C50  1  0.67415000  0.11427000  0.19004000  1.0
  C  C51  1  0.32583000  0.88575000  0.80997000  1.0
  C  C52  1  0.59083000  0.01531000  0.25580000  1.0
  C  C53  1  0.40916000  0.98469000  0.74421000  1.0
  C  C54  1  0.57545000  0.91733000  0.20522000  1.0
  C  C55  1  0.42455000  0.08268000  0.79478000  1.0
  C  C56  1  0.64593000  0.91761000  0.08646000  1.0
  C  C57  1  0.35405000  0.08241000  0.91354000  1.0
  C  C58  1  0.73582000  0.01233000  0.02319000  1.0
  C  C59  1  0.26416000  0.98769000  0.97681000  1.0
  C  C60  1  0.75022000  0.11126000  0.07255000  1.0
  C  C61  1  0.24975000  0.88876000  0.92747000  1.0
  C  C62  1  0.68284000  0.22325000  0.24466000  1.0
  C  C63  1  0.31715000  0.77674000  0.75539000  1.0
  C  C64  1  0.48750000  0.80911000  0.28072000  1.0
  C  C65  1  0.51251000  0.19089000  0.71928000  1.0
  N  N66  1  0.88528000  0.24358000  0.45356000  1.0
  N  N67  1  0.11471000  0.75641000  0.54643000  1.0
  N  N68  1  0.67131000  0.44627000  0.53850000  1.0
  N  N69  1  0.32872000  0.55364000  0.46152000  1.0
  N  N70  1  0.56909000  0.54058000  0.59772000  1.0
  N  N71  1  0.43091000  0.45934000  0.40228000  1.0
  N  N72  1  0.79757000  0.45607000  0.66846000  1.0
  N  N73  1  0.20245000  0.54390000  0.33154000  1.0
  N  N74  1  0.05934000  0.45162000  0.68888000  1.0
  N  N75  1  0.94067000  0.54836000  0.31112000  1.0
  N  N76  1  0.82183000  0.00547000  0.90133000  1.0
  N  N77  1  0.17814000  0.99455000  0.09867000  1.0
  O  O78  1  0.72811000  0.32615000  0.18109000  1.0
  O  O79  1  0.27189000  0.67387000  0.81892000  1.0
  O  O80  1  0.63583000  0.19970000  0.35931000  1.0
  O  O81  1  0.36421000  0.80035000  0.64070000  1.0
  O  O82  1  0.47226000  0.79645000  0.39249000  1.0
  O  O83  1  0.52775000  0.20354000  0.60751000  1.0
  O  O84  1  0.44175000  0.74341000  0.22965000  1.0
  O  O85  1  0.55825000  0.25658000  0.77035000  1.0
  O  O86  1  0.80827000  0.91566000  0.85922000  1.0
  O  O87  1  0.19172000  0.08436000  0.14078000  1.0
  O  O88  1  0.90593000  0.08721000  0.84712000  1.0
  O  O89  1  0.09404000  0.91282000  0.15287000  1.0
