# generated using pymatgen
data_Cu2Mo3H10C7(N3O5)2
_symmetry_space_group_name_H-M   'P 1'
_cell_length_a   7.60322000
_cell_length_b   11.20680000
_cell_length_c   11.24650000
_cell_angle_alpha   68.32140000
_cell_angle_beta   72.71040000
_cell_angle_gamma   76.46530000
_symmetry_Int_Tables_number   1
_chemical_formula_structural   Cu2Mo3H10C7(N3O5)2
_chemical_formula_sum   'Cu4 Mo6 H20 C14 N12 O20'
_cell_volume   841.89424117
_cell_formula_units_Z   2
loop_
 _symmetry_equiv_pos_site_id
 _symmetry_equiv_pos_as_xyz
  1  'x, y, z'
loop_
 _atom_site_type_symbol
 _atom_site_label
 _atom_site_symmetry_multiplicity
 _atom_site_fract_x
 _atom_site_fract_y
 _atom_site_fract_z
 _atom_site_occupancy
  Cu  Cu0  1  0.26133000  0.12599000  0.21422000  1.0
  Cu  Cu1  1  0.73867000  0.87401000  0.78578000  1.0
  Cu  Cu2  1  0.26769000  0.95371000  0.77495000  1.0
  Cu  Cu3  1  0.73231000  0.04629000  0.22505000  1.0
  Mo  Mo4  1  0.93782000  0.41623000  0.17694000  1.0
  Mo  Mo5  1  0.06218000  0.58377000  0.82306000  1.0
  Mo  Mo6  1  0.44862000  0.40367000  0.17487000  1.0
  Mo  Mo7  1  0.55138000  0.59633000  0.82513000  1.0
  Mo  Mo8  1  0.16878000  0.66157000  0.06027000  1.0
  Mo  Mo9  1  0.83122000  0.33843000  0.93973000  1.0
  H  H10  1  0.14709000  0.75737000  0.41057000  1.0
  H  H11  1  0.85291000  0.24263000  0.58943000  1.0
  H  H12  1  0.27522000  0.86700000  0.27078000  1.0
  H  H13  1  0.72479000  0.13300000  0.72922000  1.0
  H  H14  1  0.42541000  0.63171000  0.32075000  1.0
  H  H15  1  0.57459000  0.36829000  0.67925000  1.0
  H  H16  1  0.44269000  0.62947000  0.47317000  1.0
  H  H17  1  0.55731000  0.37053000  0.52683000  1.0
  H  H18  1  0.58249000  0.70937000  0.07982000  1.0
  H  H19  1  0.41751000  0.29063000  0.92018000  1.0
  H  H20  1  0.33349000  0.74632000  0.62749000  1.0
  H  H21  1  0.66651000  0.25368000  0.37251000  1.0
  H  H22  1  0.74416000  0.66146000  0.32099000  1.0
  H  H23  1  0.25584000  0.33854000  0.67901000  1.0
  H  H24  1  0.64829000  0.80589000  0.36233000  1.0
  H  H25  1  0.35171000  0.19410000  0.63767000  1.0
  H  H26  1  0.22020000  0.15475000  0.48785000  1.0
  H  H27  1  0.77981000  0.84525000  0.51215000  1.0
  H  H28  1  0.80108000  0.06335000  0.93239000  1.0
  H  H29  1  0.19892000  0.93665000  0.06761000  1.0
  C  C30  1  0.27698000  0.79993000  0.37053000  1.0
  C  C31  1  0.72303000  0.20007000  0.62947000  1.0
  C  C32  1  0.44311000  0.69338000  0.37182000  1.0
  C  C33  1  0.55690000  0.30662000  0.62818000  1.0
  C  C34  1  0.63608000  0.79460000  0.07255000  1.0
  C  C35  1  0.36392000  0.20540000  0.92745000  1.0
  C  C36  1  0.29956000  0.84599000  0.56908000  1.0
  C  C37  1  0.70043000  0.15401000  0.43092000  1.0
  C  C38  1  0.63040000  0.74289000  0.31279000  1.0
  C  C39  1  0.36960000  0.25711000  0.68721000  1.0
  C  C40  1  0.24226000  0.05305000  0.49625000  1.0
  C  C41  1  0.75774000  0.94695000  0.50375000  1.0
  C  C42  1  0.74533000  0.97485000  0.99768000  1.0
  C  C43  1  0.25467000  0.02515000  0.00232000  1.0
  N  N44  1  0.24313000  0.01408000  0.39767000  1.0
  N  N45  1  0.75687000  0.98592000  0.60233000  1.0
  N  N46  1  0.27680000  0.95210000  0.60415000  1.0
  N  N47  1  0.72320000  0.04790000  0.39585000  1.0
  N  N48  1  0.65366000  0.82277000  0.17398000  1.0
  N  N49  1  0.34634000  0.17723000  0.82602000  1.0
  N  N50  1  0.69202000  0.88951000  0.96001000  1.0
  N  N51  1  0.30798000  0.11049000  0.03999000  1.0
  N  N52  1  0.27835000  0.88162000  0.44625000  1.0
  N  N53  1  0.72165000  0.11838000  0.55375000  1.0
  N  N54  1  0.72238000  0.93843000  0.12764000  1.0
  N  N55  1  0.27762000  0.06157000  0.87236000  1.0
  O  O56  1  0.16638000  0.81479000  0.93881000  1.0
  O  O57  1  0.83362000  0.18521000  0.06119000  1.0
  O  O58  1  0.44783000  0.23679000  0.20863000  1.0
  O  O59  1  0.55218000  0.76321000  0.79137000  1.0
  O  O60  1  0.83140000  0.44725000  0.32187000  1.0
  O  O61  1  0.16860000  0.55275000  0.67813000  1.0
  O  O62  1  0.41486000  0.41768000  0.32722000  1.0
  O  O63  1  0.58514000  0.58232000  0.67278000  1.0
  O  O64  1  0.02659000  0.25063000  0.22803000  1.0
  O  O65  1  0.97341000  0.74937000  0.77197000  1.0
  O  O66  1  0.09537000  0.69698000  0.20531000  1.0
  O  O67  1  0.90463000  0.30302000  0.79469000  1.0
  O  O68  1  0.43191000  0.60047000  0.04941000  1.0
  O  O69  1  0.56809000  0.39954000  0.95059000  1.0
  O  O70  1  0.95759000  0.60316000  0.04634000  1.0
  O  O71  1  0.04241000  0.39684000  0.95366000  1.0
  O  O72  1  0.19704000  0.45156000  0.15146000  1.0
  O  O73  1  0.80296000  0.54844000  0.84854000  1.0
  O  O74  1  0.71935000  0.40884000  0.12896000  1.0
  O  O75  1  0.28065000  0.59116000  0.87104000  1.0
