# generated using pymatgen
data_LiAlH23C20N3O2
_symmetry_space_group_name_H-M   'P 1'
_cell_length_a   9.41048000
_cell_length_b   10.89780000
_cell_length_c   13.73180000
_cell_angle_alpha   104.04200000
_cell_angle_beta   100.50600000
_cell_angle_gamma   102.58700000
_symmetry_Int_Tables_number   1
_chemical_formula_structural   LiAlH23C20N3O2
_chemical_formula_sum   'Li2 Al2 H46 C40 N6 O4'
_cell_volume   1291.52965277
_cell_formula_units_Z   2
loop_
 _symmetry_equiv_pos_site_id
 _symmetry_equiv_pos_as_xyz
  1  'x, y, z'
loop_
 _atom_site_type_symbol
 _atom_site_label
 _atom_site_symmetry_multiplicity
 _atom_site_fract_x
 _atom_site_fract_y
 _atom_site_fract_z
 _atom_site_occupancy
  Li  Li0  1  0.43374000  0.93504000  0.73434000  1.0
  Li  Li1  1  0.56626000  0.06496000  0.26567000  1.0
  Al  Al2  1  0.25708000  0.13859000  0.77382000  1.0
  Al  Al3  1  0.74292000  0.86140000  0.22618000  1.0
  H  H4  1  0.97068000  0.07717000  0.76317000  1.0
  H  H5  1  0.02932000  0.92282000  0.23683000  1.0
  H  H6  1  0.06716000  0.01220000  0.85040000  1.0
  H  H7  1  0.93284000  0.98780000  0.14960000  1.0
  H  H8  1  0.16998000  0.24021000  0.98206000  1.0
  H  H9  1  0.83002000  0.75979000  0.01794000  1.0
  H  H10  1  0.97080000  0.19463000  0.94784000  1.0
  H  H11  1  0.02920000  0.80536000  0.05216000  1.0
  H  H12  1  0.07302000  0.30681000  0.89478000  1.0
  H  H13  1  0.92698000  0.69319000  0.10522000  1.0
  H  H14  1  0.07402000  0.32421000  0.72680000  1.0
  H  H15  1  0.92598000  0.67579000  0.27320000  1.0
  H  H16  1  0.10301000  0.27859000  0.60068000  1.0
  H  H17  1  0.89699000  0.72140000  0.39932000  1.0
  H  H18  1  0.01644000  0.52109000  0.67184000  1.0
  H  H19  1  0.98356000  0.47891000  0.32815000  1.0
  H  H20  1  0.13741000  0.75784000  0.69354000  1.0
  H  H21  1  0.86260000  0.24215000  0.30646000  1.0
  H  H22  1  0.56156000  0.70063000  0.73355000  1.0
  H  H23  1  0.43844000  0.29937000  0.26645000  1.0
  H  H24  1  0.45819000  0.46096000  0.71914000  1.0
  H  H25  1  0.54181000  0.53904000  0.28086000  1.0
  H  H26  1  0.07445000  0.98579000  0.57131000  1.0
  H  H27  1  0.92555000  0.01421000  0.42869000  1.0
  H  H28  1  0.13092000  0.83911000  0.55447000  1.0
  H  H29  1  0.86907000  0.16089000  0.44552000  1.0
  H  H30  1  0.15389000  0.79466000  0.37992000  1.0
  H  H31  1  0.84611000  0.20534000  0.62008000  1.0
  H  H32  1  0.29181000  0.85860000  0.25291000  1.0
  H  H33  1  0.70820000  0.14140000  0.74709000  1.0
  H  H34  1  0.37902000  0.17980000  0.59328000  1.0
  H  H35  1  0.62098000  0.82020000  0.40672000  1.0
  H  H36  1  0.51082000  0.22745000  0.45781000  1.0
  H  H37  1  0.48917000  0.77256000  0.54220000  1.0
  H  H38  1  0.46476000  0.37508000  0.96500000  1.0
  H  H39  1  0.53524000  0.62493000  0.03500000  1.0
  H  H40  1  0.70042000  0.40037000  0.09573000  1.0
  H  H41  1  0.29958000  0.59963000  0.90427000  1.0
  H  H42  1  0.81313000  0.21057000  0.08250000  1.0
  H  H43  1  0.18687000  0.78944000  0.91750000  1.0
  H  H44  1  0.62480000  0.88474000  0.93368000  1.0
  H  H45  1  0.37520000  0.11526000  0.06632000  1.0
  H  H46  1  0.81004000  0.99023000  0.99072000  1.0
  H  H47  1  0.18996000  0.00978000  0.00928000  1.0
  H  H48  1  0.73345000  0.94754000  0.85458000  1.0
  H  H49  1  0.26656000  0.05246000  0.14542000  1.0
  C  C50  1  0.07327000  0.10238000  0.82596000  1.0
  C  C51  1  0.92673000  0.89761000  0.17404000  1.0
  C  C52  1  0.07069000  0.21585000  0.91701000  1.0
  C  C53  1  0.92931000  0.78414000  0.08299000  1.0
  C  C54  1  0.16306000  0.32881000  0.68360000  1.0
  C  C55  1  0.83694000  0.67118000  0.31640000  1.0
  C  C56  1  0.22934000  0.47164000  0.69251000  1.0
  C  C57  1  0.77066000  0.52836000  0.30749000  1.0
  C  C58  1  0.13816000  0.55644000  0.68462000  1.0
  C  C59  1  0.86184000  0.44356000  0.31537000  1.0
  C  C60  1  0.20448000  0.68796000  0.69609000  1.0
  C  C61  1  0.79552000  0.31204000  0.30390000  1.0
  C  C62  1  0.44085000  0.65659000  0.71935000  1.0
  C  C63  1  0.55915000  0.34341000  0.28064000  1.0
  C  C64  1  0.38439000  0.52404000  0.71039000  1.0
  C  C65  1  0.61561000  0.47596000  0.28960000  1.0
  C  C66  1  0.17491000  0.94754000  0.57709000  1.0
  C  C67  1  0.82509000  0.05246000  0.42291000  1.0
  C  C68  1  0.25541000  0.98262000  0.49745000  1.0
  C  C69  1  0.74459000  0.01738000  0.50256000  1.0
  C  C70  1  0.23120000  0.89256000  0.40019000  1.0
  C  C71  1  0.76880000  0.10745000  0.59981000  1.0
  C  C72  1  0.30786000  0.92769000  0.32906000  1.0
  C  C73  1  0.69215000  0.07231000  0.67094000  1.0
  C  C74  1  0.35714000  0.10618000  0.51854000  1.0
  C  C75  1  0.64285000  0.89382000  0.48146000  1.0
  C  C76  1  0.42921000  0.13258000  0.44306000  1.0
  C  C77  1  0.57079000  0.86742000  0.55695000  1.0
  C  C78  1  0.45052000  0.17596000  0.87985000  1.0
  C  C79  1  0.54948000  0.82404000  0.12015000  1.0
  C  C80  1  0.51683000  0.29421000  0.96036000  1.0
  C  C81  1  0.48317000  0.70579000  0.03964000  1.0
  C  C82  1  0.64813000  0.30875000  0.03336000  1.0
  C  C83  1  0.35187000  0.69125000  0.96664000  1.0
  C  C84  1  0.71146000  0.20349000  0.02613000  1.0
  C  C85  1  0.28854000  0.79651000  0.97387000  1.0
  C  C86  1  0.64327000  0.08765000  0.94468000  1.0
  C  C87  1  0.35673000  0.91235000  0.05532000  1.0
  C  C88  1  0.70714000  0.97155000  0.93066000  1.0
  C  C89  1  0.29286000  0.02846000  0.06934000  1.0
  N  N90  1  0.35382000  0.73855000  0.71294000  1.0
  N  N91  1  0.64619000  0.26145000  0.28705000  1.0
  N  N92  1  0.40679000  0.04565000  0.34956000  1.0
  N  N93  1  0.59322000  0.95435000  0.65045000  1.0
  N  N94  1  0.51702000  0.07549000  0.87360000  1.0
  N  N95  1  0.48298000  0.92451000  0.12640000  1.0
  O  O96  1  0.27133000  0.27014000  0.71766000  1.0
  O  O97  1  0.72867000  0.72986000  0.28234000  1.0
  O  O98  1  0.26672000  0.99521000  0.67864000  1.0
  O  O99  1  0.73327000  0.00479000  0.32136000  1.0
