# generated using pymatgen
data_CdH16C14S(NO3)2
_symmetry_space_group_name_H-M   'P 1'
_cell_length_a   7.05262000
_cell_length_b   10.59580000
_cell_length_c   10.59580000
_cell_angle_alpha   88.09290000
_cell_angle_beta   74.67780000
_cell_angle_gamma   74.67710000
_symmetry_Int_Tables_number   1
_chemical_formula_structural   CdH16C14S(NO3)2
_chemical_formula_sum   'Cd2 H32 C28 S2 N4 O12'
_cell_volume   735.94443094
_cell_formula_units_Z   2
loop_
 _symmetry_equiv_pos_site_id
 _symmetry_equiv_pos_as_xyz
  1  'x, y, z'
loop_
 _atom_site_type_symbol
 _atom_site_label
 _atom_site_symmetry_multiplicity
 _atom_site_fract_x
 _atom_site_fract_y
 _atom_site_fract_z
 _atom_site_occupancy
  Cd  Cd0  1  0.25000000  0.29732000  0.70268000  1.0
  Cd  Cd1  1  0.75000000  0.70268000  0.29732000  1.0
  H  H2  1  0.23875000  0.79250000  0.61173000  1.0
  H  H3  1  0.73873000  0.61174000  0.79250000  1.0
  H  H4  1  0.76126000  0.20750000  0.38827000  1.0
  H  H5  1  0.26126000  0.38826000  0.20750000  1.0
  H  H6  1  0.24396000  0.72155000  0.83786000  1.0
  H  H7  1  0.74395000  0.83786000  0.72155000  1.0
  H  H8  1  0.75606000  0.27845000  0.16214000  1.0
  H  H9  1  0.25604000  0.16214000  0.27845000  1.0
  H  H10  1  0.24401000  0.77693000  0.06407000  1.0
  H  H11  1  0.74400000  0.06407000  0.77692000  1.0
  H  H12  1  0.75600000  0.22307000  0.93593000  1.0
  H  H13  1  0.25599000  0.93593000  0.22308000  1.0
  H  H14  1  0.15589000  0.52324000  0.90992000  1.0
  H  H15  1  0.65589000  0.90993000  0.52324000  1.0
  H  H16  1  0.84410000  0.47676000  0.09008000  1.0
  H  H17  1  0.34411000  0.09007000  0.47675000  1.0
  H  H18  1  0.41608000  0.48018000  0.90485000  1.0
  H  H19  1  0.91608000  0.90485000  0.48019000  1.0
  H  H20  1  0.58391000  0.51982000  0.09515000  1.0
  H  H21  1  0.08392000  0.09515000  0.51981000  1.0
  H  H22  1  0.23210000  0.54810000  0.05385000  1.0
  H  H23  1  0.73209000  0.05386000  0.54811000  1.0
  H  H24  1  0.76790000  0.45190000  0.94615000  1.0
  H  H25  1  0.26791000  0.94615000  0.45189000  1.0
  H  H26  1  0.18561000  0.56511000  0.61400000  1.0
  H  H27  1  0.68561000  0.61400000  0.56511000  1.0
  H  H28  1  0.81439000  0.43489000  0.38600000  1.0
  H  H29  1  0.31439000  0.38600000  0.43489000  1.0
  H  H30  1  0.37279000  0.51801000  0.67736000  1.0
  H  H31  1  0.87279000  0.67736000  0.51801000  1.0
  H  H32  1  0.62721000  0.48199000  0.32264000  1.0
  H  H33  1  0.12721000  0.32264000  0.48199000  1.0
  C  C34  1  0.24555000  0.98963000  0.65165000  1.0
  C  C35  1  0.74554000  0.65165000  0.98963000  1.0
  C  C36  1  0.75445000  0.01037000  0.34835000  1.0
  C  C37  1  0.25445000  0.34835000  0.01038000  1.0
  C  C38  1  0.24358000  0.85986000  0.68551000  1.0
  C  C39  1  0.74357000  0.68551000  0.85986000  1.0
  C  C40  1  0.75642000  0.14013000  0.31449000  1.0
  C  C41  1  0.25642000  0.31449000  0.14014000  1.0
  C  C42  1  0.24566000  0.82136000  0.81042000  1.0
  C  C43  1  0.74564000  0.81042000  0.82136000  1.0
  C  C44  1  0.75436000  0.17864000  0.18958000  1.0
  C  C45  1  0.25435000  0.18958000  0.17864000  1.0
  C  C46  1  0.24752000  0.91195000  0.90422000  1.0
  C  C47  1  0.74751000  0.90422000  0.91195000  1.0
  C  C48  1  0.75248000  0.08805000  0.09578000  1.0
  C  C49  1  0.25248000  0.09578000  0.08805000  1.0
  C  C50  1  0.25027000  0.04112000  0.86357000  1.0
  C  C51  1  0.75026000  0.86357000  0.04112000  1.0
  C  C52  1  0.74973000  0.95888000  0.13643000  1.0
  C  C53  1  0.24973000  0.13643000  0.95888000  1.0
  C  C54  1  0.25226000  0.96479000  0.12388000  1.0
  C  C55  1  0.75226000  0.12387000  0.96479000  1.0
  C  C56  1  0.74774000  0.03521000  0.87612000  1.0
  C  C57  1  0.24775000  0.87612000  0.03521000  1.0
  C  C58  1  0.26348000  0.48305000  0.96826000  1.0
  C  C59  1  0.76348000  0.96826000  0.48305000  1.0
  C  C60  1  0.73651000  0.51695000  0.03174000  1.0
  C  C61  1  0.23653000  0.03174000  0.51695000  1.0
  S  S62  1  0.75001000  0.35690000  0.64310000  1.0
  S  S63  1  0.25000000  0.64310000  0.35690000  1.0
  N  N64  1  0.25233000  0.07640000  0.73860000  1.0
  N  N65  1  0.75232000  0.73860000  0.07640000  1.0
  N  N66  1  0.74767000  0.92360000  0.26140000  1.0
  N  N67  1  0.24767000  0.26140000  0.92360000  1.0
  O  O68  1  0.88147000  0.33382000  0.73479000  1.0
  O  O69  1  0.38147000  0.73479000  0.33382000  1.0
  O  O70  1  0.11853000  0.66619000  0.26521000  1.0
  O  O71  1  0.61854000  0.26521000  0.66619000  1.0
  O  O72  1  0.61830000  0.49580000  0.66232000  1.0
  O  O73  1  0.11830000  0.66232000  0.49580000  1.0
  O  O74  1  0.38171000  0.50420000  0.33768000  1.0
  O  O75  1  0.88171000  0.33767000  0.50420000  1.0
  O  O76  1  0.22622000  0.51946000  0.69051000  1.0
  O  O77  1  0.72621000  0.69052000  0.51946000  1.0
  O  O78  1  0.77379000  0.48054000  0.30949000  1.0
  O  O79  1  0.27379000  0.30949000  0.48054000  1.0
