# generated using pymatgen
data_FeCu2H38C31N14O3
_symmetry_space_group_name_H-M   'P 1'
_cell_length_a   9.32434000
_cell_length_b   10.77300000
_cell_length_c   19.60210000
_cell_angle_alpha   90.00000000
_cell_angle_beta   89.99930000
_cell_angle_gamma   98.37470000
_symmetry_Int_Tables_number   1
_chemical_formula_structural   FeCu2H38C31N14O3
_chemical_formula_sum   'Fe2 Cu4 H76 C62 N28 O6'
_cell_volume   1948.05627996
_cell_formula_units_Z   2
loop_
 _symmetry_equiv_pos_site_id
 _symmetry_equiv_pos_as_xyz
  1  'x, y, z'
loop_
 _atom_site_type_symbol
 _atom_site_label
 _atom_site_symmetry_multiplicity
 _atom_site_fract_x
 _atom_site_fract_y
 _atom_site_fract_z
 _atom_site_occupancy
  Fe  Fe0  1  0.02363000  0.25525000  0.81672000  1.0
  Fe  Fe1  1  0.97638000  0.74475000  0.31672000  1.0
  Cu  Cu2  1  0.07030000  0.78965000  0.87732000  1.0
  Cu  Cu3  1  0.92970000  0.21035000  0.37732000  1.0
  Cu  Cu4  1  0.93883000  0.70014000  0.73363000  1.0
  Cu  Cu5  1  0.06117000  0.29986000  0.23363000  1.0
  H  H6  1  0.40729000  0.69854000  0.65075000  1.0
  H  H7  1  0.59272000  0.30144000  0.15074000  1.0
  H  H8  1  0.61064000  0.80970000  0.95705000  1.0
  H  H9  1  0.38936000  0.19031000  0.45705000  1.0
  H  H10  1  0.32254000  0.75935000  0.05180000  1.0
  H  H11  1  0.67746000  0.24065000  0.55180000  1.0
  H  H12  1  0.37596000  0.62648000  0.01119000  1.0
  H  H13  1  0.62405000  0.37352000  0.51118000  1.0
  H  H14  1  0.19984000  0.66666667  0.99685000  1.0
  H  H15  1  0.80016000  0.33337000  0.49685000  1.0
  H  H16  1  0.77838000  0.88695000  0.63363000  1.0
  H  H17  1  0.22161000  0.11305000  0.13363000  1.0
  H  H18  1  0.61956000  0.84338000  0.58408000  1.0
  H  H19  1  0.38043000  0.15661000  0.08408000  1.0
  H  H20  1  0.77140000  0.76313000  0.57332000  1.0
  H  H21  1  0.22860000  0.23687000  0.07332000  1.0
  H  H22  1  0.63528000  0.05435000  0.81968000  1.0
  H  H23  1  0.36472000  0.94565000  0.31968000  1.0
  H  H24  1  0.63005000  0.91403000  0.77166000  1.0
  H  H25  1  0.36995000  0.08597000  0.27166000  1.0
  H  H26  1  0.74025000  0.93838000  0.84547000  1.0
  H  H27  1  0.25976000  0.06162000  0.34546000  1.0
  H  H28  1  0.36666000  0.44261000  0.78122000  1.0
  H  H29  1  0.63334000  0.55738000  0.28121000  1.0
  H  H30  1  0.26889000  0.56631000  0.75955000  1.0
  H  H31  1  0.73111000  0.43368000  0.25954000  1.0
  H  H32  1  0.37876000  0.57948000  0.83375000  1.0
  H  H33  1  0.62124000  0.42051000  0.33374000  1.0
  H  H34  1  0.69663000  0.69615000  0.88175000  1.0
  H  H35  1  0.30336000  0.30385000  0.38175000  1.0
  H  H36  1  0.73878000  0.49661000  0.94703000  1.0
  H  H37  1  0.26122000  0.50339000  0.44702000  1.0
  H  H38  1  0.91488000  0.51684000  0.91065000  1.0
  H  H39  1  0.08512000  0.48317000  0.41065000  1.0
  H  H40  1  0.40380000  0.00917000  0.76767000  1.0
  H  H41  1  0.59620000  0.99082000  0.26768000  1.0
  H  H42  1  0.24255000  0.01519000  0.81458000  1.0
  H  H43  1  0.75746000  0.98481000  0.31458000  1.0
  H  H44  1  0.17997000  0.94874000  0.98917000  1.0
  H  H45  1  0.82002000  0.05127000  0.48917000  1.0
  H  H46  1  0.15432000  0.94080000  0.08016000  1.0
  H  H47  1  0.84569000  0.05920000  0.58016000  1.0
  H  H48  1  0.04547000  0.02471000  0.02795000  1.0
  H  H49  1  0.95453000  0.97530000  0.52794000  1.0
  H  H50  1  0.88110000  0.80197000  0.12537000  1.0
  H  H51  1  0.11890000  0.19804000  0.62537000  1.0
  H  H52  1  0.30711000  0.79974000  0.72350000  1.0
  H  H53  1  0.69289000  0.20026000  0.22351000  1.0
  H  H54  1  0.07537000  0.97086000  0.70251000  1.0
  H  H55  1  0.92463000  0.02914000  0.20251000  1.0
  H  H56  1  0.24987000  0.00174000  0.66447000  1.0
  H  H57  1  0.75012000  0.99827000  0.16447000  1.0
  H  H58  1  0.24345000  0.02885000  0.53666000  1.0
  H  H59  1  0.75656000  0.97114000  0.03666000  1.0
  H  H60  1  0.30553000  0.91392000  0.48307000  1.0
  H  H61  1  0.69447000  0.08606000  0.98307000  1.0
  H  H62  1  0.38757000  0.95021000  0.56402000  1.0
  H  H63  1  0.61243000  0.04977000  0.06402000  1.0
  H  H64  1  0.12555000  0.69593000  0.48465000  1.0
  H  H65  1  0.87445000  0.30406000  0.98465000  1.0
  H  H66  1  0.80850000  0.54898000  0.59851000  1.0
  H  H67  1  0.19149000  0.45101000  0.09850000  1.0
  H  H68  1  0.95866000  0.47064000  0.61333000  1.0
  H  H69  1  0.04133000  0.52936000  0.11333000  1.0
  H  H70  1  0.91469000  0.51022000  0.52822000  1.0
  H  H71  1  0.08529000  0.48979000  0.02822000  1.0
  H  H72  1  0.76306000  0.47545000  0.79453000  1.0
  H  H73  1  0.23694000  0.52455000  0.29453000  1.0
  H  H74  1  0.59965000  0.48269000  0.83936000  1.0
  H  H75  1  0.40035000  0.51730000  0.33935000  1.0
  H  H76  1  0.74272000  0.47651000  0.07986000  1.0
  H  H77  1  0.25728000  0.52350000  0.57985000  1.0
  H  H78  1  0.60523000  0.55223000  0.04267000  1.0
  H  H79  1  0.39477000  0.44778000  0.54266000  1.0
  H  H80  1  0.67513000  0.59990000  0.12460000  1.0
  H  H81  1  0.32486000  0.40012000  0.62459000  1.0
  C  C82  1  0.00361000  0.40299000  0.76571000  1.0
  C  C83  1  0.99640000  0.59701000  0.26572000  1.0
  C  C84  1  0.37047000  0.78294000  0.94474000  1.0
  C  C85  1  0.62952000  0.21706000  0.44474000  1.0
  C  C86  1  0.49943000  0.67782000  0.68008000  1.0
  C  C87  1  0.50056000  0.32218000  0.18007000  1.0
  C  C88  1  0.64632000  0.71831000  0.66539000  1.0
  C  C89  1  0.35368000  0.28169000  0.16538000  1.0
  C  C90  1  0.49529000  0.60633000  0.73950000  1.0
  C  C91  1  0.50471000  0.39366000  0.23949000  1.0
  C  C92  1  0.51602000  0.82493000  0.92787000  1.0
  C  C93  1  0.48399000  0.17508000  0.42787000  1.0
  C  C94  1  0.01664000  0.09005000  0.85312000  1.0
  C  C95  1  0.98337000  0.90995000  0.35312000  1.0
  C  C96  1  0.51517000  0.89110000  0.86684000  1.0
  C  C97  1  0.48483000  0.10891000  0.36684000  1.0
  C  C98  1  0.31392000  0.70476000  0.00417000  1.0
  C  C99  1  0.68608000  0.29525000  0.50417000  1.0
  C  C100  1  0.70775000  0.80703000  0.61107000  1.0
  C  C101  1  0.29225000  0.19297000  0.11106000  1.0
  C  C102  1  0.63578000  0.95271000  0.82365000  1.0
  C  C103  1  0.36422000  0.04729000  0.32365000  1.0
  C  C104  1  0.37122000  0.54514000  0.78080000  1.0
  C  C105  1  0.62878000  0.45485000  0.28079000  1.0
  C  C106  1  0.77316000  0.63379000  0.86397000  1.0
  C  C107  1  0.22684000  0.36621000  0.36397000  1.0
  C  C108  1  0.82505000  0.56628000  0.92620000  1.0
  C  C109  1  0.17495000  0.43373000  0.42620000  1.0
  C  C110  1  0.83570000  0.26152000  0.85577000  1.0
  C  C111  1  0.16431000  0.73847000  0.35577000  1.0
  C  C112  1  0.99339000  0.82493000  0.02430000  1.0
  C  C113  1  0.00661000  0.17508000  0.52429000  1.0
  C  C114  1  0.31371000  0.95214000  0.79400000  1.0
  C  C115  1  0.68630000  0.04785000  0.29400000  1.0
  C  C116  1  0.10020000  0.94104000  0.03046000  1.0
  C  C117  1  0.89980000  0.05897000  0.53046000  1.0
  C  C118  1  0.89422000  0.77022000  0.07365000  1.0
  C  C119  1  0.10578000  0.22980000  0.57364000  1.0
  C  C120  1  0.81804000  0.66309000  0.04411000  1.0
  C  C121  1  0.18195000  0.33692000  0.54410000  1.0
  C  C122  1  0.22984000  0.85838000  0.74451000  1.0
  C  C123  1  0.77016000  0.14161000  0.24451000  1.0
  C  C124  1  0.16864000  0.92746000  0.68513000  1.0
  C  C125  1  0.83135000  0.07254000  0.18513000  1.0
  C  C126  1  0.01545000  0.66468000  0.58625000  1.0
  C  C127  1  0.98454000  0.33532000  0.08625000  1.0
  C  C128  1  0.17672000  0.83677000  0.56580000  1.0
  C  C129  1  0.82328000  0.16322000  0.06580000  1.0
  C  C130  1  0.28411000  0.93800000  0.53606000  1.0
  C  C131  1  0.71589000  0.06199000  0.03606000  1.0
  C  C132  1  0.10802000  0.72614000  0.53629000  1.0
  C  C133  1  0.89197000  0.27385000  0.03629000  1.0
  C  C134  1  0.91915000  0.54213000  0.58128000  1.0
  C  C135  1  0.08084000  0.45787000  0.08127000  1.0
  C  C136  1  0.91547000  0.16571000  0.74368000  1.0
  C  C137  1  0.08454000  0.83429000  0.24368000  1.0
  C  C138  1  0.18578000  0.23360000  0.75971000  1.0
  C  C139  1  0.81424000  0.76640000  0.25972000  1.0
  C  C140  1  0.69149000  0.53923000  0.81403000  1.0
  C  C141  1  0.30851000  0.46077000  0.31402000  1.0
  C  C142  1  0.70401000  0.56765000  0.07406000  1.0
  C  C143  1  0.29598000  0.43236000  0.57405000  1.0
  N  N144  1  0.99232000  0.49692000  0.73738000  1.0
  N  N145  1  0.00768000  0.50308000  0.23739000  1.0
  N  N146  1  0.37316000  0.88870000  0.85019000  1.0
  N  N147  1  0.62684000  0.11130000  0.35019000  1.0
  N  N148  1  0.01496000  0.98843000  0.87476000  1.0
  N  N149  1  0.98506000  0.01157000  0.37476000  1.0
  N  N150  1  0.63577000  0.60321000  0.75696000  1.0
  N  N151  1  0.36423000  0.39679000  0.25695000  1.0
  N  N152  1  0.72907000  0.67073000  0.71246000  1.0
  N  N153  1  0.27093000  0.32927000  0.21246000  1.0
  N  N154  1  0.28331000  0.82316000  0.89700000  1.0
  N  N155  1  0.71668000  0.17684000  0.39701000  1.0
  N  N156  1  0.12447000  0.32579000  0.87866000  1.0
  N  N157  1  0.87554000  0.67421000  0.37867000  1.0
  N  N158  1  0.72267000  0.26685000  0.88114000  1.0
  N  N159  1  0.27734000  0.73315000  0.38114000  1.0
  N  N160  1  0.97944000  0.75409000  0.96732000  1.0
  N  N161  1  0.02056000  0.24592000  0.46732000  1.0
  N  N162  1  0.87256000  0.65571000  0.97981000  1.0
  N  N163  1  0.12743000  0.34430000  0.47980000  1.0
  N  N164  1  0.12387000  0.83908000  0.63049000  1.0
  N  N165  1  0.87612000  0.16092000  0.13049000  1.0
  N  N166  1  0.02611000  0.73485000  0.64349000  1.0
  N  N167  1  0.97387000  0.26515000  0.14349000  1.0
  N  N168  1  0.28556000  0.22336000  0.72471000  1.0
  N  N169  1  0.71445000  0.77663000  0.22471000  1.0
  N  N170  1  0.85181000  0.10745000  0.69989000  1.0
  N  N171  1  0.14820000  0.89255000  0.19989000  1.0
  O  O172  1  0.89281000  0.70443000  0.83139000  1.0
  O  O173  1  0.10719000  0.29557000  0.33138000  1.0
  O  O174  1  0.20079000  0.37303000  0.92133000  1.0
  O  O175  1  0.79920000  0.62698000  0.42133000  1.0
  O  O176  1  0.11678000  0.78219000  0.77895000  1.0
  O  O177  1  0.88322000  0.21781000  0.27895000  1.0
