# generated using pymatgen
data_ZnH4(C2N3)2
_symmetry_space_group_name_H-M   'P 1'
_cell_length_a   12.52030000
_cell_length_b   12.52030000
_cell_length_c   12.52030000
_cell_angle_alpha   60.00000000
_cell_angle_beta   60.00000000
_cell_angle_gamma   60.00000000
_symmetry_Int_Tables_number   1
_chemical_formula_structural   ZnH4(C2N3)2
_chemical_formula_sum   'Zn6 H24 C24 N36'
_cell_volume   1387.80742807
_cell_formula_units_Z   6
loop_
 _symmetry_equiv_pos_site_id
 _symmetry_equiv_pos_as_xyz
  1  'x, y, z'
loop_
 _atom_site_type_symbol
 _atom_site_label
 _atom_site_symmetry_multiplicity
 _atom_site_fract_x
 _atom_site_fract_y
 _atom_site_fract_z
 _atom_site_occupancy
  Zn  Zn0  1  0.50000000  0.50000000  0.50000000  1.0
  Zn  Zn1  1  1.00000000  0.50000000  0.00000000  1.0
  Zn  Zn2  1  0.50000000  0.00000000  0.00000000  1.0
  Zn  Zn3  1  0.50000000  0.50000000  0.00000000  1.0
  Zn  Zn4  1  0.37500000  0.37500000  0.87500000  1.0
  Zn  Zn5  1  0.62500000  0.62500000  0.12500000  1.0
  H  H6  1  0.20242000  0.66056000  0.47646000  1.0
  H  H7  1  0.97645000  0.66056000  0.70243000  1.0
  H  H8  1  0.66055000  0.97646000  0.16056000  1.0
  H  H9  1  0.66055000  0.20243000  0.16056000  1.0
  H  H10  1  0.66055000  0.66056000  0.47646000  1.0
  H  H11  1  0.66055000  0.66056000  0.70243000  1.0
  H  H12  1  0.97645000  0.20243000  0.16056000  1.0
  H  H13  1  0.20242000  0.97646000  0.16056000  1.0
  H  H14  1  0.66055000  0.20243000  0.47646000  1.0
  H  H15  1  0.66055000  0.97646000  0.70243000  1.0
  H  H16  1  0.20242000  0.66056000  0.16056000  1.0
  H  H17  1  0.97645000  0.66056000  0.16056000  1.0
  H  H18  1  0.02355000  0.33944000  0.29757000  1.0
  H  H19  1  0.79758000  0.33944000  0.52354000  1.0
  H  H20  1  0.33945000  0.02354000  0.83944000  1.0
  H  H21  1  0.33945000  0.79757000  0.83944000  1.0
  H  H22  1  0.02355000  0.33944000  0.83944000  1.0
  H  H23  1  0.79758000  0.33944000  0.83944000  1.0
  H  H24  1  0.33945000  0.79757000  0.52354000  1.0
  H  H25  1  0.33944000  0.02354000  0.29758000  1.0
  H  H26  1  0.02355000  0.79757000  0.83944000  1.0
  H  H27  1  0.79758000  0.02354000  0.83944000  1.0
  H  H28  1  0.33945000  0.33944000  0.29757000  1.0
  H  H29  1  0.33945000  0.33944000  0.52354000  1.0
  C  C30  1  0.19047000  0.61490000  0.57973000  1.0
  C  C31  1  0.07974000  0.61490000  0.69046000  1.0
  C  C32  1  0.61491000  0.07973000  0.11490000  1.0
  C  C33  1  0.61491000  0.19046000  0.11490000  1.0
  C  C34  1  0.61491000  0.61490000  0.57973000  1.0
  C  C35  1  0.61491000  0.61490000  0.69046000  1.0
  C  C36  1  0.07974000  0.19046000  0.11490000  1.0
  C  C37  1  0.19047000  0.07973000  0.11490000  1.0
  C  C38  1  0.61491000  0.19046000  0.57973000  1.0
  C  C39  1  0.61491000  0.07973000  0.69046000  1.0
  C  C40  1  0.19047000  0.61490000  0.11490000  1.0
  C  C41  1  0.07974000  0.61490000  0.11490000  1.0
  C  C42  1  0.92026000  0.38510000  0.30954000  1.0
  C  C43  1  0.80953000  0.38510000  0.42027000  1.0
  C  C44  1  0.38509000  0.92027000  0.88510000  1.0
  C  C45  1  0.38509000  0.80954000  0.88510000  1.0
  C  C46  1  0.92026000  0.38510000  0.88510000  1.0
  C  C47  1  0.80953000  0.38510000  0.88510000  1.0
  C  C48  1  0.38509000  0.80954000  0.42027000  1.0
  C  C49  1  0.38509000  0.92027000  0.30954000  1.0
  C  C50  1  0.92026000  0.80954000  0.88510000  1.0
  C  C51  1  0.80953000  0.92027000  0.88510000  1.0
  C  C52  1  0.38509000  0.38510000  0.30954000  1.0
  C  C53  1  0.38509000  0.38510000  0.42027000  1.0
  N  N54  1  0.29533000  0.54187000  0.62093000  1.0
  N  N55  1  0.12092000  0.54187000  0.79534000  1.0
  N  N56  1  0.54186000  0.12093000  0.04187000  1.0
  N  N57  1  0.54186000  0.29534000  0.04187000  1.0
  N  N58  1  0.54186000  0.54187000  0.62093000  1.0
  N  N59  1  0.54186000  0.54187000  0.79534000  1.0
  N  N60  1  0.12092000  0.29534000  0.04187000  1.0
  N  N61  1  0.29533000  0.12093000  0.04187000  1.0
  N  N62  1  0.54186000  0.29534000  0.62093000  1.0
  N  N63  1  0.54186000  0.12093000  0.79534000  1.0
  N  N64  1  0.29533000  0.54187000  0.04187000  1.0
  N  N65  1  0.12092000  0.54187000  0.04187000  1.0
  N  N66  1  0.87908000  0.45813000  0.20466000  1.0
  N  N67  1  0.70467000  0.45813000  0.37907000  1.0
  N  N68  1  0.45814000  0.87907000  0.95813000  1.0
  N  N69  1  0.45814000  0.70466000  0.95813000  1.0
  N  N70  1  0.87908000  0.45813000  0.95813000  1.0
  N  N71  1  0.70467000  0.45813000  0.95813000  1.0
  N  N72  1  0.45814000  0.70466000  0.37907000  1.0
  N  N73  1  0.45814000  0.87907000  0.20466000  1.0
  N  N74  1  0.87908000  0.70466000  0.95813000  1.0
  N  N75  1  0.70467000  0.87907000  0.95813000  1.0
  N  N76  1  0.45814000  0.45813000  0.20466000  1.0
  N  N77  1  0.45814000  0.45813000  0.37907000  1.0
  N  N78  1  0.25135000  0.49865000  0.75135000  1.0
  N  N79  1  0.49865000  0.25135000  0.99865000  1.0
  N  N80  1  0.49865000  0.49865000  0.75135000  1.0
  N  N81  1  0.25135000  0.25135000  0.99865000  1.0
  N  N82  1  0.49865000  0.25135000  0.75135000  1.0
  N  N83  1  0.25135000  0.49865000  0.99865000  1.0
  N  N84  1  0.74865000  0.50135000  0.24865000  1.0
  N  N85  1  0.50135000  0.74865000  0.00135000  1.0
  N  N86  1  0.74865000  0.50135000  0.00135000  1.0
  N  N87  1  0.50135000  0.74865000  0.24865000  1.0
  N  N88  1  0.74865000  0.74865000  0.00135000  1.0
  N  N89  1  0.50135000  0.50135000  0.24865000  1.0
