# generated using pymatgen
data_AlH9C14NClO5
_symmetry_space_group_name_H-M   'P 1'
_cell_length_a   6.65540000
_cell_length_b   11.03250000
_cell_length_c   17.02860000
_cell_angle_alpha   84.91170000
_cell_angle_beta   82.30110000
_cell_angle_gamma   73.54770000
_symmetry_Int_Tables_number   1
_chemical_formula_structural   AlH9C14NClO5
_chemical_formula_sum   'Al2 H18 C28 N2 Cl2 O10'
_cell_volume   1186.63823301
_cell_formula_units_Z   2
loop_
 _symmetry_equiv_pos_site_id
 _symmetry_equiv_pos_as_xyz
  1  'x, y, z'
loop_
 _atom_site_type_symbol
 _atom_site_label
 _atom_site_symmetry_multiplicity
 _atom_site_fract_x
 _atom_site_fract_y
 _atom_site_fract_z
 _atom_site_occupancy
  Al  Al0  1  0.48927000  0.50026000  0.49437000  1.0
  Al  Al1  1  0.98741000  0.50200000  0.49728000  1.0
  H  H2  1  0.17740000  0.65559000  0.45805000  1.0
  H  H3  1  0.80285000  0.34659000  0.53288000  1.0
  H  H4  1  0.90655000  0.42281000  0.73996000  1.0
  H  H5  1  0.85120000  0.41918000  0.88865000  1.0
  H  H6  1  0.37596000  0.57518000  0.88576000  1.0
  H  H7  1  0.67339000  0.38030000  0.10728000  1.0
  H  H8  1  0.15074000  0.57448000  0.10716000  1.0
  H  H9  1  0.07679000  0.57990000  0.25563000  1.0
  H  H10  1  0.84954000  0.77123000  0.61652000  1.0
  H  H11  1  0.61494000  0.24025000  0.59913000  1.0
  H  H12  1  0.18297000  0.11416000  0.43589000  1.0
  H  H13  1  0.29979000  0.87809000  0.44492000  1.0
  H  H14  1  0.20380000  0.88832000  0.69027000  1.0
  H  H15  1  0.06588000  0.77092000  0.71240000  1.0
  H  H16  1  0.00007000  0.90624000  0.77002000  1.0
  H  H17  1  0.88600000  0.13380000  0.75900000  1.0
  H  H18  1  0.85394000  0.25422000  0.68107000  1.0
  H  H19  1  0.09082000  0.12854000  0.68066000  1.0
  C  C20  1  0.61927000  0.72713000  0.51108000  1.0
  C  C21  1  0.79338000  0.50061000  0.35261000  1.0
  C  C22  1  0.35086000  0.27393000  0.49336000  1.0
  C  C23  1  0.19308000  0.49482000  0.64040000  1.0
  C  C24  1  0.17268000  0.49792000  0.72889000  1.0
  C  C25  1  0.00980000  0.45432000  0.77304000  1.0
  C  C26  1  0.97817000  0.45248000  0.85504000  1.0
  C  C27  1  0.11152000  0.49686000  0.89574000  1.0
  C  C28  1  0.27519000  0.54030000  0.85334000  1.0
  C  C29  1  0.30662000  0.54071000  0.77065000  1.0
  C  C30  1  0.75945000  0.42528000  0.14027000  1.0
  C  C31  1  0.91512000  0.47700000  0.09888000  1.0
  C  C32  1  0.03058000  0.53434000  0.14007000  1.0
  C  C33  1  0.98806000  0.53799000  0.22179000  1.0
  C  C34  1  0.83036000  0.48804000  0.26465000  1.0
  C  C35  1  0.71689000  0.43038000  0.22254000  1.0
  C  C36  1  0.54650000  0.86726000  0.51634000  1.0
  C  C37  1  0.64661000  0.93495000  0.55929000  1.0
  C  C38  1  0.37774000  0.93173000  0.47526000  1.0
  C  C39  1  0.80090000  0.87427000  0.61066000  1.0
  C  C40  1  0.88926000  0.94132000  0.65450000  1.0
  C  C41  1  0.41491000  0.13351000  0.50616000  1.0
  C  C42  1  0.31181000  0.06444000  0.47015000  1.0
  C  C43  1  0.57900000  0.07097000  0.55404000  1.0
  C  C44  1  0.67124000  0.13744000  0.60001000  1.0
  C  C45  1  0.82429000  0.07657000  0.64834000  1.0
  C  C46  1  0.04785000  0.87295000  0.70948000  1.0
  C  C47  1  0.91820000  0.15248000  0.69460000  1.0
  N  N48  1  0.09210000  0.50451000  0.97900000  1.0
  N  N49  1  0.94073000  0.46671000  0.01591000  1.0
  Cl  Cl50  1  0.50650000  0.60183000  0.72401000  1.0
  Cl  Cl51  1  0.52917000  0.35896000  0.26874000  1.0
  O  O52  1  0.47678000  0.67035000  0.51220000  1.0
  O  O53  1  0.95477000  0.49646000  0.38646000  1.0
  O  O54  1  0.15381000  0.32892000  0.49751000  1.0
  O  O55  1  0.37743000  0.47625000  0.60373000  1.0
  O  O56  1  0.49588000  0.32985000  0.47889000  1.0
  O  O57  1  0.02401000  0.50739000  0.60914000  1.0
  O  O58  1  0.81715000  0.67379000  0.50267000  1.0
  O  O59  1  0.60544000  0.51805000  0.38596000  1.0
  O  O60  1  0.21840000  0.56397000  0.46462000  1.0
  O  O61  1  0.75713000  0.43845000  0.52781000  1.0
