# generated using pymatgen
data_CdH12C16NO7
_symmetry_space_group_name_H-M   'P 1'
_cell_length_a   7.11640000
_cell_length_b   7.47599000
_cell_length_c   14.95570000
_cell_angle_alpha   80.53940000
_cell_angle_beta   88.78190000
_cell_angle_gamma   68.56040000
_symmetry_Int_Tables_number   1
_chemical_formula_structural   CdH12C16NO7
_chemical_formula_sum   'Cd2 H24 C32 N2 O14'
_cell_volume   729.89057896
_cell_formula_units_Z   2
loop_
 _symmetry_equiv_pos_site_id
 _symmetry_equiv_pos_as_xyz
  1  'x, y, z'
loop_
 _atom_site_type_symbol
 _atom_site_label
 _atom_site_symmetry_multiplicity
 _atom_site_fract_x
 _atom_site_fract_y
 _atom_site_fract_z
 _atom_site_occupancy
  Cd  Cd0  1  0.73305000  0.19169000  0.46427000  1.0
  Cd  Cd1  1  0.26692000  0.80832000  0.53573000  1.0
  H  H2  1  0.98997000  0.05899000  0.06458000  1.0
  H  H3  1  0.01006000  0.94101000  0.93541000  1.0
  H  H4  1  0.65072000  0.92034000  0.38519000  1.0
  H  H5  1  0.34924000  0.07966000  0.61482000  1.0
  H  H6  1  0.89535000  0.82651000  0.40495000  1.0
  H  H7  1  0.10461000  0.17349000  0.59505000  1.0
  H  H8  1  0.70561000  0.15807000  0.25460000  1.0
  H  H9  1  0.29440000  0.84192000  0.74541000  1.0
  H  H10  1  0.64030000  0.36539000  0.10016000  1.0
  H  H11  1  0.35972000  0.63460000  0.89985000  1.0
  H  H12  1  0.58080000  0.85491000  0.23334000  1.0
  H  H13  1  0.41921000  0.14509000  0.76666000  1.0
  H  H14  1  0.64254000  0.62916000  0.37968000  1.0
  H  H15  1  0.35745000  0.37084000  0.62033000  1.0
  H  H16  1  0.58696000  0.67031000  0.00595000  1.0
  H  H17  1  0.41305000  0.32966000  0.99406000  1.0
  H  H18  1  0.49323000  0.02868000  0.10071000  1.0
  H  H19  1  0.50678000  0.97130000  0.89929000  1.0
  H  H20  1  0.17015000  0.12714000  0.20272000  1.0
  H  H21  1  0.82985000  0.87287000  0.79728000  1.0
  H  H22  1  0.09316000  0.41109000  0.07852000  1.0
  H  H23  1  0.90686000  0.58891000  0.92148000  1.0
  H  H24  1  0.13220000  0.76522000  0.27246000  1.0
  H  H25  1  0.86780000  0.23478000  0.72754000  1.0
  C  C26  1  0.67333000  0.31416000  0.24557000  1.0
  C  C27  1  0.32668000  0.68583000  0.75444000  1.0
  C  C28  1  0.63686000  0.43018000  0.16063000  1.0
  C  C29  1  0.36316000  0.56982000  0.83937000  1.0
  C  C30  1  0.60183000  0.63008000  0.15243000  1.0
  C  C31  1  0.39818000  0.36991000  0.84757000  1.0
  C  C32  1  0.60472000  0.70266000  0.23321000  1.0
  C  C33  1  0.39528000  0.29734000  0.76680000  1.0
  C  C34  1  0.64177000  0.57737000  0.31566000  1.0
  C  C35  1  0.35822000  0.42263000  0.68434000  1.0
  C  C36  1  0.56778000  0.74911000  0.06309000  1.0
  C  C37  1  0.43223000  0.25087000  0.93692000  1.0
  C  C38  1  0.51534000  0.94572000  0.04499000  1.0
  C  C39  1  0.48469000  0.05427000  0.95500000  1.0
  C  C40  1  0.18964000  0.46531000  0.32644000  1.0
  C  C41  1  0.81034000  0.53470000  0.67356000  1.0
  C  C42  1  0.20086000  0.28348000  0.30703000  1.0
  C  C43  1  0.79913000  0.71653000  0.69297000  1.0
  C  C44  1  0.16702000  0.26638000  0.21730000  1.0
  C  C45  1  0.83299000  0.73364000  0.78270000  1.0
  C  C46  1  0.12329000  0.42555000  0.14758000  1.0
  C  C47  1  0.87673000  0.57444000  0.85242000  1.0
  C  C48  1  0.10993000  0.60724000  0.16683000  1.0
  C  C49  1  0.89008000  0.39276000  0.83317000  1.0
  C  C50  1  0.14173000  0.62550000  0.25639000  1.0
  C  C51  1  0.85825000  0.37450000  0.74361000  1.0
  C  C52  1  0.24118000  0.49237000  0.41919000  1.0
  C  C53  1  0.75880000  0.50764000  0.58080000  1.0
  C  C54  1  0.23713000  0.10771000  0.37983000  1.0
  C  C55  1  0.76287000  0.89229000  0.62017000  1.0
  C  C56  1  0.06193000  0.77679000  0.09285000  1.0
  C  C57  1  0.93810000  0.22320000  0.90715000  1.0
  N  N58  1  0.67629000  0.38611000  0.32218000  1.0
  N  N59  1  0.32371000  0.61389000  0.67782000  1.0
  O  O60  1  0.37255000  0.35285000  0.47002000  1.0
  O  O61  1  0.62744000  0.64716000  0.52998000  1.0
  O  O62  1  0.14958000  0.66246000  0.43912000  1.0
  O  O63  1  0.85040000  0.33753000  0.56088000  1.0
  O  O64  1  0.40062000  0.96225000  0.38393000  1.0
  O  O65  1  0.59935000  0.03774000  0.61607000  1.0
  O  O66  1  0.09498000  0.10883000  0.43301000  1.0
  O  O67  1  0.90500000  0.89118000  0.56698000  1.0
  O  O68  1  0.06111000  0.75942000  0.01099000  1.0
  O  O69  1  0.93890000  0.24059000  0.98901000  1.0
  O  O70  1  0.01984000  0.94728000  0.11956000  1.0
  O  O71  1  0.98020000  0.05272000  0.88044000  1.0
  O  O72  1  0.77938000  0.94305000  0.37733000  1.0
  O  O73  1  0.22058000  0.05696000  0.62267000  1.0
