# generated using pymatgen
data_Cd2H4C5SN6O5
_symmetry_space_group_name_H-M   'P 1'
_cell_length_a   10.57100000
_cell_length_b   11.42460000
_cell_length_c   11.45974617
_cell_angle_alpha   83.05480696
_cell_angle_beta   62.53365589
_cell_angle_gamma   62.44220000
_symmetry_Int_Tables_number   1
_chemical_formula_structural   Cd2H4C5SN6O5
_chemical_formula_sum   'Cd8 H16 C20 S4 N24 O20'
_cell_volume   1081.11772934
_cell_formula_units_Z   4
loop_
 _symmetry_equiv_pos_site_id
 _symmetry_equiv_pos_as_xyz
  1  'x, y, z'
loop_
 _atom_site_type_symbol
 _atom_site_label
 _atom_site_symmetry_multiplicity
 _atom_site_fract_x
 _atom_site_fract_y
 _atom_site_fract_z
 _atom_site_occupancy
  Cd  Cd0  1  0.52853000  0.25002000  0.74997000  1.0
  Cd  Cd1  1  0.47147000  0.74998000  0.25003000  1.0
  Cd  Cd2  1  0.38829000  0.23435000  0.50711000  1.0
  Cd  Cd3  1  0.12979000  0.26562000  0.99289000  1.0
  Cd  Cd4  1  0.61172000  0.76565000  0.49288000  1.0
  Cd  Cd5  1  0.87021000  0.73437000  0.00711000  1.0
  Cd  Cd6  1  0.50000000  0.00000000  0.00000000  1.0
  Cd  Cd7  1  0.50000000  0.50000000  0.50000000  1.0
  H  H8  1  0.37685000  0.27054000  0.02081000  1.0
  H  H9  1  0.66821000  0.22948000  0.47916000  1.0
  H  H10  1  0.62315000  0.72946000  0.97919000  1.0
  H  H11  1  0.33179000  0.77052000  0.52084000  1.0
  H  H12  1  0.90962000  0.43049000  0.84019000  1.0
  H  H13  1  0.18007000  0.06960000  0.65996000  1.0
  H  H14  1  0.09038000  0.56951000  0.15981000  1.0
  H  H15  1  0.81993000  0.93040000  0.34004000  1.0
  H  H16  1  0.61424000  0.19537000  0.11817000  1.0
  H  H17  1  0.92770000  0.30468000  0.38189000  1.0
  H  H18  1  0.38576000  0.80463000  0.88183000  1.0
  H  H19  1  0.07230000  0.69532000  0.61811000  1.0
  H  H20  1  0.84342000  0.18669000  0.14211000  1.0
  H  H21  1  0.17219000  0.31320000  0.35793000  1.0
  H  H22  1  0.15658000  0.81331000  0.85789000  1.0
  H  H23  1  0.82781000  0.68680000  0.64207000  1.0
  C  C24  1  0.66965000  0.45475000  0.79255000  1.0
  C  C25  1  0.91677000  0.04534000  0.70756000  1.0
  C  C26  1  0.33035000  0.54525000  0.20745000  1.0
  C  C27  1  0.08323000  0.95466000  0.29244000  1.0
  C  C28  1  0.71644000  0.38113000  0.89125000  1.0
  C  C29  1  0.98858000  0.11901000  0.60891000  1.0
  C  C30  1  0.28356000  0.61887000  0.10875000  1.0
  C  C31  1  0.01142000  0.88099000  0.39109000  1.0
  C  C32  1  0.84452000  0.37729000  0.90289000  1.0
  C  C33  1  0.12444000  0.12285000  0.59730000  1.0
  C  C34  1  0.15548000  0.62271000  0.09711000  1.0
  C  C35  1  0.87556000  0.87715000  0.40270000  1.0
  C  C36  1  0.68087000  0.24762000  0.05576000  1.0
  C  C37  1  0.98407000  0.25246000  0.44437000  1.0
  C  C38  1  0.31913000  0.75238000  0.94424000  1.0
  C  C39  1  0.01593000  0.74754000  0.55563000  1.0
  C  C40  1  0.80775000  0.24311000  0.06927000  1.0
  C  C41  1  0.12000000  0.25691000  0.43084000  1.0
  C  C42  1  0.19225000  0.75689000  0.93073000  1.0
  C  C43  1  0.88000000  0.74308000  0.56916000  1.0
  S  S44  1  0.39950000  0.00933000  0.74855000  1.0
  S  S45  1  0.15745000  0.49071000  0.75143000  1.0
  S  S46  1  0.60050000  0.99067000  0.25145000  1.0
  S  S47  1  0.84255000  0.50928000  0.24857000  1.0
  N  N48  1  0.59243000  0.42749000  0.74167000  1.0
  N  N49  1  0.76145000  0.07252000  0.75842000  1.0
  N  N50  1  0.40758000  0.57251000  0.25833000  1.0
  N  N51  1  0.23855000  0.92748000  0.24158000  1.0
  N  N52  1  0.57562000  0.51468000  0.65463000  1.0
  N  N53  1  0.74487000  0.98528000  0.84542000  1.0
  N  N54  1  0.42437000  0.48532000  0.34538000  1.0
  N  N55  1  0.25513000  0.01472000  0.15458000  1.0
  N  N56  1  0.36186000  0.40797000  0.34676000  1.0
  N  N57  1  0.11662000  0.09204000  0.15323000  1.0
  N  N58  1  0.63814000  0.59203000  0.65324000  1.0
  N  N59  1  0.88338000  0.90796000  0.84677000  1.0
  N  N60  1  0.18894000  0.19248000  0.50852000  1.0
  N  N61  1  0.88992000  0.30756000  0.99162000  1.0
  N  N62  1  0.81106000  0.80752000  0.49148000  1.0
  N  N63  1  0.11008000  0.69244000  0.00838000  1.0
  N  N64  1  0.69905000  0.55670000  0.73870000  1.0
  N  N65  1  0.99435000  0.94337000  0.76135000  1.0
  N  N66  1  0.30095000  0.44330000  0.26130000  1.0
  N  N67  1  0.00565000  0.05662000  0.23865000  1.0
  N  N68  1  0.63493000  0.31538000  0.96692000  1.0
  N  N69  1  0.91702000  0.18472000  0.53320000  1.0
  N  N70  1  0.36508000  0.68462000  0.03307000  1.0
  N  N71  1  0.08298000  0.81528000  0.46680000  1.0
  O  O72  1  0.46210000  0.10194000  0.66770000  1.0
  O  O73  1  0.23176000  0.39808000  0.83230000  1.0
  O  O74  1  0.53789000  0.89806000  0.33231000  1.0
  O  O75  1  0.76824000  0.60192000  0.16770000  1.0
  O  O76  1  0.38393000  0.21285000  0.95941000  1.0
  O  O77  1  0.55620000  0.28716000  0.54054000  1.0
  O  O78  1  0.61607000  0.78715000  0.04059000  1.0
  O  O79  1  0.44380000  0.71284000  0.45946000  1.0
  O  O80  1  0.16435000  0.41317000  0.65129000  1.0
  O  O81  1  0.22870000  0.08689000  0.84865000  1.0
  O  O82  1  0.83565000  0.58683000  0.34871000  1.0
  O  O83  1  0.77131000  0.91310000  0.15135000  1.0
  O  O84  1  0.59881000  0.07872000  0.33884000  1.0
  O  O85  1  0.01631000  0.42122000  0.16125000  1.0
  O  O86  1  0.40119000  0.92128000  0.66116000  1.0
  O  O87  1  0.98369000  0.57878000  0.83875000  1.0
  O  O88  1  0.50267000  0.92807000  0.81155000  1.0
  O  O89  1  0.24239000  0.57196000  0.68848000  1.0
  O  O90  1  0.49733000  0.07193000  0.18845000  1.0
  O  O91  1  0.75761000  0.42804000  0.31152000  1.0
