# generated using pymatgen
data_CuH3C5N4
_symmetry_space_group_name_H-M   'P 1'
_cell_length_a   23.76360000
_cell_length_b   24.15090000
_cell_length_c   27.74580000
_cell_angle_alpha   91.95480000
_cell_angle_beta   99.92300000
_cell_angle_gamma   91.93870000
_symmetry_Int_Tables_number   1
_chemical_formula_structural   CuH3C5N4
_chemical_formula_sum   'Cu12 H36 C60 N48'
_cell_volume   15663.55708466
_cell_formula_units_Z   12
loop_
 _symmetry_equiv_pos_site_id
 _symmetry_equiv_pos_as_xyz
  1  'x, y, z'
loop_
 _atom_site_type_symbol
 _atom_site_label
 _atom_site_symmetry_multiplicity
 _atom_site_fract_x
 _atom_site_fract_y
 _atom_site_fract_z
 _atom_site_occupancy
  Cu  Cu0  1  0.14297000  0.82829000  0.08928000  1.0
  Cu  Cu1  1  0.09565000  0.75665000  0.16787000  1.0
  Cu  Cu2  1  0.13109000  0.89031000  0.18326000  1.0
  Cu  Cu3  1  0.68381000  0.18843000  0.43101000  1.0
  Cu  Cu4  1  0.59134000  0.24425000  0.35303000  1.0
  Cu  Cu5  1  0.67631000  0.16579000  0.31568000  1.0
  Cu  Cu6  1  0.36738000  0.31054000  0.94413000  1.0
  Cu  Cu7  1  0.45602000  0.27766000  0.87193000  1.0
  Cu  Cu8  1  0.39241000  0.38369000  0.85315000  1.0
  Cu  Cu9  1  0.78716000  0.66362000  0.55937000  1.0
  Cu  Cu10  1  0.91203000  0.65616000  0.61408000  1.0
  Cu  Cu11  1  0.80452000  0.59284000  0.65232000  1.0
  H  H12  1  0.58440000  0.34475000  0.65113000  1.0
  H  H13  1  0.52706000  0.51114000  0.66568000  1.0
  H  H14  1  0.60146000  0.46181000  0.53999000  1.0
  H  H15  1  0.03121000  0.63762000  0.88058000  1.0
  H  H16  1  0.12954000  0.52378000  0.80934000  1.0
  H  H17  1  0.17383000  0.55817000  0.96535000  1.0
  H  H18  1  0.95625000  0.81819000  0.38999000  1.0
  H  H19  1  0.92022000  0.97394000  0.32133000  1.0
  H  H20  1  0.83027000  0.92342000  0.43611000  1.0
  H  H21  1  0.32835000  0.04140000  0.03023000  1.0
  H  H22  1  0.34895000  0.12937000  0.17033000  1.0
  H  H23  1  0.47668000  0.15044000  0.07856000  1.0
  H  H24  1  0.12760000  0.74398000  0.00064000  1.0
  H  H25  1  0.09549000  0.63301000  0.11365000  1.0
  H  H26  1  0.20935000  0.00370000  0.17646000  1.0
  H  H27  1  0.21620000  0.91470000  0.03891000  1.0
  H  H28  1  0.02516000  0.74398000  0.25490000  1.0
  H  H29  1  0.06269000  0.92156000  0.26493000  1.0
  H  H30  1  0.67210000  0.26029000  0.52838000  1.0
  H  H31  1  0.55792000  0.34424000  0.41740000  1.0
  H  H32  1  0.77230000  0.07887000  0.31509000  1.0
  H  H33  1  0.76367000  0.08918000  0.47020000  1.0
  H  H34  1  0.48716000  0.23293000  0.26160000  1.0
  H  H35  1  0.62032000  0.14786000  0.20291000  1.0
  H  H36  1  0.37301000  0.20112000  0.00821000  1.0
  H  H37  1  0.48473000  0.15972000  0.90496000  1.0
  H  H38  1  0.29504000  0.46693000  0.84877000  1.0
  H  H39  1  0.27257000  0.38582000  0.98177000  1.0
  H  H40  1  0.53727000  0.27970000  0.78920000  1.0
  H  H41  1  0.45088000  0.43489000  0.76684000  1.0
  H  H42  1  0.80207000  0.75661000  0.48434000  1.0
  H  H43  1  0.97993000  0.73217000  0.54568000  1.0
  H  H44  1  0.67784000  0.53308000  0.64311000  1.0
  H  H45  1  0.65453000  0.64556000  0.52295000  1.0
  H  H46  1  0.01118000  0.63218000  0.70042000  1.0
  H  H47  1  0.86512000  0.57178000  0.76106000  1.0
  C  C48  1  0.59554000  0.39955000  0.59321000  1.0
  C  C49  1  0.58089000  0.38681000  0.63829000  1.0
  C  C50  1  0.55620000  0.42774000  0.66436000  1.0
  C  C51  1  0.54871000  0.48088000  0.64614000  1.0
  C  C52  1  0.56668000  0.49407000  0.60225000  1.0
  C  C53  1  0.59031000  0.45344000  0.57559000  1.0
  C  C54  1  0.10122000  0.60078000  0.92733000  1.0
  C  C55  1  0.06466000  0.60760000  0.88262000  1.0
  C  C56  1  0.07336000  0.57797000  0.84050000  1.0
  C  C57  1  0.12021000  0.54408000  0.84260000  1.0
  C  C58  1  0.15458000  0.53487000  0.88776000  1.0
  C  C59  1  0.14518000  0.56291000  0.93072000  1.0
  C  C60  1  0.89338000  0.86783000  0.41764000  1.0
  C  C61  1  0.93359000  0.85670000  0.38734000  1.0
  C  C62  1  0.94260000  0.89523000  0.35246000  1.0
  C  C63  1  0.91295000  0.94456000  0.34880000  1.0
  C  C64  1  0.87293000  0.95523000  0.37918000  1.0
  C  C65  1  0.86242000  0.91628000  0.41319000  1.0
  C  C66  1  0.40207000  0.09797000  0.04752000  1.0
  C  C67  1  0.35104000  0.07282000  0.05614000  1.0
  C  C68  1  0.33148000  0.08471000  0.10010000  1.0
  C  C69  1  0.36266000  0.12218000  0.13519000  1.0
  C  C70  1  0.41546000  0.14440000  0.12753000  1.0
  C  C71  1  0.43481000  0.13394000  0.08321000  1.0
  C  C72  1  0.11931000  0.72529000  0.03382000  1.0
  C  C73  1  0.10975000  0.66893000  0.04239000  1.0
  C  C74  1  0.10415000  0.66789000  0.09203000  1.0
  C  C75  1  0.20416000  0.97498000  0.14498000  1.0
  C  C76  1  0.22771000  0.97788000  0.10163000  1.0
  C  C77  1  0.20733000  0.92903000  0.07422000  1.0
  C  C78  1  0.04085000  0.78611000  0.25131000  1.0
  C  C79  1  0.02897000  0.83525000  0.27560000  1.0
  C  C80  1  0.05975000  0.87737000  0.25610000  1.0
  C  C81  1  0.64582000  0.27361000  0.49522000  1.0
  C  C82  1  0.61053000  0.31958000  0.48818000  1.0
  C  C83  1  0.58762000  0.31687000  0.43791000  1.0
  C  C84  1  0.76412000  0.08962000  0.35143000  1.0
  C  C85  1  0.78443000  0.06517000  0.39624000  1.0
  C  C86  1  0.75920000  0.09450000  0.43107000  1.0
  C  C87  1  0.52631000  0.21466000  0.25499000  1.0
  C  C88  1  0.53762000  0.18555000  0.21293000  1.0
  C  C89  1  0.59512000  0.17144000  0.22482000  1.0
  C  C90  1  0.39947000  0.19991000  0.98005000  1.0
  C  C91  1  0.43296000  0.15703000  0.96520000  1.0
  C  C92  1  0.45675000  0.17953000  0.92678000  1.0
  C  C93  1  0.29737000  0.44075000  0.87997000  1.0
  C  C94  1  0.26441000  0.44152000  0.91759000  1.0
  C  C95  1  0.28622000  0.39959000  0.94863000  1.0
  C  C96  1  0.51110000  0.31548000  0.79055000  1.0
  C  C97  1  0.50784000  0.36261000  0.76194000  1.0
  C  C98  1  0.46693000  0.39546000  0.77936000  1.0
  C  C99  1  0.84217000  0.74405000  0.50511000  1.0
  C  C100  1  0.89845000  0.76140000  0.50145000  1.0
  C  C101  1  0.93364000  0.73095000  0.53611000  1.0
  C  C102  1  0.68203000  0.56236000  0.61502000  1.0
  C  C103  1  0.64019000  0.58262000  0.57774000  1.0
  C  C104  1  0.67083000  0.62052000  0.55363000  1.0
  C  C105  1  0.96942000  0.61820000  0.70697000  1.0
  C  C106  1  0.95372000  0.59778000  0.74996000  1.0
  C  C107  1  0.89421000  0.58815000  0.73839000  1.0
  N  N108  1  0.10908000  0.72017000  0.11135000  1.0
  N  N109  1  0.11955000  0.75538000  0.07526000  1.0
  N  N110  1  0.17426000  0.89928000  0.09904000  1.0
  N  N111  1  0.17238000  0.92770000  0.14297000  1.0
  N  N112  1  0.08758000  0.85479000  0.22270000  1.0
  N  N113  1  0.07560000  0.79803000  0.21924000  1.0
  N  N114  1  0.60720000  0.27263000  0.41655000  1.0
  N  N115  1  0.64380000  0.24609000  0.45206000  1.0
  N  N116  1  0.72651000  0.13368000  0.40884000  1.0
  N  N117  1  0.72929000  0.13023000  0.35929000  1.0
  N  N118  1  0.61652000  0.18997000  0.27070000  1.0
  N  N119  1  0.57381000  0.21719000  0.28914000  1.0
  N  N120  1  0.43967000  0.23113000  0.91928000  1.0
  N  N121  1  0.40362000  0.24381000  0.95207000  1.0
  N  N122  1  0.32860000  0.37503000  0.93049000  1.0
  N  N123  1  0.33582000  0.40134000  0.88820000  1.0
  N  N124  1  0.44762000  0.36948000  0.81553000  1.0
  N  N125  1  0.47525000  0.32009000  0.82284000  1.0
  N  N126  1  0.90069000  0.69828000  0.55915000  1.0
  N  N127  1  0.84404000  0.70605000  0.53933000  1.0
  N  N128  1  0.72610000  0.62255000  0.57416000  1.0
  N  N129  1  0.73301000  0.58724000  0.61287000  1.0
  N  N130  1  0.87576000  0.60091000  0.69169000  1.0
  N  N131  1  0.92246000  0.62061000  0.67256000  1.0
  N  N132  1  0.09488000  0.63918000  0.96522000  1.0
  N  N133  1  0.10853000  0.62416000  0.00900000  1.0
  N  N134  1  0.61238000  0.35494000  0.56479000  1.0
  N  N135  1  0.59664000  0.36104000  0.51920000  1.0
  N  N136  1  0.42618000  0.07476000  0.00814000  1.0
  N  N137  1  0.44249000  0.10110000  0.97448000  1.0
  N  N138  1  0.87809000  0.83059000  0.45179000  1.0
  N  N139  1  0.91742000  0.79972000  0.47089000  1.0
  N  N140  1  0.28546000  0.05478000  0.11517000  1.0
  N  N141  1  0.26688000  0.01370000  0.08629000  1.0
  N  N142  1  0.54811000  0.54419000  0.58018000  1.0
  N  N143  1  0.58024000  0.58040000  0.56622000  1.0
  N  N144  1  0.84248000  0.00418000  0.37096000  1.0
  N  N145  1  0.81892000  0.02042000  0.40649000  1.0
  N  N146  1  0.19944000  0.49893000  0.88469000  1.0
  N  N147  1  0.21904000  0.47460000  0.92360000  1.0
  N  N148  1  0.98029000  0.88872000  0.31869000  1.0
  N  N149  1  0.99207000  0.83896000  0.30928000  1.0
  N  N150  1  0.53174000  0.41882000  0.70649000  1.0
  N  N151  1  0.53775000  0.37086000  0.72384000  1.0
  N  N152  1  0.03934000  0.58347000  0.79402000  1.0
  N  N153  1  0.98658000  0.58861000  0.79526000  1.0
  N  N154  1  0.44948000  0.17147000  0.16923000  1.0
  N  N155  1  0.50268000  0.16603000  0.17012000  1.0
