# generated using pymatgen
data_Zn3H36C52(NO)10
_symmetry_space_group_name_H-M   'P 1'
_cell_length_a   9.16336000
_cell_length_b   11.29200000
_cell_length_c   12.54100000
_cell_angle_alpha   66.52820000
_cell_angle_beta   85.91140000
_cell_angle_gamma   85.09340000
_symmetry_Int_Tables_number   1
_chemical_formula_structural   Zn3H36C52(NO)10
_chemical_formula_sum   'Zn3 H36 C52 N10 O10'
_cell_volume   1184.93173060
_cell_formula_units_Z   1
loop_
 _symmetry_equiv_pos_site_id
 _symmetry_equiv_pos_as_xyz
  1  'x, y, z'
loop_
 _atom_site_type_symbol
 _atom_site_label
 _atom_site_symmetry_multiplicity
 _atom_site_fract_x
 _atom_site_fract_y
 _atom_site_fract_z
 _atom_site_occupancy
  Zn  Zn0  1  0.00000000  0.50000000  0.00000000  1.0
  Zn  Zn1  1  0.69945000  0.54141000  0.84549000  1.0
  Zn  Zn2  1  0.30055000  0.45859000  0.15451000  1.0
  H  H3  1  0.95600000  0.68923000  0.53266000  1.0
  H  H4  1  0.04400000  0.31077000  0.46735000  1.0
  H  H5  1  0.12814000  0.73263000  0.35862000  1.0
  H  H6  1  0.87186000  0.26737000  0.64138000  1.0
  H  H7  1  0.34534000  0.58170000  0.36960000  1.0
  H  H8  1  0.65466000  0.41830000  0.63040000  1.0
  H  H9  1  0.39740000  0.39459000  0.55479000  1.0
  H  H10  1  0.60260000  0.60541000  0.44521000  1.0
  H  H11  1  0.50273000  0.18736000  0.96154000  1.0
  H  H12  1  0.49727000  0.81264000  0.03846000  1.0
  H  H13  1  0.34848000  0.99846000  0.01822000  1.0
  H  H14  1  0.65152000  0.00154000  0.98178000  1.0
  H  H15  1  0.12486000  0.01928000  0.90574000  1.0
  H  H16  1  0.87515000  0.98072000  0.09426000  1.0
  H  H17  1  0.06692000  0.22339000  0.73678000  1.0
  H  H18  1  0.93309000  0.77661000  0.26321000  1.0
  H  H19  1  0.15762000  0.22835000  0.04050000  1.0
  H  H20  1  0.84238000  0.77164000  0.95951000  1.0
  H  H21  1  0.15507000  0.00169000  0.19253000  1.0
  H  H22  1  0.84493000  0.99831000  0.80747000  1.0
  H  H23  1  0.97774000  0.95601000  0.36639000  1.0
  H  H24  1  0.02225000  0.04399000  0.63361000  1.0
  H  H25  1  0.81883000  0.35663000  0.21051000  1.0
  H  H26  1  0.18117000  0.64337000  0.78949000  1.0
  H  H27  1  0.74391000  0.79320000  0.65150000  1.0
  H  H28  1  0.25610000  0.20680000  0.34850000  1.0
  H  H29  1  0.41686000  0.07026000  0.69621000  1.0
  H  H30  1  0.58314000  0.92974000  0.30379000  1.0
  H  H31  1  0.31768000  0.88744000  0.87101000  1.0
  H  H32  1  0.68232000  0.11256000  0.12899000  1.0
  H  H33  1  0.43623000  0.66595000  0.92682000  1.0
  H  H34  1  0.56378000  0.33404000  0.07318000  1.0
  H  H35  1  0.64826000  0.31347000  0.35238000  1.0
  H  H36  1  0.35174000  0.68653000  0.64762000  1.0
  H  H37  1  0.72474000  0.54086000  0.04610000  1.0
  H  H38  1  0.27526000  0.45914000  0.95390000  1.0
  C  C39  1  0.98189000  0.50611000  0.74590000  1.0
  C  C40  1  0.01811000  0.49389000  0.25410000  1.0
  C  C41  1  0.08364000  0.52208000  0.64243000  1.0
  C  C42  1  0.91636000  0.47792000  0.35757000  1.0
  C  C43  1  0.05476000  0.62673000  0.53663000  1.0
  C  C44  1  0.94524000  0.37327000  0.46337000  1.0
  C  C45  1  0.14981000  0.64985000  0.43985000  1.0
  C  C46  1  0.85019000  0.35015000  0.56015000  1.0
  C  C47  1  0.27321000  0.56620000  0.44621000  1.0
  C  C48  1  0.72678000  0.43380000  0.55379000  1.0
  C  C49  1  0.30224000  0.46132000  0.55025000  1.0
  C  C50  1  0.69776000  0.53868000  0.44975000  1.0
  C  C51  1  0.21021000  0.43914000  0.64983000  1.0
  C  C52  1  0.78979000  0.56086000  0.35017000  1.0
  C  C53  1  0.24649000  0.32242000  0.75633000  1.0
  C  C54  1  0.75351000  0.67758000  0.24367000  1.0
  C  C55  1  0.36977000  0.31135000  0.82177000  1.0
  C  C56  1  0.63023000  0.68865000  0.17823000  1.0
  C  C57  1  0.45609000  0.42576000  0.80422000  1.0
  C  C58  1  0.54391000  0.57424000  0.19577000  1.0
  C  C59  1  0.40620000  0.19322000  0.91360000  1.0
  C  C60  1  0.59380000  0.80679000  0.08640000  1.0
  C  C61  1  0.31950000  0.08829000  0.94497000  1.0
  C  C62  1  0.68051000  0.91172000  0.05503000  1.0
  C  C63  1  0.19524000  0.09995000  0.88211000  1.0
  C  C64  1  0.80476000  0.90005000  0.11789000  1.0
  C  C65  1  0.16180000  0.21482000  0.78763000  1.0
  C  C66  1  0.83821000  0.78518000  0.21236000  1.0
  C  C67  1  0.08145000  0.20312000  0.11581000  1.0
  C  C68  1  0.91855000  0.79688000  0.88419000  1.0
  C  C69  1  0.07921000  0.07751000  0.20103000  1.0
  C  C70  1  0.92079000  0.92249000  0.79897000  1.0
  C  C71  1  0.98153000  0.05192000  0.29661000  1.0
  C  C72  1  0.01847000  0.94808000  0.70339000  1.0
  C  C73  1  0.88513000  0.15284000  0.30274000  1.0
  C  C74  1  0.11487000  0.84717000  0.69726000  1.0
  C  C75  1  0.89264000  0.27502000  0.21196000  1.0
  C  C76  1  0.10736000  0.72498000  0.78804000  1.0
  C  C77  1  0.77839000  0.13032000  0.39937000  1.0
  C  C78  1  0.22161000  0.86968000  0.60063000  1.0
  C  C79  1  0.64836000  0.04353000  0.55386000  1.0
  C  C80  1  0.35164000  0.95647000  0.44614000  1.0
  C  C81  1  0.58835000  0.94557000  0.65990000  1.0
  C  C82  1  0.41164000  0.05443000  0.34010000  1.0
  C  C83  1  0.65008000  0.81838000  0.69843000  1.0
  C  C84  1  0.34992000  0.18162000  0.30157000  1.0
  C  C85  1  0.46751000  0.97228000  0.72364000  1.0
  C  C86  1  0.53249000  0.02772000  0.27637000  1.0
  C  C87  1  0.41261000  0.87114000  0.82041000  1.0
  C  C88  1  0.58739000  0.12886000  0.17959000  1.0
  C  C89  1  0.47871000  0.74714000  0.85248000  1.0
  C  C90  1  0.52129000  0.25286000  0.14753000  1.0
  N  N91  1  0.99017000  0.29974000  0.12216000  1.0
  N  N92  1  0.00983000  0.70026000  0.87784000  1.0
  N  N93  1  0.76537000  0.01803000  0.49093000  1.0
  N  N94  1  0.23463000  0.98197000  0.50907000  1.0
  N  N95  1  0.67287000  0.21857000  0.40893000  1.0
  N  N96  1  0.32713000  0.78143000  0.59107000  1.0
  N  N97  1  0.58888000  0.16533000  0.50648000  1.0
  N  N98  1  0.41112000  0.83467000  0.49352000  1.0
  N  N99  1  0.59680000  0.72216000  0.79249000  1.0
  N  N100  1  0.40320000  0.27784000  0.20751000  1.0
  O  O101  1  0.02644000  0.44270000  0.84754000  1.0
  O  O102  1  0.97356000  0.55730000  0.15246000  1.0
  O  O103  1  0.85333000  0.56345000  0.72214000  1.0
  O  O104  1  0.14668000  0.43655000  0.27786000  1.0
  O  O105  1  0.39967000  0.53844000  0.75405000  1.0
  O  O106  1  0.60034000  0.46156000  0.24595000  1.0
  O  O107  1  0.58343000  0.39874000  0.84976000  1.0
  O  O108  1  0.41657000  0.60127000  0.15023000  1.0
  O  O109  1  0.77599000  0.50175000  0.99661000  1.0
  O  O110  1  0.22401000  0.49825000  0.00339000  1.0
