# generated using pymatgen
data_Cu3P4H26C10(NO5)4
_symmetry_space_group_name_H-M   'P 1'
_cell_length_a   7.96943000
_cell_length_b   9.68872000
_cell_length_c   10.08820000
_cell_angle_alpha   92.99140000
_cell_angle_beta   112.83400000
_cell_angle_gamma   100.82900000
_symmetry_Int_Tables_number   1
_chemical_formula_structural   Cu3P4H26C10(NO5)4
_chemical_formula_sum   'Cu3 P4 H26 C10 N4 O20'
_cell_volume   698.35283065
_cell_formula_units_Z   1
loop_
 _symmetry_equiv_pos_site_id
 _symmetry_equiv_pos_as_xyz
  1  'x, y, z'
loop_
 _atom_site_type_symbol
 _atom_site_label
 _atom_site_symmetry_multiplicity
 _atom_site_fract_x
 _atom_site_fract_y
 _atom_site_fract_z
 _atom_site_occupancy
  Cu  Cu0  1  0.49852000  0.50049000  0.00008000  1.0
  Cu  Cu1  1  0.81137000  0.61198000  0.67073000  1.0
  Cu  Cu2  1  0.18736000  0.38729000  0.32925000  1.0
  P  P3  1  0.65672000  0.74330000  0.85746000  1.0
  P  P4  1  0.34316000  0.25603000  0.14320000  1.0
  P  P5  1  0.38436000  0.48520000  0.65731000  1.0
  P  P6  1  0.61420000  0.51557000  0.34211000  1.0
  H  H7  1  0.44851000  0.21852000  0.66585000  1.0
  H  H8  1  0.55622000  0.78333000  0.33714000  1.0
  H  H9  1  0.37625000  0.94058000  0.52682000  1.0
  H  H10  1  0.62825000  0.06138000  0.47527000  1.0
  H  H11  1  0.27649000  0.92544000  0.90981000  1.0
  H  H12  1  0.72314000  0.07557000  0.09021000  1.0
  H  H13  1  0.15616000  0.69580000  0.57982000  1.0
  H  H14  1  0.84469000  0.30653000  0.41968000  1.0
  H  H15  1  0.23908000  0.69458000  0.77109000  1.0
  H  H16  1  0.76026000  0.30657000  0.22820000  1.0
  H  H17  1  0.37669000  0.18759000  0.89183000  1.0
  H  H18  1  0.62441000  0.81358000  0.10929000  1.0
  H  H19  1  0.46418000  0.66009000  0.48655000  1.0
  H  H20  1  0.53462000  0.34026000  0.51320000  1.0
  H  H21  1  0.05077000  0.43969000  0.70864000  1.0
  H  H22  1  0.94617000  0.55954000  0.28685000  1.0
  H  H23  1  0.06079000  0.50763000  0.85727000  1.0
  H  H24  1  0.93672000  0.48891000  0.13954000  1.0
  H  H25  1  0.84753000  0.87842000  0.74940000  1.0
  H  H26  1  0.15388000  0.12096000  0.25360000  1.0
  H  H27  1  0.82437000  0.86051000  0.58667000  1.0
  H  H28  1  0.17852000  0.13989000  0.41653000  1.0
  H  H29  1  0.81737000  0.34907000  0.92724000  1.0
  H  H30  1  0.17988000  0.64678000  0.06941000  1.0
  H  H31  1  0.79095000  0.50582000  0.92363000  1.0
  H  H32  1  0.20509000  0.48983000  0.07416000  1.0
  C  C33  1  0.39709000  0.11587000  0.69097000  1.0
  C  C34  1  0.60675000  0.88575000  0.31121000  1.0
  C  C35  1  0.36291000  0.98108000  0.62323000  1.0
  C  C36  1  0.64053000  0.02066000  0.37848000  1.0
  C  C37  1  0.31390000  0.96612000  0.82454000  1.0
  C  C38  1  0.68705000  0.03506000  0.17611000  1.0
  C  C39  1  0.27616000  0.73471000  0.68422000  1.0
  C  C40  1  0.72432000  0.26676000  0.31568000  1.0
  C  C41  1  0.44558000  0.68171000  0.68254000  1.0
  C  C42  1  0.55454000  0.31895000  0.31771000  1.0
  N  N43  1  0.31246000  0.88941000  0.70909000  1.0
  N  N44  1  0.68929000  0.11208000  0.29171000  1.0
  N  N45  1  0.36427000  0.10321000  0.81461000  1.0
  N  N46  1  0.63791000  0.89803000  0.18683000  1.0
  O  O47  1  0.49655000  0.73611000  0.57124000  1.0
  O  O48  1  0.50436000  0.26398000  0.42907000  1.0
  O  O49  1  0.73085000  0.90023000  0.86661000  1.0
  O  O50  1  0.27129000  0.09893000  0.13456000  1.0
  O  O51  1  0.80206000  0.65437000  0.85689000  1.0
  O  O52  1  0.19606000  0.34337000  0.14392000  1.0
  O  O53  1  0.58944000  0.69928000  0.97788000  1.0
  O  O54  1  0.40839000  0.30147000  0.02218000  1.0
  O  O55  1  0.55139000  0.43936000  0.64288000  1.0
  O  O56  1  0.44612000  0.56096000  0.35487000  1.0
  O  O57  1  0.34681000  0.44187000  0.78969000  1.0
  O  O58  1  0.65320000  0.55755000  0.20970000  1.0
  O  O59  1  0.19882000  0.43078000  0.52093000  1.0
  O  O60  1  0.79924000  0.57283000  0.47816000  1.0
  O  O61  1  0.97029000  0.46456000  0.75451000  1.0
  O  O62  1  0.02696000  0.53336000  0.24189000  1.0
  O  O63  1  0.89919000  0.83911000  0.68246000  1.0
  O  O64  1  0.10282000  0.16064000  0.32064000  1.0
  O  O65  1  0.78803000  0.42228000  0.97896000  1.0
  O  O66  1  0.20869000  0.57282000  0.01817000  1.0
