# generated using pymatgen
data_CuH17C25(NO2)3
_symmetry_space_group_name_H-M   'P 1'
_cell_length_a   11.10320000
_cell_length_b   12.01770000
_cell_length_c   19.64970000
_cell_angle_alpha   90.00000000
_cell_angle_beta   101.59400000
_cell_angle_gamma   89.99980000
_symmetry_Int_Tables_number   1
_chemical_formula_structural   CuH17C25(NO2)3
_chemical_formula_sum   'Cu4 H68 C100 N12 O24'
_cell_volume   2568.45867145
_cell_formula_units_Z   4
loop_
 _symmetry_equiv_pos_site_id
 _symmetry_equiv_pos_as_xyz
  1  'x, y, z'
loop_
 _atom_site_type_symbol
 _atom_site_label
 _atom_site_symmetry_multiplicity
 _atom_site_fract_x
 _atom_site_fract_y
 _atom_site_fract_z
 _atom_site_occupancy
  Cu  Cu0  1  0.49726000  0.40430000  0.08686000  1.0
  Cu  Cu1  1  0.50273000  0.90431000  0.41314000  1.0
  Cu  Cu2  1  0.50273000  0.59570000  0.91314000  1.0
  Cu  Cu3  1  0.49727000  0.09569000  0.58686000  1.0
  H  H4  1  0.90653000  0.86671000  0.74365000  1.0
  H  H5  1  0.09347000  0.36671000  0.75635000  1.0
  H  H6  1  0.09347000  0.13329000  0.25635000  1.0
  H  H7  1  0.90653000  0.63330000  0.24365000  1.0
  H  H8  1  0.94771000  0.00934000  0.83972000  1.0
  H  H9  1  0.05229000  0.50935000  0.66028000  1.0
  H  H10  1  0.05229000  0.99065000  0.16028000  1.0
  H  H11  1  0.94771000  0.49065000  0.33972000  1.0
  H  H12  1  0.16394000  0.02699000  0.90892000  1.0
  H  H13  1  0.83605000  0.52699000  0.59109000  1.0
  H  H14  1  0.83606000  0.97301000  0.09108000  1.0
  H  H15  1  0.16394000  0.47300000  0.40891000  1.0
  H  H16  1  0.29016000  0.77599000  0.79471000  1.0
  H  H17  1  0.70984000  0.27599000  0.70529000  1.0
  H  H18  1  0.70984000  0.22401000  0.20529000  1.0
  H  H19  1  0.29016000  0.72401000  0.29471000  1.0
  H  H20  1  0.41111000  0.84222000  0.88479000  1.0
  H  H21  1  0.58889000  0.34222000  0.61522000  1.0
  H  H22  1  0.58890000  0.15778000  0.11521000  1.0
  H  H23  1  0.41110000  0.65778000  0.38478000  1.0
  H  H24  1  0.35175000  0.91445000  0.95089000  1.0
  H  H25  1  0.64825000  0.41445000  0.54912000  1.0
  H  H26  1  0.64825000  0.08555000  0.04911000  1.0
  H  H27  1  0.35175000  0.58555000  0.45089000  1.0
  H  H28  1  0.44698000  0.95933000  0.77921000  1.0
  H  H29  1  0.55302000  0.45933000  0.72079000  1.0
  H  H30  1  0.55302000  0.04067000  0.22079000  1.0
  H  H31  1  0.44698000  0.54067000  0.27921000  1.0
  H  H32  1  0.52313000  0.30685000  0.81930000  1.0
  H  H33  1  0.47686000  0.80685000  0.68070000  1.0
  H  H34  1  0.47685000  0.69315000  0.18070000  1.0
  H  H35  1  0.52314000  0.19315000  0.31930000  1.0
  H  H36  1  0.39511000  0.10697000  0.97174000  1.0
  H  H37  1  0.60490000  0.60697000  0.52826000  1.0
  H  H38  1  0.60489000  0.89303000  0.02826000  1.0
  H  H39  1  0.39510000  0.39303000  0.47174000  1.0
  H  H40  1  0.70249000  0.55039000  0.14311000  1.0
  H  H41  1  0.29751000  0.05039000  0.35688000  1.0
  H  H42  1  0.29750000  0.44962000  0.85688000  1.0
  H  H43  1  0.70250000  0.94961000  0.64311000  1.0
  H  H44  1  0.92463000  0.56913000  0.13954000  1.0
  H  H45  1  0.07537000  0.06913000  0.36045000  1.0
  H  H46  1  0.07536000  0.43088000  0.86045000  1.0
  H  H47  1  0.92463000  0.93086000  0.63955000  1.0
  H  H48  1  0.89056000  0.26171000  0.02169000  1.0
  H  H49  1  0.10944000  0.76172000  0.47831000  1.0
  H  H50  1  0.10944000  0.73830000  0.97831000  1.0
  H  H51  1  0.89057000  0.23828000  0.52170000  1.0
  H  H52  1  0.66928000  0.26386000  0.02470000  1.0
  H  H53  1  0.33072000  0.76386000  0.47530000  1.0
  H  H54  1  0.33071000  0.73614000  0.97530000  1.0
  H  H55  1  0.66929000  0.23613000  0.52471000  1.0
  H  H56  1  0.09091000  0.59010000  0.10284000  1.0
  H  H57  1  0.90909000  0.09011000  0.39716000  1.0
  H  H58  1  0.90908000  0.40990000  0.89716000  1.0
  H  H59  1  0.09092000  0.90989000  0.60284000  1.0
  H  H60  1  0.31678000  0.57847000  0.10400000  1.0
  H  H61  1  0.68321000  0.07848000  0.39600000  1.0
  H  H62  1  0.68321000  0.42153000  0.89600000  1.0
  H  H63  1  0.31679000  0.92152000  0.60400000  1.0
  H  H64  1  0.30080000  0.23919000  0.07081000  1.0
  H  H65  1  0.69921000  0.73919000  0.42919000  1.0
  H  H66  1  0.69920000  0.76082000  0.92920000  1.0
  H  H67  1  0.30081000  0.26081000  0.57081000  1.0
  H  H68  1  0.07731000  0.23278000  0.07193000  1.0
  H  H69  1  0.92270000  0.73278000  0.42807000  1.0
  H  H70  1  0.92269000  0.76722000  0.92808000  1.0
  H  H71  1  0.07732000  0.26722000  0.57194000  1.0
  C  C72  1  0.07820000  0.73139000  0.69837000  1.0
  C  C73  1  0.92182000  0.23139000  0.80163000  1.0
  C  C74  1  0.92180000  0.26862000  0.30163000  1.0
  C  C75  1  0.07819000  0.76861000  0.19836000  1.0
  C  C76  1  0.09443000  0.81179000  0.76033000  1.0
  C  C77  1  0.90558000  0.31179000  0.73968000  1.0
  C  C78  1  0.90557000  0.18821000  0.23967000  1.0
  C  C79  1  0.09443000  0.68821000  0.26032000  1.0
  C  C80  1  0.99829000  0.87606000  0.77564000  1.0
  C  C81  1  0.00171000  0.37606000  0.72436000  1.0
  C  C82  1  0.00171000  0.12393000  0.22436000  1.0
  C  C83  1  0.99829000  0.62394000  0.27564000  1.0
  C  C84  1  0.02003000  0.95304000  0.83019000  1.0
  C  C85  1  0.97996000  0.45304000  0.66981000  1.0
  C  C86  1  0.97997000  0.04696000  0.16981000  1.0
  C  C87  1  0.02003000  0.54696000  0.33018000  1.0
  C  C88  1  0.13846000  0.96491000  0.86824000  1.0
  C  C89  1  0.86154000  0.46491000  0.63177000  1.0
  C  C90  1  0.86154000  0.03509000  0.13176000  1.0
  C  C91  1  0.13846000  0.53509000  0.36823000  1.0
  C  C92  1  0.21067000  0.82445000  0.80217000  1.0
  C  C93  1  0.78933000  0.32445000  0.69783000  1.0
  C  C94  1  0.78933000  0.17555000  0.19783000  1.0
  C  C95  1  0.21067000  0.67555000  0.30217000  1.0
  C  C96  1  0.35795000  0.91456000  0.89588000  1.0
  C  C97  1  0.64205000  0.41456000  0.60413000  1.0
  C  C98  1  0.64205000  0.08544000  0.10412000  1.0
  C  C99  1  0.35795000  0.58544000  0.39587000  1.0
  C  C100  1  0.41277000  0.02171000  0.87708000  1.0
  C  C101  1  0.58724000  0.52171000  0.62292000  1.0
  C  C102  1  0.58724000  0.97829000  0.12292000  1.0
  C  C103  1  0.41276000  0.47829000  0.37708000  1.0
  C  C104  1  0.44985000  0.03125000  0.81335000  1.0
  C  C105  1  0.55014000  0.53125000  0.68665000  1.0
  C  C106  1  0.55015000  0.96875000  0.18665000  1.0
  C  C107  1  0.44985000  0.46875000  0.31335000  1.0
  C  C108  1  0.48947000  0.13379000  0.79245000  1.0
  C  C109  1  0.51052000  0.63379000  0.70755000  1.0
  C  C110  1  0.51053000  0.86621000  0.20755000  1.0
  C  C111  1  0.48947000  0.36621000  0.29245000  1.0
  C  C112  1  0.49517000  0.22626000  0.83623000  1.0
  C  C113  1  0.50483000  0.72626000  0.66377000  1.0
  C  C114  1  0.50483000  0.77374000  0.16377000  1.0
  C  C115  1  0.49517000  0.27374000  0.33623000  1.0
  C  C116  1  0.46396000  0.21575000  0.90139000  1.0
  C  C117  1  0.53604000  0.71575000  0.59861000  1.0
  C  C118  1  0.53604000  0.78425000  0.09861000  1.0
  C  C119  1  0.46396000  0.28425000  0.40139000  1.0
  C  C120  1  0.42156000  0.11337000  0.92132000  1.0
  C  C121  1  0.57844000  0.61337000  0.57868000  1.0
  C  C122  1  0.57844000  0.88663000  0.07868000  1.0
  C  C123  1  0.42156000  0.38662000  0.42132000  1.0
  C  C124  1  0.51719000  0.14634000  0.72114000  1.0
  C  C125  1  0.48280000  0.64635000  0.77886000  1.0
  C  C126  1  0.48281000  0.85366000  0.27886000  1.0
  C  C127  1  0.51719000  0.35365000  0.22114000  1.0
  C  C128  1  0.47739000  0.31337000  0.94990000  1.0
  C  C129  1  0.52261000  0.81337000  0.55010000  1.0
  C  C130  1  0.52260000  0.68663000  0.05010000  1.0
  C  C131  1  0.47740000  0.18663000  0.44990000  1.0
  C  C132  1  0.74864000  0.48899000  0.11662000  1.0
  C  C133  1  0.25136000  0.98898000  0.38337000  1.0
  C  C134  1  0.25136000  0.51102000  0.88337000  1.0
  C  C135  1  0.74864000  0.01101000  0.61663000  1.0
  C  C136  1  0.87336000  0.49646000  0.11598000  1.0
  C  C137  1  0.12663000  0.99646000  0.38401000  1.0
  C  C138  1  0.12663000  0.50355000  0.88402000  1.0
  C  C139  1  0.87337000  0.00353000  0.61599000  1.0
  C  C140  1  0.92991000  0.41207000  0.08427000  1.0
  C  C141  1  0.07009000  0.91208000  0.41573000  1.0
  C  C142  1  0.07008000  0.58793000  0.91574000  1.0
  C  C143  1  0.92992000  0.08792000  0.58427000  1.0
  C  C144  1  0.85441000  0.32677000  0.05060000  1.0
  C  C145  1  0.14559000  0.82678000  0.44940000  1.0
  C  C146  1  0.14558000  0.67323000  0.94940000  1.0
  C  C147  1  0.85442000  0.17322000  0.55061000  1.0
  C  C148  1  0.73014000  0.32758000  0.05154000  1.0
  C  C149  1  0.26986000  0.82758000  0.44846000  1.0
  C  C150  1  0.26985000  0.67243000  0.94846000  1.0
  C  C151  1  0.73015000  0.17241000  0.55154000  1.0
  C  C152  1  0.06329000  0.41182000  0.08592000  1.0
  C  C153  1  0.93671000  0.91182000  0.41408000  1.0
  C  C154  1  0.93671000  0.58819000  0.91409000  1.0
  C  C155  1  0.06330000  0.08818000  0.58593000  1.0
  C  C156  1  0.13329000  0.50985000  0.09617000  1.0
  C  C157  1  0.86671000  0.00985000  0.40383000  1.0
  C  C158  1  0.86671000  0.49015000  0.90384000  1.0
  C  C159  1  0.13330000  0.99015000  0.59617000  1.0
  C  C160  1  0.25851000  0.50485000  0.09668000  1.0
  C  C161  1  0.74149000  0.00485000  0.40332000  1.0
  C  C162  1  0.74148000  0.49516000  0.90332000  1.0
  C  C163  1  0.25852000  0.99514000  0.59667000  1.0
  C  C164  1  0.25013000  0.31431000  0.07796000  1.0
  C  C165  1  0.74987000  0.81432000  0.42204000  1.0
  C  C166  1  0.74986000  0.68569000  0.92204000  1.0
  C  C167  1  0.25014000  0.18568000  0.57797000  1.0
  C  C168  1  0.12520000  0.31231000  0.07774000  1.0
  C  C169  1  0.87480000  0.81231000  0.42226000  1.0
  C  C170  1  0.87479000  0.68769000  0.92226000  1.0
  C  C171  1  0.12521000  0.18769000  0.57775000  1.0
  N  N172  1  0.23064000  0.89996000  0.85425000  1.0
  N  N173  1  0.76936000  0.39996000  0.64576000  1.0
  N  N174  1  0.76936000  0.10004000  0.14575000  1.0
  N  N175  1  0.23064000  0.60004000  0.35424000  1.0
  N  N176  1  0.67753000  0.40577000  0.08498000  1.0
  N  N177  1  0.32247000  0.90577000  0.41501000  1.0
  N  N178  1  0.32247000  0.59424000  0.91501000  1.0
  N  N179  1  0.67753000  0.09423000  0.58499000  1.0
  N  N180  1  0.31563000  0.40922000  0.08663000  1.0
  N  N181  1  0.68436000  0.90922000  0.41337000  1.0
  N  N182  1  0.68436000  0.59079000  0.91337000  1.0
  N  N183  1  0.31565000  0.09078000  0.58663000  1.0
  O  O184  1  0.15246000  0.65093000  0.70495000  1.0
  O  O185  1  0.84756000  0.15092000  0.79505000  1.0
  O  O186  1  0.84754000  0.34907000  0.29504000  1.0
  O  O187  1  0.15246000  0.84907000  0.20494000  1.0
  O  O188  1  0.99292000  0.75696000  0.64750000  1.0
  O  O189  1  0.00708000  0.25697000  0.85250000  1.0
  O  O190  1  0.00708000  0.24304000  0.35250000  1.0
  O  O191  1  0.99292000  0.74303000  0.14750000  1.0
  O  O192  1  0.52523000  0.05487000  0.68788000  1.0
  O  O193  1  0.47477000  0.55487000  0.81212000  1.0
  O  O194  1  0.47478000  0.94514000  0.31212000  1.0
  O  O195  1  0.52522000  0.44513000  0.18788000  1.0
  O  O196  1  0.52428000  0.24230000  0.69648000  1.0
  O  O197  1  0.47571000  0.74230000  0.80351000  1.0
  O  O198  1  0.47572000  0.75770000  0.30351000  1.0
  O  O199  1  0.52428000  0.25770000  0.19649000  1.0
  O  O200  1  0.45808000  0.29257000  0.01134000  1.0
  O  O201  1  0.54192000  0.79257000  0.48866000  1.0
  O  O202  1  0.54191000  0.70743000  0.98866000  1.0
  O  O203  1  0.45809000  0.20743000  0.51134000  1.0
  O  O204  1  0.51083000  0.40522000  0.93012000  1.0
  O  O205  1  0.48917000  0.90522000  0.56988000  1.0
  O  O206  1  0.48916000  0.59478000  0.06988000  1.0
  O  O207  1  0.51083000  0.09478000  0.43012000  1.0
