# generated using pymatgen
data_MnH12C10(N3O4)2
_symmetry_space_group_name_H-M   'P 1'
_cell_length_a   7.32648000
_cell_length_b   11.85100000
_cell_length_c   13.32860000
_cell_angle_alpha   63.94000000
_cell_angle_beta   86.94180000
_cell_angle_gamma   89.98350000
_symmetry_Int_Tables_number   1
_chemical_formula_structural   MnH12C10(N3O4)2
_chemical_formula_sum   'Mn2 H24 C20 N12 O16'
_cell_volume   1037.78975809
_cell_formula_units_Z   2
loop_
 _symmetry_equiv_pos_site_id
 _symmetry_equiv_pos_as_xyz
  1  'x, y, z'
loop_
 _atom_site_type_symbol
 _atom_site_label
 _atom_site_symmetry_multiplicity
 _atom_site_fract_x
 _atom_site_fract_y
 _atom_site_fract_z
 _atom_site_occupancy
  Mn  Mn0  1  0.50014000  0.50008000  0.49997000  1.0
  Mn  Mn1  1  0.00360000  0.99971000  0.49996000  1.0
  H  H2  1  0.55004000  0.29048000  0.42061000  1.0
  H  H3  1  0.94632000  0.70999000  0.57985000  1.0
  H  H4  1  0.45012000  0.70954000  0.57935000  1.0
  H  H5  1  0.04883000  0.28987000  0.42068000  1.0
  H  H6  1  0.54702000  0.26875000  0.24302000  1.0
  H  H7  1  0.95599000  0.51128000  0.75649000  1.0
  H  H8  1  0.45306000  0.73127000  0.75697000  1.0
  H  H9  1  0.04642000  0.48845000  0.24346000  1.0
  H  H10  1  0.46197000  0.66805000  0.06969000  1.0
  H  H11  1  0.04114000  0.73686000  0.93188000  1.0
  H  H12  1  0.53806000  0.33196000  0.93029000  1.0
  H  H13  1  0.95978000  0.26321000  0.06793000  1.0
  H  H14  1  0.46900000  0.67430000  0.25548000  1.0
  H  H15  1  0.02798000  0.92798000  0.74693000  1.0
  H  H16  1  0.53104000  0.32572000  0.74450000  1.0
  H  H17  1  0.96741000  0.07205000  0.25336000  1.0
  H  H18  1  0.60563000  0.75194000  0.40576000  1.0
  H  H19  1  0.89405000  0.15777000  0.59555000  1.0
  H  H20  1  0.39439000  0.24822000  0.59420000  1.0
  H  H21  1  0.10659000  0.84254000  0.40449000  1.0
  H  H22  1  0.78832000  0.67921000  0.40229000  1.0
  H  H23  1  0.71263000  0.08106000  0.59919000  1.0
  H  H24  1  0.21176000  0.32107000  0.59764000  1.0
  H  H25  1  0.29023000  0.91799000  0.40044000  1.0
  C  C26  1  0.53020000  0.37204000  0.34165000  1.0
  C  C27  1  0.96815000  0.71253000  0.65905000  1.0
  C  C28  1  0.46987000  0.62799000  0.65833000  1.0
  C  C29  1  0.02926000  0.28728000  0.34125000  1.0
  C  C30  1  0.52915000  0.36010000  0.24264000  1.0
  C  C31  1  0.97302000  0.60200000  0.75744000  1.0
  C  C32  1  0.47089000  0.63992000  0.75734000  1.0
  C  C33  1  0.02875000  0.39777000  0.24251000  1.0
  C  C34  1  0.50556000  0.46726000  0.14214000  1.0
  C  C35  1  0.99724000  0.60926000  0.85791000  1.0
  C  C36  1  0.49444000  0.53276000  0.85782000  1.0
  C  C37  1  0.00462000  0.39055000  0.14205000  1.0
  C  C38  1  0.48157000  0.58329000  0.14612000  1.0
  C  C39  1  0.02047000  0.72844000  0.85518000  1.0
  C  C40  1  0.51845000  0.41672000  0.85386000  1.0
  C  C41  1  0.98046000  0.27149000  0.14470000  1.0
  C  C42  1  0.48442000  0.58658000  0.24838000  1.0
  C  C43  1  0.01419000  0.83343000  0.75344000  1.0
  C  C44  1  0.51561000  0.41343000  0.75159000  1.0
  C  C45  1  0.98305000  0.16652000  0.24674000  1.0
  N  N46  1  0.50872000  0.48321000  0.34541000  1.0
  N  N47  1  0.98643000  0.82686000  0.65651000  1.0
  N  N48  1  0.49133000  0.51680000  0.65456000  1.0
  N  N49  1  0.00617000  0.17320000  0.34407000  1.0
  N  N50  1  0.50858000  0.44939000  0.04481000  1.0
  N  N51  1  0.99697000  0.49412000  0.95491000  1.0
  N  N52  1  0.49141000  0.55063000  0.95515000  1.0
  N  N53  1  0.00526000  0.50578000  0.04503000  1.0
  N  N54  1  0.12521000  0.62976000  0.40763000  1.0
  N  N55  1  0.37460000  0.03785000  0.59289000  1.0
  N  N56  1  0.87482000  0.37070000  0.59234000  1.0
  N  N57  1  0.62601000  0.96201000  0.40708000  1.0
  O  O58  1  0.27494000  0.63771000  0.44964000  1.0
  O  O59  1  0.22549000  0.08804000  0.55019000  1.0
  O  O60  1  0.72518000  0.36244000  0.55038000  1.0
  O  O61  1  0.77613000  0.91304000  0.44836000  1.0
  O  O62  1  0.08780000  0.53940000  0.38843000  1.0
  O  O63  1  0.41071000  0.92817000  0.61253000  1.0
  O  O64  1  0.91180000  0.46121000  0.61144000  1.0
  O  O65  1  0.58760000  0.07118000  0.38806000  1.0
  O  O66  1  0.01450000  0.72052000  0.38580000  1.0
  O  O67  1  0.48550000  0.10665000  0.61490000  1.0
  O  O68  1  0.98583000  0.28014000  0.61423000  1.0
  O  O69  1  0.51528000  0.89245000  0.38549000  1.0
  O  O70  1  0.65273000  0.67005000  0.41242000  1.0
  O  O71  1  0.84815000  0.08194000  0.58968000  1.0
  O  O72  1  0.34740000  0.33004000  0.58755000  1.0
  O  O73  1  0.15456000  0.91802000  0.41029000  1.0
