# generated using pymatgen
data_TbH8C8NO8
_symmetry_space_group_name_H-M   'P 1'
_cell_length_a   9.93786000
_cell_length_b   10.12921036
_cell_length_c   12.73560000
_cell_angle_alpha   71.50812305
_cell_angle_beta   90.00010000
_cell_angle_gamma   60.62289589
_symmetry_Int_Tables_number   1
_chemical_formula_structural   TbH8C8NO8
_chemical_formula_sum   'Tb4 H32 C32 N4 O32'
_cell_volume   1040.52074706
_cell_formula_units_Z   4
loop_
 _symmetry_equiv_pos_site_id
 _symmetry_equiv_pos_as_xyz
  1  'x, y, z'
loop_
 _atom_site_type_symbol
 _atom_site_label
 _atom_site_symmetry_multiplicity
 _atom_site_fract_x
 _atom_site_fract_y
 _atom_site_fract_z
 _atom_site_occupancy
  Tb  Tb0  1  0.21147000  0.64708000  0.42651000  1.0
  Tb  Tb1  1  0.85856000  0.35292000  0.07349000  1.0
  Tb  Tb2  1  0.78852000  0.35292000  0.57350000  1.0
  Tb  Tb3  1  0.14145000  0.64708000  0.92651000  1.0
  H  H4  1  0.77815000  0.96031000  0.63558000  1.0
  H  H5  1  0.73846000  0.03970000  0.86441000  1.0
  H  H6  1  0.22184000  0.03970000  0.36441000  1.0
  H  H7  1  0.26154000  0.96030000  0.13558000  1.0
  H  H8  1  0.27601000  0.16918000  0.59280000  1.0
  H  H9  1  0.44520000  0.83082000  0.90719000  1.0
  H  H10  1  0.72399000  0.83082000  0.40719000  1.0
  H  H11  1  0.55480000  0.16918000  0.09280000  1.0
  H  H12  1  0.80589000  0.68655000  0.68279000  1.0
  H  H13  1  0.49244000  0.31345000  0.81721000  1.0
  H  H14  1  0.19411000  0.31345000  0.31721000  1.0
  H  H15  1  0.50756000  0.68655000  0.18279000  1.0
  H  H16  1  0.32457000  0.88672000  0.64255000  1.0
  H  H17  1  0.21130000  0.11327000  0.85745000  1.0
  H  H18  1  0.67544000  0.11327000  0.35745000  1.0
  H  H19  1  0.78870000  0.88673000  0.14255000  1.0
  H  H20  1  0.39746000  0.39721000  0.31715000  1.0
  H  H21  1  0.79467000  0.60279000  0.18284000  1.0
  H  H22  1  0.60254000  0.60279000  0.68284000  1.0
  H  H23  1  0.20533000  0.39721000  0.81715000  1.0
  H  H24  1  0.35162000  0.56960000  0.22504000  1.0
  H  H25  1  0.92122000  0.43040000  0.27496000  1.0
  H  H26  1  0.64838000  0.43040000  0.77496000  1.0
  H  H27  1  0.07878000  0.56960000  0.72504000  1.0
  H  H28  1  0.22044000  0.71260000  0.64463000  1.0
  H  H29  1  0.93303000  0.28740000  0.85537000  1.0
  H  H30  1  0.77956000  0.28740000  0.35537000  1.0
  H  H31  1  0.06696000  0.71261000  0.14463000  1.0
  H  H32  1  0.40114000  0.58971000  0.64262000  1.0
  H  H33  1  0.99085000  0.41029000  0.85738000  1.0
  H  H34  1  0.59885000  0.41030000  0.35738000  1.0
  H  H35  1  0.00915000  0.58971000  0.14262000  1.0
  C  C36  1  0.97160000  0.03006000  0.30018000  1.0
  C  C37  1  0.00166000  0.96993000  0.19983000  1.0
  C  C38  1  0.02841000  0.96993000  0.69983000  1.0
  C  C39  1  0.99835000  0.03006000  0.80018000  1.0
  C  C40  1  0.50252000  0.25144000  0.58276000  1.0
  C  C41  1  0.75396000  0.74856000  0.91724000  1.0
  C  C42  1  0.49748000  0.74856000  0.41724000  1.0
  C  C43  1  0.24605000  0.25144000  0.08276000  1.0
  C  C44  1  0.52414000  0.08555000  0.61189000  1.0
  C  C45  1  0.60970000  0.91445000  0.88811000  1.0
  C  C46  1  0.47585000  0.91445000  0.38812000  1.0
  C  C47  1  0.39031000  0.08555000  0.11188000  1.0
  C  C48  1  0.67520000  0.94834000  0.63743000  1.0
  C  C49  1  0.62354000  0.05166000  0.86256000  1.0
  C  C50  1  0.32480000  0.05166000  0.36256000  1.0
  C  C51  1  0.37646000  0.94834000  0.13743000  1.0
  C  C52  1  0.39515000  0.06484000  0.61351000  1.0
  C  C53  1  0.46000000  0.93515000  0.88649000  1.0
  C  C54  1  0.60486000  0.93515000  0.38648000  1.0
  C  C55  1  0.54000000  0.06485000  0.11351000  1.0
  C  C56  1  0.69116000  0.79693000  0.66371000  1.0
  C  C57  1  0.48809000  0.20307000  0.83629000  1.0
  C  C58  1  0.30884000  0.20307000  0.33629000  1.0
  C  C59  1  0.51191000  0.79693000  0.16371000  1.0
  C  C60  1  0.42183000  0.90836000  0.64154000  1.0
  C  C61  1  0.33018000  0.09164000  0.85845000  1.0
  C  C62  1  0.57817000  0.09164000  0.35845000  1.0
  C  C63  1  0.66982000  0.90836000  0.14154000  1.0
  C  C64  1  0.99699000  0.51566000  0.55597000  1.0
  C  C65  1  0.51266000  0.48434000  0.94403000  1.0
  C  C66  1  0.00301000  0.48434000  0.44403000  1.0
  C  C67  1  0.48735000  0.51566000  0.05597000  1.0
  N  N68  1  0.56687000  0.77722000  0.66631000  1.0
  N  N69  1  0.34409000  0.22277000  0.83369000  1.0
  N  N70  1  0.43314000  0.22277000  0.33369000  1.0
  N  N71  1  0.65591000  0.77723000  0.16631000  1.0
  O  O72  1  0.01682000  0.92354000  0.39798000  1.0
  O  O73  1  0.94035000  0.07646000  0.10202000  1.0
  O  O74  1  0.98318000  0.07646000  0.60202000  1.0
  O  O75  1  0.05965000  0.92354000  0.89798000  1.0
  O  O76  1  0.36710000  0.37328000  0.53395000  1.0
  O  O77  1  0.74039000  0.62672000  0.96605000  1.0
  O  O78  1  0.63290000  0.62672000  0.46605000  1.0
  O  O79  1  0.25962000  0.37328000  0.03395000  1.0
  O  O80  1  0.04986000  0.60369000  0.56493000  1.0
  O  O81  1  0.65356000  0.39630000  0.93508000  1.0
  O  O82  1  0.95014000  0.39630000  0.43507000  1.0
  O  O83  1  0.34645000  0.60369000  0.06493000  1.0
  O  O84  1  0.08520000  0.81627000  0.22671000  1.0
  O  O85  1  0.90148000  0.18373000  0.27329000  1.0
  O  O86  1  0.91479000  0.18373000  0.77329000  1.0
  O  O87  1  0.09853000  0.81627000  0.72671000  1.0
  O  O88  1  0.06026000  0.54870000  0.37053000  1.0
  O  O89  1  0.60897000  0.45130000  0.12947000  1.0
  O  O90  1  0.93973000  0.45130000  0.62947000  1.0
  O  O91  1  0.39104000  0.54870000  0.87053000  1.0
  O  O92  1  0.37868000  0.74187000  0.39094000  1.0
  O  O93  1  0.12055000  0.25814000  0.10906000  1.0
  O  O94  1  0.62131000  0.25814000  0.60906000  1.0
  O  O95  1  0.87945000  0.74187000  0.89093000  1.0
  O  O96  1  0.37637000  0.51257000  0.30763000  1.0
  O  O97  1  0.88894000  0.48744000  0.19237000  1.0
  O  O98  1  0.62362000  0.48744000  0.69238000  1.0
  O  O99  1  0.11106000  0.51256000  0.80763000  1.0
  O  O100  1  0.29318000  0.65970000  0.59800000  1.0
  O  O101  1  0.95288000  0.34030000  0.90200000  1.0
  O  O102  1  0.70682000  0.34030000  0.40201000  1.0
  O  O103  1  0.04712000  0.65970000  0.09799000  1.0
