# generated using pymatgen
data_Cu2SiH16C7(SCl)2
_symmetry_space_group_name_H-M   'P 1'
_cell_length_a   6.46285000
_cell_length_b   7.79120000
_cell_length_c   13.18840000
_cell_angle_alpha   73.99960000
_cell_angle_beta   88.66730000
_cell_angle_gamma   88.77670000
_symmetry_Int_Tables_number   1
_chemical_formula_structural   Cu2SiH16C7(SCl)2
_chemical_formula_sum   'Cu4 Si2 H32 C14 S4 Cl4'
_cell_volume   638.10381242
_cell_formula_units_Z   2
loop_
 _symmetry_equiv_pos_site_id
 _symmetry_equiv_pos_as_xyz
  1  'x, y, z'
loop_
 _atom_site_type_symbol
 _atom_site_label
 _atom_site_symmetry_multiplicity
 _atom_site_fract_x
 _atom_site_fract_y
 _atom_site_fract_z
 _atom_site_occupancy
  Cu  Cu0  1  0.48655000  0.42263000  0.10622000  1.0
  Cu  Cu1  1  0.51346000  0.57737000  0.89378000  1.0
  Cu  Cu2  1  0.95981000  0.41347000  0.13181000  1.0
  Cu  Cu3  1  0.04019000  0.58652000  0.86819000  1.0
  Si  Si4  1  0.31191000  0.28529000  0.39534000  1.0
  Si  Si5  1  0.68808000  0.71472000  0.60466000  1.0
  H  H6  1  0.26286000  0.61314000  0.36110000  1.0
  H  H7  1  0.73713000  0.38686000  0.63890000  1.0
  H  H8  1  0.41030000  0.90702000  0.19835000  1.0
  H  H9  1  0.58969000  0.09298000  0.80167000  1.0
  H  H10  1  0.48751000  0.86650000  0.07701000  1.0
  H  H11  1  0.51249000  0.13350000  0.92301000  1.0
  H  H12  1  0.13778000  0.77736000  0.04639000  1.0
  H  H13  1  0.86223000  0.22262000  0.95361000  1.0
  H  H14  1  0.13024000  0.98951000  0.07125000  1.0
  H  H15  1  0.86976000  0.01046000  0.92874000  1.0
  H  H16  1  0.83896000  0.81408000  0.16277000  1.0
  H  H17  1  0.16105000  0.18589000  0.83721000  1.0
  H  H18  1  0.00866000  0.85056000  0.25792000  1.0
  H  H19  1  0.99128000  0.14945000  0.74207000  1.0
  H  H20  1  0.68040000  0.26049000  0.34213000  1.0
  H  H21  1  0.31959000  0.73954000  0.65787000  1.0
  H  H22  1  0.62868000  0.12454000  0.47197000  1.0
  H  H23  1  0.37133000  0.87549000  0.52803000  1.0
  H  H24  1  0.65972000  0.35866000  0.44909000  1.0
  H  H25  1  0.34027000  0.64138000  0.55090000  1.0
  H  H26  1  0.22805000  0.35772000  0.56583000  1.0
  H  H27  1  0.77196000  0.64227000  0.43418000  1.0
  H  H28  1  0.19037000  0.12901000  0.57600000  1.0
  H  H29  1  0.80964000  0.87099000  0.42400000  1.0
  H  H30  1  0.00418000  0.29114000  0.51147000  1.0
  H  H31  1  0.99582000  0.70885000  0.48853000  1.0
  H  H32  1  0.04593000  0.12963000  0.31968000  1.0
  H  H33  1  0.95407000  0.87037000  0.68032000  1.0
  H  H34  1  0.25425000  0.98367000  0.37534000  1.0
  H  H35  1  0.74576000  0.01633000  0.62466000  1.0
  H  H36  1  0.28642000  0.14177000  0.25007000  1.0
  H  H37  1  0.71358000  0.85823000  0.74993000  1.0
  C  C38  1  0.26108000  0.52461000  0.30854000  1.0
  C  C39  1  0.73890000  0.47539000  0.69146000  1.0
  C  C40  1  0.37978000  0.82522000  0.14467000  1.0
  C  C41  1  0.62022000  0.17478000  0.85535000  1.0
  C  C42  1  0.15737000  0.84589000  0.10793000  1.0
  C  C43  1  0.84265000  0.15410000  0.89208000  1.0
  C  C44  1  0.99478000  0.78477000  0.19466000  1.0
  C  C45  1  0.00522000  0.21523000  0.80532000  1.0
  C  C46  1  0.59721000  0.25560000  0.41643000  1.0
  C  C47  1  0.40279000  0.74443000  0.58357000  1.0
  C  C48  1  0.17073000  0.26504000  0.52377000  1.0
  C  C49  1  0.82927000  0.73495000  0.47623000  1.0
  C  C50  1  0.21466000  0.12016000  0.32885000  1.0
  C  C51  1  0.78534000  0.87984000  0.67115000  1.0
  S  S52  1  0.00058000  0.54523000  0.25693000  1.0
  S  S53  1  0.99942000  0.45477000  0.74305000  1.0
  S  S54  1  0.46658000  0.59882000  0.21154000  1.0
  S  S55  1  0.53342000  0.40118000  0.78846000  1.0
  Cl  Cl56  1  0.21981000  0.34698000  0.01825000  1.0
  Cl  Cl57  1  0.78020000  0.65301000  0.98175000  1.0
  Cl  Cl58  1  0.72105000  0.19026000  0.15256000  1.0
  Cl  Cl59  1  0.27895000  0.80973000  0.84743000  1.0
