# generated using pymatgen
data_CdH3C5N2ClO2
_symmetry_space_group_name_H-M   'P 1'
_cell_length_a   12.80882433
_cell_length_b   12.80880000
_cell_length_c   12.80880000
_cell_angle_alpha   95.74720000
_cell_angle_beta   116.73936704
_cell_angle_gamma   116.73906704
_symmetry_Int_Tables_number   1
_chemical_formula_structural   CdH3C5N2ClO2
_chemical_formula_sum   'Cd8 H24 C40 N16 Cl8 O16'
_cell_volume   1550.76656350
_cell_formula_units_Z   8
loop_
 _symmetry_equiv_pos_site_id
 _symmetry_equiv_pos_as_xyz
  1  'x, y, z'
loop_
 _atom_site_type_symbol
 _atom_site_label
 _atom_site_symmetry_multiplicity
 _atom_site_fract_x
 _atom_site_fract_y
 _atom_site_fract_z
 _atom_site_occupancy
  Cd  Cd0  1  0.00000000  0.85962000  0.85961000  1.0
  Cd  Cd1  1  0.00000000  0.14039000  0.14039000  1.0
  Cd  Cd2  1  0.00000000  0.35962000  0.35962000  1.0
  Cd  Cd3  1  0.00000000  0.64038000  0.64038000  1.0
  Cd  Cd4  1  0.50000000  0.59393000  0.90607000  1.0
  Cd  Cd5  1  0.50000000  0.40607000  0.09393000  1.0
  Cd  Cd6  1  0.68786000  0.09393000  0.59393000  1.0
  Cd  Cd7  1  0.31214000  0.90607000  0.40607000  1.0
  H  H8  1  0.71871000  0.76227000  0.56758000  1.0
  H  H9  1  0.28129000  0.84887000  0.04356000  1.0
  H  H10  1  0.19469000  0.43242000  0.15113000  1.0
  H  H11  1  0.80531000  0.95644000  0.23773000  1.0
  H  H12  1  0.19469000  0.26227000  0.54356000  1.0
  H  H13  1  0.80531000  0.34887000  0.06758000  1.0
  H  H14  1  0.28129000  0.93242000  0.73773000  1.0
  H  H15  1  0.71871000  0.45644000  0.65113000  1.0
  H  H16  1  0.45220000  0.62987000  0.45752000  1.0
  H  H17  1  0.54780000  0.00533000  0.17767000  1.0
  H  H18  1  0.17234000  0.54247000  0.99467000  1.0
  H  H19  1  0.82765000  0.82233000  0.37012000  1.0
  H  H20  1  0.17235000  0.12988000  0.67767000  1.0
  H  H21  1  0.82766000  0.50533000  0.95753000  1.0
  H  H22  1  0.54779000  0.04247000  0.87012000  1.0
  H  H23  1  0.45221000  0.32234000  0.49468000  1.0
  H  H24  1  0.35974000  0.54912000  0.58943000  1.0
  H  H25  1  0.64026000  0.22968000  0.18938000  1.0
  H  H26  1  0.95969000  0.41057000  0.77031000  1.0
  H  H27  1  0.04030000  0.81061000  0.45088000  1.0
  H  H28  1  0.95969000  0.04912000  0.68938000  1.0
  H  H29  1  0.04031000  0.72969000  0.08943000  1.0
  H  H30  1  0.64026000  0.91057000  0.95088000  1.0
  H  H31  1  0.35974000  0.31062000  0.27032000  1.0
  C  C32  1  0.79760000  0.76053000  0.94975000  1.0
  C  C33  1  0.20240000  0.15216000  0.96294000  1.0
  C  C34  1  0.81078000  0.05024000  0.84785000  1.0
  C  C35  1  0.18922000  0.03707000  0.23946000  1.0
  C  C36  1  0.81078000  0.26054000  0.46293000  1.0
  C  C37  1  0.18922000  0.65215000  0.44976000  1.0
  C  C38  1  0.20240000  0.55025000  0.73947000  1.0
  C  C39  1  0.79760000  0.53706000  0.34784000  1.0
  C  C40  1  0.69852000  0.71578000  0.80629000  1.0
  C  C41  1  0.30148000  0.10777000  0.01727000  1.0
  C  C42  1  0.90949000  0.19371000  0.89223000  1.0
  C  C43  1  0.09051000  0.98274000  0.28422000  1.0
  C  C44  1  0.90949000  0.21578000  0.51726000  1.0
  C  C45  1  0.09051000  0.60777000  0.30630000  1.0
  C  C46  1  0.30148000  0.69371000  0.78422000  1.0
  C  C47  1  0.69852000  0.48274000  0.39223000  1.0
  C  C48  1  0.66852000  0.72636000  0.61726000  1.0
  C  C49  1  0.33148000  0.94874000  0.05784000  1.0
  C  C50  1  0.10910000  0.38274000  0.05126000  1.0
  C  C51  1  0.89090000  0.94216000  0.27364000  1.0
  C  C52  1  0.10910000  0.22636000  0.55784000  1.0
  C  C53  1  0.89090000  0.44874000  0.11726000  1.0
  C  C54  1  0.33148000  0.88274000  0.77364000  1.0
  C  C55  1  0.66852000  0.44216000  0.55126000  1.0
  C  C56  1  0.52324000  0.65304000  0.55725000  1.0
  C  C57  1  0.47676000  0.03401000  0.12980000  1.0
  C  C58  1  0.09579000  0.44275000  0.96599000  1.0
  C  C59  1  0.90421000  0.87020000  0.34696000  1.0
  C  C60  1  0.09579000  0.15304000  0.62980000  1.0
  C  C61  1  0.90421000  0.53401000  0.05725000  1.0
  C  C62  1  0.47676000  0.94275000  0.84696000  1.0
  C  C63  1  0.52324000  0.37020000  0.46599000  1.0
  C  C64  1  0.47231000  0.60892000  0.63012000  1.0
  C  C65  1  0.52769000  0.15781000  0.13661000  1.0
  C  C66  1  0.97880000  0.36988000  0.84219000  1.0
  C  C67  1  0.02120000  0.86339000  0.39108000  1.0
  C  C68  1  0.97880000  0.10892000  0.63661000  1.0
  C  C69  1  0.02120000  0.65781000  0.13012000  1.0
  C  C70  1  0.52769000  0.86988000  0.89108000  1.0
  C  C71  1  0.47231000  0.36339000  0.34219000  1.0
  N  N72  1  0.75504000  0.75564000  0.74078000  1.0
  N  N73  1  0.24496000  0.98574000  0.00061000  1.0
  N  N74  1  0.01487000  0.25922000  0.01427000  1.0
  N  N75  1  0.98514000  0.99940000  0.24436000  1.0
  N  N76  1  0.01487000  0.25565000  0.50061000  1.0
  N  N77  1  0.98513000  0.48573000  0.24078000  1.0
  N  N78  1  0.24496000  0.75922000  0.74436000  1.0
  N  N79  1  0.75504000  0.49939000  0.51426000  1.0
  N  N80  1  0.56006000  0.64083000  0.75418000  1.0
  N  N81  1  0.43994000  0.19412000  0.08077000  1.0
  N  N82  1  0.88665000  0.24582000  0.80588000  1.0
  N  N83  1  0.11335000  0.91923000  0.35917000  1.0
  N  N84  1  0.88665000  0.14083000  0.58077000  1.0
  N  N85  1  0.11335000  0.69412000  0.25418000  1.0
  N  N86  1  0.43994000  0.74582000  0.85917000  1.0
  N  N87  1  0.56006000  0.41923000  0.30588000  1.0
  Cl  Cl88  1  0.00000000  0.84807000  0.65193000  1.0
  Cl  Cl89  1  0.00000000  0.65193000  0.84807000  1.0
  Cl  Cl90  1  0.19613000  0.34806000  0.34806000  1.0
  Cl  Cl91  1  0.80386000  0.15193000  0.15193000  1.0
  Cl  Cl92  1  0.50000000  0.60991000  0.10991000  1.0
  Cl  Cl93  1  0.50000000  0.89009000  0.39009000  1.0
  Cl  Cl94  1  0.50000000  0.10991000  0.60991000  1.0
  Cl  Cl95  1  0.50000000  0.39009000  0.89009000  1.0
  O  O96  1  0.92856000  0.82111000  0.99667000  1.0
  O  O97  1  0.07144000  0.06811000  0.89255000  1.0
  O  O98  1  0.82445000  0.00334000  0.93190000  1.0
  O  O99  1  0.17555000  0.10744000  0.17888000  1.0
  O  O100  1  0.82445000  0.32112000  0.39255000  1.0
  O  O101  1  0.17555000  0.56810000  0.49666000  1.0
  O  O102  1  0.07144000  0.50333000  0.67889000  1.0
  O  O103  1  0.92856000  0.60745000  0.43189000  1.0
  O  O104  1  0.74240000  0.73509000  0.01205000  1.0
  O  O105  1  0.25760000  0.26965000  0.99269000  1.0
  O  O106  1  0.72304000  0.98795000  0.73035000  1.0
  O  O107  1  0.27696000  0.00731000  0.26491000  1.0
  O  O108  1  0.72304000  0.23509000  0.49269000  1.0
  O  O109  1  0.27696000  0.76965000  0.51206000  1.0
  O  O110  1  0.25760000  0.48795000  0.76491000  1.0
  O  O111  1  0.74240000  0.50731000  0.23035000  1.0
