# generated using pymatgen
data_ErH4C9N2ClO8
_symmetry_space_group_name_H-M   'P 1'
_cell_length_a   7.00112000
_cell_length_b   8.07229000
_cell_length_c   11.09292189
_cell_angle_alpha   73.91756509
_cell_angle_beta   72.62663332
_cell_angle_gamma   82.79950000
_symmetry_Int_Tables_number   1
_chemical_formula_structural   ErH4C9N2ClO8
_chemical_formula_sum   'Er2 H8 C18 N4 Cl2 O16'
_cell_volume   574.27979835
_cell_formula_units_Z   2
loop_
 _symmetry_equiv_pos_site_id
 _symmetry_equiv_pos_as_xyz
  1  'x, y, z'
loop_
 _atom_site_type_symbol
 _atom_site_label
 _atom_site_symmetry_multiplicity
 _atom_site_fract_x
 _atom_site_fract_y
 _atom_site_fract_z
 _atom_site_occupancy
  Er  Er0  1  0.91002000  0.32823000  0.94364000  1.0
  Er  Er1  1  0.08998000  0.67177000  0.05635000  1.0
  H  H2  1  0.28668000  0.83874000  0.25139000  1.0
  H  H3  1  0.71332000  0.16126000  0.74862000  1.0
  H  H4  1  0.14150000  0.64504000  0.52355000  1.0
  H  H5  1  0.85851000  0.35496000  0.47645000  1.0
  H  H6  1  0.42929000  0.13245000  0.13680000  1.0
  H  H7  1  0.57070000  0.86755000  0.86320000  1.0
  H  H8  1  0.24923000  0.21461000  0.58780000  1.0
  H  H9  1  0.75077000  0.78539000  0.41220000  1.0
  C  C10  1  0.10160000  0.00146000  0.80837000  1.0
  C  C11  1  0.89839000  0.99854000  0.19163000  1.0
  C  C12  1  0.15147000  0.95496000  0.68050000  1.0
  C  C13  1  0.84853000  0.04504000  0.31950000  1.0
  C  C14  1  0.12230000  0.79128000  0.66292000  1.0
  C  C15  1  0.87769000  0.20872000  0.33708000  1.0
  C  C16  1  0.02789000  0.64144000  0.76560000  1.0
  C  C17  1  0.97212000  0.35856000  0.23439000  1.0
  C  C18  1  0.17251000  0.76683000  0.53630000  1.0
  C  C19  1  0.82749000  0.23317000  0.46370000  1.0
  C  C20  1  0.25474000  0.90149000  0.43199000  1.0
  C  C21  1  0.74527000  0.09851000  0.56801000  1.0
  C  C22  1  0.37617000  0.08517000  0.24215000  1.0
  C  C23  1  0.62384000  0.91483000  0.75785000  1.0
  C  C24  1  0.28793000  0.06338000  0.44785000  1.0
  C  C25  1  0.71207000  0.93662000  0.55215000  1.0
  C  C26  1  0.23206000  0.08988000  0.57321000  1.0
  C  C27  1  0.76796000  0.91012000  0.42678000  1.0
  N  N28  1  0.31386000  0.92035000  0.29905000  1.0
  N  N29  1  0.68615000  0.07965000  0.70095000  1.0
  N  N30  1  0.36547000  0.17499000  0.32746000  1.0
  N  N31  1  0.63453000  0.82501000  0.67254000  1.0
  Cl  Cl32  1  0.43952000  0.40251000  0.84916000  1.0
  Cl  Cl33  1  0.56047000  0.59749000  0.15084000  1.0
  O  O34  1  0.00178000  0.14336000  0.81552000  1.0
  O  O35  1  0.99822000  0.85665000  0.18447000  1.0
  O  O36  1  0.16832000  0.90704000  0.90130000  1.0
  O  O37  1  0.83166000  0.09297000  0.09870000  1.0
  O  O38  1  0.98430000  0.63001000  0.89126000  1.0
  O  O39  1  0.01570000  0.36999000  0.10874000  1.0
  O  O40  1  0.98734000  0.51216000  0.73482000  1.0
  O  O41  1  0.01265000  0.48785000  0.26519000  1.0
  O  O42  1  0.38349000  0.54626000  0.91054000  1.0
  O  O43  1  0.61653000  0.45374000  0.08945000  1.0
  O  O44  1  0.27185000  0.28726000  0.89260000  1.0
  O  O45  1  0.72814000  0.71274000  0.10741000  1.0
  O  O46  1  0.50229000  0.45936000  0.71059000  1.0
  O  O47  1  0.49771000  0.54062000  0.28941000  1.0
  O  O48  1  0.60408000  0.29681000  0.89790000  1.0
  O  O49  1  0.39591000  0.70318000  0.10211000  1.0
