# generated using pymatgen
data_FeNiH5C8IN6O
_symmetry_space_group_name_H-M   'P 1'
_cell_length_a   7.28635000
_cell_length_b   12.34280000
_cell_length_c   12.85000000
_cell_angle_alpha   89.98540000
_cell_angle_beta   90.05610000
_cell_angle_gamma   89.99400000
_symmetry_Int_Tables_number   1
_chemical_formula_structural   FeNiH5C8IN6O
_chemical_formula_sum   'Fe4 Ni4 H20 C32 I4 N24 O4'
_cell_volume   1155.65079818
_cell_formula_units_Z   4
loop_
 _symmetry_equiv_pos_site_id
 _symmetry_equiv_pos_as_xyz
  1  'x, y, z'
loop_
 _atom_site_type_symbol
 _atom_site_label
 _atom_site_symmetry_multiplicity
 _atom_site_fract_x
 _atom_site_fract_y
 _atom_site_fract_z
 _atom_site_occupancy
  Fe  Fe0  1  0.24993000  0.54122000  0.14750000  1.0
  Fe  Fe1  1  0.74903000  0.95992000  0.65479000  1.0
  Fe  Fe2  1  0.74977000  0.45791000  0.83244000  1.0
  Fe  Fe3  1  0.25104000  0.04113000  0.35310000  1.0
  Ni  Ni4  1  0.75023000  0.80640000  0.20981000  1.0
  Ni  Ni5  1  0.24922000  0.69408000  0.71632000  1.0
  Ni  Ni6  1  0.24974000  0.19796000  0.79894000  1.0
  Ni  Ni7  1  0.75090000  0.30658000  0.29037000  1.0
  H  H8  1  0.24853000  0.40664000  0.35496000  1.0
  H  H9  1  0.74839000  0.09154000  0.86158000  1.0
  H  H10  1  0.74933000  0.59123000  0.63995000  1.0
  H  H11  1  0.25130000  0.90927000  0.14343000  1.0
  H  H12  1  0.24884000  0.77781000  0.48254000  1.0
  H  H13  1  0.74935000  0.71892000  0.98514000  1.0
  H  H14  1  0.75164000  0.21920000  0.51564000  1.0
  H  H15  1  0.25217000  0.28222000  0.02074000  1.0
  H  H16  1  0.24978000  0.73775000  0.29165000  1.0
  H  H17  1  0.74862000  0.76108000  0.79502000  1.0
  H  H18  1  0.75067000  0.25968000  0.70517000  1.0
  H  H19  1  0.25213000  0.23935000  0.21099000  1.0
  H  H20  1  0.14491000  0.51611000  0.93744000  1.0
  H  H21  1  0.85778000  0.97571000  0.44770000  1.0
  H  H22  1  0.64310000  0.47229000  0.04991000  1.0
  H  H23  1  0.35491000  0.02035000  0.56238000  1.0
  H  H24  1  0.85491000  0.47565000  0.05057000  1.0
  H  H25  1  0.14249000  0.02681000  0.56153000  1.0
  H  H26  1  0.35700000  0.52346000  0.93768000  1.0
  H  H27  1  0.64523000  0.98095000  0.44657000  1.0
  C  C28  1  0.24893000  0.48985000  0.38305000  1.0
  C  C29  1  0.74894000  0.00810000  0.88899000  1.0
  C  C30  1  0.74975000  0.50815000  0.61228000  1.0
  C  C31  1  0.25117000  0.99288000  0.11645000  1.0
  C  C32  1  0.24927000  0.51359000  0.48955000  1.0
  C  C33  1  0.74987000  0.98333000  0.99520000  1.0
  C  C34  1  0.75000000  0.48345000  0.50612000  1.0
  C  C35  1  0.25063000  0.01799000  0.01017000  1.0
  C  C36  1  0.24910000  0.69445000  0.45444000  1.0
  C  C37  1  0.74939000  0.80263000  0.95805000  1.0
  C  C38  1  0.75096000  0.30296000  0.54260000  1.0
  C  C39  1  0.25164000  0.19847000  0.04785000  1.0
  C  C40  1  0.24946000  0.67266000  0.34848000  1.0
  C  C41  1  0.74888000  0.82558000  0.85246000  1.0
  C  C42  1  0.75052000  0.32452000  0.64834000  1.0
  C  C43  1  0.25172000  0.17503000  0.15342000  1.0
  C  C44  1  0.57296000  0.38127000  0.22046000  1.0
  C  C45  1  0.42571000  0.12103000  0.72974000  1.0
  C  C46  1  0.06542000  0.61325000  0.77644000  1.0
  C  C47  1  0.92796000  0.88136000  0.27963000  1.0
  C  C48  1  0.43389000  0.61338000  0.77604000  1.0
  C  C49  1  0.57334000  0.88129000  0.28022000  1.0
  C  C50  1  0.92760000  0.38126000  0.21957000  1.0
  C  C51  1  0.07301000  0.12096000  0.73029000  1.0
  C  C52  1  0.56993000  0.71524000  0.16190000  1.0
  C  C53  1  0.42734000  0.78529000  0.66695000  1.0
  C  C54  1  0.06431000  0.29250000  0.83769000  1.0
  C  C55  1  0.93112000  0.21565000  0.33877000  1.0
  C  C56  1  0.43571000  0.29239000  0.83715000  1.0
  C  C57  1  0.57171000  0.21521000  0.33915000  1.0
  C  C58  1  0.92982000  0.71507000  0.16152000  1.0
  C  C59  1  0.06977000  0.78470000  0.66734000  1.0
  I  I60  1  0.25001000  0.38388000  0.59702000  1.0
  I  I61  1  0.75127000  0.11236000  0.10337000  1.0
  I  I62  1  0.74942000  0.61259000  0.39834000  1.0
  I  I63  1  0.24944000  0.88894000  0.90181000  1.0
  N  N64  1  0.24922000  0.57015000  0.31248000  1.0
  N  N65  1  0.74862000  0.92859000  0.81768000  1.0
  N  N66  1  0.75005000  0.42780000  0.68391000  1.0
  N  N67  1  0.25158000  0.07201000  0.18817000  1.0
  N  N68  1  0.24916000  0.61469000  0.52578000  1.0
  N  N69  1  0.74995000  0.88170000  0.03028000  1.0
  N  N70  1  0.75073000  0.38200000  0.47057000  1.0
  N  N71  1  0.25095000  0.11977000  0.97528000  1.0
  N  N72  1  0.45910000  0.42608000  0.17181000  1.0
  N  N73  1  0.53801000  0.07501000  0.68090000  1.0
  N  N74  1  0.94213000  0.56257000  0.80988000  1.0
  N  N75  1  0.04127000  0.92673000  0.32823000  1.0
  N  N76  1  0.55717000  0.56255000  0.80947000  1.0
  N  N77  1  0.46046000  0.92662000  0.32906000  1.0
  N  N78  1  0.04064000  0.42610000  0.17041000  1.0
  N  N79  1  0.96044000  0.07487000  0.68161000  1.0
  N  N80  1  0.45201000  0.65796000  0.13314000  1.0
  N  N81  1  0.54375000  0.84347000  0.63766000  1.0
  N  N82  1  0.94035000  0.35188000  0.84994000  1.0
  N  N83  1  0.04861000  0.15819000  0.36782000  1.0
  N  N84  1  0.55981000  0.35164000  0.84938000  1.0
  N  N85  1  0.45514000  0.15736000  0.36854000  1.0
  N  N86  1  0.04718000  0.65764000  0.13237000  1.0
  N  N87  1  0.95247000  0.84247000  0.63838000  1.0
  O  O88  1  0.25249000  0.50315000  0.98137000  1.0
  O  O89  1  0.75221000  0.99763000  0.49008000  1.0
  O  O90  1  0.74796000  0.50335000  0.01257000  1.0
  O  O91  1  0.24764000  0.00555000  0.51853000  1.0
