# generated using pymatgen
data_KSrSmH6C16N2O13
_symmetry_space_group_name_H-M   'P 1'
_cell_length_a   8.08850000
_cell_length_b   10.86650000
_cell_length_c   12.11920000
_cell_angle_alpha   75.66980000
_cell_angle_beta   71.12260000
_cell_angle_gamma   74.72700000
_symmetry_Int_Tables_number   1
_chemical_formula_structural   KSrSmH6C16N2O13
_chemical_formula_sum   'K2 Sr2 Sm2 H12 C32 N4 O26'
_cell_volume   956.81989586
_cell_formula_units_Z   2
loop_
 _symmetry_equiv_pos_site_id
 _symmetry_equiv_pos_as_xyz
  1  'x, y, z'
loop_
 _atom_site_type_symbol
 _atom_site_label
 _atom_site_symmetry_multiplicity
 _atom_site_fract_x
 _atom_site_fract_y
 _atom_site_fract_z
 _atom_site_occupancy
  K  K0  1  0.27184000  0.08783000  0.40458000  1.0
  K  K1  1  0.72816000  0.91217000  0.59542000  1.0
  Sr  Sr2  1  0.91946000  0.60277000  0.84890000  1.0
  Sr  Sr3  1  0.08054000  0.39723000  0.15110000  1.0
  Sm  Sm4  1  0.18302000  0.75737000  0.28259000  1.0
  Sm  Sm5  1  0.81698000  0.24263000  0.71741000  1.0
  H  H6  1  0.55021000  0.62918000  0.04624000  1.0
  H  H7  1  0.44979000  0.37082000  0.95376000  1.0
  H  H8  1  0.49463000  0.58460000  0.95015000  1.0
  H  H9  1  0.50537000  0.41539000  0.04985000  1.0
  H  H10  1  0.16627000  0.45398000  0.61256000  1.0
  H  H11  1  0.83373000  0.54601000  0.38744000  1.0
  H  H12  1  0.58058000  0.30910000  0.31858000  1.0
  H  H13  1  0.41942000  0.69090000  0.68142000  1.0
  H  H14  1  0.71364000  0.84356000  0.10271000  1.0
  H  H15  1  0.28636000  0.15644000  0.89729000  1.0
  H  H16  1  0.81805000  0.17569000  0.18834000  1.0
  H  H17  1  0.18195000  0.82431000  0.81166000  1.0
  C  C18  1  0.22744000  0.43480000  0.38310000  1.0
  C  C19  1  0.77256000  0.56520000  0.61690000  1.0
  C  C20  1  0.35601000  0.38479000  0.45755000  1.0
  C  C21  1  0.64399000  0.61521000  0.54245000  1.0
  C  C22  1  0.30161000  0.40473000  0.57459000  1.0
  C  C23  1  0.69839000  0.59527000  0.42541000  1.0
  C  C24  1  0.42371000  0.35994000  0.64126000  1.0
  C  C25  1  0.57629000  0.64006000  0.35874000  1.0
  C  C26  1  0.64670000  0.28483000  0.48231000  1.0
  C  C27  1  0.35330000  0.71517000  0.51769000  1.0
  C  C28  1  0.53156000  0.32339000  0.41034000  1.0
  C  C29  1  0.46844000  0.67661000  0.58966000  1.0
  C  C30  1  0.84334000  0.22939000  0.43788000  1.0
  C  C31  1  0.15666000  0.77062000  0.56212000  1.0
  C  C32  1  0.37968000  0.38292000  0.76629000  1.0
  C  C33  1  0.62032000  0.61708000  0.23371000  1.0
  C  C34  1  0.75047000  0.93512000  0.28964000  1.0
  C  C35  1  0.24953000  0.06488000  0.71037000  1.0
  C  C36  1  0.75758000  0.00243000  0.16376000  1.0
  C  C37  1  0.24242000  0.99757000  0.83624000  1.0
  C  C38  1  0.73758000  0.94195000  0.08053000  1.0
  C  C39  1  0.26242000  0.05805000  0.91947000  1.0
  C  C40  1  0.75256000  0.00952000  0.96481000  1.0
  C  C41  1  0.24744000  0.99048000  0.03519000  1.0
  C  C42  1  0.81149000  0.18642000  0.00942000  1.0
  C  C43  1  0.18851000  0.81358000  0.99058000  1.0
  C  C44  1  0.79551000  0.12723000  0.12722000  1.0
  C  C45  1  0.20449000  0.87277000  0.87278000  1.0
  C  C46  1  0.74576000  0.95189000  0.86482000  1.0
  C  C47  1  0.25424000  0.04811000  0.13517000  1.0
  C  C48  1  0.86423000  0.31624000  0.95781000  1.0
  C  C49  1  0.13577000  0.68376000  0.04219000  1.0
  N  N50  1  0.59192000  0.30029000  0.59591000  1.0
  N  N51  1  0.40808000  0.69971000  0.40409000  1.0
  N  N52  1  0.78657000  0.12959000  0.93119000  1.0
  N  N53  1  0.21343000  0.87041000  0.06881000  1.0
  O  O54  1  0.13979000  0.55043000  0.38861000  1.0
  O  O55  1  0.86020000  0.44957000  0.61139000  1.0
  O  O56  1  0.21658000  0.36019000  0.32222000  1.0
  O  O57  1  0.78342000  0.63981000  0.67778000  1.0
  O  O58  1  0.91312000  0.23844000  0.32775000  1.0
  O  O59  1  0.08688000  0.76156000  0.67225000  1.0
  O  O60  1  0.92419000  0.17869000  0.51857000  1.0
  O  O61  1  0.07581000  0.82131000  0.48143000  1.0
  O  O62  1  0.50830000  0.33772000  0.81601000  1.0
  O  O63  1  0.49170000  0.66228000  0.18399000  1.0
  O  O64  1  0.22845000  0.44366000  0.81229000  1.0
  O  O65  1  0.77155000  0.55634000  0.18771000  1.0
  O  O66  1  0.59553000  0.60102000  0.96723000  1.0
  O  O67  1  0.40446000  0.39898000  0.03277000  1.0
  O  O68  1  0.62272000  0.97470000  0.37218000  1.0
  O  O69  1  0.37728000  0.02530000  0.62782000  1.0
  O  O70  1  0.88265000  0.84228000  0.30135000  1.0
  O  O71  1  0.11735000  0.15771000  0.69865000  1.0
  O  O72  1  0.74925000  0.83306000  0.88159000  1.0
  O  O73  1  0.25075000  0.16694000  0.11841000  1.0
  O  O74  1  0.74136000  0.03223000  0.76731000  1.0
  O  O75  1  0.25864000  0.96777000  0.23269000  1.0
  O  O76  1  0.85753000  0.36440000  0.85139000  1.0
  O  O77  1  0.14247000  0.63560000  0.14861000  1.0
  O  O78  1  0.91068000  0.37122000  0.01990000  1.0
  O  O79  1  0.08932000  0.62878000  0.98010000  1.0
