# generated using pymatgen
data_CdH10C11N3O5
_symmetry_space_group_name_H-M   'P 1'
_cell_length_a   6.73822000
_cell_length_b   9.69197000
_cell_length_c   9.90303000
_cell_angle_alpha   85.08920000
_cell_angle_beta   72.79230000
_cell_angle_gamma   73.99150000
_symmetry_Int_Tables_number   1
_chemical_formula_structural   CdH10C11N3O5
_chemical_formula_sum   'Cd2 H20 C22 N6 O10'
_cell_volume   593.82189783
_cell_formula_units_Z   2
loop_
 _symmetry_equiv_pos_site_id
 _symmetry_equiv_pos_as_xyz
  1  'x, y, z'
loop_
 _atom_site_type_symbol
 _atom_site_label
 _atom_site_symmetry_multiplicity
 _atom_site_fract_x
 _atom_site_fract_y
 _atom_site_fract_z
 _atom_site_occupancy
  Cd  Cd0  1  0.96951000  0.57674000  0.70481000  1.0
  Cd  Cd1  1  0.03050000  0.42325000  0.29519000  1.0
  H  H2  1  0.29227000  0.68631000  0.80938000  1.0
  H  H3  1  0.70773000  0.31368000  0.19062000  1.0
  H  H4  1  0.06399000  0.26598000  0.92269000  1.0
  H  H5  1  0.93602000  0.73403000  0.07731000  1.0
  H  H6  1  0.10892000  0.08464000  0.14099000  1.0
  H  H7  1  0.89111000  0.91538000  0.85902000  1.0
  H  H8  1  0.45104000  0.56737000  0.19893000  1.0
  H  H9  1  0.54892000  0.43262000  0.80106000  1.0
  H  H10  1  0.02319000  0.96745000  0.37603000  1.0
  H  H11  1  0.97684000  0.03255000  0.62397000  1.0
  H  H12  1  0.62825000  0.95102000  0.60997000  1.0
  H  H13  1  0.37174000  0.04898000  0.39002000  1.0
  H  H14  1  0.68100000  0.07727000  0.47078000  1.0
  H  H15  1  0.31901000  0.92272000  0.52922000  1.0
  H  H16  1  0.36786000  0.94249000  0.93279000  1.0
  H  H17  1  0.63216000  0.05752000  0.06721000  1.0
  H  H18  1  0.37572000  0.33176000  0.49549000  1.0
  H  H19  1  0.62428000  0.66824000  0.50449000  1.0
  H  H20  1  0.20843000  0.56749000  0.91137000  1.0
  H  H21  1  0.79156000  0.43250000  0.08864000  1.0
  C  C22  1  0.16965000  0.24716000  0.81553000  1.0
  C  C23  1  0.83039000  0.75284000  0.18444000  1.0
  C  C24  1  0.18440000  0.97109000  0.15273000  1.0
  C  C25  1  0.81560000  0.02891000  0.84728000  1.0
  C  C26  1  0.60655000  0.66623000  0.93350000  1.0
  C  C27  1  0.39346000  0.33376000  0.06649000  1.0
  C  C28  1  0.37691000  0.68035000  0.18467000  1.0
  C  C29  1  0.62308000  0.31965000  0.81534000  1.0
  C  C30  1  0.13508000  0.90562000  0.28481000  1.0
  C  C31  1  0.86493000  0.09437000  0.71519000  1.0
  C  C32  1  0.22643000  0.75862000  0.30031000  1.0
  C  C33  1  0.77357000  0.24138000  0.69970000  1.0
  C  C34  1  0.43084000  0.74647000  0.05300000  1.0
  C  C35  1  0.56915000  0.25353000  0.94701000  1.0
  C  C36  1  0.15963000  0.68197000  0.43630000  1.0
  C  C37  1  0.84037000  0.31802000  0.56369000  1.0
  C  C38  1  0.55548000  0.03196000  0.54201000  1.0
  C  C39  1  0.44453000  0.96803000  0.45799000  1.0
  C  C40  1  0.32912000  0.89156000  0.03623000  1.0
  C  C41  1  0.67088000  0.10845000  0.96378000  1.0
  C  C42  1  0.32529000  0.28345000  0.59856000  1.0
  C  C43  1  0.67472000  0.71655000  0.40144000  1.0
  N  N44  1  0.30222000  0.12047000  0.77056000  1.0
  N  N45  1  0.69779000  0.87955000  0.22943000  1.0
  N  N46  1  0.39991000  0.14590000  0.63292000  1.0
  N  N47  1  0.60008000  0.85411000  0.36708000  1.0
  N  N48  1  0.17878000  0.35065000  0.71258000  1.0
  N  N49  1  0.82121000  0.64936000  0.28741000  1.0
  O  O50  1  0.61690000  0.71249000  0.80660000  1.0
  O  O51  1  0.38310000  0.28752000  0.19339000  1.0
  O  O52  1  0.74841000  0.55755000  0.95904000  1.0
  O  O53  1  0.25157000  0.44245000  0.04098000  1.0
  O  O54  1  0.16596000  0.64863000  0.84740000  1.0
  O  O55  1  0.83403000  0.35136000  0.15260000  1.0
  O  O56  1  0.20057000  0.54532000  0.43566000  1.0
  O  O57  1  0.79939000  0.45469000  0.56435000  1.0
  O  O58  1  0.05788000  0.75578000  0.54940000  1.0
  O  O59  1  0.94213000  0.24421000  0.45060000  1.0
