# generated using pymatgen
data_CdH23C29N5O7
_symmetry_space_group_name_H-M   'P 1'
_cell_length_a   9.03876000
_cell_length_b   11.03460000
_cell_length_c   15.63820000
_cell_angle_alpha   89.99920000
_cell_angle_beta   89.99990000
_cell_angle_gamma   102.74700000
_symmetry_Int_Tables_number   1
_chemical_formula_structural   CdH23C29N5O7
_chemical_formula_sum   'Cd2 H46 C58 N10 O14'
_cell_volume   1521.29846310
_cell_formula_units_Z   2
loop_
 _symmetry_equiv_pos_site_id
 _symmetry_equiv_pos_as_xyz
  1  'x, y, z'
loop_
 _atom_site_type_symbol
 _atom_site_label
 _atom_site_symmetry_multiplicity
 _atom_site_fract_x
 _atom_site_fract_y
 _atom_site_fract_z
 _atom_site_occupancy
  Cd  Cd0  1  0.96176000  0.96249000  0.19931000  1.0
  Cd  Cd1  1  0.03825000  0.03751000  0.69930000  1.0
  H  H2  1  0.58512000  0.13813000  0.26371000  1.0
  H  H3  1  0.41489000  0.86187000  0.76372000  1.0
  H  H4  1  0.97653000  0.30773000  0.82613000  1.0
  H  H5  1  0.02347000  0.69227000  0.32612000  1.0
  H  H6  1  0.80228000  0.22569000  0.57944000  1.0
  H  H7  1  0.19771000  0.77430000  0.07944000  1.0
  H  H8  1  0.77044000  0.53203000  0.31995000  1.0
  H  H9  1  0.22954000  0.46796000  0.81996000  1.0
  H  H10  1  0.67048000  0.60854000  0.05875000  1.0
  H  H11  1  0.32953000  0.39148000  0.55876000  1.0
  H  H12  1  0.65079000  0.31280000  0.30022000  1.0
  H  H13  1  0.34918000  0.68720000  0.80023000  1.0
  H  H14  1  0.55363000  0.38334000  0.03663000  1.0
  H  H15  1  0.44638000  0.61667000  0.53664000  1.0
  H  H16  1  0.46789000  0.95118000  0.13566000  1.0
  H  H17  1  0.53210000  0.04882000  0.63566000  1.0
  H  H18  1  0.41461000  0.80794000  0.26020000  1.0
  H  H19  1  0.58540000  0.19206000  0.76020000  1.0
  H  H20  1  0.45992000  0.93559000  0.33235000  1.0
  H  H21  1  0.54008000  0.06441000  0.83236000  1.0
  H  H22  1  0.60206000  0.89813000  0.26346000  1.0
  H  H23  1  0.39795000  0.10187000  0.76347000  1.0
  H  H24  1  0.17483000  0.13644000  0.05767000  1.0
  H  H25  1  0.82519000  0.86357000  0.55767000  1.0
  H  H26  1  0.71041000  0.05452000  0.10141000  1.0
  H  H27  1  0.28960000  0.94547000  0.60140000  1.0
  H  H28  1  0.14463000  0.25947000  0.92770000  1.0
  H  H29  1  0.85538000  0.74054000  0.42769000  1.0
  H  H30  1  0.66254000  0.18209000  0.97860000  1.0
  H  H31  1  0.33747000  0.81790000  0.47860000  1.0
  H  H32  1  0.85771000  0.30007000  0.69500000  1.0
  H  H33  1  0.14231000  0.69993000  0.19499000  1.0
  H  H34  1  0.77112000  0.62090000  0.56436000  1.0
  H  H35  1  0.22889000  0.37908000  0.06437000  1.0
  H  H36  1  0.72035000  0.71296000  0.70462000  1.0
  H  H37  1  0.27964000  0.28703000  0.20463000  1.0
  H  H38  1  0.71558000  0.58722000  0.83786000  1.0
  H  H39  1  0.28441000  0.41277000  0.33787000  1.0
  H  H40  1  0.96413000  0.37174000  0.37417000  1.0
  H  H41  1  0.03587000  0.62826000  0.87417000  1.0
  H  H42  1  0.73287000  0.03888000  0.50663000  1.0
  H  H43  1  0.26711000  0.96111000  0.00663000  1.0
  H  H44  1  0.99239000  0.23819000  0.25062000  1.0
  H  H45  1  0.00762000  0.76181000  0.75062000  1.0
  H  H46  1  0.77242000  0.91919000  0.37759000  1.0
  H  H47  1  0.22757000  0.08081000  0.87758000  1.0
  C  C48  1  0.80072000  0.71909000  0.20148000  1.0
  C  C49  1  0.19928000  0.28091000  0.70148000  1.0
  C  C50  1  0.72817000  0.58459000  0.19020000  1.0
  C  C51  1  0.27183000  0.41541000  0.69021000  1.0
  C  C52  1  0.72320000  0.50002000  0.25770000  1.0
  C  C53  1  0.27678000  0.49997000  0.75771000  1.0
  C  C54  1  0.66580000  0.54200000  0.11073000  1.0
  C  C55  1  0.33420000  0.45801000  0.61073000  1.0
  C  C56  1  0.65576000  0.37507000  0.24565000  1.0
  C  C57  1  0.34422000  0.62493000  0.74565000  1.0
  C  C58  1  0.59996000  0.41698000  0.09857000  1.0
  C  C59  1  0.40003000  0.58303000  0.59858000  1.0
  C  C60  1  0.59407000  0.33214000  0.16595000  1.0
  C  C61  1  0.40592000  0.66786000  0.66595000  1.0
  C  C62  1  0.51491000  0.20041000  0.14908000  1.0
  C  C63  1  0.48508000  0.79959000  0.64909000  1.0
  C  C64  1  0.44254000  0.98664000  0.19856000  1.0
  C  C65  1  0.55746000  0.01336000  0.69856000  1.0
  C  C66  1  0.48236000  0.90257000  0.26833000  1.0
  C  C67  1  0.51764000  0.09744000  0.76834000  1.0
  C  C68  1  0.27174000  0.98249000  0.19931000  1.0
  C  C69  1  0.72825000  0.01751000  0.69931000  1.0
  C  C70  1  0.06249000  0.14572000  0.03690000  1.0
  C  C71  1  0.93752000  0.85428000  0.53690000  1.0
  C  C72  1  0.80423000  0.10245000  0.06181000  1.0
  C  C73  1  0.19579000  0.89754000  0.56180000  1.0
  C  C74  1  0.04593000  0.21454000  0.96489000  1.0
  C  C75  1  0.95407000  0.78546000  0.46489000  1.0
  C  C76  1  0.77708000  0.17225000  0.99224000  1.0
  C  C77  1  0.22293000  0.82774000  0.49224000  1.0
  C  C78  1  0.90096000  0.22956000  0.94131000  1.0
  C  C79  1  0.09904000  0.77044000  0.44131000  1.0
  C  C80  1  0.77818000  0.36655000  0.85606000  1.0
  C  C81  1  0.22183000  0.63346000  0.35605000  1.0
  C  C82  1  0.78842000  0.43765000  0.77406000  1.0
  C  C83  1  0.21158000  0.56235000  0.27406000  1.0
  C  C84  1  0.82556000  0.38969000  0.69605000  1.0
  C  C85  1  0.17445000  0.61031000  0.19604000  1.0
  C  C86  1  0.81581000  0.45514000  0.62002000  1.0
  C  C87  1  0.18420000  0.54485000  0.12001000  1.0
  C  C88  1  0.77793000  0.57154000  0.62390000  1.0
  C  C89  1  0.22208000  0.42845000  0.12391000  1.0
  C  C90  1  0.74663000  0.62131000  0.70196000  1.0
  C  C91  1  0.25336000  0.37868000  0.20197000  1.0
  C  C92  1  0.74700000  0.55280000  0.77665000  1.0
  C  C93  1  0.25300000  0.44719000  0.27665000  1.0
  C  C94  1  0.84113000  0.40811000  0.53265000  1.0
  C  C95  1  0.15889000  0.59189000  0.03265000  1.0
  C  C96  1  0.84755000  0.21669000  0.45207000  1.0
  C  C97  1  0.15245000  0.78330000  0.95207000  1.0
  C  C98  1  0.92014000  0.27219000  0.37760000  1.0
  C  C99  1  0.07987000  0.72781000  0.87760000  1.0
  C  C100  1  0.79134000  0.08686000  0.45121000  1.0
  C  C101  1  0.20864000  0.91314000  0.95120000  1.0
  C  C102  1  0.93501000  0.19715000  0.30849000  1.0
  C  C103  1  0.06499000  0.80284000  0.80849000  1.0
  C  C104  1  0.81262000  0.01974000  0.37927000  1.0
  C  C105  1  0.18737000  0.98026000  0.87926000  1.0
  N  N106  1  0.52985000  0.11301000  0.20791000  1.0
  N  N107  1  0.47014000  0.88700000  0.70792000  1.0
  N  N108  1  0.94343000  0.08929000  0.08515000  1.0
  N  N109  1  0.05659000  0.91072000  0.58515000  1.0
  N  N110  1  0.88728000  0.29882000  0.86872000  1.0
  N  N111  1  0.11273000  0.70119000  0.36871000  1.0
  N  N112  1  0.83004000  0.28131000  0.52602000  1.0
  N  N113  1  0.16996000  0.71868000  0.02602000  1.0
  N  N114  1  0.88326000  0.07278000  0.30821000  1.0
  N  N115  1  0.11674000  0.92722000  0.80821000  1.0
  O  O116  1  0.88212000  0.75384000  0.26801000  1.0
  O  O117  1  0.11787000  0.24616000  0.76801000  1.0
  O  O118  1  0.78213000  0.79613000  0.14375000  1.0
  O  O119  1  0.21788000  0.20388000  0.64375000  1.0
  O  O120  1  0.43772000  0.16967000  0.08318000  1.0
  O  O121  1  0.56225000  0.83034000  0.58318000  1.0
  O  O122  1  0.22017000  0.06034000  0.24258000  1.0
  O  O123  1  0.77983000  0.93965000  0.74257000  1.0
  O  O124  1  0.18614000  0.89499000  0.15644000  1.0
  O  O125  1  0.81385000  0.10501000  0.65644000  1.0
  O  O126  1  0.67691000  0.37141000  0.90823000  1.0
  O  O127  1  0.32311000  0.62859000  0.40822000  1.0
  O  O128  1  0.86455000  0.47851000  0.47010000  1.0
  O  O129  1  0.13549000  0.52149000  0.97010000  1.0
