# generated using pymatgen
data_Zn4H9C28S2BrCl4O13
_symmetry_space_group_name_H-M   'P 1'
_cell_length_a   18.38970000
_cell_length_b   19.62200550
_cell_length_c   32.68310000
_cell_angle_alpha   78.72616898
_cell_angle_beta   73.67150000
_cell_angle_gamma   62.13314230
_symmetry_Int_Tables_number   1
_chemical_formula_structural   Zn4H9C28S2BrCl4O13
_chemical_formula_sum   'Zn16 H36 C112 S8 Br4 Cl16 O52'
_cell_volume   9976.73814404
_cell_formula_units_Z   4
loop_
 _symmetry_equiv_pos_site_id
 _symmetry_equiv_pos_as_xyz
  1  'x, y, z'
loop_
 _atom_site_type_symbol
 _atom_site_label
 _atom_site_symmetry_multiplicity
 _atom_site_fract_x
 _atom_site_fract_y
 _atom_site_fract_z
 _atom_site_occupancy
  Zn  Zn0  1  0.57966000  0.54614000  0.48161000  1.0
  Zn  Zn1  1  0.47416000  0.48064000  0.56096000  1.0
  Zn  Zn2  1  0.54721000  0.39975000  0.47545000  1.0
  Zn  Zn3  1  0.39085000  0.56934000  0.48398000  1.0
  Zn  Zn4  1  0.19287000  0.18224000  0.26358000  1.0
  Zn  Zn5  1  0.17212000  0.34953000  0.27493000  1.0
  Zn  Zn6  1  0.28487000  0.26910000  0.18810000  1.0
  Zn  Zn7  1  0.34910000  0.20160000  0.27513000  1.0
  Zn  Zn8  1  0.77666000  0.75578000  0.68553000  1.0
  Zn  Zn9  1  0.85045000  0.68681000  0.77138000  1.0
  Zn  Zn10  1  0.67312000  0.70128000  0.77216000  1.0
  Zn  Zn11  1  0.70116000  0.85179000  0.77035000  1.0
  Zn  Zn12  1  0.07405000  0.90064000  0.97476000  1.0
  Zn  Zn13  1  0.88742000  0.04709000  0.98432000  1.0
  Zn  Zn14  1  0.05441000  0.06844000  0.97604000  1.0
  Zn  Zn15  1  0.98734000  0.98841000  0.06106000  1.0
  H  H16  1  0.25024000  0.95650000  0.33959000  1.0
  H  H17  1  0.71046000  0.97040000  0.59119000  1.0
  H  H18  1  0.98296000  0.44982000  0.37599000  1.0
  H  H19  1  0.93239000  0.49876000  0.33260000  1.0
  H  H20  1  0.79084000  0.54721000  0.38423000  1.0
  H  H21  1  0.84102000  0.49799000  0.42776000  1.0
  H  H22  1  0.97612000  0.66322000  0.57434000  1.0
  H  H23  1  0.97181000  0.75532000  0.57602000  1.0
  H  H24  1  0.11625000  0.71374000  0.52705000  1.0
  H  H25  1  0.11997000  0.62200000  0.52498000  1.0
  H  H26  1  0.68747000  0.75418000  0.57541000  1.0
  H  H27  1  0.77994000  0.66487000  0.57507000  1.0
  H  H28  1  0.73363000  0.61432000  0.52660000  1.0
  H  H29  1  0.64125000  0.70382000  0.52676000  1.0
  H  H30  1  0.46239000  0.20326000  0.36947000  1.0
  H  H31  1  0.50961000  0.24621000  0.32352000  1.0
  H  H32  1  0.55884000  0.29599000  0.37094000  1.0
  H  H33  1  0.51157000  0.25319000  0.41691000  1.0
  H  H34  1  0.15732000  0.66112000  0.03807000  1.0
  H  H35  1  0.97194000  0.09571000  0.16759000  1.0
  H  H36  1  0.06133000  0.00414000  0.16853000  1.0
  H  H37  1  0.11016000  0.05139000  0.21719000  1.0
  H  H38  1  0.02176000  0.14354000  0.21581000  1.0
  H  H39  1  0.62881000  0.19999000  0.03110000  1.0
  H  H40  1  0.62590000  0.11002000  0.03247000  1.0
  H  H41  1  0.48097000  0.16194000  0.08112000  1.0
  H  H42  1  0.48428000  0.25155000  0.08014000  1.0
  H  H43  1  0.75018000  0.29307000  0.90991000  1.0
  H  H44  1  0.72781000  0.00955000  0.92960000  1.0
  H  H45  1  0.77268000  0.05776000  0.88555000  1.0
  H  H46  1  0.72507000  0.01277000  0.83504000  1.0
  H  H47  1  0.67835000  0.96627000  0.87927000  1.0
  H  H48  1  0.32354000  0.74384000  0.91365000  1.0
  H  H49  1  0.27582000  0.78979000  0.86901000  1.0
  H  H50  1  0.41970000  0.74511000  0.81938000  1.0
  H  H51  1  0.46742000  0.69832000  0.86390000  1.0
  C  C52  1  0.56340000  0.56374000  0.57114000  1.0
  C  C53  1  0.55613000  0.31343000  0.55877000  1.0
  C  C54  1  0.70474000  0.41406000  0.43138000  1.0
  C  C55  1  0.40657000  0.45222000  0.43333000  1.0
  C  C56  1  0.45804000  0.68159000  0.43915000  1.0
  C  C57  1  0.29412000  0.57109000  0.57000000  1.0
  C  C58  1  0.03720000  0.30052000  0.31189000  1.0
  C  C59  1  0.18853000  0.43853000  0.19187000  1.0
  C  C60  1  0.20092000  0.18153000  0.17236000  1.0
  C  C61  1  0.46453000  0.18124000  0.18955000  1.0
  C  C62  1  0.31711000  0.06756000  0.31358000  1.0
  C  C63  1  0.29154000  0.33594000  0.32289000  1.0
  C  C64  1  0.95759000  0.67654000  0.68445000  1.0
  C  C65  1  0.79333000  0.56872000  0.81381000  1.0
  C  C66  1  0.67465000  0.67824000  0.68449000  1.0
  C  C67  1  0.54775000  0.83543000  0.81891000  1.0
  C  C68  1  0.69929000  0.92611000  0.68203000  1.0
  C  C69  1  0.82974000  0.81078000  0.81678000  1.0
  C  C70  1  0.94677000  0.91999000  0.92957000  1.0
  C  C71  1  0.90684000  0.18296000  0.93862000  1.0
  C  C72  1  0.20880000  0.94553000  0.93154000  1.0
  C  C73  1  0.08082000  0.07573000  0.05905000  1.0
  C  C74  1  0.06225000  0.81848000  0.06042000  1.0
  C  C75  1  0.80285000  0.06443000  0.07537000  1.0
  C  C76  1  0.47451000  0.80586000  0.40213000  1.0
  C  C77  1  0.30848000  0.94258000  0.34864000  1.0
  C  C78  1  0.43577000  0.75660000  0.41394000  1.0
  C  C79  1  0.34677000  0.99175000  0.33794000  1.0
  C  C80  1  0.35469000  0.87519000  0.37235000  1.0
  C  C81  1  0.42809000  0.87395000  0.37869000  1.0
  C  C82  1  0.57803000  0.22097000  0.62702000  1.0
  C  C83  1  0.68081000  0.01602000  0.61301000  1.0
  C  C84  1  0.58388000  0.23807000  0.58320000  1.0
  C  C85  1  0.67264000  0.00113000  0.65685000  1.0
  C  C86  1  0.64553000  0.09650000  0.60193000  1.0
  C  C87  1  0.61244000  0.14050000  0.63774000  1.0
  C  C88  1  0.95139000  0.32425000  0.34074000  1.0
  C  C89  1  0.78754000  0.38036000  0.40017000  1.0
  C  C90  1  0.91504000  0.39372000  0.35991000  1.0
  C  C91  1  0.82211000  0.30976000  0.38048000  1.0
  C  C92  1  0.83695000  0.42038000  0.38833000  1.0
  C  C93  1  0.90206000  0.28250000  0.35149000  1.0
  C  C94  1  0.92881000  0.46285000  0.36271000  1.0
  C  C95  1  0.84012000  0.49313000  0.39500000  1.0
  C  C96  1  0.04559000  0.64878000  0.65803000  1.0
  C  C97  1  0.21148000  0.60013000  0.60129000  1.0
  C  C98  1  0.05788000  0.66058000  0.61361000  1.0
  C  C99  1  0.20152000  0.58856000  0.64641000  1.0
  C  C100  1  0.13726000  0.63780000  0.58645000  1.0
  C  C101  1  0.12059000  0.61146000  0.67423000  1.0
  C  C102  1  0.01243000  0.69278000  0.57704000  1.0
  C  C103  1  0.10276000  0.66674000  0.54621000  1.0
  C  C104  1  0.64132000  0.64883000  0.65857000  1.0
  C  C105  1  0.58848000  0.59039000  0.60245000  1.0
  C  C106  1  0.66332000  0.65790000  0.61410000  1.0
  C  C107  1  0.56483000  0.57995000  0.64775000  1.0
  C  C108  1  0.63812000  0.62996000  0.58731000  1.0
  C  C109  1  0.58959000  0.60943000  0.67517000  1.0
  C  C110  1  0.71167000  0.69108000  0.57726000  1.0
  C  C111  1  0.68276000  0.65952000  0.54684000  1.0
  C  C112  1  0.31494000  0.37273000  0.34989000  1.0
  C  C113  1  0.37181000  0.43033000  0.40442000  1.0
  C  C114  1  0.39263000  0.33093000  0.36143000  1.0
  C  C115  1  0.29309000  0.47556000  0.39222000  1.0
  C  C116  1  0.41970000  0.35837000  0.38753000  1.0
  C  C117  1  0.26530000  0.44738000  0.36564000  1.0
  C  C118  1  0.47189000  0.25521000  0.35637000  1.0
  C  C119  1  0.50265000  0.28638000  0.38603000  1.0
  C  C120  1  0.11307000  0.58844000  0.18120000  1.0
  C  C121  1  0.13228000  0.67091000  0.07185000  1.0
  C  C122  1  0.16185000  0.51420000  0.16745000  1.0
  C  C123  1  0.08469000  0.74421000  0.08634000  1.0
  C  C124  1  0.14295000  0.61394000  0.10645000  1.0
  C  C125  1  0.10252000  0.64539000  0.14652000  1.0
  C  C126  1  0.11616000  0.10339000  0.08478000  1.0
  C  C127  1  0.17547000  0.15576000  0.14069000  1.0
  C  C128  1  0.09263000  0.09594000  0.12920000  1.0
  C  C129  1  0.20206000  0.16284000  0.09537000  1.0
  C  C130  1  0.12052000  0.12145000  0.15590000  1.0
  C  C131  1  0.17270000  0.13763000  0.06811000  1.0
  C  C132  1  0.04014000  0.06691000  0.16599000  1.0
  C  C133  1  0.07128000  0.09641000  0.19633000  1.0
  C  C134  1  0.72025000  0.09014000  0.10720000  1.0
  C  C135  1  0.55319000  0.14916000  0.16366000  1.0
  C  C136  1  0.64595000  0.12824000  0.09227000  1.0
  C  C137  1  0.62785000  0.10983000  0.18004000  1.0
  C  C138  1  0.56624000  0.15675000  0.11920000  1.0
  C  C139  1  0.70930000  0.08063000  0.15247000  1.0
  C  C140  1  0.61169000  0.15616000  0.05196000  1.0
  C  C141  1  0.52114000  0.18848000  0.08253000  1.0
  C  C142  1  0.88960000  0.44274000  0.85079000  1.0
  C  C143  1  0.80340000  0.30713000  0.90214000  1.0
  C  C144  1  0.81455000  0.49352000  0.83841000  1.0
  C  C145  1  0.87916000  0.25873000  0.91411000  1.0
  C  C146  1  0.80646000  0.37517000  0.87912000  1.0
  C  C147  1  0.88483000  0.37587000  0.87407000  1.0
  C  C148  1  0.92359000  0.88728000  0.90023000  1.0
  C  C149  1  0.86635000  0.83498000  0.84346000  1.0
  C  C150  1  0.84531000  0.93002000  0.88935000  1.0
  C  C151  1  0.94696000  0.79020000  0.85341000  1.0
  C  C152  1  0.81826000  0.90543000  0.86181000  1.0
  C  C153  1  0.97491000  0.81549000  0.88128000  1.0
  C  C154  1  0.76485000  0.00451000  0.89656000  1.0
  C  C155  1  0.73432000  0.97670000  0.86511000  1.0
  C  C156  1  0.29620000  0.92176000  0.90471000  1.0
  C  C157  1  0.46280000  0.86873000  0.84823000  1.0
  C  C158  1  0.33696000  0.85094000  0.88662000  1.0
  C  C159  1  0.42358000  0.94078000  0.86680000  1.0
  C  C160  1  0.41629000  0.82596000  0.85932000  1.0
  C  C161  1  0.34223000  0.96659000  0.89442000  1.0
  C  C162  1  0.32760000  0.77948000  0.88347000  1.0
  C  C163  1  0.41771000  0.75118000  0.85242000  1.0
  S  S164  1  0.34267000  0.79359000  0.39591000  1.0
  S  S165  1  0.43921000  0.95644000  0.35626000  1.0
  S  S166  1  0.63186000  0.15511000  0.55528000  1.0
  S  S167  1  0.62287000  0.08382000  0.68481000  1.0
  S  S168  1  0.19438000  0.51454000  0.11187000  1.0
  S  S169  1  0.05217000  0.74466000  0.14178000  1.0
  S  S170  1  0.73826000  0.45868000  0.85550000  1.0
  S  S171  1  0.95408000  0.29473000  0.89761000  1.0
  Br  Br172  1  0.57571000  0.78855000  0.41471000  1.0
  Br  Br173  1  0.52980000  0.29135000  0.66939000  1.0
  Br  Br174  1  0.06555000  0.61559000  0.23796000  1.0
  Br  Br175  1  0.98807000  0.45598000  0.84054000  1.0
  Cl  Cl176  1  0.76784000  0.25464000  0.39017000  1.0
  Cl  Cl177  1  0.93685000  0.19781000  0.32844000  1.0
  Cl  Cl178  1  0.28838000  0.54933000  0.66869000  1.0
  Cl  Cl179  1  0.11728000  0.59045000  0.72813000  1.0
  Cl  Cl180  1  0.50782000  0.52820000  0.67135000  1.0
  Cl  Cl181  1  0.55344000  0.59639000  0.72933000  1.0
  Cl  Cl182  1  0.22881000  0.56752000  0.40848000  1.0
  Cl  Cl183  1  0.17032000  0.50765000  0.35171000  1.0
  Cl  Cl184  1  0.27329000  0.20024000  0.07152000  1.0
  Cl  Cl185  1  0.21069000  0.14635000  0.01390000  1.0
  Cl  Cl186  1  0.62289000  0.09703000  0.23420000  1.0
  Cl  Cl187  1  0.79499000  0.03055000  0.17577000  1.0
  Cl  Cl188  1  0.01505000  0.70488000  0.82999000  1.0
  Cl  Cl189  1  0.07246000  0.75485000  0.89224000  1.0
  Cl  Cl190  1  0.47246000  0.00068000  0.85591000  1.0
  Cl  Cl191  1  0.30187000  0.05313000  0.91647000  1.0
  O  O192  1  0.50005000  0.50019000  0.49858000  1.0
  O  O193  1  0.60805000  0.55941000  0.53291000  1.0
  O  O194  1  0.53558000  0.37207000  0.57852000  1.0
  O  O195  1  0.66476000  0.37339000  0.44621000  1.0
  O  O196  1  0.49963000  0.54940000  0.58411000  1.0
  O  O197  1  0.68169000  0.48265000  0.44090000  1.0
  O  O198  1  0.55551000  0.31368000  0.51961000  1.0
  O  O199  1  0.48280000  0.40511000  0.43537000  1.0
  O  O200  1  0.40353000  0.65502000  0.44561000  1.0
  O  O201  1  0.36019000  0.51243000  0.45371000  1.0
  O  O202  1  0.52667000  0.65016000  0.45213000  1.0
  O  O203  1  0.35366000  0.50843000  0.58060000  1.0
  O  O204  1  0.29717000  0.61020000  0.53382000  1.0
  O  O205  1  0.24924000  0.25032000  0.25012000  1.0
  O  O206  1  0.08085000  0.23098000  0.30191000  1.0
  O  O207  1  0.16033000  0.43730000  0.23224000  1.0
  O  O208  1  0.23685000  0.22590000  0.15929000  1.0
  O  O209  1  0.05996000  0.35512000  0.30031000  1.0
  O  O210  1  0.18209000  0.15630000  0.21120000  1.0
  O  O211  1  0.23827000  0.38013000  0.16977000  1.0
  O  O212  1  0.40805000  0.22397000  0.16802000  1.0
  O  O213  1  0.35599000  0.10802000  0.31216000  1.0
  O  O214  1  0.45123000  0.16381000  0.22956000  1.0
  O  O215  1  0.25574000  0.08593000  0.29614000  1.0
  O  O216  1  0.21527000  0.36336000  0.31997000  1.0
  O  O217  1  0.35323000  0.27642000  0.30521000  1.0
  O  O218  1  0.74916000  0.75016000  0.74819000  1.0
  O  O219  1  0.89963000  0.69831000  0.66375000  1.0
  O  O220  1  0.85393000  0.58690000  0.79634000  1.0
  O  O221  1  0.66244000  0.66212000  0.72461000  1.0
  O  O222  1  0.94651000  0.67800000  0.72449000  1.0
  O  O223  1  0.71504000  0.71688000  0.66310000  1.0
  O  O224  1  0.71577000  0.60939000  0.81182000  1.0
  O  O225  1  0.56350000  0.77556000  0.80144000  1.0
  O  O226  1  0.67764000  0.93052000  0.72262000  1.0
  O  O227  1  0.59740000  0.86615000  0.81382000  1.0
  O  O228  1  0.74047000  0.86493000  0.66185000  1.0
  O  O229  1  0.85135000  0.73907000  0.81655000  1.0
  O  O230  1  0.77592000  0.86595000  0.79737000  1.0
  O  O231  1  0.99852000  0.00082000  0.99894000  1.0
  O  O232  1  0.02355000  0.89154000  0.93184000  1.0
  O  O233  1  0.85746000  0.15041000  0.95184000  1.0
  O  O234  1  0.16112000  0.01708000  0.93559000  1.0
  O  O235  1  0.88512000  0.97659000  0.94970000  1.0
  O  O236  1  0.18848000  0.89014000  0.94740000  1.0
  O  O237  1  0.98174000  0.15656000  0.94427000  1.0
  O  O238  1  0.07465000  0.10583000  0.02127000  1.0
  O  O239  1  0.02063000  0.87916000  0.08130000  1.0
  O  O240  1  0.05716000  0.02383000  0.07863000  1.0
  O  O241  1  0.08659000  0.81561000  0.01989000  1.0
  O  O242  1  0.79897000  0.06072000  0.03742000  1.0
  O  O243  1  0.86872000  0.05054000  0.08747000  1.0
