# generated using pymatgen
data_ZnH22C28(N5O2)2
_symmetry_space_group_name_H-M   'P 1'
_cell_length_a   7.09446000
_cell_length_b   12.87500000
_cell_length_c   16.11030000
_cell_angle_alpha   77.49770000
_cell_angle_beta   77.31940000
_cell_angle_gamma   74.03900000
_symmetry_Int_Tables_number   1
_chemical_formula_structural   ZnH22C28(N5O2)2
_chemical_formula_sum   'Zn2 H44 C56 N20 O8'
_cell_volume   1361.04436719
_cell_formula_units_Z   2
loop_
 _symmetry_equiv_pos_site_id
 _symmetry_equiv_pos_as_xyz
  1  'x, y, z'
loop_
 _atom_site_type_symbol
 _atom_site_label
 _atom_site_symmetry_multiplicity
 _atom_site_fract_x
 _atom_site_fract_y
 _atom_site_fract_z
 _atom_site_occupancy
  Zn  Zn0  1  0.93380000  0.74993000  0.24998000  1.0
  Zn  Zn1  1  0.06619000  0.25006000  0.75002000  1.0
  H  H2  1  0.83821000  0.04877000  0.21465000  1.0
  H  H3  1  0.10209000  0.45117000  0.28559000  1.0
  H  H4  1  0.16178000  0.95123000  0.78534000  1.0
  H  H5  1  0.89791000  0.54883000  0.71441000  1.0
  H  H6  1  0.75106000  0.04012000  0.37473000  1.0
  H  H7  1  0.16591000  0.45983000  0.12548000  1.0
  H  H8  1  0.24893000  0.95988000  0.62526000  1.0
  H  H9  1  0.83409000  0.54016000  0.87451000  1.0
  H  H10  1  0.64116000  0.20897000  0.43995000  1.0
  H  H11  1  0.28946000  0.29099000  0.06027000  1.0
  H  H12  1  0.35883000  0.79102000  0.56005000  1.0
  H  H13  1  0.71054000  0.70900000  0.93972000  1.0
  H  H14  1  0.62851000  0.39199000  0.35021000  1.0
  H  H15  1  0.37005000  0.10797000  0.15000000  1.0
  H  H16  1  0.37149000  0.60800000  0.64980000  1.0
  H  H17  1  0.62994000  0.89202000  0.85000000  1.0
  H  H18  1  0.80691000  0.55428000  0.10580000  1.0
  H  H19  1  0.46717000  0.94570000  0.39449000  1.0
  H  H20  1  0.19310000  0.44572000  0.89421000  1.0
  H  H21  1  0.53283000  0.05429000  0.60551000  1.0
  H  H22  1  0.74015000  0.53613000  0.21992000  1.0
  H  H23  1  0.49616000  0.96376000  0.28037000  1.0
  H  H24  1  0.25986000  0.46387000  0.78009000  1.0
  H  H25  1  0.50384000  0.03624000  0.71963000  1.0
  H  H26  1  0.51372000  0.58146000  0.01659000  1.0
  H  H27  1  0.11199000  0.91835000  0.48366000  1.0
  H  H28  1  0.48629000  0.41854000  0.98342000  1.0
  H  H29  1  0.88801000  0.08166000  0.51633000  1.0
  H  H30  1  0.12123000  0.69839000  0.05536000  1.0
  H  H31  1  0.87568000  0.80108000  0.44482000  1.0
  H  H32  1  0.87878000  0.30161000  0.94464000  1.0
  H  H33  1  0.12430000  0.19893000  0.55518000  1.0
  H  H34  1  0.37965000  0.61259000  0.28084000  1.0
  H  H35  1  0.27312000  0.88727000  0.21941000  1.0
  H  H36  1  0.62035000  0.38741000  0.71917000  1.0
  H  H37  1  0.72687000  0.11272000  0.78058000  1.0
  H  H38  1  0.30078000  0.68201000  0.44237000  1.0
  H  H39  1  0.42735000  0.81741000  0.05719000  1.0
  H  H40  1  0.69921000  0.31800000  0.55764000  1.0
  H  H41  1  0.57267000  0.18261000  0.94281000  1.0
  H  H42  1  0.86757000  0.45085000  0.45198000  1.0
  H  H43  1  0.76950000  0.05010000  0.04813000  1.0
  H  H44  1  0.13242000  0.54915000  0.54802000  1.0
  H  H45  1  0.23052000  0.94992000  0.95187000  1.0
  C  C46  1  0.78681000  0.22660000  0.19272000  1.0
  C  C47  1  0.20658000  0.27337000  0.30749000  1.0
  C  C48  1  0.21318000  0.77341000  0.80728000  1.0
  C  C49  1  0.79342000  0.72662000  0.69250000  1.0
  C  C50  1  0.79653000  0.12260000  0.24376000  1.0
  C  C51  1  0.16325000  0.37735000  0.25645000  1.0
  C  C52  1  0.20346000  0.87740000  0.75624000  1.0
  C  C53  1  0.83676000  0.62264000  0.74355000  1.0
  C  C54  1  0.74593000  0.11903000  0.33252000  1.0
  C  C55  1  0.19751000  0.38094000  0.16770000  1.0
  C  C56  1  0.25406000  0.88097000  0.66748000  1.0
  C  C57  1  0.80250000  0.61905000  0.83229000  1.0
  C  C58  1  0.68507000  0.21529000  0.37014000  1.0
  C  C59  1  0.27027000  0.28467000  0.13008000  1.0
  C  C60  1  0.31492000  0.78470000  0.62986000  1.0
  C  C61  1  0.72973000  0.71533000  0.86991000  1.0
  C  C62  1  0.67499000  0.31861000  0.32050000  1.0
  C  C63  1  0.31393000  0.18134000  0.17972000  1.0
  C  C64  1  0.32500000  0.68139000  0.67950000  1.0
  C  C65  1  0.68607000  0.81865000  0.82028000  1.0
  C  C66  1  0.72845000  0.32198000  0.23124000  1.0
  C  C67  1  0.28187000  0.17798000  0.26898000  1.0
  C  C68  1  0.27155000  0.67802000  0.76876000  1.0
  C  C69  1  0.71813000  0.82202000  0.73101000  1.0
  C  C70  1  0.70718000  0.52097000  0.16081000  1.0
  C  C71  1  0.38906000  0.97897000  0.33946000  1.0
  C  C72  1  0.29283000  0.47903000  0.83920000  1.0
  C  C73  1  0.61094000  0.02102000  0.66053000  1.0
  C  C74  1  0.42572000  0.60492000  0.07647000  1.0
  C  C75  1  0.10741000  0.89487000  0.42375000  1.0
  C  C76  1  0.57428000  0.39508000  0.92354000  1.0
  C  C77  1  0.89258000  0.10513000  0.57624000  1.0
  C  C78  1  0.23247000  0.66245000  0.09648000  1.0
  C  C79  1  0.99186000  0.83714000  0.40370000  1.0
  C  C80  1  0.76754000  0.33754000  0.90352000  1.0
  C  C81  1  0.00813000  0.16286000  0.59630000  1.0
  C  C82  1  0.35917000  0.62028000  0.21479000  1.0
  C  C83  1  0.19432000  0.87955000  0.28544000  1.0
  C  C84  1  0.64084000  0.37972000  0.78521000  1.0
  C  C85  1  0.80567000  0.12044000  0.71456000  1.0
  C  C86  1  0.68833000  0.65721000  0.37672000  1.0
  C  C87  1  0.72333000  0.84301000  0.12309000  1.0
  C  C88  1  0.31166000  0.34279000  0.62327000  1.0
  C  C89  1  0.27668000  0.15700000  0.87691000  1.0
  C  C90  1  0.59363000  0.57493000  0.44034000  1.0
  C  C91  1  0.60968000  0.92521000  0.05949000  1.0
  C  C92  1  0.40636000  0.42506000  0.55966000  1.0
  C  C93  1  0.39034000  0.07480000  0.94051000  1.0
  C  C94  1  0.38684000  0.60169000  0.46764000  1.0
  C  C95  1  0.45747000  0.89795000  0.03211000  1.0
  C  C96  1  0.61315000  0.39831000  0.53237000  1.0
  C  C97  1  0.54255000  0.10206000  0.96789000  1.0
  C  C98  1  0.70693000  0.47239000  0.47315000  1.0
  C  C99  1  0.65197000  0.02811000  0.02693000  1.0
  C  C100  1  0.29306000  0.52761000  0.52685000  1.0
  C  C101  1  0.34805000  0.97190000  0.97307000  1.0
  N  N102  1  0.82909000  0.25776000  0.10431000  1.0
  N  N103  1  0.19186000  0.24220000  0.39590000  1.0
  N  N104  1  0.17091000  0.74225000  0.89569000  1.0
  N  N105  1  0.80814000  0.75779000  0.60409000  1.0
  N  N106  1  0.80267000  0.36371000  0.08704000  1.0
  N  N107  1  0.25402000  0.13626000  0.41318000  1.0
  N  N108  1  0.19734000  0.63630000  0.91296000  1.0
  N  N109  1  0.74598000  0.86373000  0.58682000  1.0
  N  N110  1  0.74185000  0.40497000  0.16259000  1.0
  N  N111  1  0.30973000  0.09500000  0.33762000  1.0
  N  N112  1  0.25815000  0.59504000  0.83741000  1.0
  N  N113  1  0.69027000  0.90499000  0.66237000  1.0
  N  N114  1  0.50329000  0.57881000  0.15196000  1.0
  N  N115  1  0.23410000  0.92113000  0.34828000  1.0
  N  N116  1  0.49671000  0.42120000  0.84805000  1.0
  N  N117  1  0.76589000  0.07887000  0.65172000  1.0
  N  N118  1  0.19342000  0.67151000  0.18281000  1.0
  N  N119  1  0.04809000  0.82814000  0.31737000  1.0
  N  N120  1  0.80658000  0.32849000  0.81719000  1.0
  N  N121  1  0.95190000  0.17186000  0.68263000  1.0
  O  O122  1  0.60977000  0.75760000  0.37368000  1.0
  O  O123  1  0.74249000  0.74259000  0.12603000  1.0
  O  O124  1  0.39023000  0.24240000  0.62632000  1.0
  O  O125  1  0.25752000  0.25742000  0.87397000  1.0
  O  O126  1  0.85036000  0.61895000  0.32563000  1.0
  O  O127  1  0.79567000  0.88129000  0.17436000  1.0
  O  O128  1  0.14963000  0.38104000  0.67437000  1.0
  O  O129  1  0.20435000  0.11872000  0.82564000  1.0
