# generated using pymatgen
data_ZnH12C9N4O3
_symmetry_space_group_name_H-M   'P 1'
_cell_length_a   8.94811000
_cell_length_b   10.87670000
_cell_length_c   14.58500000
_cell_angle_alpha   96.58470000
_cell_angle_beta   90.00000000
_cell_angle_gamma   90.00000000
_symmetry_Int_Tables_number   1
_chemical_formula_structural   ZnH12C9N4O3
_chemical_formula_sum   'Zn4 H48 C36 N16 O12'
_cell_volume   1410.13453767
_cell_formula_units_Z   4
loop_
 _symmetry_equiv_pos_site_id
 _symmetry_equiv_pos_as_xyz
  1  'x, y, z'
loop_
 _atom_site_type_symbol
 _atom_site_label
 _atom_site_symmetry_multiplicity
 _atom_site_fract_x
 _atom_site_fract_y
 _atom_site_fract_z
 _atom_site_occupancy
  Zn  Zn0  1  0.25649000  0.06229000  0.28161000  1.0
  Zn  Zn1  1  0.75649000  0.93771000  0.71839000  1.0
  Zn  Zn2  1  0.74764000  0.36600000  0.18371000  1.0
  Zn  Zn3  1  0.24764000  0.63400000  0.81629000  1.0
  H  H4  1  0.12417000  0.41949000  0.76586000  1.0
  H  H5  1  0.62417000  0.58051000  0.23414000  1.0
  H  H6  1  0.13958000  0.49759000  0.67604000  1.0
  H  H7  1  0.63958000  0.50241000  0.32396000  1.0
  H  H8  1  0.57407000  0.16812000  0.27543000  1.0
  H  H9  1  0.07407000  0.83188000  0.72457000  1.0
  H  H10  1  0.23780000  0.16409000  0.07310000  1.0
  H  H11  1  0.73780000  0.83591000  0.92690000  1.0
  H  H12  1  0.57135000  0.51159000  0.06682000  1.0
  H  H13  1  0.07135000  0.48841000  0.93318000  1.0
  H  H14  1  0.35857000  0.32026000  0.96632000  1.0
  H  H15  1  0.85856000  0.67974000  0.03368000  1.0
  H  H16  1  0.55760000  0.32188000  0.96734000  1.0
  H  H17  1  0.05760000  0.67812000  0.03266000  1.0
  H  H18  1  0.26062000  0.58954000  0.29641000  1.0
  H  H19  1  0.76062000  0.41046000  0.70359000  1.0
  H  H20  1  0.14079000  0.63185000  0.21055000  1.0
  H  H21  1  0.64078000  0.36815000  0.78945000  1.0
  H  H22  1  0.12500000  0.86482000  0.19697000  1.0
  H  H23  1  0.62500000  0.13518000  0.80304000  1.0
  H  H24  1  0.30326000  0.86642000  0.16934000  1.0
  H  H25  1  0.80326000  0.13358000  0.83066000  1.0
  H  H26  1  0.18615000  0.79916000  0.34638000  1.0
  H  H27  1  0.68615000  0.20084000  0.65362000  1.0
  H  H28  1  0.37723000  0.80293000  0.31287000  1.0
  H  H29  1  0.87723000  0.19708000  0.68714000  1.0
  H  H30  1  0.24902000  0.72322000  0.61458000  1.0
  H  H31  1  0.74902000  0.27678000  0.38542000  1.0
  H  H32  1  0.24136000  0.48951000  0.09995000  1.0
  H  H33  1  0.74136000  0.51049000  0.90005000  1.0
  H  H34  1  0.61480000  0.03525000  0.54780000  1.0
  H  H35  1  0.11480000  0.96475000  0.45220000  1.0
  H  H36  1  0.29357000  0.04608000  0.60062000  1.0
  H  H37  1  0.79357000  0.95392000  0.39938000  1.0
  H  H38  1  0.38122000  0.36508000  0.75948000  1.0
  H  H39  1  0.88122000  0.63492000  0.24052000  1.0
  H  H40  1  0.40579000  0.44916000  0.66371000  1.0
  H  H41  1  0.90579000  0.55084000  0.33629000  1.0
  H  H42  1  0.56505000  0.77271000  0.82938000  1.0
  H  H43  1  0.06505000  0.22729000  0.17062000  1.0
  H  H44  1  0.19916000  0.22280000  0.66860000  1.0
  H  H45  1  0.69916000  0.77720000  0.33140000  1.0
  H  H46  1  0.21110000  0.31540000  0.57624000  1.0
  H  H47  1  0.71110000  0.68460000  0.42375000  1.0
  H  H48  1  0.37618000  0.83923000  0.49410000  1.0
  H  H49  1  0.87618000  0.16077000  0.50590000  1.0
  H  H50  1  0.57290000  0.82329000  0.49522000  1.0
  H  H51  1  0.07289000  0.17671000  0.50478000  1.0
  C  C52  1  0.51201000  0.19179000  0.21584000  1.0
  C  C53  1  0.01201000  0.80822000  0.78416000  1.0
  C  C54  1  0.34012000  0.18924000  0.11056000  1.0
  C  C55  1  0.84012000  0.81076000  0.88944000  1.0
  C  C56  1  0.45134000  0.26891000  0.08908000  1.0
  C  C57  1  0.95134000  0.73109000  0.91092000  1.0
  C  C58  1  0.44157000  0.54828000  0.94992000  1.0
  C  C59  1  0.94157000  0.45172000  0.05008000  1.0
  C  C60  1  0.46114000  0.48554000  0.03816000  1.0
  C  C61  1  0.96114000  0.51446000  0.96184000  1.0
  C  C62  1  0.45737000  0.34390000  0.00985000  1.0
  C  C63  1  0.95737000  0.65610000  0.99015000  1.0
  C  C64  1  0.25086000  0.65210000  0.24230000  1.0
  C  C65  1  0.75086000  0.34790000  0.75770000  1.0
  C  C66  1  0.26298000  0.78484000  0.28763000  1.0
  C  C67  1  0.76298000  0.21516000  0.71237000  1.0
  C  C68  1  0.46273000  0.82772000  0.62552000  1.0
  C  C69  1  0.96273000  0.17228000  0.37448000  1.0
  C  C70  1  0.34857000  0.75507000  0.65281000  1.0
  C  C71  1  0.84857000  0.24493000  0.34719000  1.0
  C  C72  1  0.48281000  0.02638000  0.42399000  1.0
  C  C73  1  0.98281000  0.97362000  0.57601000  1.0
  C  C74  1  0.50021000  0.00901000  0.52708000  1.0
  C  C75  1  0.00021000  0.99099000  0.47292000  1.0
  C  C76  1  0.37520000  0.61934000  0.17255000  1.0
  C  C77  1  0.87520000  0.38066000  0.82745000  1.0
  C  C78  1  0.32518000  0.39415000  0.69843000  1.0
  C  C79  1  0.82518000  0.60585000  0.30157000  1.0
  C  C80  1  0.50892000  0.78254000  0.76479000  1.0
  C  C81  1  0.00892000  0.21746000  0.23521000  1.0
  C  C82  1  0.27457000  0.28193000  0.63341000  1.0
  C  C83  1  0.77457000  0.71807000  0.36659000  1.0
  C  C84  1  0.47812000  0.86982000  0.53246000  1.0
  C  C85  1  0.97812000  0.13018000  0.46754000  1.0
  C  C86  1  0.40512000  0.20879000  0.58871000  1.0
  C  C87  1  0.90512000  0.79121000  0.41129000  1.0
  N  N88  1  0.19716000  0.47323000  0.73195000  1.0
  N  N89  1  0.69716000  0.52677000  0.26805000  1.0
  N  N90  1  0.37886000  0.72661000  0.74069000  1.0
  N  N91  1  0.87886000  0.27339000  0.25931000  1.0
  N  N92  1  0.37897000  0.14091000  0.19089000  1.0
  N  N93  1  0.87897000  0.85909000  0.80911000  1.0
  N  N94  1  0.56003000  0.26995000  0.15692000  1.0
  N  N95  1  0.06004000  0.73005000  0.84308000  1.0
  N  N96  1  0.23019000  0.87867000  0.22377000  1.0
  N  N97  1  0.73019000  0.12133000  0.77623000  1.0
  N  N98  1  0.56445000  0.84553000  0.69778000  1.0
  N  N99  1  0.06445000  0.15447000  0.30223000  1.0
  N  N100  1  0.34907000  0.52469000  0.10720000  1.0
  N  N101  1  0.84907000  0.47531000  0.89280000  1.0
  N  N102  1  0.39483000  0.08402000  0.58485000  1.0
  N  N103  1  0.89483000  0.91598000  0.41514000  1.0
  O  O104  1  0.30733000  0.58501000  0.93592000  1.0
  O  O105  1  0.80733000  0.41499000  0.06408000  1.0
  O  O106  1  0.54933000  0.55479000  0.89593000  1.0
  O  O107  1  0.04933000  0.44521000  0.10407000  1.0
  O  O108  1  0.34889000  0.05659000  0.40195000  1.0
  O  O109  1  0.84889000  0.94341000  0.59804000  1.0
  O  O110  1  0.49737000  0.67704000  0.17989000  1.0
  O  O111  1  0.99737000  0.32296000  0.82011000  1.0
  O  O112  1  0.59032000  0.00295000  0.37011000  1.0
  O  O113  1  0.09031000  0.99705000  0.62989000  1.0
  O  O114  1  0.51413000  0.26191000  0.55728000  1.0
  O  O115  1  0.01413000  0.73809000  0.44272000  1.0
