# generated using pymatgen
data_Gd2Cu3H24(C4O5)6
_symmetry_space_group_name_H-M   'P 1'
_cell_length_a   12.66290000
_cell_length_b   12.66820000
_cell_length_c   16.36740000
_cell_angle_alpha   90.00090000
_cell_angle_beta   90.00080000
_cell_angle_gamma   119.98400000
_symmetry_Int_Tables_number   1
_chemical_formula_structural   Gd2Cu3H24(C4O5)6
_chemical_formula_sum   'Gd4 Cu6 H48 C48 O60'
_cell_volume   2274.19873371
_cell_formula_units_Z   2
loop_
 _symmetry_equiv_pos_site_id
 _symmetry_equiv_pos_as_xyz
  1  'x, y, z'
loop_
 _atom_site_type_symbol
 _atom_site_label
 _atom_site_symmetry_multiplicity
 _atom_site_fract_x
 _atom_site_fract_y
 _atom_site_fract_z
 _atom_site_occupancy
  Gd  Gd0  1  0.33337000  0.66666667  0.24999000  1.0
  Gd  Gd1  1  0.66666667  0.33328000  0.25001000  1.0
  Gd  Gd2  1  0.66666667  0.33328000  0.74998000  1.0
  Gd  Gd3  1  0.33333333  0.66666667  0.75005000  1.0
  Cu  Cu4  1  0.50003000  0.50002000  0.00002000  1.0
  Cu  Cu5  1  0.99999000  0.49998000  0.00002000  1.0
  Cu  Cu6  1  0.49997000  0.00000000  0.99999000  1.0
  Cu  Cu7  1  0.99999000  0.49998000  0.49999000  1.0
  Cu  Cu8  1  0.50001000  0.50002000  0.50002000  1.0
  Cu  Cu9  1  0.49997000  0.99998000  0.50000000  1.0
  H  H10  1  0.85346000  0.19934000  0.85788000  1.0
  H  H11  1  0.76948000  0.06343000  0.79766000  1.0
  H  H12  1  0.34588000  0.14657000  0.85785000  1.0
  H  H13  1  0.29400000  0.23067000  0.79763000  1.0
  H  H14  1  0.80071000  0.65417000  0.85784000  1.0
  H  H15  1  0.93668000  0.70590000  0.79762000  1.0
  H  H16  1  0.14652000  0.80097000  0.85790000  1.0
  H  H17  1  0.23065000  0.93665000  0.79753000  1.0
  H  H18  1  0.65430000  0.85349000  0.85792000  1.0
  H  H19  1  0.70595000  0.76931000  0.79761000  1.0
  H  H20  1  0.19922000  0.34569000  0.85788000  1.0
  H  H21  1  0.06335000  0.29408000  0.79759000  1.0
  H  H22  1  0.65407000  0.80062000  0.64214000  1.0
  H  H23  1  0.70597000  0.93654000  0.70236000  1.0
  H  H24  1  0.19943000  0.85349000  0.64212000  1.0
  H  H25  1  0.06340000  0.76949000  0.70228000  1.0
  H  H26  1  0.14653000  0.34590000  0.64214000  1.0
  H  H27  1  0.23069000  0.29410000  0.70233000  1.0
  H  H28  1  0.34578000  0.19928000  0.64206000  1.0
  H  H29  1  0.29401000  0.06350000  0.70238000  1.0
  H  H30  1  0.80077000  0.14649000  0.64208000  1.0
  H  H31  1  0.93663000  0.23064000  0.70239000  1.0
  H  H32  1  0.85347000  0.65422000  0.64209000  1.0
  H  H33  1  0.76932000  0.70589000  0.70238000  1.0
  H  H34  1  0.14649000  0.80065000  0.14208000  1.0
  H  H35  1  0.23047000  0.93652000  0.20234000  1.0
  H  H36  1  0.65420000  0.85348000  0.14213000  1.0
  H  H37  1  0.70602000  0.76939000  0.20241000  1.0
  H  H38  1  0.19933000  0.34579000  0.14213000  1.0
  H  H39  1  0.06342000  0.29408000  0.20239000  1.0
  H  H40  1  0.85346000  0.19933000  0.14210000  1.0
  H  H41  1  0.76949000  0.06344000  0.20232000  1.0
  H  H42  1  0.34585000  0.14654000  0.14212000  1.0
  H  H43  1  0.29400000  0.23065000  0.20235000  1.0
  H  H44  1  0.80062000  0.65410000  0.14214000  1.0
  H  H45  1  0.93660000  0.70594000  0.20235000  1.0
  H  H46  1  0.34574000  0.19923000  0.35790000  1.0
  H  H47  1  0.29403000  0.06342000  0.29758000  1.0
  H  H48  1  0.80079000  0.14649000  0.35789000  1.0
  H  H49  1  0.93665000  0.23063000  0.29759000  1.0
  H  H50  1  0.85349000  0.65423000  0.35790000  1.0
  H  H51  1  0.76928000  0.70588000  0.29762000  1.0
  H  H52  1  0.65420000  0.80076000  0.35792000  1.0
  H  H53  1  0.70597000  0.93658000  0.29763000  1.0
  H  H54  1  0.19924000  0.85346000  0.35789000  1.0
  H  H55  1  0.06334000  0.76934000  0.29761000  1.0
  H  H56  1  0.14657000  0.34584000  0.35787000  1.0
  H  H57  1  0.23076000  0.29412000  0.29765000  1.0
  C  C58  1  0.11831000  0.65902000  0.36638000  1.0
  C  C59  1  0.85183000  0.22657000  0.68212000  1.0
  C  C60  1  0.54070000  0.88174000  0.36641000  1.0
  C  C61  1  0.37474000  0.14819000  0.68212000  1.0
  C  C62  1  0.34107000  0.45933000  0.36639000  1.0
  C  C63  1  0.77337000  0.62518000  0.68214000  1.0
  C  C64  1  0.88169000  0.34092000  0.36641000  1.0
  C  C65  1  0.14816000  0.77341000  0.68213000  1.0
  C  C66  1  0.45928000  0.11829000  0.36641000  1.0
  C  C67  1  0.62520000  0.85182000  0.68217000  1.0
  C  C68  1  0.65900000  0.54070000  0.36640000  1.0
  C  C69  1  0.22667000  0.37485000  0.68215000  1.0
  C  C70  1  0.45928000  0.34097000  0.13360000  1.0
  C  C71  1  0.62524000  0.77339000  0.81788000  1.0
  C  C72  1  0.65899000  0.11826000  0.13359000  1.0
  C  C73  1  0.22657000  0.85193000  0.81784000  1.0
  C  C74  1  0.88173000  0.54068000  0.13362000  1.0
  C  C75  1  0.14814000  0.37476000  0.81785000  1.0
  C  C76  1  0.54076000  0.65903000  0.13361000  1.0
  C  C77  1  0.37479000  0.22667000  0.81784000  1.0
  C  C78  1  0.34097000  0.88173000  0.13358000  1.0
  C  C79  1  0.77340000  0.14812000  0.81784000  1.0
  C  C80  1  0.11830000  0.45929000  0.13361000  1.0
  C  C81  1  0.85188000  0.62518000  0.81782000  1.0
  C  C82  1  0.88166000  0.34092000  0.63358000  1.0
  C  C83  1  0.14813000  0.77338000  0.31785000  1.0
  C  C84  1  0.45925000  0.11828000  0.63358000  1.0
  C  C85  1  0.62524000  0.85186000  0.31786000  1.0
  C  C86  1  0.65898000  0.54072000  0.63361000  1.0
  C  C87  1  0.22671000  0.37484000  0.31785000  1.0
  C  C88  1  0.11830000  0.65903000  0.63361000  1.0
  C  C89  1  0.85186000  0.22657000  0.31785000  1.0
  C  C90  1  0.54065000  0.88169000  0.63363000  1.0
  C  C91  1  0.37474000  0.14815000  0.31784000  1.0
  C  C92  1  0.34104000  0.45934000  0.63362000  1.0
  C  C93  1  0.77336000  0.62518000  0.31786000  1.0
  C  C94  1  0.54075000  0.65907000  0.86644000  1.0
  C  C95  1  0.37478000  0.22664000  0.18214000  1.0
  C  C96  1  0.34096000  0.88177000  0.86641000  1.0
  C  C97  1  0.77341000  0.14814000  0.18214000  1.0
  C  C98  1  0.11827000  0.45926000  0.86642000  1.0
  C  C99  1  0.85183000  0.62517000  0.18216000  1.0
  C  C100  1  0.45930000  0.34101000  0.86639000  1.0
  C  C101  1  0.62525000  0.77338000  0.18216000  1.0
  C  C102  1  0.65898000  0.11825000  0.86639000  1.0
  C  C103  1  0.22654000  0.85183000  0.18213000  1.0
  C  C104  1  0.88173000  0.54066000  0.86639000  1.0
  C  C105  1  0.14820000  0.37481000  0.18216000  1.0
  O  O106  1  0.17678000  0.60503000  0.35096000  1.0
  O  O107  1  0.03582000  0.62992000  0.42025000  1.0
  O  O108  1  0.42824000  0.82321000  0.35094000  1.0
  O  O109  1  0.59406000  0.96418000  0.42028000  1.0
  O  O110  1  0.39495000  0.57174000  0.35097000  1.0
  O  O111  1  0.37013000  0.40593000  0.42028000  1.0
  O  O112  1  0.82320000  0.39490000  0.35099000  1.0
  O  O113  1  0.96419000  0.37003000  0.42026000  1.0
  O  O114  1  0.57174000  0.17680000  0.35096000  1.0
  O  O115  1  0.40589000  0.03584000  0.42028000  1.0
  O  O116  1  0.60510000  0.42830000  0.35097000  1.0
  O  O117  1  0.62996000  0.59411000  0.42029000  1.0
  O  O118  1  0.57174000  0.39496000  0.14902000  1.0
  O  O119  1  0.40590000  0.37009000  0.07974000  1.0
  O  O120  1  0.60506000  0.17679000  0.14902000  1.0
  O  O121  1  0.62988000  0.03578000  0.07974000  1.0
  O  O122  1  0.82326000  0.42827000  0.14905000  1.0
  O  O123  1  0.96421000  0.59410000  0.07975000  1.0
  O  O124  1  0.42829000  0.60506000  0.14902000  1.0
  O  O125  1  0.59418000  0.62992000  0.07977000  1.0
  O  O126  1  0.39491000  0.82320000  0.14901000  1.0
  O  O127  1  0.37006000  0.96420000  0.07973000  1.0
  O  O128  1  0.17679000  0.57170000  0.14902000  1.0
  O  O129  1  0.03581000  0.40584000  0.07974000  1.0
  O  O130  1  0.82317000  0.39490000  0.64899000  1.0
  O  O131  1  0.96417000  0.37003000  0.57974000  1.0
  O  O132  1  0.57171000  0.17680000  0.64902000  1.0
  O  O133  1  0.40585000  0.03580000  0.57973000  1.0
  O  O134  1  0.60509000  0.42831000  0.64903000  1.0
  O  O135  1  0.62992000  0.59413000  0.57973000  1.0
  O  O136  1  0.17674000  0.60501000  0.64904000  1.0
  O  O137  1  0.03582000  0.62994000  0.57974000  1.0
  O  O138  1  0.42820000  0.82321000  0.64910000  1.0
  O  O139  1  0.59402000  0.96411000  0.57974000  1.0
  O  O140  1  0.39495000  0.57174000  0.64908000  1.0
  O  O141  1  0.37009000  0.40595000  0.57972000  1.0
  O  O142  1  0.42829000  0.60510000  0.85104000  1.0
  O  O143  1  0.59415000  0.62995000  0.92029000  1.0
  O  O144  1  0.39485000  0.82319000  0.85101000  1.0
  O  O145  1  0.37008000  0.96426000  0.92025000  1.0
  O  O146  1  0.17678000  0.57168000  0.85102000  1.0
  O  O147  1  0.03579000  0.40582000  0.92029000  1.0
  O  O148  1  0.57176000  0.39499000  0.85097000  1.0
  O  O149  1  0.40590000  0.37011000  0.92024000  1.0
  O  O150  1  0.60505000  0.17678000  0.85096000  1.0
  O  O151  1  0.62988000  0.03577000  0.92024000  1.0
  O  O152  1  0.82325000  0.42825000  0.85095000  1.0
  O  O153  1  0.96418000  0.59408000  0.92028000  1.0
  O  O154  1  0.77876000  0.22098000  0.74995000  1.0
  O  O155  1  0.44228000  0.22124000  0.74995000  1.0
  O  O156  1  0.77893000  0.55764000  0.74995000  1.0
  O  O157  1  0.22099000  0.77878000  0.75006000  1.0
  O  O158  1  0.55770000  0.77894000  0.75007000  1.0
  O  O159  1  0.22122000  0.44235000  0.75004000  1.0
  O  O160  1  0.22115000  0.77892000  0.25000000  1.0
  O  O161  1  0.55771000  0.77887000  0.25001000  1.0
  O  O162  1  0.22122000  0.44237000  0.25000000  1.0
  O  O163  1  0.77878000  0.22102000  0.25003000  1.0
  O  O164  1  0.44230000  0.22119000  0.25002000  1.0
  O  O165  1  0.77889000  0.55763000  0.25004000  1.0
