# generated using pymatgen
data_CuH12C13(N2O3)2
_symmetry_space_group_name_H-M   'P 1'
_cell_length_a   10.15200000
_cell_length_b   11.69890000
_cell_length_c   14.37500000
_cell_angle_alpha   70.31220000
_cell_angle_beta   69.37350000
_cell_angle_gamma   64.32080000
_symmetry_Int_Tables_number   1
_chemical_formula_structural   CuH12C13(N2O3)2
_chemical_formula_sum   'Cu4 H48 C52 N16 O24'
_cell_volume   1405.25050065
_cell_formula_units_Z   4
loop_
 _symmetry_equiv_pos_site_id
 _symmetry_equiv_pos_as_xyz
  1  'x, y, z'
loop_
 _atom_site_type_symbol
 _atom_site_label
 _atom_site_symmetry_multiplicity
 _atom_site_fract_x
 _atom_site_fract_y
 _atom_site_fract_z
 _atom_site_occupancy
  Cu  Cu0  1  0.75238000  0.34831000  0.01955000  1.0
  Cu  Cu1  1  0.12030000  0.15184000  0.48060000  1.0
  Cu  Cu2  1  0.24763000  0.65168000  0.98046000  1.0
  Cu  Cu3  1  0.87970000  0.84816000  0.51940000  1.0
  H  H4  1  0.12433000  0.33587000  0.17972000  1.0
  H  H5  1  0.64001000  0.16372000  0.32049000  1.0
  H  H6  1  0.87564000  0.66416000  0.82028000  1.0
  H  H7  1  0.35999000  0.83629000  0.67951000  1.0
  H  H8  1  0.02256000  0.36959000  0.08754000  1.0
  H  H9  1  0.47973000  0.13006000  0.41238000  1.0
  H  H10  1  0.97741000  0.63042000  0.91246000  1.0
  H  H11  1  0.52028000  0.86992000  0.58760000  1.0
  H  H12  1  0.20625000  0.24712000  0.08150000  1.0
  H  H13  1  0.53529000  0.25213000  0.41890000  1.0
  H  H14  1  0.79373000  0.75289000  0.91850000  1.0
  H  H15  1  0.46469000  0.74784000  0.58112000  1.0
  H  H16  1  0.89171000  0.02744000  0.09057000  1.0
  H  H17  1  0.01032000  0.47248000  0.40919000  1.0
  H  H18  1  0.10831000  0.97255000  0.90942000  1.0
  H  H19  1  0.98967000  0.52753000  0.59080000  1.0
  H  H20  1  0.75626000  0.99775000  0.20560000  1.0
  H  H21  1  0.96059000  0.50190000  0.29399000  1.0
  H  H22  1  0.24377000  0.00222000  0.79439000  1.0
  H  H23  1  0.03943000  0.49808000  0.70600000  1.0
  H  H24  1  0.94249000  0.87894000  0.18418000  1.0
  H  H25  1  0.00634000  0.62088000  0.31556000  1.0
  H  H26  1  0.05755000  0.12105000  0.81581000  1.0
  H  H27  1  0.99364000  0.37913000  0.68443000  1.0
  H  H28  1  0.75262000  0.45076000  0.58306000  1.0
  H  H29  1  0.78640000  0.04965000  0.91677000  1.0
  H  H30  1  0.24739000  0.54922000  0.41693000  1.0
  H  H31  1  0.21362000  0.95034000  0.08322000  1.0
  H  H32  1  0.59351000  0.44646000  0.69040000  1.0
  H  H33  1  0.73011000  0.05353000  0.80957000  1.0
  H  H34  1  0.40652000  0.55350000  0.30961000  1.0
  H  H35  1  0.26990000  0.94648000  0.19042000  1.0
  H  H36  1  0.56508000  0.52663000  0.56543000  1.0
  H  H37  1  0.65743000  0.97331000  0.93463000  1.0
  H  H38  1  0.43490000  0.47336000  0.43459000  1.0
  H  H39  1  0.34258000  0.02669000  0.06536000  1.0
  H  H40  1  0.42307000  0.06334000  0.61800000  1.0
  H  H41  1  0.10459000  0.43646000  0.88176000  1.0
  H  H42  1  0.57693000  0.93664000  0.38200000  1.0
  H  H43  1  0.89542000  0.56356000  0.11824000  1.0
  H  H44  1  0.31829000  0.23313000  0.58842000  1.0
  H  H45  1  0.13985000  0.26667000  0.91146000  1.0
  H  H46  1  0.68171000  0.76685000  0.41157000  1.0
  H  H47  1  0.86014000  0.73335000  0.08855000  1.0
  H  H48  1  0.34446000  0.15464000  0.71512000  1.0
  H  H49  1  0.21414000  0.34501000  0.78472000  1.0
  H  H50  1  0.65552000  0.84535000  0.28487000  1.0
  H  H51  1  0.78587000  0.65498000  0.21528000  1.0
  C  C52  1  0.97499000  0.14781000  0.15676000  1.0
  C  C53  1  0.28015000  0.35218000  0.34334000  1.0
  C  C54  1  0.02500000  0.85222000  0.84323000  1.0
  C  C55  1  0.71983000  0.64784000  0.65667000  1.0
  C  C56  1  0.91726000  0.00703000  0.32244000  1.0
  C  C57  1  0.24729000  0.49291000  0.17756000  1.0
  C  C58  1  0.08274000  0.99298000  0.67755000  1.0
  C  C59  1  0.75270000  0.50710000  0.82246000  1.0
  C  C60  1  0.96591000  0.06912000  0.36507000  1.0
  C  C61  1  0.40054000  0.43096000  0.13506000  1.0
  C  C62  1  0.03408000  0.93089000  0.63493000  1.0
  C  C63  1  0.59946000  0.56905000  0.86495000  1.0
  C  C64  1  0.03412000  0.16042000  0.30345000  1.0
  C  C65  1  0.49833000  0.33952000  0.19670000  1.0
  C  C66  1  0.96588000  0.83959000  0.69655000  1.0
  C  C67  1  0.50168000  0.66048000  0.80330000  1.0
  C  C68  1  0.10065000  0.29451000  0.13260000  1.0
  C  C69  1  0.52799000  0.20508000  0.36757000  1.0
  C  C70  1  0.89933000  0.70551000  0.86740000  1.0
  C  C71  1  0.47201000  0.79491000  0.63243000  1.0
  C  C72  1  0.87574000  0.98330000  0.17187000  1.0
  C  C73  1  0.03166000  0.51651000  0.32788000  1.0
  C  C74  1  0.12429000  0.01669000  0.82812000  1.0
  C  C75  1  0.96834000  0.48349000  0.67212000  1.0
  C  C76  1  0.94361000  0.04241000  0.47686000  1.0
  C  C77  1  0.46301000  0.45750000  0.02326000  1.0
  C  C78  1  0.05640000  0.95759000  0.52314000  1.0
  C  C79  1  0.53699000  0.54251000  0.97675000  1.0
  C  C80  1  0.80141000  0.12610000  0.53347000  1.0
  C  C81  1  0.46083000  0.37373000  0.96673000  1.0
  C  C82  1  0.19859000  0.87389000  0.46653000  1.0
  C  C83  1  0.53918000  0.62626000  0.03328000  1.0
  C  C84  1  0.67303000  0.09193000  0.56668000  1.0
  C  C85  1  0.33170000  0.40798000  0.93322000  1.0
  C  C86  1  0.32697000  0.90806000  0.43331000  1.0
  C  C87  1  0.66830000  0.59201000  0.06679000  1.0
  C  C88  1  0.52279000  0.30002000  0.61608000  1.0
  C  C89  1  0.43880000  0.19987000  0.88383000  1.0
  C  C90  1  0.47722000  0.69997000  0.38391000  1.0
  C  C91  1  0.56119000  0.80015000  0.11617000  1.0
  C  C92  1  0.79654000  0.24023000  0.54941000  1.0
  C  C93  1  0.58594000  0.25969000  0.95080000  1.0
  C  C94  1  0.20345000  0.75977000  0.45059000  1.0
  C  C95  1  0.41408000  0.74032000  0.04920000  1.0
  C  C96  1  0.64058000  0.44469000  0.60924000  1.0
  C  C97  1  0.69448000  0.05538000  0.89072000  1.0
  C  C98  1  0.35941000  0.55529000  0.39077000  1.0
  C  C99  1  0.30553000  0.94462000  0.10927000  1.0
  C  C100  1  0.39542000  0.15693000  0.63393000  1.0
  C  C101  1  0.18631000  0.34284000  0.86589000  1.0
  C  C102  1  0.60458000  0.84305000  0.36606000  1.0
  C  C103  1  0.81370000  0.65716000  0.13411000  1.0
  N  N104  1  0.92510000  0.04732000  0.21820000  1.0
  N  N105  1  0.19128000  0.45258000  0.28179000  1.0
  N  N106  1  0.07490000  0.95269000  0.78179000  1.0
  N  N107  1  0.80873000  0.54743000  0.71822000  1.0
  N  N108  1  0.03368000  0.19837000  0.20045000  1.0
  N  N109  1  0.43293000  0.30155000  0.29970000  1.0
  N  N110  1  0.96630000  0.80165000  0.79955000  1.0
  N  N111  1  0.56708000  0.69845000  0.70031000  1.0
  N  N112  1  0.65579000  0.32272000  0.59270000  1.0
  N  N113  1  0.57107000  0.17720000  0.90732000  1.0
  N  N114  1  0.34421000  0.67727000  0.40730000  1.0
  N  N115  1  0.42894000  0.82279000  0.09268000  1.0
  N  N116  1  0.53589000  0.18130000  0.60598000  1.0
  N  N117  1  0.32317000  0.31853000  0.89390000  1.0
  N  N118  1  0.46411000  0.81869000  0.39402000  1.0
  N  N119  1  0.67683000  0.68147000  0.10611000  1.0
  O  O120  1  0.97317000  0.18877000  0.06505000  1.0
  O  O121  1  0.22767000  0.31128000  0.43504000  1.0
  O  O122  1  0.02682000  0.81124000  0.93495000  1.0
  O  O123  1  0.77233000  0.68873000  0.56497000  1.0
  O  O124  1  0.09543000  0.21121000  0.33451000  1.0
  O  O125  1  0.64133000  0.28859000  0.16568000  1.0
  O  O126  1  0.90457000  0.78880000  0.66548000  1.0
  O  O127  1  0.35867000  0.71140000  0.83433000  1.0
  O  O128  1  0.86560000  0.91534000  0.37261000  1.0
  O  O129  1  0.15415000  0.58441000  0.12726000  1.0
  O  O130  1  0.13440000  0.08467000  0.62738000  1.0
  O  O131  1  0.84586000  0.41562000  0.87275000  1.0
  O  O132  1  0.90999000  0.27422000  0.52742000  1.0
  O  O133  1  0.71129000  0.22575000  0.97291000  1.0
  O  O134  1  0.09001000  0.72578000  0.47257000  1.0
  O  O135  1  0.28872000  0.77426000  0.02708000  1.0
  O  O136  1  0.39925000  0.38225000  0.64503000  1.0
  O  O137  1  0.42643000  0.11755000  0.85489000  1.0
  O  O138  1  0.60074000  0.61775000  0.35497000  1.0
  O  O139  1  0.57358000  0.88246000  0.14510000  1.0
  O  O140  1  0.67534000  0.98376000  0.56094000  1.0
  O  O141  1  0.22035000  0.51628000  0.93867000  1.0
  O  O142  1  0.32467000  0.01623000  0.43905000  1.0
  O  O143  1  0.77963000  0.48373000  0.06135000  1.0
