# generated using pymatgen
data_ZnH3C2IN4
_symmetry_space_group_name_H-M   'P 1'
_cell_length_a   9.58251000
_cell_length_b   9.96956000
_cell_length_c   13.02230000
_cell_angle_alpha   90.00000000
_cell_angle_beta   90.00000000
_cell_angle_gamma   90.00000000
_symmetry_Int_Tables_number   1
_chemical_formula_structural   ZnH3C2IN4
_chemical_formula_sum   'Zn8 H24 C16 I8 N32'
_cell_volume   1244.06470415
_cell_formula_units_Z   8
loop_
 _symmetry_equiv_pos_site_id
 _symmetry_equiv_pos_as_xyz
  1  'x, y, z'
loop_
 _atom_site_type_symbol
 _atom_site_label
 _atom_site_symmetry_multiplicity
 _atom_site_fract_x
 _atom_site_fract_y
 _atom_site_fract_z
 _atom_site_occupancy
  Zn  Zn0  1  0.57429000  0.61590000  0.90068000  1.0
  Zn  Zn1  1  0.92571000  0.38410000  0.40068000  1.0
  Zn  Zn2  1  0.42571000  0.11590000  0.59932000  1.0
  Zn  Zn3  1  0.07429000  0.88410000  0.09932000  1.0
  Zn  Zn4  1  0.42571000  0.38410000  0.09932000  1.0
  Zn  Zn5  1  0.07429000  0.61590000  0.59932000  1.0
  Zn  Zn6  1  0.57429000  0.88409000  0.40068000  1.0
  Zn  Zn7  1  0.92571000  0.11590000  0.90068000  1.0
  H  H8  1  0.67962000  0.91156000  0.83470000  1.0
  H  H9  1  0.82038000  0.08844000  0.33470000  1.0
  H  H10  1  0.32038000  0.41156000  0.66530000  1.0
  H  H11  1  0.17962000  0.58844000  0.16530000  1.0
  H  H12  1  0.32038000  0.08844000  0.16530000  1.0
  H  H13  1  0.17962000  0.91156000  0.66530000  1.0
  H  H14  1  0.67962000  0.58844000  0.33470000  1.0
  H  H15  1  0.82039000  0.41156000  0.83470000  1.0
  H  H16  1  0.88964000  0.65766000  0.15072000  1.0
  H  H17  1  0.61036000  0.34234000  0.65072000  1.0
  H  H18  1  0.11036000  0.15766000  0.34928000  1.0
  H  H19  1  0.38964000  0.84234000  0.84928000  1.0
  H  H20  1  0.11036000  0.34234000  0.84928000  1.0
  H  H21  1  0.38964000  0.65766000  0.34928000  1.0
  H  H22  1  0.88964000  0.84234000  0.65072000  1.0
  H  H23  1  0.61036000  0.15766000  0.15072000  1.0
  H  H24  1  0.76684000  0.56576000  0.08442000  1.0
  H  H25  1  0.73316000  0.43424000  0.58442000  1.0
  H  H26  1  0.23316000  0.06576000  0.41558000  1.0
  H  H27  1  0.26685000  0.93424000  0.91558000  1.0
  H  H28  1  0.23315000  0.43424000  0.91558000  1.0
  H  H29  1  0.26684000  0.56576000  0.41558000  1.0
  H  H30  1  0.76684000  0.93424000  0.58442000  1.0
  H  H31  1  0.73315000  0.06576000  0.08442000  1.0
  C  C32  1  0.74057000  0.87257000  0.89848000  1.0
  C  C33  1  0.75943000  0.12743000  0.39848000  1.0
  C  C34  1  0.25943000  0.37257000  0.60152000  1.0
  C  C35  1  0.24057000  0.62743000  0.10152000  1.0
  C  C36  1  0.25943000  0.12743000  0.10152000  1.0
  C  C37  1  0.24057000  0.87257000  0.60152000  1.0
  C  C38  1  0.74057000  0.62743000  0.39848000  1.0
  C  C39  1  0.75943000  0.37257000  0.89848000  1.0
  C  C40  1  0.81638000  0.74669000  0.02026000  1.0
  C  C41  1  0.68362000  0.25331000  0.52026000  1.0
  C  C42  1  0.18362000  0.24669000  0.47974000  1.0
  C  C43  1  0.31638000  0.75331000  0.97974000  1.0
  C  C44  1  0.18362000  0.25331000  0.97974000  1.0
  C  C45  1  0.31638000  0.74669000  0.47974000  1.0
  C  C46  1  0.81638000  0.75331000  0.52026000  1.0
  C  C47  1  0.68362000  0.24669000  0.02026000  1.0
  I  I48  1  0.52896000  0.65341000  0.70988000  1.0
  I  I49  1  0.97104000  0.34659000  0.20988000  1.0
  I  I50  1  0.47104000  0.15341000  0.79012000  1.0
  I  I51  1  0.02896000  0.84659000  0.29012000  1.0
  I  I52  1  0.47104000  0.34659000  0.29012000  1.0
  I  I53  1  0.02896000  0.65341000  0.79012000  1.0
  I  I54  1  0.52896000  0.84659000  0.20988000  1.0
  I  I55  1  0.97104000  0.15341000  0.70988000  1.0
  N  N56  1  0.84708000  0.93720000  0.94007000  1.0
  N  N57  1  0.65292000  0.06280000  0.44007000  1.0
  N  N58  1  0.15292000  0.43720000  0.55993000  1.0
  N  N59  1  0.34708000  0.56280000  0.05993000  1.0
  N  N60  1  0.15292000  0.06280000  0.05993000  1.0
  N  N61  1  0.34708000  0.93720000  0.55993000  1.0
  N  N62  1  0.84708000  0.56280000  0.44007000  1.0
  N  N63  1  0.65292000  0.43720000  0.94007000  1.0
  N  N64  1  0.71637000  0.75383000  0.94582000  1.0
  N  N65  1  0.78363000  0.24617000  0.44582000  1.0
  N  N66  1  0.28363000  0.25383000  0.55418000  1.0
  N  N67  1  0.21637000  0.74617000  0.05418000  1.0
  N  N68  1  0.28363000  0.24617000  0.05418000  1.0
  N  N69  1  0.21637000  0.75383000  0.55418000  1.0
  N  N70  1  0.71637000  0.74617000  0.44582000  1.0
  N  N71  1  0.78363000  0.25383000  0.94582000  1.0
  N  N72  1  0.89775000  0.85677000  0.01871000  1.0
  N  N73  1  0.60225000  0.14323000  0.51871000  1.0
  N  N74  1  0.10225000  0.35677000  0.48129000  1.0
  N  N75  1  0.39775000  0.64323000  0.98129000  1.0
  N  N76  1  0.10225000  0.14323000  0.98129000  1.0
  N  N77  1  0.39775000  0.85677000  0.48129000  1.0
  N  N78  1  0.89775000  0.64323000  0.51871000  1.0
  N  N79  1  0.60225000  0.35677000  0.01871000  1.0
  N  N80  1  0.83674000  0.64189000  0.08399000  1.0
  N  N81  1  0.66326000  0.35811000  0.58399000  1.0
  N  N82  1  0.16326000  0.14189000  0.41601000  1.0
  N  N83  1  0.33674000  0.85811000  0.91601000  1.0
  N  N84  1  0.16326000  0.35811000  0.91601000  1.0
  N  N85  1  0.33674000  0.64189000  0.41601000  1.0
  N  N86  1  0.83674000  0.85811000  0.58399000  1.0
  N  N87  1  0.66326000  0.14189000  0.08399000  1.0
