# generated using pymatgen
data_CuH7C7SN2
_symmetry_space_group_name_H-M   'P 1'
_cell_length_a   5.71966000
_cell_length_b   7.40228000
_cell_length_c   9.55439000
_cell_angle_alpha   97.51260000
_cell_angle_beta   99.99840000
_cell_angle_gamma   101.65800000
_symmetry_Int_Tables_number   1
_chemical_formula_structural   CuH7C7SN2
_chemical_formula_sum   'Cu2 H14 C14 S2 N4'
_cell_volume   384.34730543
_cell_formula_units_Z   2
loop_
 _symmetry_equiv_pos_site_id
 _symmetry_equiv_pos_as_xyz
  1  'x, y, z'
loop_
 _atom_site_type_symbol
 _atom_site_label
 _atom_site_symmetry_multiplicity
 _atom_site_fract_x
 _atom_site_fract_y
 _atom_site_fract_z
 _atom_site_occupancy
  Cu  Cu0  1  0.64280000  0.99826000  0.66704000  1.0
  Cu  Cu1  1  0.35717000  0.00174000  0.33295000  1.0
  H  H2  1  0.85687000  0.80233000  0.91630000  1.0
  H  H3  1  0.14316000  0.19767000  0.08369000  1.0
  H  H4  1  0.74328000  0.00194000  0.96181000  1.0
  H  H5  1  0.25672000  0.99806000  0.03818000  1.0
  H  H6  1  0.71676000  0.82178000  0.06886000  1.0
  H  H7  1  0.28326000  0.17823000  0.93114000  1.0
  H  H8  1  0.34062000  0.59264000  0.01600000  1.0
  H  H9  1  0.65937000  0.40737000  0.98400000  1.0
  H  H10  1  0.93385000  0.44162000  0.85033000  1.0
  H  H11  1  0.06615000  0.55838000  0.14968000  1.0
  H  H12  1  0.84360000  0.54287000  0.60893000  1.0
  H  H13  1  0.15642000  0.45713000  0.39108000  1.0
  H  H14  1  0.16918000  0.76734000  0.53795000  1.0
  H  H15  1  0.83082000  0.23265000  0.46205000  1.0
  C  C16  1  0.17109000  0.14957000  0.65286000  1.0
  C  C17  1  0.82889000  0.85044000  0.34714000  1.0
  C  C18  1  0.46737000  0.75561000  0.86305000  1.0
  C  C19  1  0.53265000  0.24440000  0.13695000  1.0
  C  C20  1  0.29482000  0.62612000  0.90834000  1.0
  C  C21  1  0.70516000  0.37388000  0.09166000  1.0
  C  C22  1  0.06928000  0.54439000  0.81743000  1.0
  C  C23  1  0.93074000  0.45562000  0.18259000  1.0
  C  C24  1  0.01954000  0.59655000  0.68247000  1.0
  C  C25  1  0.98042000  0.40343000  0.31752000  1.0
  C  C26  1  0.19997000  0.72298000  0.64252000  1.0
  C  C27  1  0.80007000  0.27703000  0.35748000  1.0
  C  C28  1  0.70847000  0.84983000  0.95862000  1.0
  C  C29  1  0.29154000  0.15017000  0.04138000  1.0
  S  S30  1  0.55415000  0.76228000  0.36844000  1.0
  S  S31  1  0.44583000  0.23773000  0.63158000  1.0
  N  N32  1  0.97217000  0.08456000  0.66808000  1.0
  N  N33  1  0.02780000  0.91543000  0.33192000  1.0
  N  N34  1  0.42002000  0.80113000  0.72939000  1.0
  N  N35  1  0.57997000  0.19886000  0.27060000  1.0
