# generated using pymatgen
data_MgH14C5O8
_symmetry_space_group_name_H-M   'P 1'
_cell_length_a   6.87076000
_cell_length_b   7.30012639
_cell_length_c   21.02040000
_cell_angle_alpha   86.31424778
_cell_angle_beta   80.60070000
_cell_angle_gamma   61.95793588
_symmetry_Int_Tables_number   1
_chemical_formula_structural   MgH14C5O8
_chemical_formula_sum   'Mg4 H56 C20 O32'
_cell_volume   917.96561191
_cell_formula_units_Z   4
loop_
 _symmetry_equiv_pos_site_id
 _symmetry_equiv_pos_as_xyz
  1  'x, y, z'
loop_
 _atom_site_type_symbol
 _atom_site_label
 _atom_site_symmetry_multiplicity
 _atom_site_fract_x
 _atom_site_fract_y
 _atom_site_fract_z
 _atom_site_occupancy
  Mg  Mg0  1  0.65913000  0.60763000  0.31542000  1.0
  Mg  Mg1  1  0.91758000  0.10798000  0.81543000  1.0
  Mg  Mg2  1  0.34088000  0.39237000  0.68458000  1.0
  Mg  Mg3  1  0.08241000  0.89203000  0.18457000  1.0
  H  H4  1  0.86389000  0.67530000  0.09402000  1.0
  H  H5  1  0.86615000  0.17595000  0.59414000  1.0
  H  H6  1  0.13611000  0.32470000  0.90598000  1.0
  H  H7  1  0.13385000  0.82405000  0.40586000  1.0
  H  H8  1  0.85319000  0.43893000  0.09305000  1.0
  H  H9  1  0.11360000  0.93945000  0.59315000  1.0
  H  H10  1  0.14682000  0.56106000  0.90695000  1.0
  H  H11  1  0.88640000  0.06055000  0.40685000  1.0
  H  H12  1  0.47312000  0.86218000  0.06440000  1.0
  H  H13  1  0.09987000  0.36253000  0.56440000  1.0
  H  H14  1  0.52687000  0.13782000  0.93560000  1.0
  H  H15  1  0.90013000  0.63747000  0.43560000  1.0
  H  H16  1  0.47318000  0.62291000  0.06131000  1.0
  H  H17  1  0.34191000  0.12308000  0.56139000  1.0
  H  H18  1  0.52682000  0.37709000  0.93869000  1.0
  H  H19  1  0.65809000  0.87692000  0.43861000  1.0
  H  H20  1  0.78850000  0.74866000  0.97098000  1.0
  H  H21  1  0.99152000  0.24875000  0.47098000  1.0
  H  H22  1  0.21150000  0.25134000  0.02902000  1.0
  H  H23  1  0.00850000  0.75124000  0.52902000  1.0
  H  H24  1  0.78894000  0.50844000  0.96771000  1.0
  H  H25  1  0.23420000  0.00848000  0.46781000  1.0
  H  H26  1  0.21106000  0.49156000  0.03229000  1.0
  H  H27  1  0.76581000  0.99151000  0.53219000  1.0
  H  H28  1  0.05792000  0.30774000  0.34519000  1.0
  H  H29  1  0.78877000  0.80788000  0.84514000  1.0
  H  H30  1  0.94207000  0.69227000  0.65481000  1.0
  H  H31  1  0.21123000  0.19212000  0.15486000  1.0
  H  H32  1  0.96208000  0.19004000  0.30829000  1.0
  H  H33  1  0.03929000  0.69035000  0.80838000  1.0
  H  H34  1  0.03792000  0.80996000  0.69171000  1.0
  H  H35  1  0.96071000  0.30965000  0.19162000  1.0
  H  H36  1  0.39758000  0.39789000  0.33145000  1.0
  H  H37  1  0.37272000  0.89815000  0.83141000  1.0
  H  H38  1  0.60242000  0.60211000  0.66855000  1.0
  H  H39  1  0.62728000  0.10185000  0.16859000  1.0
  H  H40  1  0.36222000  0.52232000  0.26583000  1.0
  H  H41  1  0.34924000  0.02269000  0.76584000  1.0
  H  H42  1  0.63778000  0.47768000  0.73417000  1.0
  H  H43  1  0.65076000  0.97731000  0.23416000  1.0
  H  H44  1  0.39228000  0.02849000  0.33427000  1.0
  H  H45  1  0.74491000  0.52883000  0.83425000  1.0
  H  H46  1  0.60772000  0.97151000  0.66573000  1.0
  H  H47  1  0.25509000  0.47117000  0.16575000  1.0
  H  H48  1  0.29256000  0.92880000  0.29216000  1.0
  H  H49  1  0.98645000  0.42928000  0.79220000  1.0
  H  H50  1  0.70744000  0.07120000  0.70784000  1.0
  H  H51  1  0.01355000  0.57072000  0.20780000  1.0
  H  H52  1  0.57939000  0.63829000  0.45293000  1.0
  H  H53  1  0.82944000  0.13835000  0.95292000  1.0
  H  H54  1  0.42062000  0.36170000  0.54707000  1.0
  H  H55  1  0.17055000  0.86166000  0.04708000  1.0
  H  H56  1  0.47815000  0.50972000  0.42714000  1.0
  H  H57  1  0.08493000  0.01005000  0.92713000  1.0
  H  H58  1  0.52185000  0.49028000  0.57286000  1.0
  H  H59  1  0.91507000  0.98995000  0.07286000  1.0
  C  C60  1  0.63413000  0.64760000  0.16949000  1.0
  C  C61  1  0.04846000  0.14797000  0.66956000  1.0
  C  C62  1  0.36588000  0.35240000  0.83051000  1.0
  C  C63  1  0.95154000  0.85203000  0.33044000  1.0
  C  C64  1  0.74850000  0.60764000  0.10009000  1.0
  C  C65  1  0.04311000  0.10812000  0.60017000  1.0
  C  C66  1  0.25150000  0.39235000  0.89991000  1.0
  C  C67  1  0.95689000  0.89188000  0.39983000  1.0
  C  C68  1  0.58208000  0.69676000  0.05293000  1.0
  C  C69  1  0.16767000  0.19705000  0.55297000  1.0
  C  C70  1  0.41792000  0.30324000  0.94707000  1.0
  C  C71  1  0.83233000  0.80295000  0.44703000  1.0
  C  C72  1  0.68145000  0.67256000  0.98206000  1.0
  C  C73  1  0.16345000  0.17265000  0.48209000  1.0
  C  C74  1  0.31855000  0.32744000  0.01794000  1.0
  C  C75  1  0.83655000  0.82735000  0.51791000  1.0
  C  C76  1  0.50307000  0.76587000  0.93846000  1.0
  C  C77  1  0.29241000  0.26575000  0.43848000  1.0
  C  C78  1  0.49692000  0.23414000  0.06154000  1.0
  C  C79  1  0.70759000  0.73425000  0.56152000  1.0
  O  O80  1  0.75991000  0.56474000  0.21390000  1.0
  O  O81  1  0.96110000  0.06515000  0.71397000  1.0
  O  O82  1  0.24010000  0.43526000  0.78610000  1.0
  O  O83  1  0.03890000  0.93485000  0.28603000  1.0
  O  O84  1  0.42656000  0.75685000  0.18214000  1.0
  O  O85  1  0.13438000  0.25714000  0.68219000  1.0
  O  O86  1  0.57345000  0.24315000  0.81786000  1.0
  O  O87  1  0.86562000  0.74286000  0.31781000  1.0
  O  O88  1  0.29971000  0.84901000  0.96331000  1.0
  O  O89  1  0.38809000  0.34867000  0.46332000  1.0
  O  O90  1  0.70029000  0.15099000  0.03669000  1.0
  O  O91  1  0.61192000  0.65132000  0.53668000  1.0
  O  O92  1  0.56752000  0.75726000  0.87702000  1.0
  O  O93  1  0.29788000  0.25719000  0.37705000  1.0
  O  O94  1  0.43247000  0.24275000  0.12297000  1.0
  O  O95  1  0.70212000  0.74281000  0.62295000  1.0
  O  O96  1  0.92818000  0.32701000  0.32541000  1.0
  O  O97  1  0.91903000  0.82728000  0.82545000  1.0
  O  O98  1  0.07182000  0.67299000  0.67459000  1.0
  O  O99  1  0.08096000  0.17273000  0.17455000  1.0
  O  O100  1  0.44652000  0.48723000  0.30212000  1.0
  O  O101  1  0.26376000  0.98755000  0.80211000  1.0
  O  O102  1  0.55347000  0.51277000  0.69788000  1.0
  O  O103  1  0.73624000  0.01245000  0.19789000  1.0
  O  O104  1  0.43453000  0.91793000  0.30184000  1.0
  O  O105  1  0.84581000  0.41816000  0.80187000  1.0
  O  O106  1  0.56547000  0.08207000  0.69816000  1.0
  O  O107  1  0.15419000  0.58184000  0.19813000  1.0
  O  O108  1  0.52936000  0.61639000  0.41384000  1.0
  O  O109  1  0.94041000  0.11667000  0.91385000  1.0
  O  O110  1  0.47064000  0.38361000  0.58616000  1.0
  O  O111  1  0.05959000  0.88333000  0.08615000  1.0
