# generated using pymatgen
data_CaB2H16(C2O)6
_symmetry_space_group_name_H-M   'P 1'
_cell_length_a   5.56959000
_cell_length_b   7.96930000
_cell_length_c   15.54400000
_cell_angle_alpha   99.90840000
_cell_angle_beta   92.02170000
_cell_angle_gamma   90.82600000
_symmetry_Int_Tables_number   1
_chemical_formula_structural   CaB2H16(C2O)6
_chemical_formula_sum   'Ca2 B4 H32 C24 O12'
_cell_volume   679.07076582
_cell_formula_units_Z   2
loop_
 _symmetry_equiv_pos_site_id
 _symmetry_equiv_pos_as_xyz
  1  'x, y, z'
loop_
 _atom_site_type_symbol
 _atom_site_label
 _atom_site_symmetry_multiplicity
 _atom_site_fract_x
 _atom_site_fract_y
 _atom_site_fract_z
 _atom_site_occupancy
  Ca  Ca0  1  0.98451000  0.75457000  0.00026000  1.0
  Ca  Ca1  1  0.01548000  0.24543000  0.99974000  1.0
  B  B2  1  0.85827000  0.05182000  0.14496000  1.0
  B  B3  1  0.14172000  0.94819000  0.85504000  1.0
  B  B4  1  0.72474000  0.45391000  0.88447000  1.0
  B  B5  1  0.27525000  0.54609000  0.11554000  1.0
  H  H6  1  0.58717000  0.01371000  0.29101000  1.0
  H  H7  1  0.41284000  0.98629000  0.70899000  1.0
  H  H8  1  0.66419000  0.12700000  0.44645000  1.0
  H  H9  1  0.33584000  0.87300000  0.55355000  1.0
  H  H10  1  0.02460000  0.31081000  0.49642000  1.0
  H  H11  1  0.97543000  0.68919000  0.50357000  1.0
  H  H12  1  0.31523000  0.37455000  0.38601000  1.0
  H  H13  1  0.68478000  0.62545000  0.61399000  1.0
  H  H14  1  0.24056000  0.25992000  0.23039000  1.0
  H  H15  1  0.75943000  0.74009000  0.76960000  1.0
  H  H16  1  0.73915000  0.82933000  0.18255000  1.0
  H  H17  1  0.26084000  0.17067000  0.81745000  1.0
  H  H18  1  0.23028000  0.01787000  0.13272000  1.0
  H  H19  1  0.76970000  0.98213000  0.86728000  1.0
  H  H20  1  0.58458000  0.21856000  0.11189000  1.0
  H  H21  1  0.41541000  0.78144000  0.88811000  1.0
  H  H22  1  0.34002000  0.55964000  0.78633000  1.0
  H  H23  1  0.65998000  0.44036000  0.21367000  1.0
  H  H24  1  0.18733000  0.44705000  0.63702000  1.0
  H  H25  1  0.81267000  0.55295000  0.36298000  1.0
  H  H26  1  0.41105000  0.22232000  0.54205000  1.0
  H  H27  1  0.58895000  0.77767000  0.45795000  1.0
  H  H28  1  0.78795000  0.10755000  0.60157000  1.0
  H  H29  1  0.21205000  0.89244000  0.39843000  1.0
  H  H30  1  0.92755000  0.21044000  0.75253000  1.0
  H  H31  1  0.07245000  0.78956000  0.24747000  1.0
  H  H32  1  0.08610000  0.46630000  0.84951000  1.0
  H  H33  1  0.91390000  0.53370000  0.15050000  1.0
  H  H34  1  0.51582000  0.61931000  0.96801000  1.0
  H  H35  1  0.48417000  0.38069000  0.03199000  1.0
  H  H36  1  0.52866000  0.24094000  0.91078000  1.0
  H  H37  1  0.47134000  0.75906000  0.08922000  1.0
  C  C38  1  0.74930000  0.09164000  0.31057000  1.0
  C  C39  1  0.25071000  0.90836000  0.68943000  1.0
  C  C40  1  0.79134000  0.15622000  0.39921000  1.0
  C  C41  1  0.20868000  0.84377000  0.60079000  1.0
  C  C42  1  0.99431000  0.25863000  0.42718000  1.0
  C  C43  1  0.00571000  0.74137000  0.57282000  1.0
  C  C44  1  0.15574000  0.29467000  0.36559000  1.0
  C  C45  1  0.84428000  0.70533000  0.63440000  1.0
  C  C46  1  0.11223000  0.22841000  0.27705000  1.0
  C  C47  1  0.88777000  0.77159000  0.72294000  1.0
  C  C48  1  0.90884000  0.12511000  0.24724000  1.0
  C  C49  1  0.09115000  0.87490000  0.75276000  1.0
  C  C50  1  0.43474000  0.45529000  0.74750000  1.0
  C  C51  1  0.56527000  0.54471000  0.25250000  1.0
  C  C52  1  0.35028000  0.39462000  0.66188000  1.0
  C  C53  1  0.64972000  0.60538000  0.33813000  1.0
  C  C54  1  0.47712000  0.26967000  0.60877000  1.0
  C  C55  1  0.52288000  0.73032000  0.39123000  1.0
  C  C56  1  0.68667000  0.20575000  0.64192000  1.0
  C  C57  1  0.31334000  0.79424000  0.35808000  1.0
  C  C58  1  0.76591000  0.26570000  0.72819000  1.0
  C  C59  1  0.23410000  0.73430000  0.27181000  1.0
  C  C60  1  0.64318000  0.39191000  0.78332000  1.0
  C  C61  1  0.35682000  0.60809000  0.21668000  1.0
  O  O62  1  0.72363000  0.88104000  0.13023000  1.0
  O  O63  1  0.27636000  0.11897000  0.86978000  1.0
  O  O64  1  0.08933000  0.02341000  0.09483000  1.0
  O  O65  1  0.91066000  0.97658000  0.90517000  1.0
  O  O66  1  0.73448000  0.16328000  0.09323000  1.0
  O  O67  1  0.26550000  0.83672000  0.90677000  1.0
  O  O68  1  0.99600000  0.46658000  0.90199000  1.0
  O  O69  1  0.00400000  0.53342000  0.09801000  1.0
  O  O70  1  0.63490000  0.62507000  0.92215000  1.0
  O  O71  1  0.36509000  0.37493000  0.07785000  1.0
  O  O72  1  0.64586000  0.32916000  0.94010000  1.0
  O  O73  1  0.35414000  0.67084000  0.05990000  1.0
