# generated using pymatgen
data_ErH36C36N7O16
_symmetry_space_group_name_H-M   'P 1'
_cell_length_a   10.13640000
_cell_length_b   12.07150000
_cell_length_c   19.14670000
_cell_angle_alpha   82.79700000
_cell_angle_beta   80.49850000
_cell_angle_gamma   66.51380000
_symmetry_Int_Tables_number   1
_chemical_formula_structural   ErH36C36N7O16
_chemical_formula_sum   'Er2 H72 C72 N14 O32'
_cell_volume   2114.64891764
_cell_formula_units_Z   2
loop_
 _symmetry_equiv_pos_site_id
 _symmetry_equiv_pos_as_xyz
  1  'x, y, z'
loop_
 _atom_site_type_symbol
 _atom_site_label
 _atom_site_symmetry_multiplicity
 _atom_site_fract_x
 _atom_site_fract_y
 _atom_site_fract_z
 _atom_site_occupancy
  Er  Er0  1  0.67543000  0.70733000  0.28284000  1.0
  Er  Er1  1  0.32457000  0.29267000  0.71716000  1.0
  H  H2  1  0.27525000  0.94690000  0.11311000  1.0
  H  H3  1  0.72475000  0.05311000  0.88690000  1.0
  H  H4  1  0.89167000  0.32204000  0.44925000  1.0
  H  H5  1  0.10833000  0.67798000  0.55075000  1.0
  H  H6  1  0.48149000  0.60404000  0.24306000  1.0
  H  H7  1  0.51851000  0.39596000  0.75693000  1.0
  H  H8  1  0.59580000  0.49496000  0.28901000  1.0
  H  H9  1  0.40420000  0.50504000  0.71099000  1.0
  H  H10  1  0.97996000  0.28295000  0.20878000  1.0
  H  H11  1  0.02003000  0.71705000  0.79122000  1.0
  H  H12  1  0.08569000  0.35511000  0.29026000  1.0
  H  H13  1  0.91430000  0.64491000  0.70974000  1.0
  H  H14  1  0.32786000  0.22499000  0.32883000  1.0
  H  H15  1  0.67212000  0.77503000  0.67117000  1.0
  H  H16  1  0.45919000  0.01789000  0.28505000  1.0
  H  H17  1  0.54079000  0.98212000  0.71496000  1.0
  H  H18  1  0.99760000  0.22341000  0.09898000  1.0
  H  H19  1  0.00241000  0.77659000  0.90101000  1.0
  H  H20  1  0.88459000  0.15493000  0.15380000  1.0
  H  H21  1  0.11542000  0.84507000  0.84620000  1.0
  H  H22  1  0.79717000  0.03860000  0.09840000  1.0
  H  H23  1  0.20283000  0.96140000  0.90159000  1.0
  H  H24  1  0.39325000  0.97274000  0.94598000  1.0
  H  H25  1  0.60676000  0.02726000  0.05402000  1.0
  H  H26  1  0.39618000  0.11083000  0.96942000  1.0
  H  H27  1  0.60383000  0.88916000  0.03058000  1.0
  H  H28  1  0.29019000  0.11457000  0.90227000  1.0
  H  H29  1  0.70982000  0.88543000  0.09773000  1.0
  H  H30  1  0.53481000  0.71517000  0.12494000  1.0
  H  H31  1  0.46519000  0.28484000  0.87506000  1.0
  H  H32  1  0.44272000  0.77667000  0.04888000  1.0
  H  H33  1  0.55728000  0.22334000  0.95112000  1.0
  H  H34  1  0.19947000  0.76689000  0.04491000  1.0
  H  H35  1  0.80053000  0.23312000  0.95509000  1.0
  H  H36  1  0.05012000  0.64242000  0.08570000  1.0
  H  H37  1  0.94989000  0.35758000  0.91430000  1.0
  H  H38  1  0.10727000  0.50005000  0.19468000  1.0
  H  H39  1  0.89274000  0.49994000  0.80531000  1.0
  H  H40  1  0.30717000  0.49182000  0.25852000  1.0
  H  H41  1  0.69284000  0.50817000  0.74148000  1.0
  H  H42  1  0.33426000  0.26395000  0.46966000  1.0
  H  H43  1  0.66574000  0.73603000  0.53034000  1.0
  H  H44  1  0.40421000  0.43818000  0.43325000  1.0
  H  H45  1  0.59579000  0.56181000  0.56676000  1.0
  H  H46  1  0.22991000  0.63164000  0.38374000  1.0
  H  H47  1  0.77011000  0.36835000  0.61626000  1.0
  H  H48  1  0.98217000  0.64880000  0.37059000  1.0
  H  H49  1  0.01785000  0.35120000  0.62940000  1.0
  H  H50  1  0.19466000  0.16096000  0.54001000  1.0
  H  H51  1  0.80533000  0.83904000  0.45999000  1.0
  H  H52  1  0.26949000  0.11229000  0.45204000  1.0
  H  H53  1  0.73048000  0.88771000  0.54796000  1.0
  H  H54  1  0.17732000  0.99996000  0.39377000  1.0
  H  H55  1  0.82266000  0.00005000  0.60623000  1.0
  H  H56  1  0.76195000  0.17354000  0.65758000  1.0
  H  H57  1  0.23804000  0.82645000  0.34243000  1.0
  H  H58  1  0.88200000  0.20281000  0.70595000  1.0
  H  H59  1  0.11798000  0.79718000  0.29406000  1.0
  H  H60  1  0.90473000  0.05071000  0.69738000  1.0
  H  H61  1  0.09526000  0.94927000  0.30263000  1.0
  H  H62  1  0.60466000  0.49730000  0.40852000  1.0
  H  H63  1  0.39533000  0.50269000  0.59148000  1.0
  H  H64  1  0.62859000  0.38678000  0.48216000  1.0
  H  H65  1  0.37143000  0.61321000  0.51785000  1.0
  H  H66  1  0.62584000  0.30643000  0.21568000  1.0
  H  H67  1  0.37414000  0.69358000  0.78432000  1.0
  H  H68  1  0.66666667  0.08961000  0.25581000  1.0
  H  H69  1  0.33333333  0.91039000  0.74420000  1.0
  H  H70  1  0.70512000  0.02047000  0.38227000  1.0
  H  H71  1  0.29489000  0.97951000  0.61773000  1.0
  H  H72  1  0.70755000  0.16769000  0.46313000  1.0
  H  H73  1  0.29248000  0.83228000  0.53687000  1.0
  C  C74  1  0.38330000  0.90918000  0.19746000  1.0
  C  C75  1  0.61669000  0.09082000  0.80256000  1.0
  C  C76  1  0.29670000  0.03322000  0.22135000  1.0
  C  C77  1  0.70329000  0.96678000  0.77866000  1.0
  C  C78  1  0.16014000  0.10903000  0.19941000  1.0
  C  C79  1  0.83986000  0.89098000  0.80059000  1.0
  C  C80  1  0.08491000  0.22412000  0.22494000  1.0
  C  C81  1  0.91508000  0.77589000  0.77505000  1.0
  C  C82  1  0.14588000  0.26493000  0.27121000  1.0
  C  C83  1  0.85411000  0.73508000  0.72878000  1.0
  C  C84  1  0.28060000  0.19197000  0.29305000  1.0
  C  C85  1  0.71939000  0.80804000  0.70695000  1.0
  C  C86  1  0.35408000  0.07654000  0.26871000  1.0
  C  C87  1  0.64591000  0.92347000  0.73130000  1.0
  C  C88  1  0.98588000  0.13731000  0.11755000  1.0
  C  C89  1  0.01412000  0.86269000  0.88245000  1.0
  C  C90  1  0.10860000  0.04328000  0.00195000  1.0
  C  C91  1  0.89141000  0.95671000  0.99805000  1.0
  C  C92  1  0.99125000  0.06769000  0.05669000  1.0
  C  C93  1  0.00876000  0.93230000  0.94330000  1.0
  C  C94  1  0.88404000  0.02341000  0.05437000  1.0
  C  C95  1  0.11598000  0.97659000  0.94563000  1.0
  C  C96  1  0.32874000  0.06979000  0.95280000  1.0
  C  C97  1  0.67128000  0.93021000  0.04719000  1.0
  C  C98  1  0.42783000  0.76356000  0.10707000  1.0
  C  C99  1  0.57217000  0.23645000  0.89294000  1.0
  C  C100  1  0.33372000  0.69118000  0.12951000  1.0
  C  C101  1  0.66628000  0.30883000  0.87049000  1.0
  C  C102  1  0.22154000  0.70347000  0.09153000  1.0
  C  C103  1  0.77846000  0.29654000  0.90848000  1.0
  C  C104  1  0.13829000  0.63450000  0.11436000  1.0
  C  C105  1  0.86172000  0.36550000  0.88564000  1.0
  C  C106  1  0.16941000  0.55544000  0.17463000  1.0
  C  C107  1  0.83059000  0.44456000  0.82536000  1.0
  C  C108  1  0.28108000  0.55028000  0.21019000  1.0
  C  C109  1  0.71893000  0.44973000  0.78981000  1.0
  C  C110  1  0.86457000  0.48736000  0.40317000  1.0
  C  C111  1  0.13544000  0.51266000  0.59683000  1.0
  C  C112  1  0.01577000  0.46740000  0.41227000  1.0
  C  C113  1  0.98424000  0.53260000  0.58772000  1.0
  C  C114  1  0.11730000  0.35784000  0.44086000  1.0
  C  C115  1  0.88270000  0.64216000  0.55914000  1.0
  C  C116  1  0.25676000  0.34799000  0.44798000  1.0
  C  C117  1  0.74324000  0.65200000  0.55202000  1.0
  C  C118  1  0.29586000  0.44659000  0.42714000  1.0
  C  C119  1  0.70415000  0.55341000  0.57286000  1.0
  C  C120  1  0.19817000  0.55509000  0.39936000  1.0
  C  C121  1  0.80186000  0.44490000  0.60064000  1.0
  C  C122  1  0.05961000  0.56473000  0.39220000  1.0
  C  C123  1  0.94041000  0.43526000  0.60780000  1.0
  C  C124  1  0.16914000  0.14801000  0.48880000  1.0
  C  C125  1  0.83084000  0.85199000  0.51120000  1.0
  C  C126  1  0.98385000  0.07076000  0.55637000  1.0
  C  C127  1  0.01613000  0.92924000  0.44363000  1.0
  C  C128  1  0.08485000  0.06893000  0.49595000  1.0
  C  C129  1  0.91513000  0.93108000  0.50405000  1.0
  C  C130  1  0.09939000  0.99899000  0.44013000  1.0
  C  C131  1  0.90059000  0.00101000  0.55988000  1.0
  C  C132  1  0.87342000  0.14199000  0.67079000  1.0
  C  C133  1  0.12657000  0.85800000  0.32921000  1.0
  C  C134  1  0.67166000  0.40518000  0.42719000  1.0
  C  C135  1  0.32834000  0.59482000  0.57282000  1.0
  C  C136  1  0.67051000  0.31282000  0.38075000  1.0
  C  C137  1  0.32950000  0.68717000  0.61925000  1.0
  C  C138  1  0.64679000  0.27089000  0.26991000  1.0
  C  C139  1  0.35320000  0.72911000  0.73010000  1.0
  C  C140  1  0.66859000  0.15120000  0.29227000  1.0
  C  C141  1  0.33142000  0.84880000  0.70773000  1.0
  C  C142  1  0.69146000  0.11266000  0.36269000  1.0
  C  C143  1  0.30856000  0.88733000  0.63731000  1.0
  C  C144  1  0.69297000  0.19456000  0.40755000  1.0
  C  C145  1  0.30705000  0.80543000  0.59245000  1.0
  N  N146  1  0.36182000  0.88304000  0.13515000  1.0
  N  N147  1  0.63818000  0.11697000  0.86486000  1.0
  N  N148  1  0.36159000  0.61656000  0.18845000  1.0
  N  N149  1  0.63841000  0.38345000  0.81155000  1.0
  N  N150  1  0.81768000  0.39857000  0.42727000  1.0
  N  N151  1  0.18233000  0.60144000  0.57272000  1.0
  N  N152  1  0.64764000  0.35006000  0.31297000  1.0
  N  N153  1  0.35236000  0.64993000  0.68703000  1.0
  N  N154  1  0.83491000  0.55029000  0.17085000  1.0
  N  N155  1  0.16508000  0.44972000  0.82916000  1.0
  N  N156  1  0.52971000  0.83978000  0.40673000  1.0
  N  N157  1  0.47031000  0.16022000  0.59326000  1.0
  N  N158  1  0.85100000  0.84471000  0.22982000  1.0
  N  N159  1  0.14899000  0.15529000  0.77016000  1.0
  O  O160  1  0.47572000  0.83314000  0.23415000  1.0
  O  O161  1  0.52425000  0.16686000  0.76586000  1.0
  O  O162  1  0.10705000  0.06134000  0.15520000  1.0
  O  O163  1  0.89296000  0.93866000  0.84480000  1.0
  O  O164  1  0.21125000  0.08701000  0.00892000  1.0
  O  O165  1  0.78875000  0.91298000  0.99109000  1.0
  O  O166  1  0.78285000  0.58602000  0.37484000  1.0
  O  O167  1  0.21716000  0.41399000  0.62516000  1.0
  O  O168  1  0.07342000  0.26439000  0.45946000  1.0
  O  O169  1  0.92656000  0.73562000  0.54054000  1.0
  O  O170  1  0.97349000  0.14256000  0.60844000  1.0
  O  O171  1  0.02650000  0.85743000  0.39157000  1.0
  O  O172  1  0.75074000  0.66213000  0.15929000  1.0
  O  O173  1  0.24925000  0.33788000  0.84071000  1.0
  O  O174  1  0.85745000  0.51732000  0.23575000  1.0
  O  O175  1  0.14254000  0.48270000  0.76426000  1.0
  O  O176  1  0.88955000  0.48024000  0.12273000  1.0
  O  O177  1  0.11044000  0.51976000  0.87728000  1.0
  O  O178  1  0.48623000  0.76297000  0.38799000  1.0
  O  O179  1  0.51381000  0.23700000  0.61201000  1.0
  O  O180  1  0.63828000  0.85353000  0.36626000  1.0
  O  O181  1  0.36172000  0.14648000  0.63374000  1.0
  O  O182  1  0.47269000  0.89786000  0.45998000  1.0
  O  O183  1  0.52730000  0.10213000  0.54001000  1.0
  O  O184  1  0.89907000  0.73958000  0.26314000  1.0
  O  O185  1  0.10091000  0.26043000  0.73685000  1.0
  O  O186  1  0.71705000  0.88519000  0.21939000  1.0
  O  O187  1  0.28294000  0.11482000  0.78060000  1.0
  O  O188  1  0.92823000  0.90249000  0.20905000  1.0
  O  O189  1  0.07176000  0.09752000  0.79093000  1.0
  O  O190  1  0.55403000  0.58652000  0.27800000  1.0
  O  O191  1  0.44597000  0.41348000  0.72200000  1.0
