# generated using pymatgen
data_ZnH12C11NO4
_symmetry_space_group_name_H-M   'P 1'
_cell_length_a   6.74550000
_cell_length_b   21.65480000
_cell_length_c   21.65469538
_cell_angle_alpha   60.00352057
_cell_angle_beta   89.99369997
_cell_angle_gamma   89.99370000
_symmetry_Int_Tables_number   1
_chemical_formula_structural   ZnH12C11NO4
_chemical_formula_sum   'Zn6 H72 C66 N6 O24'
_cell_volume   2739.46929043
_cell_formula_units_Z   6
loop_
 _symmetry_equiv_pos_site_id
 _symmetry_equiv_pos_as_xyz
  1  'x, y, z'
loop_
 _atom_site_type_symbol
 _atom_site_label
 _atom_site_symmetry_multiplicity
 _atom_site_fract_x
 _atom_site_fract_y
 _atom_site_fract_z
 _atom_site_occupancy
  Zn  Zn0  1  0.65214000  0.27607000  0.39179000  1.0
  Zn  Zn1  1  0.98516000  0.39168000  0.33209000  1.0
  Zn  Zn2  1  0.31871000  0.33212000  0.27620000  1.0
  Zn  Zn3  1  0.34786000  0.60821000  0.72393000  1.0
  Zn  Zn4  1  0.01484000  0.66791000  0.60832000  1.0
  Zn  Zn5  1  0.68129000  0.72381000  0.66788000  1.0
  H  H6  1  0.27930000  0.44363000  0.46864000  1.0
  H  H7  1  0.61262000  0.46858000  0.08777000  1.0
  H  H8  1  0.94710000  0.08767000  0.44372000  1.0
  H  H9  1  0.72070000  0.53136000  0.55637000  1.0
  H  H10  1  0.38737000  0.91224000  0.53141000  1.0
  H  H11  1  0.05291000  0.55628000  0.91233000  1.0
  H  H12  1  0.83031000  0.41633000  0.57966000  1.0
  H  H13  1  0.16287000  0.58015000  0.00404000  1.0
  H  H14  1  0.49773000  0.00404000  0.41596000  1.0
  H  H15  1  0.16969000  0.42035000  0.58367000  1.0
  H  H16  1  0.83712000  0.99596000  0.41985000  1.0
  H  H17  1  0.50227000  0.58404000  0.99596000  1.0
  H  H18  1  0.97648000  0.36179000  0.51267000  1.0
  H  H19  1  0.30943000  0.51301000  0.12545000  1.0
  H  H20  1  0.64399000  0.12554000  0.36165000  1.0
  H  H21  1  0.02352000  0.48733000  0.63821000  1.0
  H  H22  1  0.69057000  0.87456000  0.48698000  1.0
  H  H23  1  0.35602000  0.63835000  0.87446000  1.0
  H  H24  1  0.65163000  0.10934000  0.51483000  1.0
  H  H25  1  0.98532000  0.51461000  0.37571000  1.0
  H  H26  1  0.31863000  0.37569000  0.10948000  1.0
  H  H27  1  0.34836000  0.48518000  0.89065000  1.0
  H  H28  1  0.01468000  0.62429000  0.48539000  1.0
  H  H29  1  0.68137000  0.89052000  0.62431000  1.0
  H  H30  1  0.41732000  0.06518000  0.53198000  1.0
  H  H31  1  0.75122000  0.53180000  0.40282000  1.0
  H  H32  1  0.08444000  0.40275000  0.06527000  1.0
  H  H33  1  0.58268000  0.46802000  0.93482000  1.0
  H  H34  1  0.24878000  0.59717000  0.46821000  1.0
  H  H35  1  0.91557000  0.93473000  0.59725000  1.0
  H  H36  1  0.54963000  0.06511000  0.60303000  1.0
  H  H37  1  0.88348000  0.60284000  0.33186000  1.0
  H  H38  1  0.21676000  0.33177000  0.06518000  1.0
  H  H39  1  0.45036000  0.39697000  0.93489000  1.0
  H  H40  1  0.11652000  0.66814000  0.39716000  1.0
  H  H41  1  0.78324000  0.93482000  0.66823000  1.0
  H  H42  1  0.25499000  0.27177000  0.53031000  1.0
  H  H43  1  0.58819000  0.53027000  0.19790000  1.0
  H  H44  1  0.92207000  0.19784000  0.27182000  1.0
  H  H45  1  0.74501000  0.46969000  0.72823000  1.0
  H  H46  1  0.41181000  0.80210000  0.46973000  1.0
  H  H47  1  0.07795000  0.72818000  0.80216000  1.0
  H  H48  1  0.06826000  0.22092000  0.59482000  1.0
  H  H49  1  0.40158000  0.59483000  0.18426000  1.0
  H  H50  1  0.73545000  0.18409000  0.22098000  1.0
  H  H51  1  0.93174000  0.40518000  0.77908000  1.0
  H  H52  1  0.59841000  0.81573000  0.40518000  1.0
  H  H53  1  0.26456000  0.77902000  0.81591000  1.0
  H  H54  1  0.03230000  0.24773000  0.50307000  1.0
  H  H55  1  0.36562000  0.50309000  0.24924000  1.0
  H  H56  1  0.69931000  0.24908000  0.24773000  1.0
  H  H57  1  0.96769000  0.49693000  0.75227000  1.0
  H  H58  1  0.63438000  0.75076000  0.49691000  1.0
  H  H59  1  0.30070000  0.75227000  0.75092000  1.0
  H  H60  1  0.07260000  0.07965000  0.56292000  1.0
  H  H61  1  0.40638000  0.56300000  0.35740000  1.0
  H  H62  1  0.73928000  0.35730000  0.07981000  1.0
  H  H63  1  0.92740000  0.43707000  0.92036000  1.0
  H  H64  1  0.59361000  0.64260000  0.43700000  1.0
  H  H65  1  0.26073000  0.92020000  0.64269000  1.0
  H  H66  1  0.00396000  0.10706000  0.62506000  1.0
  H  H67  1  0.33780000  0.62516000  0.26787000  1.0
  H  H68  1  0.67087000  0.26775000  0.10714000  1.0
  H  H69  1  0.99603000  0.37495000  0.89293000  1.0
  H  H70  1  0.66220000  0.73213000  0.37484000  1.0
  H  H71  1  0.32914000  0.89286000  0.73225000  1.0
  H  H72  1  0.22290000  0.05566000  0.63980000  1.0
  H  H73  1  0.55687000  0.63983000  0.30450000  1.0
  H  H74  1  0.88960000  0.30453000  0.05565000  1.0
  H  H75  1  0.77710000  0.36020000  0.94434000  1.0
  H  H76  1  0.44312000  0.69550000  0.36017000  1.0
  H  H77  1  0.11041000  0.94435000  0.69547000  1.0
  C  C78  1  0.71288000  0.37080000  0.45330000  1.0
  C  C79  1  0.04614000  0.45341000  0.17586000  1.0
  C  C80  1  0.38032000  0.17587000  0.37074000  1.0
  C  C81  1  0.28712000  0.54670000  0.62920000  1.0
  C  C82  1  0.95386000  0.82414000  0.54659000  1.0
  C  C83  1  0.61968000  0.62926000  0.82413000  1.0
  C  C84  1  0.51144000  0.39460000  0.44135000  1.0
  C  C85  1  0.84476000  0.44140000  0.16403000  1.0
  C  C86  1  0.17898000  0.16403000  0.39458000  1.0
  C  C87  1  0.48856000  0.55866000  0.60540000  1.0
  C  C88  1  0.15524000  0.83597000  0.55860000  1.0
  C  C89  1  0.82103000  0.60542000  0.83597000  1.0
  C  C90  1  0.43263000  0.42529000  0.47991000  1.0
  C  C91  1  0.76585000  0.47999000  0.09480000  1.0
  C  C92  1  0.10026000  0.09478000  0.42522000  1.0
  C  C93  1  0.56736000  0.52009000  0.57471000  1.0
  C  C94  1  0.23415000  0.90520000  0.52001000  1.0
  C  C95  1  0.89974000  0.57478000  0.90522000  1.0
  C  C96  1  0.54301000  0.43480000  0.52907000  1.0
  C  C97  1  0.87581000  0.52937000  0.03612000  1.0
  C  C98  1  0.21044000  0.03614000  0.43451000  1.0
  C  C99  1  0.45698000  0.47093000  0.56520000  1.0
  C  C100  1  0.12419000  0.96388000  0.47063000  1.0
  C  C101  1  0.78955000  0.56549000  0.96386000  1.0
  C  C102  1  0.74110000  0.41075000  0.54068000  1.0
  C  C103  1  0.07382000  0.54106000  0.04859000  1.0
  C  C104  1  0.40851000  0.04861000  0.41038000  1.0
  C  C105  1  0.25889000  0.45933000  0.58925000  1.0
  C  C106  1  0.92618000  0.95140000  0.45894000  1.0
  C  C107  1  0.59149000  0.58962000  0.95139000  1.0
  C  C108  1  0.82273000  0.37969000  0.50409000  1.0
  C  C109  1  0.15573000  0.50436000  0.11619000  1.0
  C  C110  1  0.49019000  0.11625000  0.37945000  1.0
  C  C111  1  0.17726000  0.49590000  0.62032000  1.0
  C  C112  1  0.84427000  0.88381000  0.49563000  1.0
  C  C113  1  0.50981000  0.62055000  0.88375000  1.0
  C  C114  1  0.37904000  0.39039000  0.38850000  1.0
  C  C115  1  0.71242000  0.38849000  0.22110000  1.0
  C  C116  1  0.04642000  0.22104000  0.39046000  1.0
  C  C117  1  0.62096000  0.61149000  0.60962000  1.0
  C  C118  1  0.28758000  0.77890000  0.61151000  1.0
  C  C119  1  0.95358000  0.60953000  0.77896000  1.0
  C  C120  1  0.41852000  0.16668000  0.52966000  1.0
  C  C121  1  0.75189000  0.52956000  0.30362000  1.0
  C  C122  1  0.08549000  0.30355000  0.16674000  1.0
  C  C123  1  0.58148000  0.47034000  0.83332000  1.0
  C  C124  1  0.24811000  0.69638000  0.47044000  1.0
  C  C125  1  0.91451000  0.83327000  0.69644000  1.0
  C  C126  1  0.51449000  0.09720000  0.54579000  1.0
  C  C127  1  0.84825000  0.54561000  0.35696000  1.0
  C  C128  1  0.18156000  0.35690000  0.09728000  1.0
  C  C129  1  0.48551000  0.45421000  0.90280000  1.0
  C  C130  1  0.15175000  0.64304000  0.45439000  1.0
  C  C131  1  0.81845000  0.90272000  0.64310000  1.0
  C  C132  1  0.14286000  0.23009000  0.54588000  1.0
  C  C133  1  0.47621000  0.54589000  0.22403000  1.0
  C  C134  1  0.80996000  0.22390000  0.23011000  1.0
  C  C135  1  0.85714000  0.45412000  0.76991000  1.0
  C  C136  1  0.52379000  0.77597000  0.45411000  1.0
  C  C137  1  0.19005000  0.76990000  0.77609000  1.0
  C  C138  1  0.13004000  0.09785000  0.59876000  1.0
  C  C139  1  0.46388000  0.59882000  0.30335000  1.0
  C  C140  1  0.79685000  0.30330000  0.09791000  1.0
  C  C141  1  0.86995000  0.40125000  0.90214000  1.0
  C  C142  1  0.53612000  0.69664000  0.40119000  1.0
  C  C143  1  0.20315000  0.90209000  0.69670000  1.0
  N  N144  1  0.24072000  0.16414000  0.55971000  1.0
  N  N145  1  0.57427000  0.55972000  0.27610000  1.0
  N  N146  1  0.90778000  0.27602000  0.16416000  1.0
  N  N147  1  0.75928000  0.44029000  0.83586000  1.0
  N  N148  1  0.42574000  0.72390000  0.44027000  1.0
  N  N149  1  0.09223000  0.83584000  0.72398000  1.0
  O  O150  1  0.80329000  0.34082000  0.42013000  1.0
  O  O151  1  0.13661000  0.42015000  0.23898000  1.0
  O  O152  1  0.47062000  0.23901000  0.34086000  1.0
  O  O153  1  0.19672000  0.57988000  0.65918000  1.0
  O  O154  1  0.86339000  0.76103000  0.57984000  1.0
  O  O155  1  0.52939000  0.65915000  0.76098000  1.0
  O  O156  1  0.44312000  0.36154000  0.35333000  1.0
  O  O157  1  0.77650000  0.35324000  0.28511000  1.0
  O  O158  1  0.11009000  0.28511000  0.36152000  1.0
  O  O159  1  0.55688000  0.64668000  0.63845000  1.0
  O  O160  1  0.22350000  0.71489000  0.64676000  1.0
  O  O161  1  0.88990000  0.63848000  0.71489000  1.0
  O  O162  1  0.20529000  0.41739000  0.37976000  1.0
  O  O163  1  0.53865000  0.37977000  0.20283000  1.0
  O  O164  1  0.87279000  0.20275000  0.41758000  1.0
  O  O165  1  0.79471000  0.62024000  0.58262000  1.0
  O  O166  1  0.46134000  0.79717000  0.62023000  1.0
  O  O167  1  0.12722000  0.58242000  0.79725000  1.0
  O  O168  1  0.50337000  0.22547000  0.49153000  1.0
  O  O169  1  0.83626000  0.49131000  0.28298000  1.0
  O  O170  1  0.17007000  0.28296000  0.22556000  1.0
  O  O171  1  0.49663000  0.50847000  0.77453000  1.0
  O  O172  1  0.16374000  0.71702000  0.50869000  1.0
  O  O173  1  0.82993000  0.77444000  0.71704000  1.0
