# generated using pymatgen
data_DyH14C17NO7
_symmetry_space_group_name_H-M   'P 1'
_cell_length_a   6.34716000
_cell_length_b   16.36690000
_cell_length_c   24.22540000
_cell_angle_alpha   89.99990000
_cell_angle_beta   88.84520000
_cell_angle_gamma   89.99960000
_symmetry_Int_Tables_number   1
_chemical_formula_structural   DyH14C17NO7
_chemical_formula_sum   'Dy4 H56 C68 N4 O28'
_cell_volume   2516.10415464
_cell_formula_units_Z   4
loop_
 _symmetry_equiv_pos_site_id
 _symmetry_equiv_pos_as_xyz
  1  'x, y, z'
loop_
 _atom_site_type_symbol
 _atom_site_label
 _atom_site_symmetry_multiplicity
 _atom_site_fract_x
 _atom_site_fract_y
 _atom_site_fract_z
 _atom_site_occupancy
  Dy  Dy0  1  0.26356000  0.93757000  0.97683000  1.0
  Dy  Dy1  1  0.73644000  0.43757000  0.52317000  1.0
  Dy  Dy2  1  0.73645000  0.06243000  0.02317000  1.0
  Dy  Dy3  1  0.26355000  0.56243000  0.47683000  1.0
  H  H4  1  0.64586000  0.21493000  0.18366000  1.0
  H  H5  1  0.35414000  0.71493000  0.31634000  1.0
  H  H6  1  0.35414000  0.78507000  0.81634000  1.0
  H  H7  1  0.64587000  0.28507000  0.68366000  1.0
  H  H8  1  0.01555000  0.15201000  0.23972000  1.0
  H  H9  1  0.98445000  0.65200000  0.26028000  1.0
  H  H10  1  0.98445000  0.84800000  0.76027000  1.0
  H  H11  1  0.01555000  0.34800000  0.73973000  1.0
  H  H12  1  0.96394000  0.07526000  0.15287000  1.0
  H  H13  1  0.03606000  0.57526000  0.34713000  1.0
  H  H14  1  0.03606000  0.92475000  0.84712000  1.0
  H  H15  1  0.96394000  0.42474000  0.65287000  1.0
  H  H16  1  0.05475000  0.29380000  0.26525000  1.0
  H  H17  1  0.94525000  0.79379000  0.23474000  1.0
  H  H18  1  0.94524000  0.70620000  0.73475000  1.0
  H  H19  1  0.05476000  0.20620000  0.76526000  1.0
  H  H20  1  0.73760000  0.28947000  0.36142000  1.0
  H  H21  1  0.26240000  0.78946000  0.13858000  1.0
  H  H22  1  0.26240000  0.71054000  0.63858000  1.0
  H  H23  1  0.73760000  0.21053000  0.86142000  1.0
  H  H24  1  0.68459000  0.19759000  0.28080000  1.0
  H  H25  1  0.31540000  0.69759000  0.21920000  1.0
  H  H26  1  0.31540000  0.80241000  0.71919000  1.0
  H  H27  1  0.68460000  0.30241000  0.78080000  1.0
  H  H28  1  0.11955000  0.77627000  0.06653000  1.0
  H  H29  1  0.88045000  0.27627000  0.43347000  1.0
  H  H30  1  0.88046000  0.22373000  0.93348000  1.0
  H  H31  1  0.11953000  0.72373000  0.56653000  1.0
  H  H32  1  0.97187000  0.67686000  0.11005000  1.0
  H  H33  1  0.02814000  0.17687000  0.38995000  1.0
  H  H34  1  0.02814000  0.32313000  0.88995000  1.0
  H  H35  1  0.97184000  0.82313000  0.61005000  1.0
  H  H36  1  0.84087000  0.60444000  0.06730000  1.0
  H  H37  1  0.15915000  0.10444000  0.43270000  1.0
  H  H38  1  0.15916000  0.39556000  0.93270000  1.0
  H  H39  1  0.84084000  0.89556000  0.56730000  1.0
  H  H40  1  0.69149000  0.67618000  0.10808000  1.0
  H  H41  1  0.30852000  0.17618000  0.39192000  1.0
  H  H42  1  0.30852000  0.32382000  0.89192000  1.0
  H  H43  1  0.69147000  0.82382000  0.60808000  1.0
  H  H44  1  0.70775000  0.76816000  0.96566000  1.0
  H  H45  1  0.29226000  0.26816000  0.53434000  1.0
  H  H46  1  0.29227000  0.23184000  0.03434000  1.0
  H  H47  1  0.70772000  0.73184000  0.46566000  1.0
  H  H48  1  0.52603000  0.73603000  0.01858000  1.0
  H  H49  1  0.47399000  0.23603000  0.48141000  1.0
  H  H50  1  0.47399000  0.26397000  0.98142000  1.0
  H  H51  1  0.52600000  0.76397000  0.51858000  1.0
  H  H52  1  0.67060000  0.66149000  0.97908000  1.0
  H  H53  1  0.32942000  0.16149000  0.52092000  1.0
  H  H54  1  0.32942000  0.33851000  0.02093000  1.0
  H  H55  1  0.67058000  0.83851000  0.47908000  1.0
  H  H56  1  0.12898000  0.42817000  0.37680000  1.0
  H  H57  1  0.87100000  0.92816000  0.12320000  1.0
  H  H58  1  0.87099000  0.57183000  0.62319000  1.0
  H  H59  1  0.12900000  0.07184000  0.87681000  1.0
  C  C60  1  0.23167000  0.05660000  0.06846000  1.0
  C  C61  1  0.76834000  0.55660000  0.43154000  1.0
  C  C62  1  0.76834000  0.94340000  0.93154000  1.0
  C  C63  1  0.23165000  0.44340000  0.56846000  1.0
  C  C64  1  0.27314000  0.10113000  0.11893000  1.0
  C  C65  1  0.72687000  0.60113000  0.38107000  1.0
  C  C66  1  0.72687000  0.89887000  0.88107000  1.0
  C  C67  1  0.27313000  0.39887000  0.61893000  1.0
  C  C68  1  0.47312000  0.14015000  0.12769000  1.0
  C  C69  1  0.52689000  0.64015000  0.37231000  1.0
  C  C70  1  0.52689000  0.85986000  0.87231000  1.0
  C  C71  1  0.47311000  0.35985000  0.62769000  1.0
  C  C72  1  0.49624000  0.18367000  0.17782000  1.0
  C  C73  1  0.50376000  0.68367000  0.32218000  1.0
  C  C74  1  0.50377000  0.81633000  0.82218000  1.0
  C  C75  1  0.49624000  0.31633000  0.67782000  1.0
  C  C76  1  0.33483000  0.18928000  0.21740000  1.0
  C  C77  1  0.66517000  0.68927000  0.28259000  1.0
  C  C78  1  0.66517000  0.81073000  0.78259000  1.0
  C  C79  1  0.33483000  0.31073000  0.71740000  1.0
  C  C80  1  0.14064000  0.14951000  0.20825000  1.0
  C  C81  1  0.85936000  0.64951000  0.29175000  1.0
  C  C82  1  0.85936000  0.85049000  0.79175000  1.0
  C  C83  1  0.14064000  0.35049000  0.70825000  1.0
  C  C84  1  0.11272000  0.10626000  0.16003000  1.0
  C  C85  1  0.88728000  0.60626000  0.33997000  1.0
  C  C86  1  0.88729000  0.89375000  0.83997000  1.0
  C  C87  1  0.11271000  0.39374000  0.66003000  1.0
  C  C88  1  0.36517000  0.23887000  0.26758000  1.0
  C  C89  1  0.63483000  0.73886000  0.23242000  1.0
  C  C90  1  0.63484000  0.76114000  0.73242000  1.0
  C  C91  1  0.36517000  0.26114000  0.76758000  1.0
  C  C92  1  0.20375000  0.29020000  0.28676000  1.0
  C  C93  1  0.79625000  0.79019000  0.21324000  1.0
  C  C94  1  0.79624000  0.70979000  0.71324000  1.0
  C  C95  1  0.20376000  0.20980000  0.78676000  1.0
  C  C96  1  0.23326000  0.34232000  0.33191000  1.0
  C  C97  1  0.76675000  0.84232000  0.16809000  1.0
  C  C98  1  0.76673000  0.65767000  0.66809000  1.0
  C  C99  1  0.23326000  0.15768000  0.83191000  1.0
  C  C100  1  0.42728000  0.34066000  0.36029000  1.0
  C  C101  1  0.57271000  0.84066000  0.13971000  1.0
  C  C102  1  0.57269000  0.65935000  0.63971000  1.0
  C  C103  1  0.42730000  0.15935000  0.86029000  1.0
  C  C104  1  0.58677000  0.28788000  0.34084000  1.0
  C  C105  1  0.41322000  0.78788000  0.15916000  1.0
  C  C106  1  0.41321000  0.71213000  0.65916000  1.0
  C  C107  1  0.58678000  0.21213000  0.84084000  1.0
  C  C108  1  0.55860000  0.23794000  0.29537000  1.0
  C  C109  1  0.44139000  0.73793000  0.20464000  1.0
  C  C110  1  0.44140000  0.76207000  0.70464000  1.0
  C  C111  1  0.55861000  0.26206000  0.79536000  1.0
  C  C112  1  0.46022000  0.39360000  0.40898000  1.0
  C  C113  1  0.53978000  0.89359000  0.09101000  1.0
  C  C114  1  0.53976000  0.60641000  0.59101000  1.0
  C  C115  1  0.46023000  0.10641000  0.90899000  1.0
  C  C116  1  0.00313000  0.77939000  0.03347000  1.0
  C  C117  1  0.99688000  0.27938000  0.46653000  1.0
  C  C118  1  0.99689000  0.22061000  0.96653000  1.0
  C  C119  1  0.00311000  0.72060000  0.53347000  1.0
  C  C120  1  0.83677000  0.66736000  0.08328000  1.0
  C  C121  1  0.16322000  0.16736000  0.41671000  1.0
  C  C122  1  0.16323000  0.33264000  0.91672000  1.0
  C  C123  1  0.83677000  0.83264000  0.58329000  1.0
  C  C124  1  0.67757000  0.72256000  0.99783000  1.0
  C  C125  1  0.32245000  0.22256000  0.50217000  1.0
  C  C126  1  0.32245000  0.27744000  0.00217000  1.0
  C  C127  1  0.67754000  0.77744000  0.49783000  1.0
  N  N128  1  0.84608000  0.72526000  0.03772000  1.0
  N  N129  1  0.15391000  0.22526000  0.46229000  1.0
  N  N130  1  0.15393000  0.27474000  0.96229000  1.0
  N  N131  1  0.84606000  0.77474000  0.53772000  1.0
  O  O132  1  0.05466000  0.02048000  0.05986000  1.0
  O  O133  1  0.94535000  0.52048000  0.44015000  1.0
  O  O134  1  0.94536000  0.97952000  0.94014000  1.0
  O  O135  1  0.05463000  0.47952000  0.55986000  1.0
  O  O136  1  0.37449000  0.05032000  0.03001000  1.0
  O  O137  1  0.62552000  0.55031000  0.46999000  1.0
  O  O138  1  0.62553000  0.94968000  0.96999000  1.0
  O  O139  1  0.37446000  0.44969000  0.53001000  1.0
  O  O140  1  0.61345000  0.37934000  0.44086000  1.0
  O  O141  1  0.38655000  0.87934000  0.05914000  1.0
  O  O142  1  0.38654000  0.62066000  0.55914000  1.0
  O  O143  1  0.61346000  0.12066000  0.94086000  1.0
  O  O144  1  0.32569000  0.45168000  0.41646000  1.0
  O  O145  1  0.67431000  0.95168000  0.08354000  1.0
  O  O146  1  0.67430000  0.54832000  0.58353000  1.0
  O  O147  1  0.32570000  0.04832000  0.91646000  1.0
  O  O148  1  0.63161000  0.13855000  0.09212000  1.0
  O  O149  1  0.36841000  0.63855000  0.40788000  1.0
  O  O150  1  0.36841000  0.86145000  0.90788000  1.0
  O  O151  1  0.63159000  0.36145000  0.59212000  1.0
  O  O152  1  0.07247000  0.39196000  0.34686000  1.0
  O  O153  1  0.92752000  0.89195000  0.15314000  1.0
  O  O154  1  0.92749000  0.60803000  0.65314000  1.0
  O  O155  1  0.07248000  0.10804000  0.84686000  1.0
  O  O156  1  0.02218000  0.83094000  0.99548000  1.0
  O  O157  1  0.97785000  0.33095000  0.50452000  1.0
  O  O158  1  0.97785000  0.16906000  0.00452000  1.0
  O  O159  1  0.02214000  0.66906000  0.49548000  1.0
