# generated using pymatgen
data_MnV2H3C4(NO3)2
_symmetry_space_group_name_H-M   'P 1'
_cell_length_a   5.92734000
_cell_length_b   8.29001000
_cell_length_c   10.21680240
_cell_angle_alpha   66.07678463
_cell_angle_beta   87.64233843
_cell_angle_gamma   84.19880000
_symmetry_Int_Tables_number   1
_chemical_formula_structural   MnV2H3C4(NO3)2
_chemical_formula_sum   'Mn2 V4 H6 C8 N4 O12'
_cell_volume   456.55046992
_cell_formula_units_Z   2
loop_
 _symmetry_equiv_pos_site_id
 _symmetry_equiv_pos_as_xyz
  1  'x, y, z'
loop_
 _atom_site_type_symbol
 _atom_site_label
 _atom_site_symmetry_multiplicity
 _atom_site_fract_x
 _atom_site_fract_y
 _atom_site_fract_z
 _atom_site_occupancy
  Mn  Mn0  1  0.00015000  0.65968000  0.68050000  1.0
  Mn  Mn1  1  0.99985000  0.34032000  0.31950000  1.0
  V  V2  1  0.23154000  0.91854000  0.36375000  1.0
  V  V3  1  0.76855000  0.71791000  0.36372000  1.0
  V  V4  1  0.76846000  0.08145000  0.63625000  1.0
  V  V5  1  0.23145000  0.28209000  0.63628000  1.0
  H  H6  1  0.43226000  0.17747000  0.99995000  1.0
  H  H7  1  0.56774000  0.82253000  0.00005000  1.0
  H  H8  1  0.59475000  0.39210000  0.76777000  1.0
  H  H9  1  0.40524000  0.84017000  0.76782000  1.0
  H  H10  1  0.40525000  0.60789000  0.23223000  1.0
  H  H11  1  0.59476000  0.15983000  0.23218000  1.0
  C  C12  1  0.65878000  0.37199000  0.87212000  1.0
  C  C13  1  0.34121000  0.75594000  0.87215000  1.0
  C  C14  1  0.34122000  0.62800000  0.12789000  1.0
  C  C15  1  0.65879000  0.24406000  0.12785000  1.0
  C  C16  1  0.90618000  0.44772000  0.99999000  1.0
  C  C17  1  0.09383000  0.55228000  0.00001000  1.0
  C  C18  1  0.56937000  0.25541000  0.99996000  1.0
  C  C19  1  0.43063000  0.74460000  0.00004000  1.0
  N  N20  1  0.82744000  0.46826000  0.87274000  1.0
  N  N21  1  0.17246000  0.65909000  0.87279000  1.0
  N  N22  1  0.17257000  0.53174000  0.12726000  1.0
  N  N23  1  0.82754000  0.34091000  0.12721000  1.0
  O  O24  1  0.20726000  0.83019000  0.54277000  1.0
  O  O25  1  0.79279000  0.62731000  0.54272000  1.0
  O  O26  1  0.79274000  0.16981000  0.45723000  1.0
  O  O27  1  0.20721000  0.37269000  0.45728000  1.0
  O  O28  1  0.00022000  0.85347000  0.29284000  1.0
  O  O29  1  0.99978000  0.14653000  0.70716000  1.0
  O  O30  1  0.21400000  0.14023000  0.30167000  1.0
  O  O31  1  0.78600000  0.55817000  0.30172000  1.0
  O  O32  1  0.78600000  0.85977000  0.69833000  1.0
  O  O33  1  0.21400000  0.44183000  0.69828000  1.0
  O  O34  1  0.50010000  0.84689000  0.30659000  1.0
  O  O35  1  0.49990000  0.15311000  0.69341000  1.0
