# generated using pymatgen
data_CuH5C5S(N2Cl)2
_symmetry_space_group_name_H-M   'P 1'
_cell_length_a   5.86921000
_cell_length_b   9.58067000
_cell_length_c   16.40960000
_cell_angle_alpha   84.69320000
_cell_angle_beta   89.99980000
_cell_angle_gamma   89.99970000
_symmetry_Int_Tables_number   1
_chemical_formula_structural   CuH5C5S(N2Cl)2
_chemical_formula_sum   'Cu4 H20 C20 S4 N16 Cl8'
_cell_volume   918.77256841
_cell_formula_units_Z   4
loop_
 _symmetry_equiv_pos_site_id
 _symmetry_equiv_pos_as_xyz
  1  'x, y, z'
loop_
 _atom_site_type_symbol
 _atom_site_label
 _atom_site_symmetry_multiplicity
 _atom_site_fract_x
 _atom_site_fract_y
 _atom_site_fract_z
 _atom_site_occupancy
  Cu  Cu0  1  0.07810000  0.26595000  0.16808000  1.0
  Cu  Cu1  1  0.57810000  0.23405000  0.33192000  1.0
  Cu  Cu2  1  0.92190000  0.73405000  0.83192000  1.0
  Cu  Cu3  1  0.42192000  0.76595000  0.66807000  1.0
  H  H4  1  0.21690000  0.87250000  0.49733000  1.0
  H  H5  1  0.71689000  0.62751000  0.00267000  1.0
  H  H6  1  0.78312000  0.12750000  0.50268000  1.0
  H  H7  1  0.28311000  0.37250000  0.99733000  1.0
  H  H8  1  0.51003000  0.88492000  0.39901000  1.0
  H  H9  1  0.01001000  0.61507000  0.10099000  1.0
  H  H10  1  0.49000000  0.11508000  0.60099000  1.0
  H  H11  1  0.98997000  0.38492000  0.89901000  1.0
  H  H12  1  0.89646000  0.72550000  0.49962000  1.0
  H  H13  1  0.39645000  0.77451000  0.00038000  1.0
  H  H14  1  0.10355000  0.27450000  0.50039000  1.0
  H  H15  1  0.60355000  0.22550000  0.99961000  1.0
  H  H16  1  0.71782000  0.49517000  0.39566000  1.0
  H  H17  1  0.21781000  0.00483000  0.10434000  1.0
  H  H18  1  0.28218000  0.50483000  0.60434000  1.0
  H  H19  1  0.78218000  0.99517000  0.89566000  1.0
  H  H20  1  0.24413000  0.52335000  0.22647000  1.0
  H  H21  1  0.74412000  0.97665000  0.27353000  1.0
  H  H22  1  0.75587000  0.47666000  0.77353000  1.0
  H  H23  1  0.25586000  0.02335000  0.72647000  1.0
  C  C24  1  0.37138000  0.81035000  0.39288000  1.0
  C  C25  1  0.87137000  0.68965000  0.10712000  1.0
  C  C26  1  0.62865000  0.18964000  0.60712000  1.0
  C  C27  1  0.12862000  0.31035000  0.89288000  1.0
  C  C28  1  0.19637000  0.64141000  0.33110000  1.0
  C  C29  1  0.69635000  0.85859000  0.16890000  1.0
  C  C30  1  0.80364000  0.35858000  0.66890000  1.0
  C  C31  1  0.30362000  0.14141000  0.83110000  1.0
  C  C32  1  0.01490000  0.63333000  0.38909000  1.0
  C  C33  1  0.51489000  0.86666000  0.11091000  1.0
  C  C34  1  0.98511000  0.36666000  0.61091000  1.0
  C  C35  1  0.48509000  0.13333000  0.88909000  1.0
  C  C36  1  0.02184000  0.72122000  0.45079000  1.0
  C  C37  1  0.52185000  0.77879000  0.04921000  1.0
  C  C38  1  0.97816000  0.27879000  0.54921000  1.0
  C  C39  1  0.47815000  0.22121000  0.95079000  1.0
  C  C40  1  0.94599000  0.47980000  0.29715000  1.0
  C  C41  1  0.44598000  0.02020000  0.20285000  1.0
  C  C42  1  0.05402000  0.52020000  0.70285000  1.0
  C  C43  1  0.55401000  0.97980000  0.79715000  1.0
  S  S44  1  0.81181000  0.36443000  0.24314000  1.0
  S  S45  1  0.31182000  0.13559000  0.25686000  1.0
  S  S46  1  0.18818000  0.63559000  0.75685000  1.0
  S  S47  1  0.68819000  0.86443000  0.74314000  1.0
  N  N48  1  0.20479000  0.80817000  0.44927000  1.0
  N  N49  1  0.70478000  0.69183000  0.05073000  1.0
  N  N50  1  0.79523000  0.19183000  0.55073000  1.0
  N  N51  1  0.29521000  0.30817000  0.94927000  1.0
  N  N52  1  0.37392000  0.72820000  0.33169000  1.0
  N  N53  1  0.87390000  0.77179000  0.16831000  1.0
  N  N54  1  0.62610000  0.27180000  0.66831000  1.0
  N  N55  1  0.12606000  0.22819000  0.83170000  1.0
  N  N56  1  0.86678000  0.53296000  0.36655000  1.0
  N  N57  1  0.36680000  0.96704000  0.13345000  1.0
  N  N58  1  0.13321000  0.46704000  0.63345000  1.0
  N  N59  1  0.63320000  0.03296000  0.86655000  1.0
  N  N60  1  0.14962000  0.54637000  0.27691000  1.0
  N  N61  1  0.64960000  0.95363000  0.22309000  1.0
  N  N62  1  0.85038000  0.45364000  0.72309000  1.0
  N  N63  1  0.35037000  0.04636000  0.77692000  1.0
  Cl  Cl64  1  0.93870000  0.13440000  0.07024000  1.0
  Cl  Cl65  1  0.43871000  0.36560000  0.42976000  1.0
  Cl  Cl66  1  0.06129000  0.86560000  0.92976000  1.0
  Cl  Cl67  1  0.56131000  0.63440000  0.57024000  1.0
  Cl  Cl68  1  0.32185000  0.44832000  0.10932000  1.0
  Cl  Cl69  1  0.82186000  0.05169000  0.39067000  1.0
  Cl  Cl70  1  0.67814000  0.55169000  0.89067000  1.0
  Cl  Cl71  1  0.17815000  0.94832000  0.60932000  1.0
