# generated using pymatgen
data_SmCu2H8C8(N3O4)3
_symmetry_space_group_name_H-M   'P 1'
_cell_length_a   7.30579000
_cell_length_b   11.20290000
_cell_length_c   11.87940000
_cell_angle_alpha   78.10600000
_cell_angle_beta   89.99990000
_cell_angle_gamma   89.99950000
_symmetry_Int_Tables_number   1
_chemical_formula_structural   SmCu2H8C8(N3O4)3
_chemical_formula_sum   'Sm2 Cu4 H16 C16 N18 O24'
_cell_volume   951.40745322
_cell_formula_units_Z   2
loop_
 _symmetry_equiv_pos_site_id
 _symmetry_equiv_pos_as_xyz
  1  'x, y, z'
loop_
 _atom_site_type_symbol
 _atom_site_label
 _atom_site_symmetry_multiplicity
 _atom_site_fract_x
 _atom_site_fract_y
 _atom_site_fract_z
 _atom_site_occupancy
  Sm  Sm0  1  0.50184000  0.75000000  0.50000000  1.0
  Sm  Sm1  1  0.49816000  0.25000000  0.50000000  1.0
  Cu  Cu2  1  0.86242000  0.11178000  0.07462000  1.0
  Cu  Cu3  1  0.86241000  0.38821000  0.92538000  1.0
  Cu  Cu4  1  0.13759000  0.88821000  0.92538000  1.0
  Cu  Cu5  1  0.13759000  0.61179000  0.07461000  1.0
  H  H6  1  0.22622000  0.95092000  0.42093000  1.0
  H  H7  1  0.22622000  0.54908000  0.57908000  1.0
  H  H8  1  0.77378000  0.04908000  0.57908000  1.0
  H  H9  1  0.77377000  0.45092000  0.42093000  1.0
  H  H10  1  0.30115000  0.96523000  0.54227000  1.0
  H  H11  1  0.30115000  0.53477000  0.45773000  1.0
  H  H12  1  0.69885000  0.03477000  0.45773000  1.0
  H  H13  1  0.69884000  0.46523000  0.54227000  1.0
  H  H14  1  0.32207000  0.71533000  0.27065000  1.0
  H  H15  1  0.32207000  0.78467000  0.72935000  1.0
  H  H16  1  0.67792000  0.28467000  0.72935000  1.0
  H  H17  1  0.67793000  0.21534000  0.27065000  1.0
  H  H18  1  0.27107000  0.85280000  0.27539000  1.0
  H  H19  1  0.27107000  0.64720000  0.72461000  1.0
  H  H20  1  0.72893000  0.14720000  0.72461000  1.0
  H  H21  1  0.72893000  0.35280000  0.27539000  1.0
  C  C22  1  0.79854000  0.64249000  0.30795000  1.0
  C  C23  1  0.79853000  0.85751000  0.69205000  1.0
  C  C24  1  0.20146000  0.35751000  0.69205000  1.0
  C  C25  1  0.20146000  0.14249000  0.30795000  1.0
  C  C26  1  0.71871000  0.96018000  0.27456000  1.0
  C  C27  1  0.71869000  0.53981000  0.72544000  1.0
  C  C28  1  0.28131000  0.03982000  0.72544000  1.0
  C  C29  1  0.28131000  0.46019000  0.27456000  1.0
  C  C30  1  0.86314000  0.75334000  0.22507000  1.0
  C  C31  1  0.86314000  0.74666000  0.77492000  1.0
  C  C32  1  0.13687000  0.24666000  0.77493000  1.0
  C  C33  1  0.13687000  0.25334000  0.22508000  1.0
  C  C34  1  0.81695000  0.87739000  0.21265000  1.0
  C  C35  1  0.81694000  0.62261000  0.78735000  1.0
  C  C36  1  0.18306000  0.12261000  0.78735000  1.0
  C  C37  1  0.18306000  0.37739000  0.21265000  1.0
  N  N38  1  0.97729000  0.74577000  0.13687000  1.0
  N  N39  1  0.97729000  0.75422000  0.86312000  1.0
  N  N40  1  0.02272000  0.25422000  0.86312000  1.0
  N  N41  1  0.02271000  0.24578000  0.13688000  1.0
  N  N42  1  0.90338000  0.93655000  0.11632000  1.0
  N  N43  1  0.90339000  0.56345000  0.88367000  1.0
  N  N44  1  0.09662000  0.06345000  0.88368000  1.0
  N  N45  1  0.09661000  0.43655000  0.11633000  1.0
  N  N46  1  0.99880000  0.85686000  0.07323000  1.0
  N  N47  1  0.99881000  0.64314000  0.92676000  1.0
  N  N48  1  0.00120000  0.14314000  0.92677000  1.0
  N  N49  1  0.00119000  0.35686000  0.07323000  1.0
  N  N50  1  0.69661000  0.25000000  0.99999000  1.0
  N  N51  1  0.30339000  0.75000000  1.00000000  1.0
  N  N52  1  0.53079000  0.25000000  0.00000000  1.0
  N  N53  1  0.46920000  0.75000000  0.99999000  1.0
  N  N54  1  0.37208000  0.25000000  0.00001000  1.0
  N  N55  1  0.62792000  0.75000000  0.99999000  1.0
  O  O56  1  0.69373000  0.66198000  0.38810000  1.0
  O  O57  1  0.69372000  0.83802000  0.61190000  1.0
  O  O58  1  0.30627000  0.33802000  0.61190000  1.0
  O  O59  1  0.30627000  0.16198000  0.38811000  1.0
  O  O60  1  0.65389000  0.92661000  0.37416000  1.0
  O  O61  1  0.65386000  0.57339000  0.62584000  1.0
  O  O62  1  0.34613000  0.07339000  0.62585000  1.0
  O  O63  1  0.34613000  0.42662000  0.37415000  1.0
  O  O64  1  0.27401000  0.90293000  0.49603000  1.0
  O  O65  1  0.27401000  0.59708000  0.50397000  1.0
  O  O66  1  0.72599000  0.09708000  0.50397000  1.0
  O  O67  1  0.72599000  0.40293000  0.49603000  1.0
  O  O68  1  0.36041000  0.78795000  0.29985000  1.0
  O  O69  1  0.36041000  0.71205000  0.70016000  1.0
  O  O70  1  0.63958000  0.21205000  0.70016000  1.0
  O  O71  1  0.63959000  0.28795000  0.29984000  1.0
  O  O72  1  0.84774000  0.53837000  0.29463000  1.0
  O  O73  1  0.84773000  0.96162000  0.70537000  1.0
  O  O74  1  0.15227000  0.46162000  0.70538000  1.0
  O  O75  1  0.15227000  0.03838000  0.29462000  1.0
  O  O76  1  0.71222000  0.07265000  0.21964000  1.0
  O  O77  1  0.71221000  0.42735000  0.78037000  1.0
  O  O78  1  0.28780000  0.92735000  0.78037000  1.0
  O  O79  1  0.28779000  0.57265000  0.21963000  1.0
