# generated using pymatgen
data_InH9C17O5F6
_symmetry_space_group_name_H-M   'P 1'
_cell_length_a   7.18725000
_cell_length_b   13.50300000
_cell_length_c   22.07976572
_cell_angle_alpha   87.50854378
_cell_angle_beta   80.62850052
_cell_angle_gamma   74.56310000
_symmetry_Int_Tables_number   1
_chemical_formula_structural   InH9C17O5F6
_chemical_formula_sum   'In4 H36 C68 O20 F24'
_cell_volume   2037.95652752
_cell_formula_units_Z   4
loop_
 _symmetry_equiv_pos_site_id
 _symmetry_equiv_pos_as_xyz
  1  'x, y, z'
loop_
 _atom_site_type_symbol
 _atom_site_label
 _atom_site_symmetry_multiplicity
 _atom_site_fract_x
 _atom_site_fract_y
 _atom_site_fract_z
 _atom_site_occupancy
  In  In0  1  0.11514000  0.77058000  0.25000000  1.0
  In  In1  1  0.63573000  0.72934000  0.25001000  1.0
  In  In2  1  0.88486000  0.22942000  0.75000000  1.0
  In  In3  1  0.36427000  0.27066000  0.74999000  1.0
  H  H4  1  0.36702000  0.48467000  0.17953000  1.0
  H  H5  1  0.53122000  0.01517000  0.32052000  1.0
  H  H6  1  0.14824000  0.48474000  0.32051000  1.0
  H  H7  1  0.45350000  0.01507000  0.17948000  1.0
  H  H8  1  0.63297000  0.51533000  0.82047000  1.0
  H  H9  1  0.46878000  0.98483000  0.67948000  1.0
  H  H10  1  0.85176000  0.51526000  0.67949000  1.0
  H  H11  1  0.54652000  0.98493000  0.82051000  1.0
  H  H12  1  0.56733000  0.33440000  0.11712000  1.0
  H  H13  1  0.51899000  0.16543000  0.38290000  1.0
  H  H14  1  0.09800000  0.33452000  0.38297000  1.0
  H  H15  1  0.31540000  0.16535000  0.11709000  1.0
  H  H16  1  0.43267000  0.66559000  0.88288000  1.0
  H  H17  1  0.48101000  0.83457000  0.61710000  1.0
  H  H18  1  0.90200000  0.66548000  0.61703000  1.0
  H  H19  1  0.68460000  0.83465000  0.88291000  1.0
  H  H20  1  0.09408000  0.35944000  0.01421000  1.0
  H  H21  1  0.96762000  0.14067000  0.48576000  1.0
  H  H22  1  0.54636000  0.35941000  0.48586000  1.0
  H  H23  1  0.89154000  0.14061000  0.01422000  1.0
  H  H24  1  0.90592000  0.64056000  0.98579000  1.0
  H  H25  1  0.03238000  0.85933000  0.51424000  1.0
  H  H26  1  0.45363000  0.64059000  0.51415000  1.0
  H  H27  1  0.10847000  0.85939000  0.98578000  1.0
  H  H28  1  0.88793000  0.49936000  0.08242000  1.0
  H  H29  1  0.96946000  0.00073000  0.41762000  1.0
  H  H30  1  0.61276000  0.49926000  0.41762000  1.0
  H  H31  1  0.02970000  0.00077000  0.08244000  1.0
  H  H32  1  0.11207000  0.50064000  0.91758000  1.0
  H  H33  1  0.03054000  0.99928000  0.58238000  1.0
  H  H34  1  0.38724000  0.50074000  0.58238000  1.0
  H  H35  1  0.97031000  0.99924000  0.91756000  1.0
  H  H36  1  0.42199000  0.74994000  0.15678000  1.0
  H  H37  1  0.82870000  0.75005000  0.34321000  1.0
  H  H38  1  0.57801000  0.25006000  0.84322000  1.0
  H  H39  1  0.17130000  0.24995000  0.65679000  1.0
  C  C40  1  0.00170000  0.59276000  0.17326000  1.0
  C  C41  1  0.26762000  0.90718000  0.32679000  1.0
  C  C42  1  0.40585000  0.59268000  0.32672000  1.0
  C  C43  1  0.82527000  0.90718000  0.17326000  1.0
  C  C44  1  0.99830000  0.40724000  0.82674000  1.0
  C  C45  1  0.73239000  0.09282000  0.67321000  1.0
  C  C46  1  0.59415000  0.40732000  0.67328000  1.0
  C  C47  1  0.17473000  0.09282000  0.82674000  1.0
  C  C48  1  0.11494000  0.50125000  0.13498000  1.0
  C  C49  1  0.25107000  0.99870000  0.36505000  1.0
  C  C50  1  0.38393000  0.50120000  0.36503000  1.0
  C  C51  1  0.75017000  0.99867000  0.13497000  1.0
  C  C52  1  0.88506000  0.49875000  0.86502000  1.0
  C  C53  1  0.74893000  0.00130000  0.63495000  1.0
  C  C54  1  0.61607000  0.49880000  0.63497000  1.0
  C  C55  1  0.24983000  0.00133000  0.86503000  1.0
  C  C56  1  0.30712000  0.45464000  0.14422000  1.0
  C  C57  1  0.40597000  0.04526000  0.35582000  1.0
  C  C58  1  0.23817000  0.45469000  0.35583000  1.0
  C  C59  1  0.54868000  0.04516000  0.14419000  1.0
  C  C60  1  0.69287000  0.54536000  0.85578000  1.0
  C  C61  1  0.59404000  0.95474000  0.64418000  1.0
  C  C62  1  0.76183000  0.54531000  0.64417000  1.0
  C  C63  1  0.45132000  0.95484000  0.85581000  1.0
  C  C64  1  0.41994000  0.37161000  0.10843000  1.0
  C  C65  1  0.40006000  0.12827000  0.39161000  1.0
  C  C66  1  0.20822000  0.37171000  0.39166000  1.0
  C  C67  1  0.47152000  0.12818000  0.10839000  1.0
  C  C68  1  0.58006000  0.62839000  0.89157000  1.0
  C  C69  1  0.59994000  0.87173000  0.60839000  1.0
  C  C70  1  0.79178000  0.62829000  0.60834000  1.0
  C  C71  1  0.52849000  0.87182000  0.89160000  1.0
  C  C72  1  0.34725000  0.33657000  0.06049000  1.0
  C  C73  1  0.24432000  0.16336000  0.43954000  1.0
  C  C74  1  0.31596000  0.33662000  0.43959000  1.0
  C  C75  1  0.59214000  0.16331000  0.06048000  1.0
  C  C76  1  0.65275000  0.66343000  0.93951000  1.0
  C  C77  1  0.75568000  0.83664000  0.56046000  1.0
  C  C78  1  0.68403000  0.66338000  0.56041000  1.0
  C  C79  1  0.40786000  0.83669000  0.93952000  1.0
  C  C80  1  0.15547000  0.38383000  0.05104000  1.0
  C  C81  1  0.09028000  0.11619000  0.44895000  1.0
  C  C82  1  0.46055000  0.38382000  0.44903000  1.0
  C  C83  1  0.79338000  0.11616000  0.05104000  1.0
  C  C84  1  0.84452000  0.61617000  0.94896000  1.0
  C  C85  1  0.90972000  0.88381000  0.55105000  1.0
  C  C86  1  0.53945000  0.61618000  0.55097000  1.0
  C  C87  1  0.20662000  0.88384000  0.94896000  1.0
  C  C88  1  0.03824000  0.46397000  0.08919000  1.0
  C  C89  1  0.09127000  0.03605000  0.41083000  1.0
  C  C90  1  0.49777000  0.46392000  0.41086000  1.0
  C  C91  1  0.87256000  0.03606000  0.08920000  1.0
  C  C92  1  0.96176000  0.53603000  0.91081000  1.0
  C  C93  1  0.90873000  0.96395000  0.58917000  1.0
  C  C94  1  0.50223000  0.53609000  0.58914000  1.0
  C  C95  1  0.12743000  0.96395000  0.91081000  1.0
  C  C96  1  0.48989000  0.24998000  0.02001000  1.0
  C  C97  1  0.25989000  0.24995000  0.48005000  1.0
  C  C98  1  0.51010000  0.75002000  0.97999000  1.0
  C  C99  1  0.74011000  0.75006000  0.51995000  1.0
  C  C100  1  0.38689000  0.19908000  0.97782000  1.0
  C  C101  1  0.06369000  0.30082000  0.52223000  1.0
  C  C102  1  0.41379000  0.19900000  0.52226000  1.0
  C  C103  1  0.63519000  0.30087000  0.97783000  1.0
  C  C104  1  0.61311000  0.80092000  0.02218000  1.0
  C  C105  1  0.93631000  0.69918000  0.47777000  1.0
  C  C106  1  0.58621000  0.80100000  0.47774000  1.0
  C  C107  1  0.36481000  0.69913000  0.02217000  1.0
  O  O108  1  0.39982000  0.74982000  0.20129000  1.0
  O  O109  1  0.85101000  0.75006000  0.29870000  1.0
  O  O110  1  0.60018000  0.25018000  0.79871000  1.0
  O  O111  1  0.14899000  0.24994000  0.70130000  1.0
  O  O112  1  0.10323000  0.64784000  0.18925000  1.0
  O  O113  1  0.44020000  0.85203000  0.31085000  1.0
  O  O114  1  0.24915000  0.64781000  0.31082000  1.0
  O  O115  1  0.70770000  0.85213000  0.18925000  1.0
  O  O116  1  0.89677000  0.35216000  0.81075000  1.0
  O  O117  1  0.55980000  0.14797000  0.68916000  1.0
  O  O118  1  0.75085000  0.35219000  0.68918000  1.0
  O  O119  1  0.29230000  0.14787000  0.81075000  1.0
  O  O120  1  0.81632000  0.60821000  0.18647000  1.0
  O  O121  1  0.11093000  0.89175000  0.31354000  1.0
  O  O122  1  0.57579000  0.60810000  0.31346000  1.0
  O  O123  1  0.99749000  0.89168000  0.18646000  1.0
  O  O124  1  0.18368000  0.39179000  0.81353000  1.0
  O  O125  1  0.88908000  0.10825000  0.68646000  1.0
  O  O126  1  0.42421000  0.39190000  0.68654000  1.0
  O  O127  1  0.00252000  0.10831000  0.81354000  1.0
  F  F128  1  0.31613000  0.26312000  0.93236000  1.0
  F  F129  1  0.01143000  0.23672000  0.56765000  1.0
  F  F130  1  0.42047000  0.26297000  0.56775000  1.0
  F  F131  1  0.75146000  0.23681000  0.93240000  1.0
  F  F132  1  0.68387000  0.73688000  0.06764000  1.0
  F  F133  1  0.98856000  0.76328000  0.43235000  1.0
  F  F134  1  0.57953000  0.73703000  0.43225000  1.0
  F  F135  1  0.24852000  0.76319000  0.06761000  1.0
  F  F136  1  0.23246000  0.16967000  0.01045000  1.0
  F  F137  1  0.91249000  0.33029000  0.48960000  1.0
  F  F138  1  0.59767000  0.16964000  0.48965000  1.0
  F  F139  1  0.75693000  0.33029000  0.01047000  1.0
  F  F140  1  0.76753000  0.83033000  0.98956000  1.0
  F  F141  1  0.08751000  0.66971000  0.51040000  1.0
  F  F142  1  0.40233000  0.83036000  0.51035000  1.0
  F  F143  1  0.24306000  0.66971000  0.98953000  1.0
  F  F144  1  0.51073000  0.11352000  0.94987000  1.0
  F  F145  1  0.07393000  0.38632000  0.55024000  1.0
  F  F146  1  0.37555000  0.11340000  0.55016000  1.0
  F  F147  1  0.53941000  0.38642000  0.94985000  1.0
  F  F148  1  0.48927000  0.88648000  0.05013000  1.0
  F  F149  1  0.92606000  0.61368000  0.44977000  1.0
  F  F150  1  0.62445000  0.88660000  0.44984000  1.0
  F  F151  1  0.46058000  0.61358000  0.05015000  1.0
