# generated using pymatgen
data_Cu2H8C12SN2Cl
_symmetry_space_group_name_H-M   'P 1'
_cell_length_a   3.48284000
_cell_length_b   16.65240000
_cell_length_c   19.63480000
_cell_angle_alpha   89.99900000
_cell_angle_beta   89.99750000
_cell_angle_gamma   93.29300000
_symmetry_Int_Tables_number   1
_chemical_formula_structural   Cu2H8C12SN2Cl
_chemical_formula_sum   'Cu8 H32 C48 S4 N8 Cl4'
_cell_volume   1136.89186229
_cell_formula_units_Z   4
loop_
 _symmetry_equiv_pos_site_id
 _symmetry_equiv_pos_as_xyz
  1  'x, y, z'
loop_
 _atom_site_type_symbol
 _atom_site_label
 _atom_site_symmetry_multiplicity
 _atom_site_fract_x
 _atom_site_fract_y
 _atom_site_fract_z
 _atom_site_occupancy
  Cu  Cu0  1  0.15912000  0.60654000  0.87725000  1.0
  Cu  Cu1  1  0.34083000  0.89347000  0.37724000  1.0
  Cu  Cu2  1  0.84086000  0.39347000  0.12276000  1.0
  Cu  Cu3  1  0.65915000  0.10653000  0.62275000  1.0
  Cu  Cu4  1  0.67879000  0.57172000  0.74931000  1.0
  Cu  Cu5  1  0.82115000  0.92828000  0.24931000  1.0
  Cu  Cu6  1  0.32119000  0.42828000  0.25069000  1.0
  Cu  Cu7  1  0.17883000  0.07172000  0.75069000  1.0
  H  H8  1  0.29139000  0.72908000  0.74925000  1.0
  H  H9  1  0.20861000  0.77093000  0.24924000  1.0
  H  H10  1  0.70863000  0.27092000  0.25076000  1.0
  H  H11  1  0.79143000  0.22907000  0.75074000  1.0
  H  H12  1  0.15904000  0.87475000  0.72901000  1.0
  H  H13  1  0.34101000  0.62527000  0.22901000  1.0
  H  H14  1  0.84100000  0.12526000  0.27099000  1.0
  H  H15  1  0.65907000  0.37473000  0.77098000  1.0
  H  H16  1  0.93111000  0.95606000  0.82602000  1.0
  H  H17  1  0.56889000  0.54394000  0.32600000  1.0
  H  H18  1  0.06894000  0.04395000  0.17399000  1.0
  H  H19  1  0.43116000  0.45605000  0.67398000  1.0
  H  H20  1  0.76611000  0.96395000  0.95025000  1.0
  H  H21  1  0.73388000  0.53605000  0.45025000  1.0
  H  H22  1  0.23392000  0.03606000  0.04975000  1.0
  H  H23  1  0.26616000  0.46394000  0.54975000  1.0
  H  H24  1  0.69719000  0.89678000  0.06318000  1.0
  H  H25  1  0.80284000  0.60324000  0.56316000  1.0
  H  H26  1  0.30278000  0.10324000  0.93683000  1.0
  H  H27  1  0.19717000  0.39676000  0.43683000  1.0
  H  H28  1  0.73534000  0.77219000  0.13434000  1.0
  H  H29  1  0.76466000  0.72781000  0.63433000  1.0
  H  H30  1  0.26462000  0.22781000  0.86566000  1.0
  H  H31  1  0.23533000  0.27219000  0.36566000  1.0
  H  H32  1  0.87485000  0.62447000  0.13926000  1.0
  H  H33  1  0.62516000  0.87554000  0.63924000  1.0
  H  H34  1  0.12518000  0.37554000  0.86075000  1.0
  H  H35  1  0.37476000  0.12446000  0.36075000  1.0
  H  H36  1  0.08065000  0.55675000  0.03478000  1.0
  H  H37  1  0.41937000  0.94325000  0.53476000  1.0
  H  H38  1  0.91938000  0.44325000  0.96523000  1.0
  H  H39  1  0.58057000  0.05674000  0.46522000  1.0
  C  C40  1  0.19577000  0.76699000  0.79056000  1.0
  C  C41  1  0.30421000  0.73302000  0.29056000  1.0
  C  C42  1  0.80424000  0.23302000  0.20944000  1.0
  C  C43  1  0.69582000  0.26697000  0.70943000  1.0
  C  C44  1  0.12054000  0.84786000  0.77939000  1.0
  C  C45  1  0.37943000  0.65214000  0.27938000  1.0
  C  C46  1  0.87948000  0.15214000  0.22062000  1.0
  C  C47  1  0.62061000  0.34785000  0.72061000  1.0
  C  C48  1  0.99747000  0.89335000  0.83316000  1.0
  C  C49  1  0.50250000  0.60665000  0.33315000  1.0
  C  C50  1  0.00255000  0.10666000  0.16685000  1.0
  C  C51  1  0.49757000  0.39334000  0.66684000  1.0
  C  C52  1  0.95368000  0.85813000  0.89818000  1.0
  C  C53  1  0.54627000  0.64187000  0.39817000  1.0
  C  C54  1  0.04631000  0.14188000  0.10183000  1.0
  C  C55  1  0.45378000  0.35812000  0.60181000  1.0
  C  C56  1  0.82970000  0.90097000  0.95665000  1.0
  C  C57  1  0.67026000  0.59904000  0.45664000  1.0
  C  C58  1  0.17030000  0.09904000  0.04335000  1.0
  C  C59  1  0.32979000  0.40096000  0.54334000  1.0
  C  C60  1  0.79187000  0.86420000  0.01867000  1.0
  C  C61  1  0.70809000  0.63580000  0.51866000  1.0
  C  C62  1  0.20809000  0.13581000  0.98133000  1.0
  C  C63  1  0.29193000  0.36419000  0.48133000  1.0
  C  C64  1  0.86971000  0.78120000  0.02689000  1.0
  C  C65  1  0.63022000  0.71880000  0.52688000  1.0
  C  C66  1  0.13022000  0.21880000  0.97312000  1.0
  C  C67  1  0.36978000  0.28119000  0.47311000  1.0
  C  C68  1  0.98778000  0.73679000  0.96968000  1.0
  C  C69  1  0.51217000  0.76321000  0.46966000  1.0
  C  C70  1  0.01217000  0.26321000  0.03033000  1.0
  C  C71  1  0.48783000  0.23678000  0.53033000  1.0
  C  C72  1  0.03422000  0.77587000  0.90460000  1.0
  C  C73  1  0.46571000  0.72413000  0.40459000  1.0
  C  C74  1  0.96576000  0.22414000  0.09541000  1.0
  C  C75  1  0.53431000  0.27586000  0.59539000  1.0
  C  C76  1  0.82922000  0.73983000  0.08963000  1.0
  C  C77  1  0.67075000  0.76018000  0.58961000  1.0
  C  C78  1  0.17072000  0.26018000  0.91038000  1.0
  C  C79  1  0.32923000  0.23981000  0.41037000  1.0
  C  C80  1  0.90499000  0.65936000  0.09247000  1.0
  C  C81  1  0.59500000  0.84064000  0.59246000  1.0
  C  C82  1  0.09501000  0.34065000  0.90753000  1.0
  C  C83  1  0.40497000  0.15935000  0.40753000  1.0
  C  C84  1  0.01812000  0.62018000  0.03298000  1.0
  C  C85  1  0.48187000  0.87982000  0.53297000  1.0
  C  C86  1  0.98188000  0.37982000  0.96702000  1.0
  C  C87  1  0.51810000  0.12017000  0.46702000  1.0
  S  S88  1  0.63191000  0.52842000  0.85103000  1.0
  S  S89  1  0.86804000  0.97159000  0.35102000  1.0
  S  S90  1  0.36805000  0.47159000  0.14898000  1.0
  S  S91  1  0.13195000  0.02841000  0.64898000  1.0
  N  N92  1  0.05758000  0.65740000  0.97317000  1.0
  N  N93  1  0.44238000  0.84260000  0.47316000  1.0
  N  N94  1  0.94238000  0.34261000  0.02684000  1.0
  N  N95  1  0.55760000  0.15739000  0.52683000  1.0
  N  N96  1  0.15261000  0.73145000  0.85126000  1.0
  N  N97  1  0.34732000  0.76856000  0.35126000  1.0
  N  N98  1  0.84736000  0.26856000  0.14874000  1.0
  N  N99  1  0.65271000  0.23144000  0.64873000  1.0
  Cl  Cl100  1  0.18092000  0.59809000  0.67810000  1.0
  Cl  Cl101  1  0.31906000  0.90191000  0.17809000  1.0
  Cl  Cl102  1  0.81906000  0.40191000  0.32191000  1.0
  Cl  Cl103  1  0.68092000  0.09810000  0.82191000  1.0
