# generated using pymatgen
data_Zr6H29C50O42F
_symmetry_space_group_name_H-M   'P 1'
_cell_length_a   14.79180000
_cell_length_b   14.79056659
_cell_length_c   14.79460000
_cell_angle_alpha   60.08999004
_cell_angle_beta   60.09090000
_cell_angle_gamma   90.06412531
_symmetry_Int_Tables_number   1
_chemical_formula_structural   Zr6H29C50O42F
_chemical_formula_sum   'Zr6 H29 C50 O42 F1'
_cell_volume   2293.69737034
_cell_formula_units_Z   1
loop_
 _symmetry_equiv_pos_site_id
 _symmetry_equiv_pos_as_xyz
  1  'x, y, z'
loop_
 _atom_site_type_symbol
 _atom_site_label
 _atom_site_symmetry_multiplicity
 _atom_site_fract_x
 _atom_site_fract_y
 _atom_site_fract_z
 _atom_site_occupancy
  Zr  Zr0  1  0.11710000  0.61706000  0.50244000  1.0
  Zr  Zr1  1  0.88152000  0.38145000  0.49821000  1.0
  Zr  Zr2  1  0.11975000  0.61986000  0.26120000  1.0
  Zr  Zr3  1  0.87842000  0.37859000  0.73970000  1.0
  Zr  Zr4  1  0.11845000  0.38026000  0.50047000  1.0
  Zr  Zr5  1  0.88022000  0.61846000  0.50039000  1.0
  H  H6  1  0.28091000  0.59300000  0.31386000  1.0
  H  H7  1  0.90586000  0.21780000  0.68661000  1.0
  H  H8  1  0.90624000  0.59412000  0.31148000  1.0
  H  H9  1  0.90458000  0.59264000  0.68909000  1.0
  H  H10  1  0.41040000  0.35287000  0.50568000  1.0
  H  H11  1  0.58407000  0.64284000  0.50340000  1.0
  H  H12  1  0.85783000  0.91563000  0.49528000  1.0
  H  H13  1  0.14767000  0.08911000  0.49329000  1.0
  H  H14  1  0.85915000  0.09009000  0.05737000  1.0
  H  H15  1  0.14498000  0.91462000  0.94374000  1.0
  H  H16  1  0.58480000  0.35393000  0.05726000  1.0
  H  H17  1  0.40935000  0.63979000  0.94383000  1.0
  H  H18  1  0.40937000  0.91585000  0.94303000  1.0
  H  H19  1  0.37676000  0.96414000  0.29460000  1.0
  H  H20  1  0.46195000  0.87864000  0.29285000  1.0
  H  H21  1  0.63142000  0.04806000  0.11798000  1.0
  H  H22  1  0.54629000  0.13350000  0.11949000  1.0
  H  H23  1  0.14542000  0.64025000  0.76997000  1.0
  H  H24  1  0.85829000  0.35315000  0.23051000  1.0
  H  H25  1  0.64737000  0.34101000  0.50709000  1.0
  H  H26  1  0.34480000  0.65171000  0.50543000  1.0
  H  H27  1  0.84687000  0.15336000  0.49527000  1.0
  H  H28  1  0.15695000  0.85028000  0.49426000  1.0
  H  H29  1  0.84697000  0.85138000  0.30652000  1.0
  H  H30  1  0.15759000  0.15361000  0.69456000  1.0
  H  H31  1  0.34573000  0.34114000  0.30659000  1.0
  H  H32  1  0.64752000  0.65168000  0.69458000  1.0
  H  H33  1  0.15765000  0.65191000  0.99614000  1.0
  H  H34  1  0.84688000  0.34112000  0.00405000  1.0
  C  C35  1  0.30145000  0.49616000  0.50687000  1.0
  C  C36  1  0.00367000  0.19769000  0.49303000  1.0
  C  C37  1  0.69188000  0.49793000  0.50467000  1.0
  C  C38  1  0.00183000  0.80726000  0.49513000  1.0
  C  C39  1  0.29850000  0.80494000  0.20033000  1.0
  C  C40  1  0.00129000  0.49545000  0.80656000  1.0
  C  C41  1  0.69405000  0.20009000  0.80008000  1.0
  C  C42  1  0.00323000  0.49727000  0.19396000  1.0
  C  C43  1  0.30196000  0.49597000  0.19558000  1.0
  C  C44  1  0.00194000  0.80793000  0.19541000  1.0
  C  C45  1  0.69086000  0.49661000  0.80551000  1.0
  C  C46  1  0.00265000  0.19712000  0.80556000  1.0
  C  C47  1  0.59209000  0.49653000  0.50471000  1.0
  C  C48  1  0.40197000  0.49862000  0.50529000  1.0
  C  C49  1  0.54282000  0.41336000  0.50488000  1.0
  C  C50  1  0.45192000  0.58246000  0.50372000  1.0
  C  C51  1  0.44851000  0.41630000  0.50515000  1.0
  C  C52  1  0.54601000  0.57950000  0.50374000  1.0
  C  C53  1  0.00204000  0.09779000  0.49331000  1.0
  C  C54  1  0.00406000  0.90762000  0.49392000  1.0
  C  C55  1  0.91844000  0.04810000  0.49436000  1.0
  C  C56  1  0.08740000  0.95707000  0.49337000  1.0
  C  C57  1  0.92138000  0.95381000  0.49456000  1.0
  C  C58  1  0.08452000  0.05122000  0.49327000  1.0
  C  C59  1  0.00043000  0.90744000  0.09697000  1.0
  C  C60  1  0.00399000  0.09755000  0.90408000  1.0
  C  C61  1  0.91771000  0.95697000  0.13013000  1.0
  C  C62  1  0.08622000  0.04755000  0.87095000  1.0
  C  C63  1  0.92147000  0.05134000  0.03271000  1.0
  C  C64  1  0.08258000  0.95327000  0.96840000  1.0
  C  C65  1  0.40161000  0.49465000  0.09706000  1.0
  C  C66  1  0.59157000  0.49815000  0.90406000  1.0
  C  C67  1  0.45161000  0.41237000  0.13014000  1.0
  C  C68  1  0.54205000  0.58085000  0.87099000  1.0
  C  C69  1  0.54585000  0.41607000  0.03269000  1.0
  C  C70  1  0.44779000  0.57718000  0.96849000  1.0
  C  C71  1  0.39868000  0.90505000  0.10017000  1.0
  C  C72  1  0.59425000  0.09996000  0.90023000  1.0
  C  C73  1  0.45122000  0.95608000  0.12732000  1.0
  C  C74  1  0.54008000  0.04578000  0.87521000  1.0
  C  C75  1  0.54554000  0.05015000  0.03012000  1.0
  C  C76  1  0.44600000  0.95235000  0.97041000  1.0
  C  C77  1  0.44933000  0.95202000  0.23273000  1.0
  C  C78  1  0.55598000  0.05852000  0.12281000  1.0
  C  C79  1  0.00402000  0.49826000  0.09330000  1.0
  C  C80  1  0.00030000  0.49462000  0.90720000  1.0
  C  C81  1  0.08637000  0.58110000  0.96132000  1.0
  C  C82  1  0.91750000  0.41224000  0.03915000  1.0
  C  C83  1  0.08272000  0.57747000  0.87083000  1.0
  C  C84  1  0.92115000  0.41583000  0.12966000  1.0
  O  O85  1  0.25993000  0.57335000  0.50743000  1.0
  O  O86  1  0.92625000  0.23888000  0.49297000  1.0
  O  O87  1  0.73378000  0.42131000  0.50302000  1.0
  O  O88  1  0.07814000  0.76493000  0.49745000  1.0
  O  O89  1  0.25890000  0.76471000  0.16334000  1.0
  O  O90  1  0.92337000  0.41843000  0.84274000  1.0
  O  O91  1  0.73325000  0.23832000  0.83907000  1.0
  O  O92  1  0.08029000  0.57520000  0.15776000  1.0
  O  O93  1  0.26159000  0.41899000  0.31398000  1.0
  O  O94  1  0.92413000  0.76661000  0.31387000  1.0
  O  O95  1  0.73225000  0.57456000  0.68708000  1.0
  O  O96  1  0.07980000  0.23768000  0.68716000  1.0
  O  O97  1  0.07743000  0.76665000  0.16084000  1.0
  O  O98  1  0.73187000  0.42081000  0.84005000  1.0
  O  O99  1  0.92625000  0.23753000  0.84005000  1.0
  O  O100  1  0.26124000  0.57207000  0.16112000  1.0
  O  O101  1  0.25955000  0.76482000  0.31667000  1.0
  O  O102  1  0.92728000  0.42197000  0.31059000  1.0
  O  O103  1  0.73550000  0.24125000  0.68311000  1.0
  O  O104  1  0.07666000  0.57141000  0.68992000  1.0
  O  O105  1  0.92572000  0.76595000  0.49563000  1.0
  O  O106  1  0.26075000  0.42059000  0.50624000  1.0
  O  O107  1  0.07888000  0.23811000  0.49442000  1.0
  O  O108  1  0.73312000  0.57386000  0.50460000  1.0
  O  O109  1  0.93115000  0.56577000  0.63571000  1.0
  O  O110  1  0.93299000  0.56750000  0.36498000  1.0
  O  O111  1  0.93291000  0.29797000  0.63357000  1.0
  O  O112  1  0.20074000  0.56601000  0.36719000  1.0
  O  O113  1  0.04996000  0.45058000  0.40026000  1.0
  O  O114  1  0.04800000  0.44880000  0.60058000  1.0
  O  O115  1  0.85092000  0.45016000  0.59864000  1.0
  O  O116  1  0.04872000  0.64808000  0.40185000  1.0
  O  O117  1  0.58215000  0.33084000  0.50523000  1.0
  O  O118  1  0.41251000  0.66559000  0.50206000  1.0
  O  O119  1  0.83553000  0.08708000  0.49555000  1.0
  O  O120  1  0.16996000  0.91707000  0.49282000  1.0
  O  O121  1  0.83498000  0.91700000  0.25203000  1.0
  O  O122  1  0.16839000  0.08688000  0.74914000  1.0
  O  O123  1  0.41224000  0.33012000  0.25201000  1.0
  O  O124  1  0.58181000  0.66349000  0.74919000  1.0
  O  O125  1  0.16852000  0.66371000  0.91872000  1.0
  O  O126  1  0.83494000  0.33012000  0.08161000  1.0
  F  F127  1  0.57979000  0.08439000  0.75337000  1.0
