# generated using pymatgen
data_Mg2H12C17(NO2)4
_symmetry_space_group_name_H-M   'P 1'
_cell_length_a   6.82583000
_cell_length_b   30.75500000
_cell_length_c   30.75970000
_cell_angle_alpha   119.46300000
_cell_angle_beta   94.23850000
_cell_angle_gamma   94.25040000
_symmetry_Int_Tables_number   1
_chemical_formula_structural   Mg2H12C17(NO2)4
_chemical_formula_sum   'Mg6 H36 C51 N12 O24'
_cell_volume   5561.29199913
_cell_formula_units_Z   3
loop_
 _symmetry_equiv_pos_site_id
 _symmetry_equiv_pos_as_xyz
  1  'x, y, z'
loop_
 _atom_site_type_symbol
 _atom_site_label
 _atom_site_symmetry_multiplicity
 _atom_site_fract_x
 _atom_site_fract_y
 _atom_site_fract_z
 _atom_site_occupancy
  Mg  Mg0  1  0.48312000  0.30703000  0.67927000  1.0
  Mg  Mg1  1  0.13359000  0.63026000  0.32787000  1.0
  Mg  Mg2  1  0.80409000  0.32076000  0.62781000  1.0
  Mg  Mg3  1  0.80578000  0.67216000  0.30242000  1.0
  Mg  Mg4  1  0.17627000  0.37224000  0.69297000  1.0
  Mg  Mg5  1  0.50341000  0.69762000  0.36978000  1.0
  H  H6  1  0.74518000  0.57244000  0.18169000  1.0
  H  H7  1  0.65874000  0.54080000  0.09700000  1.0
  H  H8  1  0.63864000  0.43151000  0.98473000  1.0
  H  H9  1  0.47362000  0.52681000  0.02618000  1.0
  H  H10  1  0.39163000  0.49027000  0.05360000  1.0
  H  H11  1  0.16452000  0.44985000  0.98789000  1.0
  H  H12  1  0.57610000  0.48465000  0.94911000  1.0
  H  H13  1  0.26289000  0.40740000  0.82529000  1.0
  H  H14  1  0.97456000  0.46162000  0.83261000  1.0
  H  H15  1  0.82196000  0.49343000  0.91163000  1.0
  H  H16  1  0.18424000  0.55846000  0.08306000  1.0
  H  H17  1  0.43970000  0.60551000  0.15875000  1.0
  H  H18  1  0.56365000  0.81835000  0.39079000  1.0
  H  H19  1  0.56186000  0.90299000  0.44378000  1.0
  H  H20  1  0.65399000  0.01527000  0.44676000  1.0
  H  H21  1  0.44754000  0.97382000  0.50062000  1.0
  H  H22  1  0.33822000  0.94636000  0.43664000  1.0
  H  H23  1  0.17667000  0.01206000  0.46189000  1.0
  H  H24  1  0.62686000  0.05091000  0.53550000  1.0
  H  H25  1  0.43743000  0.17475000  0.58215000  1.0
  H  H26  1  0.14172000  0.16736000  0.62901000  1.0
  H  H27  1  0.90999000  0.08836000  0.58178000  1.0
  H  H28  1  0.10137000  0.91706000  0.47539000  1.0
  H  H29  1  0.28122000  0.84136000  0.44679000  1.0
  H  H30  1  0.17260000  0.60917000  0.42748000  1.0
  H  H31  1  0.11801000  0.55620000  0.45923000  1.0
  H  H32  1  0.20753000  0.55322000  0.56848000  1.0
  H  H33  1  0.94730000  0.49934000  0.47316000  1.0
  H  H34  1  0.90190000  0.56333000  0.50971000  1.0
  H  H35  1  0.71503000  0.53804000  0.55010000  1.0
  H  H36  1  0.09158000  0.46439000  0.51532000  1.0
  H  H37  1  0.85565000  0.41783000  0.59262000  1.0
  H  H38  1  0.51317000  0.37101000  0.53834000  1.0
  H  H39  1  0.32841000  0.41817000  0.50654000  1.0
  H  H40  1  0.62575000  0.52460000  0.44160000  1.0
  H  H41  1  0.83414000  0.55318000  0.39450000  1.0
  C  C42  1  0.03926000  0.60472000  0.21892000  1.0
  C  C43  1  0.89774000  0.57925000  0.17599000  1.0
  C  C44  1  0.94891000  0.56152000  0.12763000  1.0
  C  C45  1  0.81334000  0.48994000  0.04385000  1.0
  C  C46  1  0.44825000  0.48800000  0.01997000  1.0
  C  C47  1  0.29239000  0.44874000  0.92974000  1.0
  C  C48  1  0.53219000  0.45207000  0.87329000  1.0
  C  C49  1  0.41783000  0.41989000  0.82707000  1.0
  C  C50  1  0.50449000  0.40074000  0.78197000  1.0
  C  C51  1  0.71030000  0.41621000  0.78436000  1.0
  C  C52  1  0.81800000  0.45075000  0.83149000  1.0
  C  C53  1  0.73259000  0.46870000  0.87536000  1.0
  C  C54  1  0.81958000  0.39581000  0.74047000  1.0
  C  C55  1  0.14622000  0.57081000  0.12071000  1.0
  C  C56  1  0.28668000  0.59659000  0.16272000  1.0
  C  C57  1  0.24087000  0.61354000  0.21213000  1.0
  C  C58  1  0.40075000  0.64025000  0.25436000  1.0
  C  C59  1  0.82054000  0.78115000  0.38585000  1.0
  C  C60  1  0.72192000  0.82406000  0.40329000  1.0
  C  C61  1  0.82147000  0.87244000  0.43393000  1.0
  C  C62  1  0.76958000  0.95618000  0.44611000  1.0
  C  C63  1  0.42835000  0.98002000  0.46802000  1.0
  C  C64  1  0.36252000  0.07025000  0.51896000  1.0
  C  C65  1  0.65861000  0.12672000  0.57880000  1.0
  C  C66  1  0.59057000  0.17295000  0.59285000  1.0
  C  C67  1  0.72242000  0.21805000  0.61882000  1.0
  C  C68  1  0.92584000  0.21565000  0.63189000  1.0
  C  C69  1  0.98628000  0.16852000  0.61929000  1.0
  C  C70  1  0.85691000  0.12464000  0.59336000  1.0
  C  C71  1  0.07901000  0.25955000  0.65537000  1.0
  C  C72  1  0.02573000  0.87938000  0.45010000  1.0
  C  C73  1  0.12423000  0.83738000  0.43391000  1.0
  C  C74  1  0.02897000  0.78795000  0.40145000  1.0
  C  C75  1  0.14649000  0.74570000  0.38594000  1.0
  C  C76  1  0.43451000  0.61415000  0.39526000  1.0
  C  C77  1  0.31836000  0.59668000  0.42070000  1.0
  C  C78  1  0.38733000  0.56606000  0.43845000  1.0
  C  C79  1  0.32366000  0.55387000  0.51002000  1.0
  C  C80  1  0.96066000  0.53194000  0.51197000  1.0
  C  C81  1  0.84380000  0.48098000  0.55123000  1.0
  C  C82  1  0.08012000  0.42118000  0.54792000  1.0
  C  C83  1  0.99809000  0.40714000  0.58011000  1.0
  C  C84  1  0.10407000  0.38121000  0.59926000  1.0
  C  C85  1  0.29440000  0.36813000  0.58378000  1.0
  C  C86  1  0.36746000  0.38072000  0.54923000  1.0
  C  C87  1  0.26390000  0.40664000  0.53130000  1.0
  C  C88  1  0.42410000  0.34467000  0.60420000  1.0
  C  C89  1  0.57534000  0.54987000  0.42920000  1.0
  C  C90  1  0.69000000  0.56605000  0.40338000  1.0
  C  C91  1  0.62729000  0.59852000  0.38643000  1.0
  C  C92  1  0.76038000  0.61407000  0.35974000  1.0
  N  N93  1  0.79731000  0.53551000  0.08701000  1.0
  N  N94  1  0.63942000  0.46774000  0.01240000  1.0
  N  N95  1  0.29993000  0.45603000  0.97834000  1.0
  N  N96  1  0.46389000  0.46782000  0.92022000  1.0
  N  N97  1  0.71040000  0.91303000  0.44852000  1.0
  N  N98  1  0.62711000  0.98762000  0.45535000  1.0
  N  N99  1  0.32158000  0.02162000  0.47766000  1.0
  N  N100  1  0.54345000  0.07978000  0.54758000  1.0
  N  N101  1  0.26185000  0.55148000  0.46449000  1.0
  N  N102  1  0.17205000  0.54463000  0.53225000  1.0
  N  N103  1  0.84419000  0.52228000  0.54391000  1.0
  N  N104  1  0.99609000  0.45234000  0.53213000  1.0
  O  O105  1  0.99946000  0.41292000  0.74396000  1.0
  O  O106  1  0.73011000  0.35871000  0.69830000  1.0
  O  O107  1  0.39096000  0.36771000  0.73881000  1.0
  O  O108  1  0.57622000  0.65051000  0.24744000  1.0
  O  O109  1  0.35977000  0.65275000  0.29923000  1.0
  O  O110  1  0.97718000  0.61868000  0.26379000  1.0
  O  O111  1  0.97071000  0.47143000  0.03503000  1.0
  O  O112  1  0.14416000  0.42605000  0.89885000  1.0
  O  O113  1  0.25534000  0.25606000  0.66901000  1.0
  O  O114  1  0.03186000  0.30171000  0.66040000  1.0
  O  O115  1  0.65215000  0.26123000  0.62897000  1.0
  O  O116  1  0.32885000  0.75260000  0.40313000  1.0
  O  O117  1  0.06055000  0.70082000  0.35356000  1.0
  O  O118  1  0.71356000  0.73626000  0.35497000  1.0
  O  O119  1  0.93580000  0.96500000  0.43642000  1.0
  O  O120  1  0.24522000  0.10114000  0.52714000  1.0
  O  O121  1  0.58677000  0.33102000  0.58707000  1.0
  O  O122  1  0.37174000  0.33965000  0.64133000  1.0
  O  O123  1  0.02357000  0.37107000  0.63228000  1.0
  O  O124  1  0.92562000  0.59691000  0.34948000  1.0
  O  O125  1  0.70686000  0.64645000  0.34724000  1.0
  O  O126  1  0.35854000  0.64507000  0.38132000  1.0
  O  O127  1  0.49962000  0.56353000  0.52848000  1.0
  O  O128  1  0.71826000  0.47280000  0.57393000  1.0
