# generated using pymatgen
data_CdH15C16N3O8
_symmetry_space_group_name_H-M   'P 1'
_cell_length_a   9.83303000
_cell_length_b   10.04954492
_cell_length_c   10.90280000
_cell_angle_alpha   93.27571815
_cell_angle_beta   94.88120000
_cell_angle_gamma   117.93989466
_symmetry_Int_Tables_number   1
_chemical_formula_structural   CdH15C16N3O8
_chemical_formula_sum   'Cd2 H30 C32 N6 O16'
_cell_volume   942.57764871
_cell_formula_units_Z   2
loop_
 _symmetry_equiv_pos_site_id
 _symmetry_equiv_pos_as_xyz
  1  'x, y, z'
loop_
 _atom_site_type_symbol
 _atom_site_label
 _atom_site_symmetry_multiplicity
 _atom_site_fract_x
 _atom_site_fract_y
 _atom_site_fract_z
 _atom_site_occupancy
  Cd  Cd0  1  0.19519000  0.89771000  0.47534000  1.0
  Cd  Cd1  1  0.80479000  0.10227000  0.52467000  1.0
  H  H2  1  0.62844000  0.76650000  0.86334000  1.0
  H  H3  1  0.37155000  0.23348000  0.13665000  1.0
  H  H4  1  0.93348000  0.04502000  0.79853000  1.0
  H  H5  1  0.06654000  0.95500000  0.20147000  1.0
  H  H6  1  0.03431000  0.06216000  0.36902000  1.0
  H  H7  1  0.96568000  0.93784000  0.63098000  1.0
  H  H8  1  0.91534000  0.89171000  0.35429000  1.0
  H  H9  1  0.08466000  0.10829000  0.64571000  1.0
  H  H10  1  0.42960000  0.83752000  0.58980000  1.0
  H  H11  1  0.57039000  0.16247000  0.41020000  1.0
  H  H12  1  0.28529000  0.74496000  0.66211000  1.0
  H  H13  1  0.71470000  0.25503000  0.33788000  1.0
  H  H14  1  0.45437000  0.93957000  0.24306000  1.0
  H  H15  1  0.54561000  0.06045000  0.75695000  1.0
  H  H16  1  0.03536000  0.57068000  0.30509000  1.0
  H  H17  1  0.96465000  0.42932000  0.69491000  1.0
  H  H18  1  0.26901000  0.53784000  0.95040000  1.0
  H  H19  1  0.73100000  0.46219000  0.04960000  1.0
  H  H20  1  0.13522000  0.28938000  0.82039000  1.0
  H  H21  1  0.86479000  0.71064000  0.17961000  1.0
  H  H22  1  0.83395000  0.09611000  0.09890000  1.0
  H  H23  1  0.16609000  0.90390000  0.90111000  1.0
  H  H24  1  0.96683000  0.34199000  0.22805000  1.0
  H  H25  1  0.03318000  0.65802000  0.77195000  1.0
  H  H26  1  0.66018000  0.38712000  0.47477000  1.0
  H  H27  1  0.33982000  0.61286000  0.52523000  1.0
  H  H28  1  0.36449000  0.38515000  0.74596000  1.0
  H  H29  1  0.63550000  0.61483000  0.25403000  1.0
  H  H30  1  0.79872000  0.78281000  0.72918000  1.0
  H  H31  1  0.20127000  0.21717000  0.27082000  1.0
  C  C32  1  0.35336000  0.82793000  0.23281000  1.0
  C  C33  1  0.64664000  0.17209000  0.76719000  1.0
  C  C34  1  0.14117000  0.64025000  0.26673000  1.0
  C  C35  1  0.85883000  0.35975000  0.73327000  1.0
  C  C36  1  0.12265000  0.45728000  0.09496000  1.0
  C  C37  1  0.87736000  0.54275000  0.90504000  1.0
  C  C38  1  0.17258000  0.44130000  0.98168000  1.0
  C  C39  1  0.82743000  0.55873000  0.01832000  1.0
  C  C40  1  0.09775000  0.30126000  0.90970000  1.0
  C  C41  1  0.90226000  0.69876000  0.09030000  1.0
  C  C42  1  0.97301000  0.17641000  0.94986000  1.0
  C  C43  1  0.02701000  0.82361000  0.05014000  1.0
  C  C44  1  0.92717000  0.19345000  0.06555000  1.0
  C  C45  1  0.07286000  0.80657000  0.93446000  1.0
  C  C46  1  0.00145000  0.33271000  0.13718000  1.0
  C  C47  1  0.99856000  0.66730000  0.86283000  1.0
  C  C48  1  0.88835000  0.66685000  0.53439000  1.0
  C  C49  1  0.11164000  0.33314000  0.46562000  1.0
  C  C50  1  0.74339000  0.59213000  0.59462000  1.0
  C  C51  1  0.25660000  0.40785000  0.40538000  1.0
  C  C52  1  0.63580000  0.44252000  0.55151000  1.0
  C  C53  1  0.36418000  0.55745000  0.44849000  1.0
  C  C54  1  0.50046000  0.36750000  0.60628000  1.0
  C  C55  1  0.49953000  0.63248000  0.39371000  1.0
  C  C56  1  0.38797000  0.20669000  0.56172000  1.0
  C  C57  1  0.61203000  0.79330000  0.43827000  1.0
  C  C58  1  0.47001000  0.44360000  0.70312000  1.0
  C  C59  1  0.52999000  0.55639000  0.29688000  1.0
  C  C60  1  0.57618000  0.59425000  0.74495000  1.0
  C  C61  1  0.42382000  0.40573000  0.25505000  1.0
  C  C62  1  0.71412000  0.66758000  0.69225000  1.0
  C  C63  1  0.28588000  0.33241000  0.30775000  1.0
  N  N64  1  0.19333000  0.59982000  0.16854000  1.0
  N  N65  1  0.80667000  0.40020000  0.83146000  1.0
  N  N66  1  0.32886000  0.71918000  0.14537000  1.0
  N  N67  1  0.67113000  0.28084000  0.85463000  1.0
  N  N68  1  0.24031000  0.78405000  0.30995000  1.0
  N  N69  1  0.75967000  0.21595000  0.69005000  1.0
  O  O70  1  0.99448000  0.79945000  0.58741000  1.0
  O  O71  1  0.00551000  0.20055000  0.41259000  1.0
  O  O72  1  0.90539000  0.60269000  0.43962000  1.0
  O  O73  1  0.09461000  0.39730000  0.56038000  1.0
  O  O74  1  0.42023000  0.13440000  0.47728000  1.0
  O  O75  1  0.57976000  0.86558000  0.52271000  1.0
  O  O76  1  0.26132000  0.14034000  0.60742000  1.0
  O  O77  1  0.73867000  0.85965000  0.39257000  1.0
  O  O78  1  0.54075000  0.66561000  0.83796000  1.0
  O  O79  1  0.45925000  0.33438000  0.16203000  1.0
  O  O80  1  0.89422000  0.03930000  0.88140000  1.0
  O  O81  1  0.10581000  0.96072000  0.11861000  1.0
  O  O82  1  0.02559000  0.95941000  0.34385000  1.0
  O  O83  1  0.97440000  0.04059000  0.65615000  1.0
  O  O84  1  0.34269000  0.84190000  0.63007000  1.0
  O  O85  1  0.65730000  0.15809000  0.36993000  1.0
