# generated using pymatgen
data_Al2H16C22N2O11
_symmetry_space_group_name_H-M   'P 1'
_cell_length_a   6.68547000
_cell_length_b   11.13836899
_cell_length_c   15.27710345
_cell_angle_alpha   79.15042683
_cell_angle_beta   78.07862570
_cell_angle_gamma   72.89573967
_symmetry_Int_Tables_number   1
_chemical_formula_structural   Al2H16C22N2O11
_chemical_formula_sum   'Al2 H16 C22 N2 O11'
_cell_volume   1053.91632031
_cell_formula_units_Z   1
loop_
 _symmetry_equiv_pos_site_id
 _symmetry_equiv_pos_as_xyz
  1  'x, y, z'
loop_
 _atom_site_type_symbol
 _atom_site_label
 _atom_site_symmetry_multiplicity
 _atom_site_fract_x
 _atom_site_fract_y
 _atom_site_fract_z
 _atom_site_occupancy
  Al  Al0  1  0.50591000  0.49456000  0.49826000  1.0
  Al  Al1  1  0.00256000  0.50133000  0.49937000  1.0
  H  H2  1  0.25659000  0.39422000  0.60258000  1.0
  H  H3  1  0.69826000  0.65133000  0.44398000  1.0
  H  H4  1  0.74180000  0.87748000  0.51623000  1.0
  H  H5  1  0.39465000  0.88401000  0.48432000  1.0
  H  H6  1  0.62839000  0.11164000  0.51393000  1.0
  H  H7  1  0.13637000  0.55055000  0.05215000  1.0
  H  H8  1  0.80687000  0.55088000  0.93996000  1.0
  H  H9  1  0.34983000  0.43082000  0.77339000  1.0
  H  H10  1  0.25491000  0.42551000  0.93953000  1.0
  H  H11  1  0.70844000  0.42274000  0.23844000  1.0
  H  H12  1  0.80190000  0.41778000  0.07261000  1.0
  H  H13  1  0.24114000  0.21801000  0.48162000  1.0
  H  H14  1  0.95588000  0.55029000  0.29137000  1.0
  H  H15  1  0.88633000  0.57348000  0.18386000  1.0
  H  H16  1  0.98720000  0.55990000  0.69985000  1.0
  H  H17  1  0.02928000  0.58861000  0.80271000  1.0
  C  C18  1  0.67462000  0.49137000  0.66318000  1.0
  C  C19  1  0.87135000  0.26890000  0.49799000  1.0
  C  C20  1  0.33429000  0.49659000  0.33716000  1.0
  C  C21  1  0.14214000  0.72671000  0.49915000  1.0
  C  C22  1  0.94521000  0.13038000  0.49858000  1.0
  C  C23  1  0.07520000  0.86675000  0.50005000  1.0
  C  C24  1  0.16427000  0.06546000  0.48999000  1.0
  C  C25  1  0.85814000  0.93092000  0.50888000  1.0
  C  C26  1  0.22671000  0.93351000  0.49098000  1.0
  C  C27  1  0.79553000  0.06099000  0.50814000  1.0
  C  C28  1  0.37375000  0.49106000  0.23958000  1.0
  C  C29  1  0.63001000  0.49243000  0.76156000  1.0
  C  C30  1  0.20645000  0.52375000  0.18707000  1.0
  C  C31  1  0.26367000  0.52142000  0.09267000  1.0
  C  C32  1  0.76436000  0.52590000  0.80916000  1.0
  C  C33  1  0.70650000  0.52299000  0.90381000  1.0
  C  C34  1  0.44733000  0.45871000  0.81078000  1.0
  C  C35  1  0.39320000  0.45684000  0.90334000  1.0
  C  C36  1  0.58517000  0.45325000  0.19602000  1.0
  C  C37  1  0.63713000  0.45128000  0.10380000  1.0
  C  C38  1  0.47372000  0.48759000  0.05044000  1.0
  C  C39  1  0.52505000  0.48941000  0.95138000  1.0
  N  N40  1  0.99783000  0.56038000  0.22306000  1.0
  N  N41  1  0.94028000  0.56341000  0.76697000  1.0
  O  O42  1  0.52316000  0.49290000  0.62336000  1.0
  O  O43  1  0.01450000  0.32852000  0.49105000  1.0
  O  O44  1  0.14155000  0.51452000  0.37830000  1.0
  O  O45  1  0.33984000  0.67065000  0.49130000  1.0
  O  O46  1  0.49110000  0.48557000  0.37658000  1.0
  O  O47  1  0.99427000  0.67272000  0.50599000  1.0
  O  O48  1  0.86551000  0.48747000  0.62265000  1.0
  O  O49  1  0.67454000  0.32268000  0.50502000  1.0
  O  O50  1  0.26221000  0.43792000  0.54132000  1.0
  O  O51  1  0.74280000  0.55961000  0.45747000  1.0
  O  O52  1  0.31672000  0.12598000  0.48030000  1.0
