# generated using pymatgen
data_HgH10C10Br2(N3O)2
_symmetry_space_group_name_H-M   'P 1'
_cell_length_a   4.03513000
_cell_length_b   6.28454000
_cell_length_c   14.77160000
_cell_angle_alpha   100.08200000
_cell_angle_beta   91.21250000
_cell_angle_gamma   97.25190000
_symmetry_Int_Tables_number   1
_chemical_formula_structural   HgH10C10Br2(N3O)2
_chemical_formula_sum   'Hg1 H10 C10 Br2 N6 O2'
_cell_volume   365.49848313
_cell_formula_units_Z   1
loop_
 _symmetry_equiv_pos_site_id
 _symmetry_equiv_pos_as_xyz
  1  'x, y, z'
loop_
 _atom_site_type_symbol
 _atom_site_label
 _atom_site_symmetry_multiplicity
 _atom_site_fract_x
 _atom_site_fract_y
 _atom_site_fract_z
 _atom_site_occupancy
  Hg  Hg0  1  0.50002000  0.00000000  0.50000000  1.0
  H  H1  1  0.26475000  0.67201000  0.81320000  1.0
  H  H2  1  0.73525000  0.32800000  0.18679000  1.0
  H  H3  1  0.26263000  0.49341000  0.64626000  1.0
  H  H4  1  0.73737000  0.50658000  0.35373000  1.0
  H  H5  1  0.73153000  0.99477000  0.72140000  1.0
  H  H6  1  0.26844000  0.00523000  0.27860000  1.0
  H  H7  1  0.89102000  0.16171000  0.04201000  1.0
  H  H8  1  0.10899000  0.83829000  0.95799000  1.0
  H  H9  1  0.66100000  0.36522000  0.01237000  1.0
  H  H10  1  0.33899000  0.63478000  0.98762000  1.0
  C  C11  1  0.37026000  0.51989000  0.79338000  1.0
  C  C12  1  0.62974000  0.48011000  0.20662000  1.0
  C  C13  1  0.36840000  0.42167000  0.70066000  1.0
  C  C14  1  0.63161000  0.57833000  0.29934000  1.0
  C  C15  1  0.62439000  0.14599000  0.74166000  1.0
  C  C16  1  0.37558000  0.85400000  0.25834000  1.0
  C  C17  1  0.62689000  0.24470000  0.83425000  1.0
  C  C18  1  0.37311000  0.75530000  0.16575000  1.0
  C  C19  1  0.78690000  0.13885000  0.90454000  1.0
  C  C20  1  0.21310000  0.86116000  0.09546000  1.0
  Br  Br21  1  0.86059000  0.74496000  0.55976000  1.0
  Br  Br22  1  0.13947000  0.25507000  0.44026000  1.0
  N  N23  1  0.49751000  0.43157000  0.86052000  1.0
  N  N24  1  0.50249000  0.56843000  0.13948000  1.0
  N  N25  1  0.49517000  0.23435000  0.67524000  1.0
  N  N26  1  0.50482000  0.76563000  0.32476000  1.0
  N  N27  1  0.78062000  0.23209000  0.99255000  1.0
  N  N28  1  0.21937000  0.76791000  0.00744000  1.0
  O  O29  1  0.92234000  0.97099000  0.87707000  1.0
  O  O30  1  0.07768000  0.02901000  0.12293000  1.0
