# generated using pymatgen
data_CuH14C16N2O5
_symmetry_space_group_name_H-M   'P 1'
_cell_length_a   8.53988000
_cell_length_b   8.55536000
_cell_length_c   52.73860000
_cell_angle_alpha   90.00020000
_cell_angle_beta   90.00040000
_cell_angle_gamma   89.99990000
_symmetry_Int_Tables_number   1
_chemical_formula_structural   CuH14C16N2O5
_chemical_formula_sum   'Cu8 H112 C128 N16 O40'
_cell_volume   3853.17429012
_cell_formula_units_Z   8
loop_
 _symmetry_equiv_pos_site_id
 _symmetry_equiv_pos_as_xyz
  1  'x, y, z'
loop_
 _atom_site_type_symbol
 _atom_site_label
 _atom_site_symmetry_multiplicity
 _atom_site_fract_x
 _atom_site_fract_y
 _atom_site_fract_z
 _atom_site_occupancy
  Cu  Cu0  1  0.10580000  0.58742000  0.26673000  1.0
  Cu  Cu1  1  0.83749000  0.81453000  0.51399000  1.0
  Cu  Cu2  1  0.89420000  0.91258000  0.76673000  1.0
  Cu  Cu3  1  0.16251000  0.68548000  0.01399000  1.0
  Cu  Cu4  1  0.60580000  0.41258000  0.23327000  1.0
  Cu  Cu5  1  0.33749000  0.18549000  0.98601000  1.0
  Cu  Cu6  1  0.39420000  0.08742000  0.73327000  1.0
  Cu  Cu7  1  0.66250000  0.31449000  0.48601000  1.0
  H  H8  1  0.18458000  0.10010000  0.29255000  1.0
  H  H9  1  0.38831000  0.08342000  0.28512000  1.0
  H  H10  1  0.11455000  0.08072000  0.24711000  1.0
  H  H11  1  0.44111000  0.10351000  0.23528000  1.0
  H  H12  1  0.34665000  0.74643000  0.54123000  1.0
  H  H13  1  0.33740000  0.54098000  0.53500000  1.0
  H  H14  1  0.32974000  0.80513000  0.49532000  1.0
  H  H15  1  0.35512000  0.47541000  0.48632000  1.0
  H  H16  1  0.22191000  0.40788000  0.31118000  1.0
  H  H17  1  0.19548000  0.42679000  0.35836000  1.0
  H  H18  1  0.83729000  0.77673000  0.34588000  1.0
  H  H19  1  0.88267000  0.74576000  0.29972000  1.0
  H  H20  1  0.08018000  0.54341000  0.39496000  1.0
  H  H21  1  0.82831000  0.79472000  0.38585000  1.0
  H  H22  1  0.06816000  0.56211000  0.43563000  1.0
  H  H23  1  0.02840000  0.60422000  0.48105000  1.0
  H  H24  1  0.68346000  0.93970000  0.46838000  1.0
  H  H25  1  0.70772000  0.90989000  0.42189000  1.0
  H  H26  1  0.97540000  0.43132000  0.22214000  1.0
  H  H27  1  0.00235000  0.44377000  0.17608000  1.0
  H  H28  1  0.35020000  0.80837000  0.18687000  1.0
  H  H29  1  0.31085000  0.77908000  0.23289000  1.0
  H  H30  1  0.29139000  0.73626000  0.14462000  1.0
  H  H31  1  0.03156000  0.49194000  0.13630000  1.0
  H  H32  1  0.32984000  0.77462000  0.10521000  1.0
  H  H33  1  0.34533000  0.79945000  0.05840000  1.0
  H  H34  1  0.99708000  0.46970000  0.04735000  1.0
  H  H35  1  0.96799000  0.42692000  0.09390000  1.0
  H  H36  1  0.81543000  0.39990000  0.79255000  1.0
  H  H37  1  0.61170000  0.41658000  0.78512000  1.0
  H  H38  1  0.88546000  0.41928000  0.74711000  1.0
  H  H39  1  0.55890000  0.39648000  0.73529000  1.0
  H  H40  1  0.65335000  0.75358000  0.04123000  1.0
  H  H41  1  0.66259000  0.95902000  0.03500000  1.0
  H  H42  1  0.67026000  0.69487000  0.99532000  1.0
  H  H43  1  0.64488000  0.02459000  0.98632000  1.0
  H  H44  1  0.77808000  0.09211000  0.81118000  1.0
  H  H45  1  0.80451000  0.07322000  0.85836000  1.0
  H  H46  1  0.16272000  0.72328000  0.84588000  1.0
  H  H47  1  0.11733000  0.75424000  0.79972000  1.0
  H  H48  1  0.91982000  0.95659000  0.89496000  1.0
  H  H49  1  0.17168000  0.70528000  0.88585000  1.0
  H  H50  1  0.93184000  0.93789000  0.93563000  1.0
  H  H51  1  0.97159000  0.89578000  0.98105000  1.0
  H  H52  1  0.31654000  0.56030000  0.96838000  1.0
  H  H53  1  0.29228000  0.59011000  0.92189000  1.0
  H  H54  1  0.02461000  0.06868000  0.72214000  1.0
  H  H55  1  0.99765000  0.05623000  0.67608000  1.0
  H  H56  1  0.64980000  0.69163000  0.68687000  1.0
  H  H57  1  0.68915000  0.72092000  0.73289000  1.0
  H  H58  1  0.70861000  0.76374000  0.64462000  1.0
  H  H59  1  0.96843000  0.00806000  0.63630000  1.0
  H  H60  1  0.67016000  0.72538000  0.60521000  1.0
  H  H61  1  0.65466000  0.70056000  0.55839000  1.0
  H  H62  1  0.00291000  0.03030000  0.54735000  1.0
  H  H63  1  0.03201000  0.07308000  0.59390000  1.0
  H  H64  1  0.68458000  0.89990000  0.20745000  1.0
  H  H65  1  0.88830000  0.91657000  0.21489000  1.0
  H  H66  1  0.61454000  0.91927000  0.25289000  1.0
  H  H67  1  0.94111000  0.89648000  0.26472000  1.0
  H  H68  1  0.84665000  0.25358000  0.95877000  1.0
  H  H69  1  0.83741000  0.45901000  0.96500000  1.0
  H  H70  1  0.82974000  0.19487000  0.00468000  1.0
  H  H71  1  0.85513000  0.52459000  0.01368000  1.0
  H  H72  1  0.72192000  0.59211000  0.18882000  1.0
  H  H73  1  0.69548000  0.57322000  0.14164000  1.0
  H  H74  1  0.33728000  0.22328000  0.15412000  1.0
  H  H75  1  0.38267000  0.25424000  0.20028000  1.0
  H  H76  1  0.58018000  0.45659000  0.10504000  1.0
  H  H77  1  0.32832000  0.20528000  0.11415000  1.0
  H  H78  1  0.56817000  0.43789000  0.06437000  1.0
  H  H79  1  0.52840000  0.39578000  0.01895000  1.0
  H  H80  1  0.18346000  0.06030000  0.03162000  1.0
  H  H81  1  0.20773000  0.09011000  0.07811000  1.0
  H  H82  1  0.47540000  0.56868000  0.27786000  1.0
  H  H83  1  0.50235000  0.55623000  0.32392000  1.0
  H  H84  1  0.85021000  0.19163000  0.31313000  1.0
  H  H85  1  0.81085000  0.22092000  0.26711000  1.0
  H  H86  1  0.79139000  0.26374000  0.35538000  1.0
  H  H87  1  0.53157000  0.50805000  0.36370000  1.0
  H  H88  1  0.82984000  0.22537000  0.39479000  1.0
  H  H89  1  0.84534000  0.20055000  0.44161000  1.0
  H  H90  1  0.49708000  0.53030000  0.45265000  1.0
  H  H91  1  0.46799000  0.57307000  0.40610000  1.0
  H  H92  1  0.31542000  0.60010000  0.70745000  1.0
  H  H93  1  0.11170000  0.58343000  0.71489000  1.0
  H  H94  1  0.38546000  0.58073000  0.75289000  1.0
  H  H95  1  0.05890000  0.60352000  0.76472000  1.0
  H  H96  1  0.15334000  0.24642000  0.45877000  1.0
  H  H97  1  0.16259000  0.04098000  0.46500000  1.0
  H  H98  1  0.17026000  0.30513000  0.50468000  1.0
  H  H99  1  0.14488000  0.97542000  0.51368000  1.0
  H  H100  1  0.27808000  0.90789000  0.68882000  1.0
  H  H101  1  0.30452000  0.92678000  0.64164000  1.0
  H  H102  1  0.66272000  0.27672000  0.65412000  1.0
  H  H103  1  0.61733000  0.24576000  0.70028000  1.0
  H  H104  1  0.41982000  0.04340000  0.60503000  1.0
  H  H105  1  0.67168000  0.29471000  0.61415000  1.0
  H  H106  1  0.43184000  0.06211000  0.56437000  1.0
  H  H107  1  0.47159000  0.10422000  0.51895000  1.0
  H  H108  1  0.81654000  0.43970000  0.53162000  1.0
  H  H109  1  0.79227000  0.40988000  0.57811000  1.0
  H  H110  1  0.52460000  0.93132000  0.77786000  1.0
  H  H111  1  0.49765000  0.94377000  0.82392000  1.0
  H  H112  1  0.14979000  0.30837000  0.81313000  1.0
  H  H113  1  0.18915000  0.27909000  0.76711000  1.0
  H  H114  1  0.20861000  0.23626000  0.85538000  1.0
  H  H115  1  0.46843000  0.99195000  0.86370000  1.0
  H  H116  1  0.17016000  0.27463000  0.89479000  1.0
  H  H117  1  0.15467000  0.29945000  0.94161000  1.0
  H  H118  1  0.50292000  0.96970000  0.95265000  1.0
  H  H119  1  0.53200000  0.92692000  0.90610000  1.0
  C  C120  1  0.25556000  0.87255000  0.27998000  1.0
  C  C121  1  0.26964000  0.05015000  0.27909000  1.0
  C  C122  1  0.23381000  0.11576000  0.25252000  1.0
  C  C123  1  0.23659000  0.29527000  0.25355000  1.0
  C  C124  1  0.12243000  0.66548000  0.52855000  1.0
  C  C125  1  0.30070000  0.65678000  0.52818000  1.0
  C  C126  1  0.36699000  0.68838000  0.50152000  1.0
  C  C127  1  0.54635000  0.68871000  0.50314000  1.0
  C  C128  1  0.14007000  0.48933000  0.31993000  1.0
  C  C129  1  0.12375000  0.50044000  0.34608000  1.0
  C  C130  1  0.01622000  0.60694000  0.35666000  1.0
  C  C131  1  0.92647000  0.69498000  0.33939000  1.0
  C  C132  1  0.94981000  0.67843000  0.31352000  1.0
  C  C133  1  0.00305000  0.62051000  0.38410000  1.0
  C  C134  1  0.90597000  0.71829000  0.39673000  1.0
  C  C135  1  0.89178000  0.73377000  0.42414000  1.0
  C  C136  1  0.98095000  0.64734000  0.44163000  1.0
  C  C137  1  0.95986000  0.67032000  0.46742000  1.0
  C  C138  1  0.76836000  0.85827000  0.46033000  1.0
  C  C139  1  0.78280000  0.84042000  0.43426000  1.0
  C  C140  1  0.05614000  0.51499000  0.21366000  1.0
  C  C141  1  0.07225000  0.52335000  0.18757000  1.0
  C  C142  1  0.17798000  0.63125000  0.17686000  1.0
  C  C143  1  0.26518000  0.72340000  0.19377000  1.0
  C  C144  1  0.24392000  0.70782000  0.21975000  1.0
  C  C145  1  0.20090000  0.65146000  0.14973000  1.0
  C  C146  1  0.12173000  0.57696000  0.13112000  1.0
  C  C147  1  0.14381000  0.59933000  0.10402000  1.0
  C  C148  1  0.25277000  0.70420000  0.09335000  1.0
  C  C149  1  0.26232000  0.71960000  0.06725000  1.0
  C  C150  1  0.06792000  0.53478000  0.06095000  1.0
  C  C151  1  0.05233000  0.51251000  0.08691000  1.0
  C  C152  1  0.74444000  0.62745000  0.77998000  1.0
  C  C153  1  0.73037000  0.44985000  0.77909000  1.0
  C  C154  1  0.76620000  0.38424000  0.75252000  1.0
  C  C155  1  0.76341000  0.20473000  0.75355000  1.0
  C  C156  1  0.87757000  0.83453000  0.02856000  1.0
  C  C157  1  0.69929000  0.84324000  0.02819000  1.0
  C  C158  1  0.63300000  0.81163000  0.00152000  1.0
  C  C159  1  0.45364000  0.81129000  0.00313000  1.0
  C  C160  1  0.85993000  0.01068000  0.81993000  1.0
  C  C161  1  0.87625000  0.99957000  0.84608000  1.0
  C  C162  1  0.98378000  0.89307000  0.85666000  1.0
  C  C163  1  0.07353000  0.80502000  0.83939000  1.0
  C  C164  1  0.05018000  0.82157000  0.81353000  1.0
  C  C165  1  0.99695000  0.87950000  0.88411000  1.0
  C  C166  1  0.09403000  0.78171000  0.89673000  1.0
  C  C167  1  0.10822000  0.76623000  0.92414000  1.0
  C  C168  1  0.01904000  0.85266000  0.94163000  1.0
  C  C169  1  0.04014000  0.82967000  0.96742000  1.0
  C  C170  1  0.23164000  0.64173000  0.96033000  1.0
  C  C171  1  0.21720000  0.65958000  0.93426000  1.0
  C  C172  1  0.94386000  0.98501000  0.71366000  1.0
  C  C173  1  0.92775000  0.97665000  0.68756000  1.0
  C  C174  1  0.82202000  0.86875000  0.67686000  1.0
  C  C175  1  0.73482000  0.77659000  0.69377000  1.0
  C  C176  1  0.75608000  0.79218000  0.71975000  1.0
  C  C177  1  0.79910000  0.84854000  0.64973000  1.0
  C  C178  1  0.87827000  0.92303000  0.63112000  1.0
  C  C179  1  0.85618000  0.90067000  0.60402000  1.0
  C  C180  1  0.74722000  0.79580000  0.59335000  1.0
  C  C181  1  0.73768000  0.78040000  0.56725000  1.0
  C  C182  1  0.93208000  0.96522000  0.56095000  1.0
  C  C183  1  0.94767000  0.98749000  0.58691000  1.0
  C  C184  1  0.75556000  0.12744000  0.22002000  1.0
  C  C185  1  0.76964000  0.94985000  0.22092000  1.0
  C  C186  1  0.73380000  0.88424000  0.24748000  1.0
  C  C187  1  0.73659000  0.70473000  0.24645000  1.0
  C  C188  1  0.62243000  0.33452000  0.97144000  1.0
  C  C189  1  0.80070000  0.34322000  0.97181000  1.0
  C  C190  1  0.86700000  0.31162000  0.99848000  1.0
  C  C191  1  0.04636000  0.31129000  0.99686000  1.0
  C  C192  1  0.64007000  0.51068000  0.18007000  1.0
  C  C193  1  0.62375000  0.49957000  0.15392000  1.0
  C  C194  1  0.51622000  0.39307000  0.14334000  1.0
  C  C195  1  0.42646000  0.30502000  0.16061000  1.0
  C  C196  1  0.44981000  0.32157000  0.18648000  1.0
  C  C197  1  0.50305000  0.37950000  0.11590000  1.0
  C  C198  1  0.40597000  0.28172000  0.10327000  1.0
  C  C199  1  0.39178000  0.26623000  0.07586000  1.0
  C  C200  1  0.48096000  0.35266000  0.05837000  1.0
  C  C201  1  0.45986000  0.32967000  0.03258000  1.0
  C  C202  1  0.26836000  0.14173000  0.03966000  1.0
  C  C203  1  0.28280000  0.15958000  0.06574000  1.0
  C  C204  1  0.55614000  0.48501000  0.28634000  1.0
  C  C205  1  0.57225000  0.47665000  0.31244000  1.0
  C  C206  1  0.67799000  0.36874000  0.32314000  1.0
  C  C207  1  0.76518000  0.27660000  0.30623000  1.0
  C  C208  1  0.74392000  0.29218000  0.28026000  1.0
  C  C209  1  0.70090000  0.34854000  0.35027000  1.0
  C  C210  1  0.62173000  0.42303000  0.36888000  1.0
  C  C211  1  0.64381000  0.40067000  0.39598000  1.0
  C  C212  1  0.75278000  0.29578000  0.40665000  1.0
  C  C213  1  0.76231000  0.28041000  0.43275000  1.0
  C  C214  1  0.56792000  0.46522000  0.43905000  1.0
  C  C215  1  0.55233000  0.48749000  0.41308000  1.0
  C  C216  1  0.24444000  0.37256000  0.72002000  1.0
  C  C217  1  0.23036000  0.55015000  0.72092000  1.0
  C  C218  1  0.26620000  0.61576000  0.74748000  1.0
  C  C219  1  0.26341000  0.79527000  0.74645000  1.0
  C  C220  1  0.37757000  0.16548000  0.47144000  1.0
  C  C221  1  0.19929000  0.15677000  0.47181000  1.0
  C  C222  1  0.13300000  0.18838000  0.49848000  1.0
  C  C223  1  0.95365000  0.18872000  0.49687000  1.0
  C  C224  1  0.35993000  0.98933000  0.68007000  1.0
  C  C225  1  0.37624000  0.00043000  0.65392000  1.0
  C  C226  1  0.48378000  0.10693000  0.64334000  1.0
  C  C227  1  0.57354000  0.19498000  0.66061000  1.0
  C  C228  1  0.55019000  0.17843000  0.68647000  1.0
  C  C229  1  0.49695000  0.12050000  0.61589000  1.0
  C  C230  1  0.59403000  0.21828000  0.60327000  1.0
  C  C231  1  0.60822000  0.23377000  0.57586000  1.0
  C  C232  1  0.51903000  0.14734000  0.55837000  1.0
  C  C233  1  0.54014000  0.17033000  0.53258000  1.0
  C  C234  1  0.73163000  0.35827000  0.53966000  1.0
  C  C235  1  0.71720000  0.34042000  0.56574000  1.0
  C  C236  1  0.44386000  0.01500000  0.78634000  1.0
  C  C237  1  0.42775000  0.02335000  0.81244000  1.0
  C  C238  1  0.32202000  0.13125000  0.82314000  1.0
  C  C239  1  0.23482000  0.22340000  0.80623000  1.0
  C  C240  1  0.25608000  0.20782000  0.78025000  1.0
  C  C241  1  0.29910000  0.15146000  0.85027000  1.0
  C  C242  1  0.37826000  0.07697000  0.86888000  1.0
  C  C243  1  0.35618000  0.09933000  0.89598000  1.0
  C  C244  1  0.24722000  0.20421000  0.90666000  1.0
  C  C245  1  0.23768000  0.21960000  0.93275000  1.0
  C  C246  1  0.43208000  0.03477000  0.93905000  1.0
  C  C247  1  0.44767000  0.01251000  0.91308000  1.0
  N  N248  1  0.05652000  0.57830000  0.30390000  1.0
  N  N249  1  0.85663000  0.77494000  0.47660000  1.0
  N  N250  1  0.13992000  0.60665000  0.22945000  1.0
  N  N251  1  0.17027000  0.63819000  0.05126000  1.0
  N  N252  1  0.94348000  0.92170000  0.80390000  1.0
  N  N253  1  0.14337000  0.72506000  0.97660000  1.0
  N  N254  1  0.86008000  0.89335000  0.72945000  1.0
  N  N255  1  0.82973000  0.86181000  0.55126000  1.0
  N  N256  1  0.55652000  0.42170000  0.19610000  1.0
  N  N257  1  0.35663000  0.22506000  0.02340000  1.0
  N  N258  1  0.63992000  0.39334000  0.27055000  1.0
  N  N259  1  0.67027000  0.36181000  0.44874000  1.0
  N  N260  1  0.44349000  0.07830000  0.69610000  1.0
  N  N261  1  0.64337000  0.27495000  0.52339000  1.0
  N  N262  1  0.36008000  0.10666000  0.77055000  1.0
  N  N263  1  0.32973000  0.13819000  0.94874000  1.0
  O  O264  1  0.12796000  0.81845000  0.26949000  1.0
  O  O265  1  0.35864000  0.78985000  0.28985000  1.0
  O  O266  1  0.33588000  0.05463000  0.23378000  1.0
  O  O267  1  0.12258000  0.35643000  0.26632000  1.0
  O  O268  1  0.34325000  0.36966000  0.24276000  1.0
  O  O269  1  0.06707000  0.78851000  0.51690000  1.0
  O  O270  1  0.04160000  0.56344000  0.53900000  1.0
  O  O271  1  0.30914000  0.58070000  0.48334000  1.0
  O  O272  1  0.60568000  0.81281000  0.51325000  1.0
  O  O273  1  0.62380000  0.57399000  0.49551000  1.0
  O  O274  1  0.87204000  0.68154000  0.76949000  1.0
  O  O275  1  0.64135000  0.71014000  0.78985000  1.0
  O  O276  1  0.66412000  0.44537000  0.73378000  1.0
  O  O277  1  0.87743000  0.14357000  0.76631000  1.0
  O  O278  1  0.65676000  0.13034000  0.74276000  1.0
  O  O279  1  0.93293000  0.71151000  0.01690000  1.0
  O  O280  1  0.95839000  0.93658000  0.03900000  1.0
  O  O281  1  0.69087000  0.91931000  0.98334000  1.0
  O  O282  1  0.39432000  0.68720000  0.01325000  1.0
  O  O283  1  0.37619000  0.92601000  0.99551000  1.0
  O  O284  1  0.62796000  0.18154000  0.23051000  1.0
  O  O285  1  0.85865000  0.21013000  0.21015000  1.0
  O  O286  1  0.83588000  0.94536000  0.26623000  1.0
  O  O287  1  0.62257000  0.64357000  0.23369000  1.0
  O  O288  1  0.84325000  0.63033000  0.25724000  1.0
  O  O289  1  0.56707000  0.21150000  0.98310000  1.0
  O  O290  1  0.54160000  0.43655000  0.96100000  1.0
  O  O291  1  0.80914000  0.41930000  0.01666000  1.0
  O  O292  1  0.10569000  0.18720000  0.98675000  1.0
  O  O293  1  0.12380000  0.42601000  0.00449000  1.0
  O  O294  1  0.37204000  0.31846000  0.73051000  1.0
  O  O295  1  0.14135000  0.28987000  0.71015000  1.0
  O  O296  1  0.16413000  0.55464000  0.76623000  1.0
  O  O297  1  0.37743000  0.85642000  0.73369000  1.0
  O  O298  1  0.15676000  0.86967000  0.75724000  1.0
  O  O299  1  0.43293000  0.28851000  0.48310000  1.0
  O  O300  1  0.45840000  0.06344000  0.46100000  1.0
  O  O301  1  0.19087000  0.08070000  0.51666000  1.0
  O  O302  1  0.89432000  0.31280000  0.48675000  1.0
  O  O303  1  0.87620000  0.07400000  0.50449000  1.0
