# generated using pymatgen
data_NaH15C8S2(NO)2
_symmetry_space_group_name_H-M   'P 1'
_cell_length_a   10.12390000
_cell_length_b   10.16610000
_cell_length_c   13.59517773
_cell_angle_alpha   103.14857206
_cell_angle_beta   101.92452378
_cell_angle_gamma   114.23600000
_symmetry_Int_Tables_number   1
_chemical_formula_structural   NaH15C8S2(NO)2
_chemical_formula_sum   'Na4 H60 C32 S8 N8 O8'
_cell_volume   1169.39096222
_cell_formula_units_Z   4
loop_
 _symmetry_equiv_pos_site_id
 _symmetry_equiv_pos_as_xyz
  1  'x, y, z'
loop_
 _atom_site_type_symbol
 _atom_site_label
 _atom_site_symmetry_multiplicity
 _atom_site_fract_x
 _atom_site_fract_y
 _atom_site_fract_z
 _atom_site_occupancy
  Na  Na0  1  0.66485000  0.23765000  0.20267000  1.0
  Na  Na1  1  0.53587000  0.46436000  0.29770000  1.0
  Na  Na2  1  0.33515000  0.76235000  0.79733000  1.0
  Na  Na3  1  0.46413000  0.53564000  0.70230000  1.0
  H  H4  1  0.02256000  0.30715000  0.87857000  1.0
  H  H5  1  0.92746000  0.14207000  0.62107000  1.0
  H  H6  1  0.97744000  0.69285000  0.12143000  1.0
  H  H7  1  0.07254000  0.85793000  0.37893000  1.0
  H  H8  1  0.90048000  0.14729000  0.90934000  1.0
  H  H9  1  0.73650000  0.99072000  0.59096000  1.0
  H  H10  1  0.09952000  0.85271000  0.09066000  1.0
  H  H11  1  0.26350000  0.00928000  0.40904000  1.0
  H  H12  1  0.13045000  0.12834000  0.87919000  1.0
  H  H13  1  0.74828000  0.25008000  0.62145000  1.0
  H  H14  1  0.86954000  0.87165000  0.12080000  1.0
  H  H15  1  0.25172000  0.74992000  0.37855000  1.0
  H  H16  1  0.12279000  0.13229000  0.00869000  1.0
  H  H17  1  0.62298000  0.11469000  0.49226000  1.0
  H  H18  1  0.87721000  0.86771000  0.99131000  1.0
  H  H19  1  0.37702000  0.88531000  0.50774000  1.0
  H  H20  1  0.31901000  0.40281000  0.94834000  1.0
  H  H21  1  0.95400000  0.36899000  0.55097000  1.0
  H  H22  1  0.68099000  0.59719000  0.05166000  1.0
  H  H23  1  0.04600000  0.63101000  0.44903000  1.0
  H  H24  1  0.29002000  0.40116000  0.16849000  1.0
  H  H25  1  0.73289000  0.12230000  0.33157000  1.0
  H  H26  1  0.70998000  0.59883000  0.83150000  1.0
  H  H27  1  0.26710000  0.87770000  0.66843000  1.0
  H  H28  1  0.41896000  0.56169000  0.14329000  1.0
  H  H29  1  0.91868000  0.27520000  0.35574000  1.0
  H  H30  1  0.58104000  0.43831000  0.85671000  1.0
  H  H31  1  0.08131000  0.72480000  0.64426000  1.0
  H  H32  1  0.17923000  0.57466000  0.15117000  1.0
  H  H33  1  0.92416000  0.02889000  0.34800000  1.0
  H  H34  1  0.82077000  0.42534000  0.84883000  1.0
  H  H35  1  0.07584000  0.97110000  0.65200000  1.0
  H  H36  1  0.18844000  0.55101000  0.01855000  1.0
  H  H37  1  0.03237000  0.16890000  0.48045000  1.0
  H  H38  1  0.81156000  0.44899000  0.98145000  1.0
  H  H39  1  0.96763000  0.83110000  0.51955000  1.0
  H  H40  1  0.48138000  0.87518000  0.28041000  1.0
  H  H41  1  0.09413000  0.20031000  0.21919000  1.0
  H  H42  1  0.51862000  0.12482000  0.71959000  1.0
  H  H43  1  0.90586000  0.79969000  0.78081000  1.0
  H  H44  1  0.29172000  0.84390000  0.22132000  1.0
  H  H45  1  0.12273000  0.07108000  0.27916000  1.0
  H  H46  1  0.70828000  0.15610000  0.77868000  1.0
  H  H47  1  0.87727000  0.92891000  0.72084000  1.0
  H  H48  1  0.43191000  0.02308000  0.32469000  1.0
  H  H49  1  0.19937000  0.10786000  0.17515000  1.0
  H  H50  1  0.56809000  0.97692000  0.67531000  1.0
  H  H51  1  0.80063000  0.89214000  0.82485000  1.0
  H  H52  1  0.51825000  0.18078000  0.95014000  1.0
  H  H53  1  0.73116000  0.56731000  0.54983000  1.0
  H  H54  1  0.48174000  0.81921000  0.04985000  1.0
  H  H55  1  0.26884000  0.43269000  0.45017000  1.0
  H  H56  1  0.38492000  0.21213000  0.86833000  1.0
  H  H57  1  0.84475000  0.51620000  0.63163000  1.0
  H  H58  1  0.61507000  0.78787000  0.13167000  1.0
  H  H59  1  0.15525000  0.48380000  0.36837000  1.0
  H  H60  1  0.37093000  0.95477000  0.11138000  1.0
  H  H61  1  0.34297000  0.25936000  0.38803000  1.0
  H  H62  1  0.62908000  0.04524000  0.88862000  1.0
  H  H63  1  0.65703000  0.74064000  0.61197000  1.0
  C  C64  1  0.01427000  0.24842000  0.93785000  1.0
  C  C65  1  0.80957000  0.07566000  0.56214000  1.0
  C  C66  1  0.98573000  0.75158000  0.06215000  1.0
  C  C67  1  0.19043000  0.92434000  0.43786000  1.0
  C  C68  1  0.13988000  0.20145000  0.95628000  1.0
  C  C69  1  0.74452000  0.18310000  0.54416000  1.0
  C  C70  1  0.86012000  0.79855000  0.04372000  1.0
  C  C71  1  0.25548000  0.81690000  0.45584000  1.0
  C  C72  1  0.30072000  0.34484000  0.00774000  1.0
  C  C73  1  0.83672000  0.29212000  0.49207000  1.0
  C  C74  1  0.69927000  0.65514000  0.99225000  1.0
  C  C75  1  0.16328000  0.70788000  0.50793000  1.0
  C  C76  1  0.30707000  0.45609000  0.10783000  1.0
  C  C77  1  0.84839000  0.19914000  0.39176000  1.0
  C  C78  1  0.69293000  0.54391000  0.89217000  1.0
  C  C79  1  0.15161000  0.80086000  0.60824000  1.0
  C  C80  1  0.17825000  0.49705000  0.08017000  1.0
  C  C81  1  0.91695000  0.09803000  0.41915000  1.0
  C  C82  1  0.82174000  0.50294000  0.91982000  1.0
  C  C83  1  0.08304000  0.90196000  0.58084000  1.0
  C  C84  1  0.93313000  0.31838000  0.09374000  1.0
  C  C85  1  0.72515000  0.84057000  0.40646000  1.0
  C  C86  1  0.06687000  0.68162000  0.90626000  1.0
  C  C87  1  0.27485000  0.15943000  0.59354000  1.0
  C  C88  1  0.42359000  0.29566000  0.03045000  1.0
  C  C89  1  0.76475000  0.39220000  0.46958000  1.0
  C  C90  1  0.57641000  0.70434000  0.96955000  1.0
  C  C91  1  0.23524000  0.60779000  0.53041000  1.0
  C  C92  1  0.41413000  0.93056000  0.25439000  1.0
  C  C93  1  0.17619000  0.15986000  0.24542000  1.0
  C  C94  1  0.58587000  0.06944000  0.74561000  1.0
  C  C95  1  0.82381000  0.84014000  0.75458000  1.0
  S  S96  1  0.96320000  0.45231000  0.21110000  1.0
  S  S97  1  0.74330000  0.75446000  0.28915000  1.0
  S  S98  1  0.03680000  0.54769000  0.78890000  1.0
  S  S99  1  0.25671000  0.24554000  0.71085000  1.0
  S  S100  1  0.77847000  0.13515000  0.04883000  1.0
  S  S101  1  0.58627000  0.73085000  0.45187000  1.0
  S  S102  1  0.22154000  0.86486000  0.95118000  1.0
  S  S103  1  0.41373000  0.26915000  0.54813000  1.0
  N  N104  1  0.03001000  0.35570000  0.03733000  1.0
  N  N105  1  0.81799000  0.99285000  0.46241000  1.0
  N  N106  1  0.96999000  0.64430000  0.96267000  1.0
  N  N107  1  0.18201000  0.00716000  0.53759000  1.0
  N  N108  1  0.44808000  0.22949000  0.94408000  1.0
  N  N109  1  0.78588000  0.50322000  0.55587000  1.0
  N  N110  1  0.55192000  0.77051000  0.05592000  1.0
  N  N111  1  0.21412000  0.49678000  0.44413000  1.0
  O  O112  1  0.49494000  0.31386000  0.12408000  1.0
  O  O113  1  0.68856000  0.37004000  0.37621000  1.0
  O  O114  1  0.50506000  0.68614000  0.87592000  1.0
  O  O115  1  0.31144000  0.62996000  0.62379000  1.0
  O  O116  1  0.46295000  0.99318000  0.17599000  1.0
  O  O117  1  0.31644000  0.28672000  0.32329000  1.0
  O  O118  1  0.53705000  0.00682000  0.82401000  1.0
  O  O119  1  0.68356000  0.71328000  0.67671000  1.0
