# generated using pymatgen
data_CuH14C10BrN4
_symmetry_space_group_name_H-M   'P 1'
_cell_length_a   6.63605000
_cell_length_b   11.17187725
_cell_length_c   11.17182313
_cell_angle_alpha   101.82199084
_cell_angle_beta   107.26954142
_cell_angle_gamma   107.26813599
_symmetry_Int_Tables_number   1
_chemical_formula_structural   CuH14C10BrN4
_chemical_formula_sum   'Cu2 H28 C20 Br2 N8'
_cell_volume   715.21089762
_cell_formula_units_Z   2
loop_
 _symmetry_equiv_pos_site_id
 _symmetry_equiv_pos_as_xyz
  1  'x, y, z'
loop_
 _atom_site_type_symbol
 _atom_site_label
 _atom_site_symmetry_multiplicity
 _atom_site_fract_x
 _atom_site_fract_y
 _atom_site_fract_z
 _atom_site_occupancy
  Cu  Cu0  1  0.06150000  0.90732000  0.40733000  1.0
  Cu  Cu1  1  0.74721000  0.09254000  0.59253000  1.0
  H  H2  1  0.81607000  0.87191000  0.58682000  1.0
  H  H3  1  0.96349000  0.62197000  0.25996000  1.0
  H  H4  1  0.88624000  0.46946000  0.29504000  1.0
  H  H5  1  0.16383000  0.59590000  0.38466000  1.0
  H  H6  1  0.67765000  0.75012000  0.75541000  1.0
  H  H7  1  0.59626000  0.57475000  0.70308000  1.0
  H  H8  1  0.42057000  0.64831000  0.61875000  1.0
  H  H9  1  0.35777000  0.12793000  0.41310000  1.0
  H  H10  1  0.08264000  0.37796000  0.73979000  1.0
  H  H11  1  0.12222000  0.53046000  0.70462000  1.0
  H  H12  1  0.18319000  0.40393000  0.61461000  1.0
  H  H13  1  0.17229000  0.25017000  0.24472000  1.0
  H  H14  1  0.31895000  0.42556000  0.29736000  1.0
  H  H15  1  0.15405000  0.35187000  0.38166000  1.0
  H  H16  1  0.35775000  0.91311000  0.62794000  1.0
  H  H17  1  0.08266000  0.23972000  0.87791000  1.0
  H  H18  1  0.12226000  0.20460000  0.03043000  1.0
  H  H19  1  0.18316000  0.11453000  0.90390000  1.0
  H  H20  1  0.17228000  0.74474000  0.75017000  1.0
  H  H21  1  0.31895000  0.79737000  0.92556000  1.0
  H  H22  1  0.15403000  0.88168000  0.85188000  1.0
  H  H23  1  0.81611000  0.08682000  0.37193000  1.0
  H  H24  1  0.96346000  0.75995000  0.12197000  1.0
  H  H25  1  0.88621000  0.79503000  0.96946000  1.0
  H  H26  1  0.16384000  0.88464000  0.09590000  1.0
  H  H27  1  0.67772000  0.25544000  0.25013000  1.0
  H  H28  1  0.59633000  0.20310000  0.07474000  1.0
  H  H29  1  0.42058000  0.11877000  0.14829000  1.0
  C  C30  1  0.76954000  0.56968000  0.50380000  1.0
  C  C31  1  0.72444000  0.66801000  0.57879000  1.0
  C  C32  1  0.89443000  0.63366000  0.43588000  1.0
  C  C33  1  0.98134000  0.57673000  0.33898000  1.0
  C  C34  1  0.59871000  0.66030000  0.66884000  1.0
  C  C35  1  0.69628000  0.43032000  0.49638000  1.0
  C  C36  1  0.47795000  0.33196000  0.42130000  1.0
  C  C37  1  0.82513000  0.36629000  0.56408000  1.0
  C  C38  1  0.06600000  0.42316000  0.66069000  1.0
  C  C39  1  0.26996000  0.33988000  0.33141000  1.0
  C  C40  1  0.69626000  0.99641000  0.93033000  1.0
  C  C41  1  0.47793000  0.92131000  0.83197000  1.0
  C  C42  1  0.82513000  0.06406000  0.86628000  1.0
  C  C43  1  0.06602000  0.16065000  0.92314000  1.0
  C  C44  1  0.26996000  0.83143000  0.83990000  1.0
  C  C45  1  0.76953000  0.00379000  0.06969000  1.0
  C  C46  1  0.72448000  0.07880000  0.16802000  1.0
  C  C47  1  0.89444000  0.93589000  0.13367000  1.0
  C  C48  1  0.98133000  0.83897000  0.07673000  1.0
  C  C49  1  0.59875000  0.16886000  0.16030000  1.0
  Br  Br50  1  0.13537000  0.10405000  0.60405000  1.0
  Br  Br51  1  0.42680000  0.89607000  0.39608000  1.0
  N  N52  1  0.92432000  0.76252000  0.46841000  1.0
  N  N53  1  0.82210000  0.78070000  0.55534000  1.0
  N  N54  1  0.69374000  0.23746000  0.53159000  1.0
  N  N55  1  0.48634000  0.21927000  0.44474000  1.0
  N  N56  1  0.69371000  0.03159000  0.73745000  1.0
  N  N57  1  0.48632000  0.94475000  0.71927000  1.0
  N  N58  1  0.92434000  0.96842000  0.26253000  1.0
  N  N59  1  0.82212000  0.05535000  0.28071000  1.0
