# generated using pymatgen
data_CaH13C22O5
_symmetry_space_group_name_H-M   'P 1'
_cell_length_a   13.47260000
_cell_length_b   16.71100000
_cell_length_c   19.94410000
_cell_angle_alpha   89.90960000
_cell_angle_beta   89.82970000
_cell_angle_gamma   89.58050000
_symmetry_Int_Tables_number   1
_chemical_formula_structural   CaH13C22O5
_chemical_formula_sum   'Ca8 H104 C176 O40'
_cell_volume   4490.08138894
_cell_formula_units_Z   8
loop_
 _symmetry_equiv_pos_site_id
 _symmetry_equiv_pos_as_xyz
  1  'x, y, z'
loop_
 _atom_site_type_symbol
 _atom_site_label
 _atom_site_symmetry_multiplicity
 _atom_site_fract_x
 _atom_site_fract_y
 _atom_site_fract_z
 _atom_site_occupancy
  Ca  Ca0  1  0.79619000  0.50251000  0.77936000  1.0
  Ca  Ca1  1  0.54582000  0.50436000  0.72536000  1.0
  Ca  Ca2  1  0.94832000  0.49738000  0.27465000  1.0
  Ca  Ca3  1  0.69910000  0.50696000  0.22682000  1.0
  Ca  Ca4  1  0.29615000  0.50095000  0.77900000  1.0
  Ca  Ca5  1  0.04624000  0.49950000  0.72342000  1.0
  Ca  Ca6  1  0.44789000  0.50376000  0.27499000  1.0
  Ca  Ca7  1  0.19932000  0.49145000  0.22977000  1.0
  H  H8  1  0.74189000  0.00333000  0.65467000  1.0
  H  H9  1  0.92608000  0.20729000  0.53932000  1.0
  H  H10  1  0.93484000  0.79994000  0.54428000  1.0
  H  H11  1  0.58272000  0.75053000  0.59921000  1.0
  H  H12  1  0.66300000  0.87877000  0.56626000  1.0
  H  H13  1  0.83669000  0.69011000  0.71936000  1.0
  H  H14  1  0.92019000  0.81496000  0.68284000  1.0
  H  H15  1  0.74676000  0.00319000  0.33862000  1.0
  H  H16  1  0.55546000  0.20424000  0.45371000  1.0
  H  H17  1  0.84889000  0.29375000  0.44729000  1.0
  H  H18  1  0.76388000  0.16607000  0.47733000  1.0
  H  H19  1  0.71767000  0.28556000  0.25157000  1.0
  H  H20  1  0.63825000  0.15530000  0.27932000  1.0
  H  H21  1  0.56739000  0.79702000  0.45381000  1.0
  H  H22  1  0.87537000  0.72000000  0.43601000  1.0
  H  H23  1  0.78680000  0.84611000  0.46830000  1.0
  H  H24  1  0.71449000  0.71615000  0.25071000  1.0
  H  H25  1  0.62806000  0.84328000  0.28126000  1.0
  H  H26  1  0.99953000  0.99445000  0.84211000  1.0
  H  H27  1  0.90495000  0.70175000  0.94951000  1.0
  H  H28  1  0.98917000  0.82910000  0.98108000  1.0
  H  H29  1  0.81903000  0.20033000  0.04063000  1.0
  H  H30  1  0.82533000  0.79296000  0.03705000  1.0
  H  H31  1  0.68432000  0.20105000  0.95883000  1.0
  H  H32  1  0.69227000  0.79365000  0.95426000  1.0
  H  H33  1  0.51764000  0.72260000  0.75149000  1.0
  H  H34  1  0.59833000  0.85148000  0.78173000  1.0
  H  H35  1  0.50757000  0.01077000  0.15083000  1.0
  H  H36  1  0.56905000  0.24722000  0.61366000  1.0
  H  H37  1  0.65036000  0.11738000  0.58412000  1.0
  H  H38  1  0.84363000  0.33001000  0.69716000  1.0
  H  H39  1  0.92615000  0.20308000  0.66490000  1.0
  H  H40  1  0.90709000  0.66853000  0.19318000  1.0
  H  H41  1  0.82477000  0.79517000  0.16030000  1.0
  H  H42  1  0.67463000  0.75861000  0.11049000  1.0
  H  H43  1  0.59735000  0.88966000  0.08001000  1.0
  H  H44  1  0.90600000  0.31285000  0.21135000  1.0
  H  H45  1  0.82522000  0.18743000  0.17420000  1.0
  H  H46  1  0.67973000  0.24777000  0.10953000  1.0
  H  H47  1  0.59739000  0.12049000  0.07758000  1.0
  H  H48  1  0.82280000  0.24087000  0.88820000  1.0
  H  H49  1  0.90661000  0.11182000  0.91725000  1.0
  H  H50  1  0.59753000  0.32414000  0.80062000  1.0
  H  H51  1  0.68141000  0.19817000  0.83320000  1.0
  H  H52  1  0.87397000  0.47197000  0.62364000  1.0
  H  H53  1  0.89006000  0.56317000  0.63730000  1.0
  H  H54  1  0.63250000  0.55206000  0.87197000  1.0
  H  H55  1  0.63201000  0.45841000  0.87479000  1.0
  H  H56  1  0.58980000  0.55643000  0.36757000  1.0
  H  H57  1  0.60155000  0.46349000  0.37504000  1.0
  H  H58  1  0.82498000  0.43721000  0.13879000  1.0
  H  H59  1  0.86375000  0.52246000  0.11952000  1.0
  H  H60  1  0.24751000  0.99608000  0.65627000  1.0
  H  H61  1  0.42599000  0.20268000  0.53967000  1.0
  H  H62  1  0.43394000  0.79534000  0.53826000  1.0
  H  H63  1  0.11863000  0.71876000  0.56767000  1.0
  H  H64  1  0.20243000  0.84506000  0.53220000  1.0
  H  H65  1  0.30273000  0.70857000  0.74274000  1.0
  H  H66  1  0.38609000  0.83468000  0.70818000  1.0
  H  H67  1  0.24942000  0.00365000  0.34325000  1.0
  H  H68  1  0.05849000  0.20715000  0.45530000  1.0
  H  H69  1  0.35067000  0.29806000  0.44812000  1.0
  H  H70  1  0.26088000  0.17379000  0.48170000  1.0
  H  H71  1  0.23403000  0.27669000  0.24893000  1.0
  H  H72  1  0.15089000  0.14927000  0.28042000  1.0
  H  H73  1  0.06146000  0.79978000  0.45602000  1.0
  H  H74  1  0.41587000  0.75360000  0.39682000  1.0
  H  H75  1  0.33501000  0.88424000  0.42422000  1.0
  H  H76  1  0.15088000  0.67912000  0.29593000  1.0
  H  H77  1  0.06808000  0.80716000  0.32562000  1.0
  H  H78  1  0.49729000  0.99714000  0.84609000  1.0
  H  H79  1  0.40310000  0.70031000  0.95169000  1.0
  H  H80  1  0.48919000  0.82664000  0.98368000  1.0
  H  H81  1  0.31422000  0.20908000  0.03305000  1.0
  H  H82  1  0.32690000  0.80179000  0.04195000  1.0
  H  H83  1  0.17955000  0.20465000  0.95175000  1.0
  H  H84  1  0.19626000  0.79736000  0.95720000  1.0
  H  H85  1  0.03084000  0.71797000  0.75217000  1.0
  H  H86  1  0.11023000  0.84742000  0.78180000  1.0
  H  H87  1  0.00989000  0.99640000  0.15180000  1.0
  H  H88  1  0.07321000  0.24252000  0.61350000  1.0
  H  H89  1  0.15382000  0.11236000  0.58456000  1.0
  H  H90  1  0.34715000  0.32445000  0.69839000  1.0
  H  H91  1  0.42896000  0.19663000  0.66743000  1.0
  H  H92  1  0.40393000  0.68800000  0.20763000  1.0
  H  H93  1  0.32356000  0.81533000  0.17253000  1.0
  H  H94  1  0.18463000  0.75485000  0.11533000  1.0
  H  H95  1  0.10302000  0.88395000  0.08488000  1.0
  H  H96  1  0.40371000  0.33468000  0.19175000  1.0
  H  H97  1  0.32053000  0.21048000  0.15621000  1.0
  H  H98  1  0.17098000  0.24734000  0.10368000  1.0
  H  H99  1  0.09319000  0.11819000  0.07071000  1.0
  H  H100  1  0.32388000  0.23942000  0.88523000  1.0
  H  H101  1  0.40699000  0.11097000  0.91623000  1.0
  H  H102  1  0.09053000  0.32216000  0.79342000  1.0
  H  H103  1  0.17577000  0.19608000  0.82455000  1.0
  H  H104  1  0.37956000  0.47319000  0.62445000  1.0
  H  H105  1  0.38811000  0.56493000  0.63946000  1.0
  H  H106  1  0.13051000  0.54129000  0.87345000  1.0
  H  H107  1  0.13803000  0.44776000  0.87154000  1.0
  H  H108  1  0.09683000  0.54232000  0.37350000  1.0
  H  H109  1  0.08884000  0.44893000  0.37311000  1.0
  H  H110  1  0.36521000  0.47892000  0.12292000  1.0
  H  H111  1  0.31700000  0.56207000  0.14141000  1.0
  C  C112  1  0.65037000  0.37376000  0.67434000  1.0
  C  C113  1  0.70084000  0.29682000  0.65680000  1.0
  C  C114  1  0.79420000  0.15175000  0.62136000  1.0
  C  C115  1  0.84185000  0.07679000  0.59782000  1.0
  C  C116  1  0.80380000  0.00345000  0.61925000  1.0
  C  C117  1  0.92070000  0.07788000  0.55049000  1.0
  C  C118  1  0.95827000  0.15069000  0.52277000  1.0
  C  C119  1  0.96000000  0.00364000  0.52593000  1.0
  C  C120  1  0.65401000  0.63668000  0.68117000  1.0
  C  C121  1  0.70461000  0.71224000  0.66102000  1.0
  C  C122  1  0.79721000  0.85514000  0.62168000  1.0
  C  C123  1  0.84363000  0.93037000  0.59811000  1.0
  C  C124  1  0.92258000  0.92943000  0.55103000  1.0
  C  C125  1  0.96275000  0.85646000  0.52475000  1.0
  C  C126  1  0.65599000  0.76579000  0.61796000  1.0
  C  C127  1  0.70111000  0.83711000  0.59960000  1.0
  C  C128  1  0.79941000  0.73102000  0.68498000  1.0
  C  C129  1  0.84600000  0.80120000  0.66462000  1.0
  C  C130  1  0.83716000  0.37446000  0.33040000  1.0
  C  C131  1  0.78773000  0.29760000  0.34790000  1.0
  C  C132  1  0.69651000  0.15175000  0.38029000  1.0
  C  C133  1  0.64990000  0.07506000  0.40028000  1.0
  C  C134  1  0.68633000  0.00241000  0.37519000  1.0
  C  C135  1  0.57344000  0.07488000  0.44911000  1.0
  C  C136  1  0.53033000  0.14739000  0.47422000  1.0
  C  C137  1  0.53648000  0.00034000  0.47357000  1.0
  C  C138  1  0.80150000  0.26340000  0.41133000  1.0
  C  C139  1  0.75484000  0.19204000  0.42760000  1.0
  C  C140  1  0.72826000  0.25840000  0.30073000  1.0
  C  C141  1  0.68426000  0.18544000  0.31634000  1.0
  C  C142  1  0.85047000  0.63368000  0.32301000  1.0
  C  C143  1  0.79933000  0.70995000  0.34177000  1.0
  C  C144  1  0.70178000  0.85321000  0.37716000  1.0
  C  C145  1  0.65215000  0.92872000  0.39887000  1.0
  C  C146  1  0.57609000  0.92673000  0.44801000  1.0
  C  C147  1  0.53712000  0.85306000  0.47327000  1.0
  C  C148  1  0.82037000  0.74717000  0.40289000  1.0
  C  C149  1  0.77121000  0.81752000  0.42052000  1.0
  C  C150  1  0.72991000  0.74517000  0.29832000  1.0
  C  C151  1  0.68204000  0.81653000  0.31546000  1.0
  C  C152  1  0.89891000  0.36653000  0.82311000  1.0
  C  C153  1  0.95094000  0.28978000  0.83945000  1.0
  C  C154  1  0.91199000  0.62641000  0.83008000  1.0
  C  C155  1  0.96310000  0.70201000  0.84908000  1.0
  C  C156  1  0.95128000  0.73367000  0.91361000  1.0
  C  C157  1  0.99752000  0.80479000  0.93078000  1.0
  C  C158  1  0.94822000  0.99636000  0.11646000  1.0
  C  C159  1  0.79081000  0.99672000  0.02464000  1.0
  C  C160  1  0.95383000  0.14460000  0.11949000  1.0
  C  C161  1  0.90847000  0.06953000  0.09548000  1.0
  C  C162  1  0.82923000  0.07080000  0.04893000  1.0
  C  C163  1  0.78888000  0.14388000  0.02294000  1.0
  C  C164  1  0.95772000  0.84809000  0.11904000  1.0
  C  C165  1  0.91007000  0.92303000  0.09538000  1.0
  C  C166  1  0.83059000  0.92228000  0.04875000  1.0
  C  C167  1  0.79286000  0.84970000  0.02111000  1.0
  C  C168  1  0.55898000  0.99715000  0.88140000  1.0
  C  C169  1  0.71396000  0.99718000  0.97520000  1.0
  C  C170  1  0.55029000  0.14579000  0.87806000  1.0
  C  C171  1  0.59761000  0.07065000  0.90211000  1.0
  C  C172  1  0.67544000  0.07151000  0.94998000  1.0
  C  C173  1  0.71486000  0.14424000  0.97630000  1.0
  C  C174  1  0.54811000  0.84804000  0.88478000  1.0
  C  C175  1  0.59540000  0.92405000  0.90524000  1.0
  C  C176  1  0.67493000  0.92312000  0.95147000  1.0
  C  C177  1  0.71871000  0.85000000  0.97469000  1.0
  C  C178  1  0.51109000  0.74638000  0.80214000  1.0
  C  C179  1  0.55557000  0.81858000  0.81912000  1.0
  C  C180  1  0.59841000  0.37470000  0.17245000  1.0
  C  C181  1  0.54735000  0.29965000  0.15214000  1.0
  C  C182  1  0.59277000  0.63745000  0.17844000  1.0
  C  C183  1  0.54425000  0.71505000  0.16039000  1.0
  C  C184  1  0.64679000  0.23618000  0.62553000  1.0
  C  C185  1  0.69251000  0.16398000  0.60915000  1.0
  C  C186  1  0.80134000  0.28377000  0.67181000  1.0
  C  C187  1  0.84775000  0.21233000  0.65359000  1.0
  C  C188  1  0.95001000  0.71527000  0.16868000  1.0
  C  C189  1  0.90365000  0.78656000  0.15005000  1.0
  C  C190  1  0.59852000  0.77253000  0.12509000  1.0
  C  C191  1  0.55501000  0.84537000  0.10798000  1.0
  C  C192  1  0.94637000  0.27061000  0.17973000  1.0
  C  C193  1  0.90129000  0.20019000  0.15894000  1.0
  C  C194  1  0.60132000  0.23862000  0.12027000  1.0
  C  C195  1  0.55510000  0.16766000  0.10250000  1.0
  C  C196  1  0.89961000  0.22966000  0.87368000  1.0
  C  C197  1  0.94660000  0.15783000  0.88967000  1.0
  C  C198  1  0.55560000  0.27783000  0.82650000  1.0
  C  C199  1  0.60294000  0.20670000  0.84501000  1.0
  C  C200  1  0.15404000  0.36911000  0.67398000  1.0
  C  C201  1  0.20462000  0.29178000  0.65735000  1.0
  C  C202  1  0.29739000  0.14584000  0.62291000  1.0
  C  C203  1  0.34499000  0.07100000  0.59870000  1.0
  C  C204  1  0.30809000  0.99700000  0.61987000  1.0
  C  C205  1  0.42192000  0.07314000  0.54998000  1.0
  C  C206  1  0.45810000  0.14644000  0.52227000  1.0
  C  C207  1  0.46099000  0.99942000  0.52411000  1.0
  C  C208  1  0.15488000  0.63064000  0.67808000  1.0
  C  C209  1  0.20631000  0.70555000  0.65696000  1.0
  C  C210  1  0.29960000  0.84815000  0.61764000  1.0
  C  C211  1  0.34558000  0.92450000  0.59560000  1.0
  C  C212  1  0.42317000  0.92465000  0.54765000  1.0
  C  C213  1  0.46376000  0.85211000  0.52066000  1.0
  C  C214  1  0.17797000  0.74438000  0.59762000  1.0
  C  C215  1  0.22462000  0.81467000  0.57813000  1.0
  C  C216  1  0.28154000  0.73858000  0.69647000  1.0
  C  C217  1  0.32770000  0.80939000  0.67711000  1.0
  C  C218  1  0.34893000  0.37011000  0.32646000  1.0
  C  C219  1  0.29773000  0.29489000  0.34652000  1.0
  C  C220  1  0.20138000  0.15251000  0.38318000  1.0
  C  C221  1  0.15305000  0.07685000  0.40397000  1.0
  C  C222  1  0.18810000  0.00373000  0.37914000  1.0
  C  C223  1  0.07470000  0.07766000  0.45147000  1.0
  C  C224  1  0.03194000  0.15070000  0.47570000  1.0
  C  C225  1  0.03542000  0.00354000  0.47528000  1.0
  C  C226  1  0.30567000  0.26546000  0.41208000  1.0
  C  C227  1  0.25631000  0.19592000  0.43040000  1.0
  C  C228  1  0.24094000  0.25290000  0.29957000  1.0
  C  C229  1  0.19461000  0.18167000  0.31732000  1.0
  C  C230  1  0.33882000  0.63030000  0.32942000  1.0
  C  C231  1  0.28859000  0.70798000  0.34522000  1.0
  C  C232  1  0.19601000  0.85465000  0.37726000  1.0
  C  C233  1  0.14908000  0.93045000  0.40020000  1.0
  C  C234  1  0.07219000  0.92938000  0.44894000  1.0
  C  C235  1  0.03329000  0.85642000  0.47556000  1.0
  C  C236  1  0.34022000  0.76650000  0.38080000  1.0
  C  C237  1  0.29491000  0.83933000  0.39573000  1.0
  C  C238  1  0.19096000  0.72393000  0.32448000  1.0
  C  C239  1  0.14465000  0.79614000  0.34093000  1.0
  C  C240  1  0.40251000  0.36683000  0.82458000  1.0
  C  C241  1  0.45484000  0.29030000  0.84161000  1.0
  C  C242  1  0.40581000  0.62762000  0.83072000  1.0
  C  C243  1  0.45593000  0.70365000  0.84986000  1.0
  C  C244  1  0.44721000  0.73344000  0.91521000  1.0
  C  C245  1  0.49437000  0.80410000  0.93260000  1.0
  C  C246  1  0.44608000  0.00910000  0.11537000  1.0
  C  C247  1  0.28958000  0.00462000  0.02313000  1.0
  C  C248  1  0.45306000  0.15698000  0.11376000  1.0
  C  C249  1  0.40659000  0.08142000  0.09180000  1.0
  C  C250  1  0.32693000  0.08011000  0.04541000  1.0
  C  C251  1  0.28512000  0.15150000  0.01733000  1.0
  C  C252  1  0.45470000  0.86070000  0.12283000  1.0
  C  C253  1  0.40804000  0.93490000  0.09680000  1.0
  C  C254  1  0.32974000  0.93153000  0.04954000  1.0
  C  C255  1  0.29392000  0.85736000  0.02374000  1.0
  C  C256  1  0.06057000  0.99648000  0.87792000  1.0
  C  C257  1  0.21361000  0.00199000  0.97315000  1.0
  C  C258  1  0.04715000  0.14527000  0.87378000  1.0
  C  C259  1  0.09639000  0.07108000  0.89800000  1.0
  C  C260  1  0.17359000  0.07476000  0.94613000  1.0
  C  C261  1  0.21117000  0.14895000  0.97075000  1.0
  C  C262  1  0.05387000  0.84733000  0.88346000  1.0
  C  C263  1  0.09878000  0.92464000  0.90328000  1.0
  C  C264  1  0.17682000  0.92649000  0.95067000  1.0
  C  C265  1  0.22118000  0.85480000  0.97639000  1.0
  C  C266  1  0.02136000  0.74316000  0.80209000  1.0
  C  C267  1  0.06528000  0.81569000  0.81873000  1.0
  C  C268  1  0.09287000  0.36353000  0.18002000  1.0
  C  C269  1  0.04362000  0.28792000  0.15945000  1.0
  C  C270  1  0.10146000  0.62632000  0.17384000  1.0
  C  C271  1  0.05141000  0.70314000  0.15550000  1.0
  C  C272  1  0.15066000  0.23119000  0.62599000  1.0
  C  C273  1  0.19599000  0.15867000  0.60998000  1.0
  C  C274  1  0.30478000  0.27820000  0.67311000  1.0
  C  C275  1  0.35080000  0.20626000  0.65561000  1.0
  C  C276  1  0.44575000  0.73180000  0.17883000  1.0
  C  C277  1  0.40089000  0.80339000  0.15929000  1.0
  C  C278  1  0.10608000  0.76472000  0.12569000  1.0
  C  C279  1  0.06017000  0.83673000  0.10878000  1.0
  C  C280  1  0.44606000  0.28855000  0.16549000  1.0
  C  C281  1  0.39930000  0.21846000  0.14568000  1.0
  C  C282  1  0.09600000  0.23277000  0.11990000  1.0
  C  C283  1  0.05231000  0.16108000  0.10141000  1.0
  C  C284  1  0.40186000  0.22918000  0.87342000  1.0
  C  C285  1  0.44851000  0.15761000  0.89054000  1.0
  C  C286  1  0.05025000  0.27638000  0.82102000  1.0
  C  C287  1  0.09815000  0.20521000  0.83845000  1.0
  O  O288  1  0.56641000  0.39130000  0.64979000  1.0
  O  O289  1  0.69425000  0.42074000  0.71622000  1.0
  O  O290  1  0.88419000  0.51107000  0.65903000  1.0
  O  O291  1  0.84312000  0.59822000  0.86621000  1.0
  O  O292  1  0.81506000  0.38277000  0.84867000  1.0
  O  O293  1  0.93882000  0.59247000  0.77451000  1.0
  O  O294  1  0.68954000  0.59664000  0.73108000  1.0
  O  O295  1  0.94146000  0.41477000  0.78134000  1.0
  O  O296  1  0.63464000  0.50402000  0.84435000  1.0
  O  O297  1  0.57701000  0.61426000  0.65005000  1.0
  O  O298  1  0.91139000  0.39897000  0.36307000  1.0
  O  O299  1  0.80277000  0.41376000  0.27937000  1.0
  O  O300  1  0.60736000  0.50760000  0.34326000  1.0
  O  O301  1  0.67165000  0.61527000  0.14869000  1.0
  O  O302  1  0.68339000  0.39155000  0.14878000  1.0
  O  O303  1  0.55392000  0.59586000  0.22612000  1.0
  O  O304  1  0.81313000  0.59299000  0.27402000  1.0
  O  O305  1  0.55475000  0.42054000  0.21551000  1.0
  O  O306  1  0.85742000  0.48503000  0.15667000  1.0
  O  O307  1  0.92808000  0.61041000  0.35309000  1.0
  O  O308  1  0.06965000  0.38554000  0.64958000  1.0
  O  O309  1  0.19770000  0.41716000  0.71504000  1.0
  O  O310  1  0.38444000  0.51224000  0.66042000  1.0
  O  O311  1  0.33654000  0.59898000  0.86625000  1.0
  O  O312  1  0.31702000  0.38164000  0.84837000  1.0
  O  O313  1  0.43459000  0.59372000  0.77567000  1.0
  O  O314  1  0.18627000  0.59390000  0.73099000  1.0
  O  O315  1  0.44603000  0.41615000  0.78426000  1.0
  O  O316  1  0.13478000  0.49547000  0.84340000  1.0
  O  O317  1  0.08128000  0.60544000  0.64479000  1.0
  O  O318  1  0.42055000  0.39775000  0.35983000  1.0
  O  O319  1  0.31725000  0.40549000  0.27258000  1.0
  O  O320  1  0.10520000  0.49511000  0.34528000  1.0
  O  O321  1  0.18693000  0.60929000  0.15086000  1.0
  O  O322  1  0.17062000  0.38673000  0.14992000  1.0
  O  O323  1  0.05594000  0.57899000  0.21464000  1.0
  O  O324  1  0.29576000  0.58277000  0.28763000  1.0
  O  O325  1  0.05559000  0.40272000  0.23000000  1.0
  O  O326  1  0.35637000  0.51703000  0.15930000  1.0
  O  O327  1  0.42238000  0.61297000  0.35482000  1.0
