# generated using pymatgen
data_MnH36C30(NO)6
_symmetry_space_group_name_H-M   'P 1'
_cell_length_a   11.87320000
_cell_length_b   16.21570000
_cell_length_c   16.21780000
_cell_angle_alpha   114.26300000
_cell_angle_beta   104.10900000
_cell_angle_gamma   104.12500000
_symmetry_Int_Tables_number   1
_chemical_formula_structural   MnH36C30(NO)6
_chemical_formula_sum   'Mn3 H108 C90 N18 O18'
_cell_volume   2542.97042504
_cell_formula_units_Z   3
loop_
 _symmetry_equiv_pos_site_id
 _symmetry_equiv_pos_as_xyz
  1  'x, y, z'
loop_
 _atom_site_type_symbol
 _atom_site_label
 _atom_site_symmetry_multiplicity
 _atom_site_fract_x
 _atom_site_fract_y
 _atom_site_fract_z
 _atom_site_occupancy
  Mn  Mn0  1  0.49999000  0.50000000  0.00000000  1.0
  Mn  Mn1  1  0.00000000  0.50000000  0.50001000  1.0
  Mn  Mn2  1  0.50000000  0.00000000  0.49999000  1.0
  H  H3  1  0.65695000  0.35686000  0.73104000  1.0
  H  H4  1  0.39752000  0.07752000  0.71368000  1.0
  H  H5  1  0.36867000  0.28931000  0.96859000  1.0
  H  H6  1  0.35513000  0.09674000  0.92715000  1.0
  H  H7  1  0.21942000  0.10966000  0.87235000  1.0
  H  H8  1  0.19185000  0.97813000  0.70456000  1.0
  H  H9  1  0.19132000  0.93439000  0.78820000  1.0
  H  H10  1  0.32750000  0.96358000  0.76190000  1.0
  H  H11  1  0.67105000  0.50852000  0.66867000  1.0
  H  H12  1  0.71729000  0.63010000  0.76697000  1.0
  H  H13  1  0.56700000  0.53752000  0.72828000  1.0
  H  H14  1  0.91147000  0.62611000  0.86265000  1.0
  H  H15  1  0.88539000  0.44994000  0.89580000  1.0
  H  H16  1  0.91784000  0.57140000  0.98649000  1.0
  H  H17  1  0.02917000  0.54629000  0.93420000  1.0
  H  H18  1  0.98924000  0.49971000  0.76296000  1.0
  H  H19  1  0.86271000  0.50930000  0.68846000  1.0
  H  H20  1  0.83642000  0.40924000  0.71129000  1.0
  H  H21  1  0.30030000  0.37452000  0.64333000  1.0
  H  H22  1  0.32027000  0.63674000  0.92261000  1.0
  H  H23  1  0.07940000  0.67956000  0.71081000  1.0
  H  H24  1  0.25854000  0.83089000  0.90338000  1.0
  H  H25  1  0.10992000  0.76315000  0.89050000  1.0
  H  H26  1  0.21385000  0.72689000  0.02197000  1.0
  H  H27  1  0.25701000  0.85429000  0.06571000  1.0
  H  H28  1  0.36402000  0.79880000  0.03649000  1.0
  H  H29  1  0.16290000  0.16027000  0.49154000  1.0
  H  H30  1  0.08770000  0.13711000  0.37003000  1.0
  H  H31  1  0.02973000  0.19075000  0.46254000  1.0
  H  H32  1  0.28568000  0.23704000  0.37409000  1.0
  H  H33  1  0.43569000  0.44623000  0.55058000  1.0
  H  H34  1  0.34684000  0.41569000  0.42922000  1.0
  H  H35  1  0.48324000  0.38851000  0.45418000  1.0
  H  H36  1  0.48972000  0.26347000  0.50021000  1.0
  H  H37  1  0.35361000  0.17924000  0.49049000  1.0
  H  H38  1  0.42742000  0.30206000  0.59076000  1.0
  H  H39  1  0.92582000  0.26889000  0.62565000  1.0
  H  H40  1  0.68397000  0.28593000  0.36340000  1.0
  H  H41  1  0.40013000  0.03125000  0.32053000  1.0
  H  H42  1  0.42811000  0.07244000  0.16928000  1.0
  H  H43  1  0.34717000  0.12725000  0.23703000  1.0
  H  H44  1  0.48718000  0.29504000  0.27322000  1.0
  H  H45  1  0.40299000  0.21132000  0.14585000  1.0
  H  H46  1  0.56550000  0.23771000  0.20130000  1.0
  H  H47  1  0.00243000  0.33130000  0.83982000  1.0
  H  H48  1  0.95023000  0.23289000  0.86291000  1.0
  H  H49  1  0.83876000  0.27180000  0.80929000  1.0
  H  H50  1  0.04841000  0.13702000  0.76296000  1.0
  H  H51  1  0.98908000  0.10416000  0.55375000  1.0
  H  H52  1  0.93074000  0.01341000  0.58440000  1.0
  H  H53  1  0.09427000  0.06545000  0.61139000  1.0
  H  H54  1  0.22598000  0.23664000  0.73638000  1.0
  H  H55  1  0.17414000  0.31123000  0.82063000  1.0
  H  H56  1  0.12513000  0.28861000  0.69784000  1.0
  H  H57  1  0.34307000  0.64314000  0.26897000  1.0
  H  H58  1  0.60250000  0.92249000  0.28633000  1.0
  H  H59  1  0.63132000  0.71070000  0.03140000  1.0
  H  H60  1  0.64487000  0.90327000  0.07285000  1.0
  H  H61  1  0.78058000  0.89035000  0.12765000  1.0
  H  H62  1  0.80816000  0.02188000  0.29544000  1.0
  H  H63  1  0.80869000  0.06562000  0.21180000  1.0
  H  H64  1  0.67250000  0.03642000  0.23811000  1.0
  H  H65  1  0.32896000  0.49148000  0.33133000  1.0
  H  H66  1  0.28272000  0.36990000  0.23303000  1.0
  H  H67  1  0.43301000  0.46248000  0.27172000  1.0
  H  H68  1  0.08854000  0.37389000  0.13735000  1.0
  H  H69  1  0.11462000  0.55007000  0.10420000  1.0
  H  H70  1  0.08217000  0.42860000  0.01351000  1.0
  H  H71  1  0.97084000  0.45371000  0.06580000  1.0
  H  H72  1  0.01077000  0.50029000  0.23705000  1.0
  H  H73  1  0.13731000  0.49071000  0.31154000  1.0
  H  H74  1  0.16359000  0.59077000  0.28871000  1.0
  H  H75  1  0.69971000  0.62550000  0.35667000  1.0
  H  H76  1  0.67973000  0.36327000  0.07738000  1.0
  H  H77  1  0.92058000  0.32043000  0.28918000  1.0
  H  H78  1  0.74146000  0.16912000  0.09662000  1.0
  H  H79  1  0.89008000  0.23685000  0.10949000  1.0
  H  H80  1  0.78615000  0.27310000  0.97802000  1.0
  H  H81  1  0.74299000  0.14571000  0.93428000  1.0
  H  H82  1  0.63598000  0.20119000  0.96350000  1.0
  H  H83  1  0.83711000  0.83973000  0.50846000  1.0
  H  H84  1  0.91231000  0.86290000  0.62997000  1.0
  H  H85  1  0.97028000  0.80925000  0.53747000  1.0
  H  H86  1  0.71432000  0.76296000  0.62592000  1.0
  H  H87  1  0.56431000  0.55378000  0.44942000  1.0
  H  H88  1  0.65316000  0.58431000  0.57078000  1.0
  H  H89  1  0.51676000  0.61150000  0.54583000  1.0
  H  H90  1  0.51029000  0.73653000  0.49980000  1.0
  H  H91  1  0.64639000  0.82076000  0.50951000  1.0
  H  H92  1  0.57259000  0.69795000  0.40925000  1.0
  H  H93  1  0.07419000  0.73110000  0.37435000  1.0
  H  H94  1  0.31603000  0.71406000  0.63660000  1.0
  H  H95  1  0.59986000  0.96874000  0.67948000  1.0
  H  H96  1  0.57189000  0.92755000  0.83072000  1.0
  H  H97  1  0.65283000  0.87275000  0.76298000  1.0
  H  H98  1  0.51283000  0.70495000  0.72679000  1.0
  H  H99  1  0.59701000  0.78868000  0.85415000  1.0
  H  H100  1  0.43450000  0.76228000  0.79871000  1.0
  H  H101  1  0.99758000  0.66870000  0.16018000  1.0
  H  H102  1  0.04977000  0.76712000  0.13710000  1.0
  H  H103  1  0.16124000  0.72820000  0.19071000  1.0
  H  H104  1  0.95160000  0.86299000  0.23704000  1.0
  H  H105  1  0.01093000  0.89584000  0.44626000  1.0
  H  H106  1  0.06927000  0.98659000  0.41561000  1.0
  H  H107  1  0.90574000  0.93455000  0.38862000  1.0
  H  H108  1  0.77402000  0.76337000  0.26362000  1.0
  H  H109  1  0.82587000  0.68878000  0.17938000  1.0
  H  H110  1  0.87488000  0.71139000  0.30217000  1.0
  C  C111  1  0.53137000  0.19439000  0.67403000  1.0
  C  C112  1  0.52387000  0.32595000  0.83497000  1.0
  C  C113  1  0.49517000  0.22858000  0.76272000  1.0
  C  C114  1  0.42107000  0.15208000  0.77070000  1.0
  C  C115  1  0.37753000  0.17014000  0.84593000  1.0
  C  C116  1  0.40709000  0.26912000  0.91163000  1.0
  C  C117  1  0.29880000  0.09115000  0.85848000  1.0
  C  C118  1  0.25013000  0.98626000  0.77369000  1.0
  C  C119  1  0.60135000  0.41842000  0.84422000  1.0
  C  C120  1  0.72629000  0.52468000  0.81458000  1.0
  C  C121  1  0.70150000  0.57707000  0.90801000  1.0
  C  C122  1  0.66629000  0.55181000  0.73942000  1.0
  C  C123  1  0.86827000  0.54700000  0.83671000  1.0
  C  C124  1  0.92810000  0.52790000  0.91823000  1.0
  C  C125  1  0.88944000  0.48847000  0.74439000  1.0
  C  C126  1  0.33720000  0.48011000  0.80578000  1.0
  C  C127  1  0.19807000  0.50934000  0.67422000  1.0
  C  C128  1  0.26680000  0.53458000  0.77160000  1.0
  C  C129  1  0.26919000  0.61908000  0.84803000  1.0
  C  C130  1  0.20752000  0.67623000  0.82998000  1.0
  C  C131  1  0.13804000  0.64280000  0.73099000  1.0
  C  C132  1  0.20779000  0.76779000  0.90896000  1.0
  C  C133  1  0.26399000  0.78792000  0.01383000  1.0
  C  C134  1  0.18308000  0.42603000  0.58177000  1.0
  C  C135  1  0.20186000  0.29014000  0.47553000  1.0
  C  C136  1  0.12470000  0.33116000  0.42316000  1.0
  C  C137  1  0.11482000  0.18775000  0.44831000  1.0
  C  C138  1  0.32157000  0.29007000  0.45323000  1.0
  C  C139  1  0.40054000  0.39081000  0.47258000  1.0
  C  C140  1  0.40118000  0.25607000  0.51150000  1.0
  C  C141  1  0.85733000  0.32576000  0.52008000  1.0
  C  C142  1  0.68889000  0.16489000  0.49074000  1.0
  C  C143  1  0.73249000  0.23706000  0.46554000  1.0
  C  C144  1  0.65045000  0.22897000  0.38102000  1.0
  C  C145  1  0.53168000  0.15378000  0.32390000  1.0
  C  C146  1  0.49552000  0.08819000  0.35728000  1.0
  C  C147  1  0.44039000  0.14114000  0.23236000  1.0
  C  C148  1  0.47637000  0.22589000  0.21221000  1.0
  C  C149  1  0.75704000  0.15578000  0.57405000  1.0
  C  C150  1  0.91154000  0.18541000  0.70995000  1.0
  C  C151  1  0.79330000  0.09204000  0.66892000  1.0
  C  C152  1  0.92685000  0.26059000  0.81232000  1.0
  C  C153  1  0.03125000  0.16311000  0.70993000  1.0
  C  C154  1  0.00934000  0.08162000  0.60918000  1.0
  C  C155  1  0.14488000  0.25536000  0.74382000  1.0
  C  C156  1  0.46863000  0.80561000  0.32597000  1.0
  C  C157  1  0.47613000  0.67406000  0.16503000  1.0
  C  C158  1  0.50483000  0.77143000  0.23728000  1.0
  C  C159  1  0.57894000  0.84792000  0.22930000  1.0
  C  C160  1  0.62248000  0.82986000  0.15407000  1.0
  C  C161  1  0.59290000  0.73089000  0.08837000  1.0
  C  C162  1  0.70120000  0.90885000  0.14152000  1.0
  C  C163  1  0.74987000  0.01375000  0.22631000  1.0
  C  C164  1  0.39865000  0.58158000  0.15577000  1.0
  C  C165  1  0.27372000  0.47532000  0.18542000  1.0
  C  C166  1  0.29850000  0.42293000  0.09197000  1.0
  C  C167  1  0.33372000  0.44819000  0.26058000  1.0
  C  C168  1  0.13174000  0.45300000  0.16329000  1.0
  C  C169  1  0.07191000  0.47210000  0.08178000  1.0
  C  C170  1  0.11057000  0.51153000  0.25561000  1.0
  C  C171  1  0.66276000  0.51988000  0.19420000  1.0
  C  C172  1  0.80192000  0.49066000  0.32577000  1.0
  C  C173  1  0.73320000  0.46543000  0.22839000  1.0
  C  C174  1  0.73081000  0.38092000  0.15196000  1.0
  C  C175  1  0.79247000  0.32378000  0.17001000  1.0
  C  C176  1  0.86194000  0.35719000  0.26899000  1.0
  C  C177  1  0.79221000  0.23221000  0.09103000  1.0
  C  C178  1  0.73601000  0.21208000  0.98616000  1.0
  C  C179  1  0.81691000  0.57396000  0.41822000  1.0
  C  C180  1  0.79815000  0.70986000  0.52447000  1.0
  C  C181  1  0.87528000  0.66882000  0.57683000  1.0
  C  C182  1  0.88519000  0.81225000  0.55169000  1.0
  C  C183  1  0.67843000  0.70994000  0.54677000  1.0
  C  C184  1  0.59946000  0.60919000  0.52742000  1.0
  C  C185  1  0.59882000  0.74394000  0.48850000  1.0
  C  C186  1  0.14264000  0.67422000  0.47993000  1.0
  C  C187  1  0.31111000  0.83509000  0.50926000  1.0
  C  C188  1  0.26751000  0.76292000  0.53446000  1.0
  C  C189  1  0.34954000  0.77101000  0.61898000  1.0
  C  C190  1  0.46831000  0.84620000  0.67610000  1.0
  C  C191  1  0.50448000  0.91180000  0.64273000  1.0
  C  C192  1  0.55961000  0.85885000  0.76765000  1.0
  C  C193  1  0.52363000  0.77410000  0.78780000  1.0
  C  C194  1  0.24298000  0.84421000  0.42595000  1.0
  C  C195  1  0.08847000  0.81459000  0.29006000  1.0
  C  C196  1  0.20672000  0.90797000  0.33109000  1.0
  C  C197  1  0.07316000  0.73941000  0.18768000  1.0
  C  C198  1  0.96876000  0.83690000  0.29008000  1.0
  C  C199  1  0.99067000  0.91838000  0.39082000  1.0
  C  C200  1  0.85513000  0.74464000  0.25619000  1.0
  N  N201  1  0.47613000  0.34299000  0.90560000  1.0
  N  N202  1  0.62261000  0.50706000  0.91883000  1.0
  N  N203  1  0.65656000  0.42268000  0.78372000  1.0
  N  N204  1  0.13324000  0.56290000  0.65717000  1.0
  N  N205  1  0.11574000  0.41197000  0.49315000  1.0
  N  N206  1  0.23402000  0.36128000  0.57753000  1.0
  N  N207  1  0.57055000  0.09428000  0.43718000  1.0
  N  N208  1  0.70367000  0.08120000  0.58810000  1.0
  N  N209  1  0.87271000  0.21631000  0.63886000  1.0
  N  N210  1  0.52386000  0.65701000  0.09439000  1.0
  N  N211  1  0.37738000  0.49295000  0.08115000  1.0
  N  N212  1  0.34345000  0.57732000  0.21627000  1.0
  N  N213  1  0.86674000  0.43709000  0.34282000  1.0
  N  N214  1  0.88423000  0.58801000  0.50684000  1.0
  N  N215  1  0.76598000  0.63872000  0.42247000  1.0
  N  N216  1  0.42944000  0.90571000  0.56282000  1.0
  N  N217  1  0.29634000  0.91879000  0.41191000  1.0
  N  N218  1  0.12730000  0.78368000  0.36115000  1.0
  O  O219  1  0.45806000  0.10833000  0.60380000  1.0
  O  O220  1  0.62851000  0.24808000  0.67386000  1.0
  O  O221  1  0.74406000  0.66706000  0.96170000  1.0
  O  O222  1  0.34993000  0.49591000  0.89181000  1.0
  O  O223  1  0.38071000  0.42628000  0.75206000  1.0
  O  O224  1  0.07734000  0.29487000  0.33319000  1.0
  O  O225  1  0.85428000  0.39601000  0.50427000  1.0
  O  O226  1  0.95462000  0.32596000  0.57398000  1.0
  O  O227  1  0.78210000  0.03835000  0.70523000  1.0
  O  O228  1  0.54192000  0.89168000  0.39619000  1.0
  O  O229  1  0.37150000  0.75192000  0.32616000  1.0
  O  O230  1  0.25593000  0.33294000  0.03829000  1.0
  O  O231  1  0.65001000  0.50408000  0.10817000  1.0
  O  O232  1  0.61926000  0.57372000  0.24792000  1.0
  O  O233  1  0.92263000  0.70510000  0.66681000  1.0
  O  O234  1  0.14567000  0.60400000  0.49577000  1.0
  O  O235  1  0.04536000  0.67402000  0.42602000  1.0
  O  O236  1  0.21791000  0.96166000  0.29480000  1.0
