# generated using pymatgen
data_ZnH13C14N3O4
_symmetry_space_group_name_H-M   'P 1'
_cell_length_a   9.92459000
_cell_length_b   11.00400000
_cell_length_c   13.90880000
_cell_angle_alpha   88.58710000
_cell_angle_beta   78.84100000
_cell_angle_gamma   84.75460000
_symmetry_Int_Tables_number   1
_chemical_formula_structural   ZnH13C14N3O4
_chemical_formula_sum   'Zn2 H26 C28 N6 O8'
_cell_volume   1483.98609394
_cell_formula_units_Z   2
loop_
 _symmetry_equiv_pos_site_id
 _symmetry_equiv_pos_as_xyz
  1  'x, y, z'
loop_
 _atom_site_type_symbol
 _atom_site_label
 _atom_site_symmetry_multiplicity
 _atom_site_fract_x
 _atom_site_fract_y
 _atom_site_fract_z
 _atom_site_occupancy
  Zn  Zn0  1  0.36956000  0.51834000  0.50974000  1.0
  Zn  Zn1  1  0.66833000  0.49220000  0.48934000  1.0
  H  H2  1  0.04800000  0.62581000  0.71090000  1.0
  H  H3  1  0.06224000  0.74702000  0.62188000  1.0
  H  H4  1  0.73520000  0.87529000  0.43057000  1.0
  H  H5  1  0.73331000  0.10151000  0.42590000  1.0
  H  H6  1  0.26353000  0.13238000  0.68321000  1.0
  H  H7  1  0.18792000  0.14742000  0.57607000  1.0
  H  H8  1  0.18793000  0.92197000  0.56840000  1.0
  H  H9  1  0.35580000  0.53608000  0.03417000  1.0
  H  H10  1  0.22148000  0.39696000  0.38081000  1.0
  H  H11  1  0.79551000  0.52190000  0.73555000  1.0
  H  H12  1  0.67458000  0.65610000  0.85947000  1.0
  H  H13  1  0.69855000  0.78097000  0.77670000  1.0
  H  H14  1  0.84173000  0.71134000  0.82441000  1.0
  H  H15  1  0.81983000  0.73319000  0.60272000  1.0
  H  H16  1  0.67168000  0.40659000  0.88446000  1.0
  H  H17  1  0.88146000  0.32743000  0.93411000  1.0
  H  H18  1  0.81276000  0.37791000  0.05588000  1.0
  H  H19  1  0.87063000  0.48600000  0.96291000  1.0
  H  H20  1  0.28573000  0.80122000  0.69682000  1.0
  H  H21  1  0.12147000  0.86027000  0.83692000  1.0
  H  H22  1  0.03463000  0.88986000  0.73620000  1.0
  H  H23  1  0.10296000  0.01060000  0.78896000  1.0
  H  H24  1  0.08297000  0.32234000  0.30801000  1.0
  H  H25  1  0.91214000  0.26368000  0.24163000  1.0
  H  H26  1  0.84192000  0.41934000  0.25978000  1.0
  H  H27  1  0.78628000  0.30542000  0.34791000  1.0
  C  C28  1  0.52410000  0.73773000  0.50478000  1.0
  C  C29  1  0.45740000  0.49033000  0.79282000  1.0
  C  C30  1  0.40988000  0.94926000  0.54890000  1.0
  C  C31  1  0.52454000  0.87309000  0.50650000  1.0
  C  C32  1  0.64238000  0.93171000  0.46351000  1.0
  C  C33  1  0.64123000  0.05872000  0.46084000  1.0
  C  C34  1  0.52342000  0.13515000  0.50233000  1.0
  C  C35  1  0.40954000  0.07588000  0.54821000  1.0
  C  C36  1  0.26608000  0.09507000  0.61024000  1.0
  C  C37  1  0.26473000  0.95087000  0.60985000  1.0
  C  C38  1  0.92235000  0.55465000  0.55004000  1.0
  C  C39  1  0.46908000  0.49310000  0.68838000  1.0
  C  C40  1  0.99614000  0.42779000  0.42027000  1.0
  C  C41  1  0.13473000  0.44216000  0.43160000  1.0
  C  C42  1  0.05628000  0.56668000  0.55934000  1.0
  C  C43  1  0.02297000  0.65752000  0.64039000  1.0
  C  C44  1  0.86420000  0.64785000  0.63180000  1.0
  C  C45  1  0.52175000  0.27048000  0.49682000  1.0
  C  C46  1  0.54455000  0.51180000  0.30843000  1.0
  C  C47  1  0.56108000  0.49848000  0.20331000  1.0
  C  C48  1  0.56663000  0.46478000  0.01585000  1.0
  C  C49  1  0.44655000  0.50165000  0.98166000  1.0
  C  C50  1  0.44467000  0.49660000  0.88215000  1.0
  C  C51  1  0.56906000  0.48118000  0.11608000  1.0
  C  C52  1  0.74674000  0.69303000  0.79818000  1.0
  C  C53  1  0.81863000  0.40110000  0.97806000  1.0
  C  C54  1  0.12231000  0.91353000  0.76903000  1.0
  C  C55  1  0.87520000  0.33533000  0.29624000  1.0
  N  N56  1  0.88475000  0.48631000  0.48142000  1.0
  N  N57  1  0.16601000  0.51146000  0.49943000  1.0
  N  N58  1  0.76967000  0.60952000  0.71595000  1.0
  N  N59  1  0.68146000  0.41233000  0.95569000  1.0
  N  N60  1  0.25692000  0.89250000  0.70527000  1.0
  N  N61  1  0.98855000  0.35322000  0.34551000  1.0
  O  O62  1  0.41047000  0.69689000  0.49738000  1.0
  O  O63  1  0.63675000  0.67496000  0.51030000  1.0
  O  O64  1  0.35997000  0.53329000  0.65689000  1.0
  O  O65  1  0.58523000  0.45588000  0.63636000  1.0
  O  O66  1  0.40509000  0.33117000  0.51989000  1.0
  O  O67  1  0.63738000  0.31556000  0.46813000  1.0
  O  O68  1  0.42443000  0.49758000  0.35688000  1.0
  O  O69  1  0.64980000  0.53409000  0.34212000  1.0
