# generated using pymatgen
data_CdH16C19N4O5
_symmetry_space_group_name_H-M   'P 1'
_cell_length_a   9.91759000
_cell_length_b   11.44260000
_cell_length_c   11.61750000
_cell_angle_alpha   94.11940000
_cell_angle_beta   109.59500000
_cell_angle_gamma   97.69200000
_symmetry_Int_Tables_number   1
_chemical_formula_structural   CdH16C19N4O5
_chemical_formula_sum   'Cd2 H32 C38 N8 O10'
_cell_volume   1221.20305319
_cell_formula_units_Z   2
loop_
 _symmetry_equiv_pos_site_id
 _symmetry_equiv_pos_as_xyz
  1  'x, y, z'
loop_
 _atom_site_type_symbol
 _atom_site_label
 _atom_site_symmetry_multiplicity
 _atom_site_fract_x
 _atom_site_fract_y
 _atom_site_fract_z
 _atom_site_occupancy
  Cd  Cd0  1  0.40032000  0.09437000  0.23170000  1.0
  Cd  Cd1  1  0.59967000  0.90563000  0.76830000  1.0
  H  H2  1  0.94866000  0.90326000  0.80128000  1.0
  H  H3  1  0.05134000  0.09674000  0.19872000  1.0
  H  H4  1  0.54411000  0.25069000  0.46127000  1.0
  H  H5  1  0.45589000  0.74931000  0.53873000  1.0
  H  H6  1  0.61539000  0.13319000  0.48223000  1.0
  H  H7  1  0.38461000  0.86681000  0.51777000  1.0
  H  H8  1  0.36231000  0.49859000  0.14377000  1.0
  H  H9  1  0.63769000  0.50141000  0.85623000  1.0
  H  H10  1  0.60236000  0.32052000  0.96034000  1.0
  H  H11  1  0.39765000  0.67948000  0.03966000  1.0
  H  H12  1  0.03108000  0.16929000  0.38406000  1.0
  H  H13  1  0.96891000  0.83072000  0.61593000  1.0
  H  H14  1  0.16312000  0.84877000  0.52473000  1.0
  H  H15  1  0.83687000  0.15124000  0.47527000  1.0
  H  H16  1  0.28741000  0.82273000  0.25121000  1.0
  H  H17  1  0.71259000  0.17727000  0.74879000  1.0
  H  H18  1  0.13215000  0.62573000  0.22840000  1.0
  H  H19  1  0.86785000  0.37427000  0.77160000  1.0
  H  H20  1  0.91880000  0.55451000  0.03986000  1.0
  H  H21  1  0.08120000  0.44549000  0.96015000  1.0
  H  H22  1  0.85556000  0.67428000  0.86376000  1.0
  H  H23  1  0.14444000  0.32571000  0.13624000  1.0
  H  H24  1  0.06779000  0.12391000  0.82687000  1.0
  H  H25  1  0.93221000  0.87609000  0.17313000  1.0
  H  H26  1  0.21712000  0.17951000  0.96409000  1.0
  H  H27  1  0.78288000  0.82049000  0.03591000  1.0
  H  H28  1  0.36628000  0.94337000  0.89354000  1.0
  H  H29  1  0.63372000  0.05663000  0.10646000  1.0
  H  H30  1  0.23364000  0.24115000  0.71572000  1.0
  H  H31  1  0.76636000  0.75884000  0.28428000  1.0
  H  H32  1  0.44703000  0.16096000  0.63878000  1.0
  H  H33  1  0.55298000  0.83904000  0.36122000  1.0
  C  C34  1  0.45746000  0.29019000  0.11807000  1.0
  C  C35  1  0.54255000  0.70981000  0.88193000  1.0
  C  C36  1  0.42237000  0.50022000  0.08052000  1.0
  C  C37  1  0.57763000  0.49978000  0.91949000  1.0
  C  C38  1  0.48035000  0.39918000  0.05819000  1.0
  C  C39  1  0.51966000  0.60081000  0.94181000  1.0
  C  C40  1  0.55825000  0.39967000  0.97717000  1.0
  C  C41  1  0.44176000  0.60033000  0.02283000  1.0
  C  C42  1  0.22491000  0.02162000  0.39063000  1.0
  C  C43  1  0.77509000  0.97838000  0.60937000  1.0
  C  C44  1  0.01640000  0.09467000  0.43433000  1.0
  C  C45  1  0.98360000  0.90534000  0.56567000  1.0
  C  C46  1  0.10869000  0.00970000  0.44704000  1.0
  C  C47  1  0.89130000  0.99030000  0.55295000  1.0
  C  C48  1  0.09132000  0.91464000  0.51339000  1.0
  C  C49  1  0.90867000  0.08536000  0.48661000  1.0
  C  C50  1  0.16103000  0.85738000  0.06823000  1.0
  C  C51  1  0.83897000  0.14262000  0.93177000  1.0
  C  C52  1  0.19672000  0.78939000  0.16652000  1.0
  C  C53  1  0.80328000  0.21062000  0.83348000  1.0
  C  C54  1  0.10824000  0.68035000  0.15315000  1.0
  C  C55  1  0.89177000  0.31965000  0.84685000  1.0
  C  C56  1  0.98710000  0.63903000  0.04516000  1.0
  C  C57  1  0.01290000  0.36097000  0.95485000  1.0
  C  C58  1  0.95197000  0.70394000  0.94539000  1.0
  C  C59  1  0.04802000  0.29605000  0.05461000  1.0
  C  C60  1  0.04120000  0.81326000  0.95901000  1.0
  C  C61  1  0.95879000  0.18674000  0.04100000  1.0
  C  C62  1  0.14290000  0.99393000  0.94551000  1.0
  C  C63  1  0.85709000  0.00607000  0.05449000  1.0
  C  C64  1  0.17024000  0.10467000  0.89057000  1.0
  C  C65  1  0.82976000  0.89533000  0.10944000  1.0
  C  C66  1  0.35961000  0.01306000  0.83436000  1.0
  C  C67  1  0.64039000  0.98694000  0.16564000  1.0
  C  C68  1  0.29368000  0.16888000  0.74070000  1.0
  C  C69  1  0.70632000  0.83111000  0.25930000  1.0
  C  C70  1  0.39960000  0.12881000  0.70445000  1.0
  C  C71  1  0.60039000  0.87119000  0.29555000  1.0
  N  N72  1  0.22185000  0.97085000  0.05687000  1.0
  N  N73  1  0.77815000  0.02915000  0.94313000  1.0
  N  N74  1  0.03451000  0.90163000  0.88328000  1.0
  N  N75  1  0.96549000  0.09837000  0.11673000  1.0
  N  N76  1  0.26931000  0.09388000  0.82235000  1.0
  N  N77  1  0.73069000  0.90612000  0.17765000  1.0
  N  N78  1  0.43935000  0.03180000  0.76329000  1.0
  N  N79  1  0.56065000  0.96820000  0.23671000  1.0
  O  O80  1  0.50816000  0.19919000  0.09304000  1.0
  O  O81  1  0.49186000  0.80081000  0.90697000  1.0
  O  O82  1  0.38354000  0.29107000  0.19011000  1.0
  O  O83  1  0.61647000  0.70893000  0.80989000  1.0
  O  O84  1  0.21327000  0.09481000  0.30944000  1.0
  O  O85  1  0.78673000  0.90520000  0.69055000  1.0
  O  O86  1  0.32779000  0.96313000  0.42100000  1.0
  O  O87  1  0.67221000  0.03687000  0.57900000  1.0
  O  O88  1  0.58307000  0.19207000  0.42267000  1.0
  O  O89  1  0.41693000  0.80793000  0.57733000  1.0
