# generated using pymatgen
data_CoH12(C5N2)2
_symmetry_space_group_name_H-M   'P 1'
_cell_length_a   7.26130000
_cell_length_b   8.73476000
_cell_length_c   8.73479000
_cell_angle_alpha   89.99960000
_cell_angle_beta   90.00020000
_cell_angle_gamma   90.00000000
_symmetry_Int_Tables_number   1
_chemical_formula_structural   CoH12(C5N2)2
_chemical_formula_sum   'Co2 H24 C20 N8'
_cell_volume   554.01028179
_cell_formula_units_Z   2
loop_
 _symmetry_equiv_pos_site_id
 _symmetry_equiv_pos_as_xyz
  1  'x, y, z'
loop_
 _atom_site_type_symbol
 _atom_site_label
 _atom_site_symmetry_multiplicity
 _atom_site_fract_x
 _atom_site_fract_y
 _atom_site_fract_z
 _atom_site_occupancy
  Co  Co0  1  0.00000000  0.00000000  0.00000000  1.0
  Co  Co1  1  0.50000000  0.00000000  0.00000000  1.0
  H  H2  1  0.94411000  0.71325000  0.73761000  1.0
  H  H3  1  0.94412000  0.28674000  0.26239000  1.0
  H  H4  1  0.55588000  0.28675000  0.73761000  1.0
  H  H5  1  0.44412000  0.26239000  0.28674000  1.0
  H  H6  1  0.05589000  0.26239000  0.71325000  1.0
  H  H7  1  0.05589000  0.73761000  0.28675000  1.0
  H  H8  1  0.44412000  0.73761000  0.71326000  1.0
  H  H9  1  0.55588000  0.71326000  0.26239000  1.0
  H  H10  1  0.95905000  0.52099000  0.80618000  1.0
  H  H11  1  0.95905000  0.47901000  0.19382000  1.0
  H  H12  1  0.54095000  0.47901000  0.80618000  1.0
  H  H13  1  0.45905000  0.19383000  0.47901000  1.0
  H  H14  1  0.04096000  0.19382000  0.52099000  1.0
  H  H15  1  0.04096000  0.80618000  0.47901000  1.0
  H  H16  1  0.45905000  0.80617000  0.52099000  1.0
  H  H17  1  0.54096000  0.52099000  0.19382000  1.0
  H  H18  1  0.82347000  0.65910000  0.90393000  1.0
  H  H19  1  0.82347000  0.34089000  0.09606000  1.0
  H  H20  1  0.67653000  0.34090000  0.90394000  1.0
  H  H21  1  0.32347000  0.09607000  0.34090000  1.0
  H  H22  1  0.17653000  0.09606000  0.65910000  1.0
  H  H23  1  0.17653000  0.90394000  0.34090000  1.0
  H  H24  1  0.32347000  0.90393000  0.65910000  1.0
  H  H25  1  0.67653000  0.65911000  0.09606000  1.0
  C  C26  1  0.25000000  0.58328000  0.00000000  1.0
  C  C27  1  0.25000000  0.41672000  0.00000000  1.0
  C  C28  1  0.75000000  0.00000000  0.41672000  1.0
  C  C29  1  0.75000000  0.00000000  0.58328000  1.0
  C  C30  1  0.11861000  0.68151000  0.93302000  1.0
  C  C31  1  0.11862000  0.31848000  0.06698000  1.0
  C  C32  1  0.38138000  0.31849000  0.93302000  1.0
  C  C33  1  0.61862000  0.06698000  0.31849000  1.0
  C  C34  1  0.88138000  0.06698000  0.68151000  1.0
  C  C35  1  0.88139000  0.93302000  0.31849000  1.0
  C  C36  1  0.61862000  0.93302000  0.68151000  1.0
  C  C37  1  0.38138000  0.68152000  0.06698000  1.0
  C  C38  1  0.95270000  0.64163000  0.84085000  1.0
  C  C39  1  0.95270000  0.35837000  0.15915000  1.0
  C  C40  1  0.54730000  0.35837000  0.84085000  1.0
  C  C41  1  0.45270000  0.15916000  0.35837000  1.0
  C  C42  1  0.04731000  0.15915000  0.64163000  1.0
  C  C43  1  0.04731000  0.84085000  0.35837000  1.0
  C  C44  1  0.45270000  0.84084000  0.64163000  1.0
  C  C45  1  0.54730000  0.64163000  0.15915000  1.0
  N  N46  1  0.16857000  0.82844000  0.95973000  1.0
  N  N47  1  0.16857000  0.17156000  0.04027000  1.0
  N  N48  1  0.33142000  0.17156000  0.95973000  1.0
  N  N49  1  0.66858000  0.04027000  0.17156000  1.0
  N  N50  1  0.83143000  0.04027000  0.82844000  1.0
  N  N51  1  0.83143000  0.95973000  0.17156000  1.0
  N  N52  1  0.66857000  0.95973000  0.82844000  1.0
  N  N53  1  0.33142000  0.82844000  0.04027000  1.0
