# generated using pymatgen
data_CuH9C5N5O3
_symmetry_space_group_name_H-M   'P 1'
_cell_length_a   7.39970000
_cell_length_b   9.75111000
_cell_length_c   12.76490000
_cell_angle_alpha   81.18070000
_cell_angle_beta   73.17710000
_cell_angle_gamma   67.70180000
_symmetry_Int_Tables_number   1
_chemical_formula_structural   CuH9C5N5O3
_chemical_formula_sum   'Cu4 H36 C20 N20 O12'
_cell_volume   814.72518726
_cell_formula_units_Z   4
loop_
 _symmetry_equiv_pos_site_id
 _symmetry_equiv_pos_as_xyz
  1  'x, y, z'
loop_
 _atom_site_type_symbol
 _atom_site_label
 _atom_site_symmetry_multiplicity
 _atom_site_fract_x
 _atom_site_fract_y
 _atom_site_fract_z
 _atom_site_occupancy
  Cu  Cu0  1  0.49276000  0.57554000  0.84857000  1.0
  Cu  Cu1  1  0.91717000  0.92434000  0.65141000  1.0
  Cu  Cu2  1  0.50724000  0.42447000  0.15143000  1.0
  Cu  Cu3  1  0.08282000  0.07566000  0.34859000  1.0
  H  H4  1  0.45671000  0.34005000  0.77371000  1.0
  H  H5  1  0.57094000  0.15929000  0.72632000  1.0
  H  H6  1  0.54327000  0.65998000  0.22630000  1.0
  H  H7  1  0.42905000  0.84074000  0.27369000  1.0
  H  H8  1  0.30851000  0.32322000  0.88565000  1.0
  H  H9  1  0.51680000  0.17690000  0.61453000  1.0
  H  H10  1  0.69149000  0.67677000  0.11435000  1.0
  H  H11  1  0.48321000  0.82309000  0.38547000  1.0
  H  H12  1  0.68713000  0.66811000  0.68093000  1.0
  H  H13  1  0.03642000  0.83184000  0.81906000  1.0
  H  H14  1  0.31287000  0.33190000  0.31906000  1.0
  H  H15  1  0.96358000  0.16816000  0.18094000  1.0
  H  H16  1  0.15589000  0.38422000  0.70808000  1.0
  H  H17  1  0.24841000  0.11566000  0.79200000  1.0
  H  H18  1  0.84411000  0.61578000  0.29192000  1.0
  H  H19  1  0.75159000  0.88434000  0.20800000  1.0
  H  H20  1  0.00815000  0.57351000  0.72475000  1.0
  H  H21  1  0.30666000  0.92632000  0.77534000  1.0
  H  H22  1  0.99185000  0.42649000  0.27525000  1.0
  H  H23  1  0.69333000  0.07368000  0.22466000  1.0
  H  H24  1  0.95252000  0.46305000  0.57800000  1.0
  H  H25  1  0.99391000  0.03685000  0.92213000  1.0
  H  H26  1  0.04748000  0.53695000  0.42200000  1.0
  H  H27  1  0.00609000  0.96315000  0.07787000  1.0
  H  H28  1  0.85804000  0.34107000  0.67562000  1.0
  H  H29  1  0.87521000  0.15885000  0.82444000  1.0
  H  H30  1  0.14197000  0.65893000  0.32438000  1.0
  H  H31  1  0.12479000  0.84115000  0.17556000  1.0
  H  H32  1  0.57338000  0.44759000  0.60531000  1.0
  H  H33  1  0.62662000  0.05245000  0.89457000  1.0
  H  H34  1  0.42663000  0.55240000  0.39469000  1.0
  H  H35  1  0.37338000  0.94755000  0.10543000  1.0
  H  H36  1  0.60772000  0.60953000  0.53225000  1.0
  H  H37  1  0.74992000  0.89066000  0.96776000  1.0
  H  H38  1  0.39228000  0.39047000  0.46775000  1.0
  H  H39  1  0.25008000  0.10933000  0.03224000  1.0
  C  C40  1  0.92417000  0.42577000  0.85422000  1.0
  C  C41  1  0.20417000  0.07417000  0.64589000  1.0
  C  C42  1  0.07583000  0.57422000  0.14578000  1.0
  C  C43  1  0.79584000  0.92583000  0.35410000  1.0
  C  C44  1  0.00057000  0.46154000  0.73628000  1.0
  C  C45  1  0.19860000  0.03829000  0.76383000  1.0
  C  C46  1  0.99944000  0.53846000  0.26372000  1.0
  C  C47  1  0.80139000  0.96171000  0.23617000  1.0
  C  C48  1  0.87498000  0.45001000  0.66474000  1.0
  C  C49  1  0.99009000  0.04985000  0.83535000  1.0
  C  C50  1  0.12503000  0.54999000  0.33526000  1.0
  C  C51  1  0.00990000  0.95015000  0.16465000  1.0
  C  C52  1  0.55469000  0.56326000  0.61439000  1.0
  C  C53  1  0.73266000  0.93678000  0.88561000  1.0
  C  C54  1  0.44531000  0.43674000  0.38561000  1.0
  C  C55  1  0.26734000  0.06322000  0.11439000  1.0
  C  C56  1  0.33384000  0.65107000  0.66154000  1.0
  C  C57  1  0.64689000  0.84884000  0.83846000  1.0
  C  C58  1  0.66615000  0.34893000  0.33846000  1.0
  C  C59  1  0.35310000  0.15116000  0.16155000  1.0
  N  N60  1  0.73289000  0.40444000  0.01316000  1.0
  N  N61  1  0.15062000  0.09534000  0.48689000  1.0
  N  N62  1  0.26711000  0.59555000  0.98684000  1.0
  N  N63  1  0.84938000  0.90466000  0.51311000  1.0
  N  N64  1  0.92073000  0.33444000  0.01892000  1.0
  N  N65  1  0.27415000  0.16538000  0.48119000  1.0
  N  N66  1  0.07927000  0.66556000  0.98108000  1.0
  N  N67  1  0.72584000  0.83462000  0.51881000  1.0
  N  N68  1  0.04346000  0.34617000  0.92041000  1.0
  N  N69  1  0.31002000  0.15375000  0.57974000  1.0
  N  N70  1  0.95654000  0.65383000  0.07959000  1.0
  N  N71  1  0.68998000  0.84625000  0.42026000  1.0
  N  N72  1  0.67261000  0.56480000  0.68896000  1.0
  N  N73  1  0.92663000  0.93517000  0.81106000  1.0
  N  N74  1  0.32739000  0.43520000  0.31104000  1.0
  N  N75  1  0.07337000  0.06483000  0.18894000  1.0
  N  N76  1  0.72929000  0.46332000  0.91056000  1.0
  N  N77  1  0.10323000  0.03660000  0.58950000  1.0
  N  N78  1  0.27071000  0.53668000  0.08944000  1.0
  N  N79  1  0.89677000  0.96340000  0.41050000  1.0
  O  O80  1  0.21137000  0.69580000  0.60340000  1.0
  O  O81  1  0.51115000  0.80400000  0.89651000  1.0
  O  O82  1  0.78864000  0.30420000  0.39660000  1.0
  O  O83  1  0.48886000  0.19599000  0.10349000  1.0
  O  O84  1  0.28315000  0.67291000  0.76577000  1.0
  O  O85  1  0.72218000  0.82704000  0.73422000  1.0
  O  O86  1  0.71685000  0.32709000  0.23423000  1.0
  O  O87  1  0.27781000  0.17296000  0.26578000  1.0
  O  O88  1  0.45285000  0.31128000  0.85083000  1.0
  O  O89  1  0.61443000  0.18895000  0.64933000  1.0
  O  O90  1  0.54715000  0.68871000  0.14917000  1.0
  O  O91  1  0.38558000  0.81104000  0.35067000  1.0
