# generated using pymatgen
data_ZnH10C16N8O
_symmetry_space_group_name_H-M   'P 1'
_cell_length_a   7.37953000
_cell_length_b   12.74710000
_cell_length_c   18.46650000
_cell_angle_alpha   89.99980000
_cell_angle_beta   89.99990000
_cell_angle_gamma   86.36790000
_symmetry_Int_Tables_number   1
_chemical_formula_structural   ZnH10C16N8O
_chemical_formula_sum   'Zn4 H40 C64 N32 O4'
_cell_volume   1733.61031262
_cell_formula_units_Z   4
loop_
 _symmetry_equiv_pos_site_id
 _symmetry_equiv_pos_as_xyz
  1  'x, y, z'
loop_
 _atom_site_type_symbol
 _atom_site_label
 _atom_site_symmetry_multiplicity
 _atom_site_fract_x
 _atom_site_fract_y
 _atom_site_fract_z
 _atom_site_occupancy
  Zn  Zn0  1  0.36717000  0.55817000  0.28048000  1.0
  Zn  Zn1  1  0.63281000  0.94182000  0.78056000  1.0
  Zn  Zn2  1  0.63283000  0.44193000  0.71982000  1.0
  Zn  Zn3  1  0.36715000  0.05806000  0.21990000  1.0
  H  H4  1  0.49431000  0.46288000  0.40013000  1.0
  H  H5  1  0.50576000  0.03711000  0.90012000  1.0
  H  H6  1  0.50580000  0.53715000  0.59987000  1.0
  H  H7  1  0.49427000  0.96282000  0.09986000  1.0
  H  H8  1  0.45604000  0.54697000  0.46003000  1.0
  H  H9  1  0.54394000  0.95340000  0.96028000  1.0
  H  H10  1  0.54425000  0.45157000  0.54097000  1.0
  H  H11  1  0.45561000  0.04877000  0.04123000  1.0
  H  H12  1  0.35930000  0.75282000  0.20630000  1.0
  H  H13  1  0.64066000  0.74719000  0.70630000  1.0
  H  H14  1  0.64060000  0.24715000  0.79375000  1.0
  H  H15  1  0.35938000  0.25287000  0.29376000  1.0
  H  H16  1  0.27449000  0.83187000  0.08602000  1.0
  H  H17  1  0.72545000  0.66813000  0.58603000  1.0
  H  H18  1  0.72527000  0.16808000  0.91403000  1.0
  H  H19  1  0.27468000  0.33192000  0.41404000  1.0
  H  H20  1  0.21185000  0.71383000  0.98335000  1.0
  H  H21  1  0.78814000  0.78617000  0.48336000  1.0
  H  H22  1  0.78817000  0.28621000  0.01668000  1.0
  H  H23  1  0.21182000  0.21380000  0.51669000  1.0
  H  H24  1  0.14960000  0.60969000  0.90513000  1.0
  H  H25  1  0.85040000  0.89031000  0.40514000  1.0
  H  H26  1  0.85047000  0.39031000  0.09488000  1.0
  H  H27  1  0.14953000  0.10969000  0.59488000  1.0
  H  H28  1  0.08597000  0.47003000  0.81584000  1.0
  H  H29  1  0.91401000  0.02996000  0.31584000  1.0
  H  H30  1  0.91408000  0.52994000  0.18419000  1.0
  H  H31  1  0.08593000  0.97004000  0.68419000  1.0
  H  H32  1  0.14772000  0.28261000  0.84855000  1.0
  H  H33  1  0.85227000  0.21738000  0.34855000  1.0
  H  H34  1  0.85230000  0.71736000  0.15148000  1.0
  H  H35  1  0.14770000  0.78264000  0.65148000  1.0
  H  H36  1  0.35306000  0.26736000  0.08072000  1.0
  H  H37  1  0.64693000  0.23265000  0.58072000  1.0
  H  H38  1  0.64690000  0.73269000  0.91932000  1.0
  H  H39  1  0.35308000  0.76732000  0.41932000  1.0
  H  H40  1  0.40854000  0.39336000  0.17892000  1.0
  H  H41  1  0.59147000  0.10665000  0.67892000  1.0
  H  H42  1  0.59142000  0.60669000  0.82112000  1.0
  H  H43  1  0.40857000  0.89332000  0.32112000  1.0
  C  C44  1  0.03328000  0.40703000  0.27797000  1.0
  C  C45  1  0.96668000  0.09298000  0.77797000  1.0
  C  C46  1  0.96684000  0.59294000  0.72202000  1.0
  C  C47  1  0.03309000  0.90707000  0.22202000  1.0
  C  C48  1  0.72488000  0.40567000  0.28517000  1.0
  C  C49  1  0.27510000  0.09436000  0.78513000  1.0
  C  C50  1  0.27532000  0.59420000  0.71468000  1.0
  C  C51  1  0.72463000  0.90583000  0.21464000  1.0
  C  C52  1  0.01168000  0.67609000  0.33977000  1.0
  C  C53  1  0.98835000  0.82387000  0.83976000  1.0
  C  C54  1  0.98818000  0.32403000  0.66020000  1.0
  C  C55  1  0.01184000  0.17593000  0.16019000  1.0
  C  C56  1  0.70307000  0.67813000  0.33649000  1.0
  C  C57  1  0.29691000  0.82185000  0.83647000  1.0
  C  C58  1  0.29689000  0.32196000  0.66345000  1.0
  C  C59  1  0.70312000  0.17802000  0.16343000  1.0
  C  C60  1  0.33643000  0.70293000  0.15968000  1.0
  C  C61  1  0.66354000  0.79709000  0.65969000  1.0
  C  C62  1  0.66348000  0.29704000  0.84038000  1.0
  C  C63  1  0.33649000  0.20298000  0.34039000  1.0
  C  C64  1  0.28771000  0.74681000  0.09242000  1.0
  C  C65  1  0.71226000  0.75320000  0.59244000  1.0
  C  C66  1  0.71219000  0.25317000  0.90762000  1.0
  C  C67  1  0.28779000  0.24684000  0.40763000  1.0
  C  C68  1  0.25459000  0.68039000  0.03541000  1.0
  C  C69  1  0.74540000  0.81960000  0.53542000  1.0
  C  C70  1  0.74539000  0.31961000  0.96461000  1.0
  C  C71  1  0.25459000  0.18040000  0.46462000  1.0
  C  C72  1  0.27564000  0.57064000  0.04507000  1.0
  C  C73  1  0.72435000  0.92937000  0.54508000  1.0
  C  C74  1  0.72437000  0.42938000  0.95496000  1.0
  C  C75  1  0.27562000  0.07063000  0.45497000  1.0
  C  C76  1  0.33132000  0.53188000  0.11460000  1.0
  C  C77  1  0.66870000  0.96812000  0.61460000  1.0
  C  C78  1  0.66868000  0.46814000  0.88545000  1.0
  C  C79  1  0.33131000  0.03187000  0.38545000  1.0
  C  C80  1  0.24100000  0.49648000  0.98813000  1.0
  C  C81  1  0.75900000  0.00353000  0.48814000  1.0
  C  C82  1  0.75905000  0.50354000  0.01189000  1.0
  C  C83  1  0.24093000  0.99647000  0.51189000  1.0
  C  C84  1  0.17545000  0.52695000  0.91897000  1.0
  C  C85  1  0.82454000  0.97305000  0.41898000  1.0
  C  C86  1  0.82461000  0.47305000  0.08105000  1.0
  C  C87  1  0.17538000  0.02695000  0.58105000  1.0
  C  C88  1  0.14137000  0.45006000  0.86900000  1.0
  C  C89  1  0.85862000  0.04994000  0.36900000  1.0
  C  C90  1  0.85869000  0.54991000  0.13103000  1.0
  C  C91  1  0.14130000  0.95008000  0.63102000  1.0
  C  C92  1  0.17482000  0.34364000  0.88786000  1.0
  C  C93  1  0.82517000  0.15635000  0.38786000  1.0
  C  C94  1  0.82522000  0.65633000  0.11217000  1.0
  C  C95  1  0.17477000  0.84366000  0.61217000  1.0
  C  C96  1  0.26858000  0.38657000  0.00221000  1.0
  C  C97  1  0.73142000  0.11344000  0.50222000  1.0
  C  C98  1  0.73145000  0.61345000  0.99781000  1.0
  C  C99  1  0.26854000  0.88656000  0.49781000  1.0
  C  C100  1  0.33196000  0.35171000  0.07186000  1.0
  C  C101  1  0.66804000  0.14831000  0.57186000  1.0
  C  C102  1  0.66804000  0.64834000  0.92817000  1.0
  C  C103  1  0.33194000  0.85167000  0.42817000  1.0
  C  C104  1  0.36157000  0.42133000  0.12609000  1.0
  C  C105  1  0.63843000  0.07868000  0.62610000  1.0
  C  C106  1  0.63841000  0.57869000  0.87394000  1.0
  C  C107  1  0.36159000  0.92133000  0.37394000  1.0
  N  N108  1  0.17633000  0.44242000  0.28108000  1.0
  N  N109  1  0.82366000  0.05756000  0.78108000  1.0
  N  N110  1  0.82374000  0.55762000  0.71895000  1.0
  N  N111  1  0.17623000  0.94237000  0.21895000  1.0
  N  N112  1  0.88260000  0.36078000  0.27208000  1.0
  N  N113  1  0.11735000  0.13925000  0.77207000  1.0
  N  N114  1  0.11766000  0.63907000  0.72787000  1.0
  N  N115  1  0.88226000  0.86097000  0.22786000  1.0
  N  N116  1  0.57446000  0.43896000  0.29638000  1.0
  N  N117  1  0.42551000  0.06107000  0.79633000  1.0
  N  N118  1  0.42568000  0.56093000  0.70333000  1.0
  N  N119  1  0.57425000  0.93911000  0.20328000  1.0
  N  N120  1  0.16076000  0.66120000  0.31781000  1.0
  N  N121  1  0.83927000  0.83874000  0.81778000  1.0
  N  N122  1  0.83902000  0.33909000  0.68206000  1.0
  N  N123  1  0.16102000  0.16084000  0.18202000  1.0
  N  N124  1  0.85349000  0.69656000  0.36856000  1.0
  N  N125  1  0.14651000  0.80344000  0.86857000  1.0
  N  N126  1  0.14640000  0.30342000  0.63149000  1.0
  N  N127  1  0.85362000  0.19659000  0.13151000  1.0
  N  N128  1  0.55876000  0.66476000  0.31199000  1.0
  N  N129  1  0.44119000  0.83520000  0.81194000  1.0
  N  N130  1  0.44132000  0.33545000  0.68779000  1.0
  N  N131  1  0.55864000  0.16450000  0.18773000  1.0
  N  N132  1  0.35587000  0.59928000  0.17103000  1.0
  N  N133  1  0.64413000  0.90074000  0.67105000  1.0
  N  N134  1  0.64410000  0.40071000  0.82903000  1.0
  N  N135  1  0.35590000  0.09931000  0.32904000  1.0
  N  N136  1  0.23698000  0.31151000  0.95209000  1.0
  N  N137  1  0.76302000  0.18848000  0.45208000  1.0
  N  N138  1  0.76308000  0.68848000  0.04795000  1.0
  N  N139  1  0.23692000  0.81152000  0.54794000  1.0
  O  O140  1  0.39895000  0.49267000  0.43241000  1.0
  O  O141  1  0.60144000  0.00698000  0.93212000  1.0
  O  O142  1  0.59968000  0.50844000  0.56648000  1.0
  O  O143  1  0.40083000  0.99117000  0.06616000  1.0
