# generated using pymatgen
data_CuH4(C2N3)2
_symmetry_space_group_name_H-M   'P 1'
_cell_length_a   11.77702488
_cell_length_b   12.06180000
_cell_length_c   12.35450000
_cell_angle_alpha   62.78220000
_cell_angle_beta   62.54160529
_cell_angle_gamma   90.99668174
_symmetry_Int_Tables_number   1
_chemical_formula_structural   CuH4(C2N3)2
_chemical_formula_sum   'Cu6 H24 C24 N36'
_cell_volume   1325.62455591
_cell_formula_units_Z   6
loop_
 _symmetry_equiv_pos_site_id
 _symmetry_equiv_pos_as_xyz
  1  'x, y, z'
loop_
 _atom_site_type_symbol
 _atom_site_label
 _atom_site_symmetry_multiplicity
 _atom_site_fract_x
 _atom_site_fract_y
 _atom_site_fract_z
 _atom_site_occupancy
  Cu  Cu0  1  0.49998000  0.49996000  0.00004000  1.0
  Cu  Cu1  1  0.00001000  0.50002000  0.99997000  1.0
  Cu  Cu2  1  0.99999000  0.00001000  0.49999000  1.0
  Cu  Cu3  1  0.99996000  0.50000000  0.50003000  1.0
  Cu  Cu4  1  0.87777000  0.63662000  0.74156000  1.0
  Cu  Cu5  1  0.12223000  0.36339000  0.25844000  1.0
  H  H6  1  0.48611000  0.82697000  0.85174000  1.0
  H  H7  1  0.15303000  0.33221000  0.87105000  1.0
  H  H8  1  0.71145000  0.04105000  0.61249000  1.0
  H  H9  1  0.17347000  0.35161000  0.62528000  1.0
  H  H10  1  0.47766000  0.33926000  0.30819000  1.0
  H  H11  1  0.16240000  0.77361000  0.18559000  1.0
  H  H12  1  0.71758000  0.33948000  0.30870000  1.0
  H  H13  1  0.15520000  0.00868000  0.18247000  1.0
  H  H14  1  0.46299000  0.32249000  0.88857000  1.0
  H  H15  1  0.17349000  0.02557000  0.64047000  1.0
  H  H16  1  0.68066000  0.34221000  0.64226000  1.0
  H  H17  1  0.15378000  0.80649000  0.88057000  1.0
  H  H18  1  0.84623000  0.19352000  0.11942000  1.0
  H  H19  1  0.53702000  0.67747000  0.11146000  1.0
  H  H20  1  0.82653000  0.97444000  0.35952000  1.0
  H  H21  1  0.31932000  0.65781000  0.35772000  1.0
  H  H22  1  0.28243000  0.66057000  0.69132000  1.0
  H  H23  1  0.83762000  0.22641000  0.81440000  1.0
  H  H24  1  0.52233000  0.66075000  0.69187000  1.0
  H  H25  1  0.84477000  0.99133000  0.81752000  1.0
  H  H26  1  0.84700000  0.66781000  0.12893000  1.0
  H  H27  1  0.28853000  0.95892000  0.38754000  1.0
  H  H28  1  0.82658000  0.64842000  0.37469000  1.0
  H  H29  1  0.51388000  0.17306000  0.14827000  1.0
  C  C30  1  0.59081000  0.83318000  0.79252000  1.0
  C  C31  1  0.11048000  0.38430000  0.80818000  1.0
  C  C32  1  0.70076000  0.93851000  0.67461000  1.0
  C  C33  1  0.12115000  0.39442000  0.68745000  1.0
  C  C34  1  0.58165000  0.38536000  0.22216000  1.0
  C  C35  1  0.11673000  0.79292000  0.27151000  1.0
  C  C36  1  0.69891000  0.38547000  0.22238000  1.0
  C  C37  1  0.11284000  0.90808000  0.27031000  1.0
  C  C38  1  0.56719000  0.37870000  0.82177000  1.0
  C  C39  1  0.12256000  0.92292000  0.69760000  1.0
  C  C40  1  0.67386000  0.38943000  0.70059000  1.0
  C  C41  1  0.11196000  0.81555000  0.81600000  1.0
  C  C42  1  0.88803000  0.18445000  0.18401000  1.0
  C  C43  1  0.43281000  0.62131000  0.17824000  1.0
  C  C44  1  0.87743000  0.07708000  0.30239000  1.0
  C  C45  1  0.32616000  0.61058000  0.29939000  1.0
  C  C46  1  0.30112000  0.61455000  0.77761000  1.0
  C  C47  1  0.88328000  0.20708000  0.72848000  1.0
  C  C48  1  0.41835000  0.61463000  0.77784000  1.0
  C  C49  1  0.88716000  0.09193000  0.72968000  1.0
  C  C50  1  0.88954000  0.61571000  0.19180000  1.0
  C  C51  1  0.29924000  0.06148000  0.32539000  1.0
  C  C52  1  0.87887000  0.60559000  0.31252000  1.0
  C  C53  1  0.40917000  0.16679000  0.20752000  1.0
  N  N54  1  0.63406000  0.72592000  0.82897000  1.0
  N  N55  1  0.03105000  0.45736000  0.84244000  1.0
  N  N56  1  0.80799000  0.89191000  0.64283000  1.0
  N  N57  1  0.04761000  0.47312000  0.65251000  1.0
  N  N58  1  0.61762000  0.45932000  0.08280000  1.0
  N  N59  1  0.04708000  0.69502000  0.41136000  1.0
  N  N60  1  0.80067000  0.45962000  0.08312000  1.0
  N  N61  1  0.04123000  0.87577000  0.40907000  1.0
  N  N62  1  0.61472000  0.45842000  0.85023000  1.0
  N  N63  1  0.05174000  0.87932000  0.65712000  1.0
  N  N64  1  0.78254000  0.47510000  0.65916000  1.0
  N  N65  1  0.03479000  0.70983000  0.84421000  1.0
  N  N66  1  0.96521000  0.29016000  0.15579000  1.0
  N  N67  1  0.38525000  0.54157000  0.14980000  1.0
  N  N68  1  0.94827000  0.12072000  0.34285000  1.0
  N  N69  1  0.21749000  0.52490000  0.34081000  1.0
  N  N70  1  0.19936000  0.54039000  0.91688000  1.0
  N  N71  1  0.95291000  0.30497000  0.58864000  1.0
  N  N72  1  0.38235000  0.54065000  0.91722000  1.0
  N  N73  1  0.95877000  0.12424000  0.59093000  1.0
  N  N74  1  0.96896000  0.54264000  0.15758000  1.0
  N  N75  1  0.19200000  0.10808000  0.35717000  1.0
  N  N76  1  0.95240000  0.52688000  0.34746000  1.0
  N  N77  1  0.36591000  0.27405000  0.17106000  1.0
  N  N78  1  0.76476000  0.76363000  0.73734000  1.0
  N  N79  1  0.99429000  0.50983000  0.74738000  1.0
  N  N80  1  0.75014000  0.50370000  0.00019000  1.0
  N  N81  1  0.00234000  0.74688000  0.49257000  1.0
  N  N82  1  0.74475000  0.51532000  0.75064000  1.0
  N  N83  1  0.00054000  0.75095000  0.74705000  1.0
  N  N84  1  0.99947000  0.24907000  0.25293000  1.0
  N  N85  1  0.25523000  0.48466000  0.24937000  1.0
  N  N86  1  0.24984000  0.49627000  0.99985000  1.0
  N  N87  1  0.99765000  0.25313000  0.50742000  1.0
  N  N88  1  0.00573000  0.49015000  0.25261000  1.0
  N  N89  1  0.23521000  0.23634000  0.26268000  1.0
