# generated using pymatgen
data_ZnH16C16N4(ClO)2
_symmetry_space_group_name_H-M   'P 1'
_cell_length_a   6.19053000
_cell_length_b   11.92990000
_cell_length_c   12.41988216
_cell_angle_alpha   73.37008035
_cell_angle_beta   75.58896617
_cell_angle_gamma   89.97500000
_symmetry_Int_Tables_number   1
_chemical_formula_structural   ZnH16C16N4(ClO)2
_chemical_formula_sum   'Zn2 H32 C32 N8 Cl4 O4'
_cell_volume   848.73949622
_cell_formula_units_Z   2
loop_
 _symmetry_equiv_pos_site_id
 _symmetry_equiv_pos_as_xyz
  1  'x, y, z'
loop_
 _atom_site_type_symbol
 _atom_site_label
 _atom_site_symmetry_multiplicity
 _atom_site_fract_x
 _atom_site_fract_y
 _atom_site_fract_z
 _atom_site_occupancy
  Zn  Zn0  1  0.87696000  0.74970000  0.00017000  1.0
  Zn  Zn1  1  0.12306000  0.25031000  0.99983000  1.0
  H  H2  1  0.42599000  0.63624000  0.02571000  1.0
  H  H3  1  0.45241000  0.86405000  0.97417000  1.0
  H  H4  1  0.57402000  0.36376000  0.97430000  1.0
  H  H5  1  0.54762000  0.13596000  0.02582000  1.0
  H  H6  1  0.23039000  0.56223000  0.90496000  1.0
  H  H7  1  0.13614000  0.93828000  0.09473000  1.0
  H  H8  1  0.76963000  0.43777000  0.09505000  1.0
  H  H9  1  0.86388000  0.06173000  0.90525000  1.0
  H  H10  1  0.43546000  0.57489000  0.69972000  1.0
  H  H11  1  0.13572000  0.92549000  0.29999000  1.0
  H  H12  1  0.56455000  0.42511000  0.30028000  1.0
  H  H13  1  0.86428000  0.07451000  0.70000000  1.0
  H  H14  1  0.00385000  0.73945000  0.75454000  1.0
  H  H15  1  0.75779000  0.75970000  0.24595000  1.0
  H  H16  1  0.99616000  0.26055000  0.24546000  1.0
  H  H17  1  0.24221000  0.24030000  0.75405000  1.0
  H  H18  1  0.01523000  0.70046000  0.37699000  1.0
  H  H19  1  0.39230000  0.79966000  0.62327000  1.0
  H  H20  1  0.98473000  0.29954000  0.62301000  1.0
  H  H21  1  0.60770000  0.20034000  0.37673000  1.0
  H  H22  1  0.77736000  0.45317000  0.70154000  1.0
  H  H23  1  0.47813000  0.04666000  0.29854000  1.0
  H  H24  1  0.22262000  0.54682000  0.29846000  1.0
  H  H25  1  0.52188000  0.95334000  0.70146000  1.0
  H  H26  1  0.83812000  0.57931000  0.38301000  1.0
  H  H27  1  0.22129000  0.92096000  0.61704000  1.0
  H  H28  1  0.16185000  0.42068000  0.61700000  1.0
  H  H29  1  0.77872000  0.07904000  0.38295000  1.0
  H  H30  1  0.68650000  0.42799000  0.58337000  1.0
  H  H31  1  0.26967000  0.07202000  0.41674000  1.0
  H  H32  1  0.31347000  0.57201000  0.41663000  1.0
  H  H33  1  0.73034000  0.92798000  0.58325000  1.0
  C  C34  1  0.51199000  0.64099000  0.93643000  1.0
  C  C35  1  0.44872000  0.85902000  0.06358000  1.0
  C  C36  1  0.48802000  0.35901000  0.06358000  1.0
  C  C37  1  0.55130000  0.14098000  0.93642000  1.0
  C  C38  1  0.40241000  0.60004000  0.86856000  1.0
  C  C39  1  0.27147000  0.90020000  0.13133000  1.0
  C  C40  1  0.59761000  0.39996000  0.13144000  1.0
  C  C41  1  0.72856000  0.09981000  0.86866000  1.0
  C  C42  1  0.51717000  0.60628000  0.75514000  1.0
  C  C43  1  0.27276000  0.89387000  0.24478000  1.0
  C  C44  1  0.48283000  0.39373000  0.24486000  1.0
  C  C45  1  0.72726000  0.10613000  0.75521000  1.0
  C  C46  1  0.73824000  0.65596000  0.71188000  1.0
  C  C47  1  0.45022000  0.84384000  0.28828000  1.0
  C  C48  1  0.26175000  0.34405000  0.28813000  1.0
  C  C49  1  0.54978000  0.15615000  0.71172000  1.0
  C  C50  1  0.83474000  0.69718000  0.78489000  1.0
  C  C51  1  0.61941000  0.80233000  0.21542000  1.0
  C  C52  1  0.16527000  0.30282000  0.21512000  1.0
  C  C53  1  0.38060000  0.19767000  0.78458000  1.0
  C  C54  1  0.86405000  0.67854000  0.58647000  1.0
  C  C55  1  0.45039000  0.82137000  0.41371000  1.0
  C  C56  1  0.13594000  0.32147000  0.41353000  1.0
  C  C57  1  0.54961000  0.17863000  0.58628000  1.0
  C  C58  1  0.82533000  0.46303000  0.60821000  1.0
  C  C59  1  0.43327000  0.03692000  0.39183000  1.0
  C  C60  1  0.17465000  0.53697000  0.39179000  1.0
  C  C61  1  0.56674000  0.96308000  0.60817000  1.0
  C  C62  1  0.97045000  0.60647000  0.41745000  1.0
  C  C63  1  0.38794000  0.89365000  0.58266000  1.0
  C  C64  1  0.02952000  0.39353000  0.58255000  1.0
  C  C65  1  0.61206000  0.10635000  0.41734000  1.0
  N  N66  1  0.72469000  0.68854000  0.89548000  1.0
  N  N67  1  0.62011000  0.81108000  0.10477000  1.0
  N  N68  1  0.27532000  0.31146000  0.10452000  1.0
  N  N69  1  0.37990000  0.18892000  0.89523000  1.0
  N  N70  1  0.88154000  0.58666000  0.54203000  1.0
  N  N71  1  0.42331000  0.91332000  0.45807000  1.0
  N  N72  1  0.11843000  0.41334000  0.45798000  1.0
  N  N73  1  0.57669000  0.08668000  0.54193000  1.0
  Cl  Cl74  1  0.99721000  0.60787000  0.12933000  1.0
  Cl  Cl75  1  0.12635000  0.89134000  0.87089000  1.0
  Cl  Cl76  1  0.00279000  0.39212000  0.87067000  1.0
  Cl  Cl77  1  0.87367000  0.10866000  0.12911000  1.0
  O  O78  1  0.93851000  0.78095000  0.52843000  1.0
  O  O79  1  0.46679000  0.71896000  0.47183000  1.0
  O  O80  1  0.06147000  0.21904000  0.47158000  1.0
  O  O81  1  0.53319000  0.28103000  0.52817000  1.0
