# generated using pymatgen
data_AgH12C12SNO3
_symmetry_space_group_name_H-M   'P 1'
_cell_length_a   5.43987000
_cell_length_b   9.02003000
_cell_length_c   12.34560000
_cell_angle_alpha   91.25740000
_cell_angle_beta   89.99890000
_cell_angle_gamma   89.99850000
_symmetry_Int_Tables_number   1
_chemical_formula_structural   AgH12C12SNO3
_chemical_formula_sum   'Ag2 H24 C24 S2 N2 O6'
_cell_volume   605.62544628
_cell_formula_units_Z   2
loop_
 _symmetry_equiv_pos_site_id
 _symmetry_equiv_pos_as_xyz
  1  'x, y, z'
loop_
 _atom_site_type_symbol
 _atom_site_label
 _atom_site_symmetry_multiplicity
 _atom_site_fract_x
 _atom_site_fract_y
 _atom_site_fract_z
 _atom_site_occupancy
  Ag  Ag0  1  0.45838000  0.19610000  0.05404000  1.0
  Ag  Ag1  1  0.95844000  0.80390000  0.94595000  1.0
  H  H2  1  0.36365000  0.08781000  0.33156000  1.0
  H  H3  1  0.86368000  0.91219000  0.66847000  1.0
  H  H4  1  0.48977000  0.91800000  0.47666000  1.0
  H  H5  1  0.98977000  0.08200000  0.52336000  1.0
  H  H6  1  0.31419000  0.72852000  0.61910000  1.0
  H  H7  1  0.81417000  0.27148000  0.38091000  1.0
  H  H8  1  0.42232000  0.60772000  0.51632000  1.0
  H  H9  1  0.92229000  0.39227000  0.48368000  1.0
  H  H10  1  0.11609000  0.58886000  0.56421000  1.0
  H  H11  1  0.61607000  0.41113000  0.43580000  1.0
  H  H12  1  0.83507000  0.65873000  0.42267000  1.0
  H  H13  1  0.33506000  0.34127000  0.57733000  1.0
  H  H14  1  0.70429000  0.83170000  0.28005000  1.0
  H  H15  1  0.20425000  0.16829000  0.71995000  1.0
  H  H16  1  0.46591000  0.49767000  0.92640000  1.0
  H  H17  1  0.96596000  0.50233000  0.07360000  1.0
  H  H18  1  0.21192000  0.62668000  0.79223000  1.0
  H  H19  1  0.71191000  0.37334000  0.20775000  1.0
  H  H20  1  0.80285000  0.51478000  0.73587000  1.0
  H  H21  1  0.30287000  0.48524000  0.26410000  1.0
  H  H22  1  0.68846000  0.26648000  0.81217000  1.0
  H  H23  1  0.18851000  0.73354000  0.18781000  1.0
  H  H24  1  0.97070000  0.14847000  0.94274000  1.0
  H  H25  1  0.47073000  0.85155000  0.05724000  1.0
  C  C26  1  0.02687000  0.96944000  0.29718000  1.0
  C  C27  1  0.52687000  0.03054000  0.70283000  1.0
  C  C28  1  0.24768000  0.99440000  0.35262000  1.0
  C  C29  1  0.74770000  0.00562000  0.64740000  1.0
  C  C30  1  0.31854000  0.89756000  0.43311000  1.0
  C  C31  1  0.81855000  0.10244000  0.56689000  1.0
  C  C32  1  0.17366000  0.77457000  0.45917000  1.0
  C  C33  1  0.67366000  0.22544000  0.54084000  1.0
  C  C34  1  0.25893000  0.66964000  0.54425000  1.0
  C  C35  1  0.75892000  0.33036000  0.45576000  1.0
  C  C36  1  0.95194000  0.75281000  0.40316000  1.0
  C  C37  1  0.45194000  0.24718000  0.59683000  1.0
  C  C38  1  0.87729000  0.84934000  0.32262000  1.0
  C  C39  1  0.37726000  0.15066000  0.67739000  1.0
  C  C40  1  0.29190000  0.44993000  0.89944000  1.0
  C  C41  1  0.79188000  0.55004000  0.10055000  1.0
  C  C42  1  0.14551000  0.52314000  0.82492000  1.0
  C  C43  1  0.64554000  0.47687000  0.17507000  1.0
  C  C44  1  0.92339000  0.45862000  0.79241000  1.0
  C  C45  1  0.42338000  0.54138000  0.20757000  1.0
  C  C46  1  0.85780000  0.32273000  0.83546000  1.0
  C  C47  1  0.35783000  0.67728000  0.16454000  1.0
  C  C48  1  0.01461000  0.25571000  0.90897000  1.0
  C  C49  1  0.51456000  0.74429000  0.09101000  1.0
  S  S50  1  0.95667000  0.08417000  0.18622000  1.0
  S  S51  1  0.45667000  0.91582000  0.81380000  1.0
  N  N52  1  0.22857000  0.31843000  0.94126000  1.0
  N  N53  1  0.72857000  0.68155000  0.05876000  1.0
  O  O54  1  0.07196000  0.01093000  0.09097000  1.0
  O  O55  1  0.57199000  0.98908000  0.90904000  1.0
  O  O56  1  0.06156000  0.23076000  0.21076000  1.0
  O  O57  1  0.56157000  0.76925000  0.78925000  1.0
  O  O58  1  0.68325000  0.08503000  0.17936000  1.0
  O  O59  1  0.18325000  0.91497000  0.82065000  1.0
