# generated using pymatgen
data_NiH10C12(NO3)2
_symmetry_space_group_name_H-M   'P 1'
_cell_length_a   8.58840000
_cell_length_b   11.51240000
_cell_length_c   11.51620000
_cell_angle_alpha   60.43400000
_cell_angle_beta   89.43440000
_cell_angle_gamma   89.47200000
_symmetry_Int_Tables_number   1
_chemical_formula_structural   NiH10C12(NO3)2
_chemical_formula_sum   'Ni3 H30 C36 N6 O18'
_cell_volume   990.31671476
_cell_formula_units_Z   3
loop_
 _symmetry_equiv_pos_site_id
 _symmetry_equiv_pos_as_xyz
  1  'x, y, z'
loop_
 _atom_site_type_symbol
 _atom_site_label
 _atom_site_symmetry_multiplicity
 _atom_site_fract_x
 _atom_site_fract_y
 _atom_site_fract_z
 _atom_site_occupancy
  Ni  Ni0  1  0.00005000  0.71049000  0.28946000  1.0
  Ni  Ni1  1  0.33455000  0.99910000  0.70670000  1.0
  Ni  Ni2  1  0.66540000  0.29361000  0.00084000  1.0
  H  H3  1  0.47996000  0.59134000  0.60058000  1.0
  H  H4  1  0.81732000  0.80839000  0.59098000  1.0
  H  H5  1  0.14710000  0.59123000  0.80954000  1.0
  H  H6  1  0.51995000  0.39925000  0.40911000  1.0
  H  H7  1  0.18233000  0.40863000  0.19139000  1.0
  H  H8  1  0.85307000  0.19077000  0.40830000  1.0
  H  H9  1  0.11581000  0.30028000  0.72400000  1.0
  H  H10  1  0.45168000  0.97126000  0.30062000  1.0
  H  H11  1  0.78010000  0.72719000  0.96998000  1.0
  H  H12  1  0.88378000  0.27602000  0.69996000  1.0
  H  H13  1  0.54847000  0.69910000  0.02911000  1.0
  H  H14  1  0.22042000  0.03012000  0.27272000  1.0
  H  H15  1  0.31404000  0.74404000  0.40070000  1.0
  H  H16  1  0.64995000  0.85967000  0.74243000  1.0
  H  H17  1  0.98074000  0.39047000  0.86190000  1.0
  H  H18  1  0.68623000  0.59914000  0.25632000  1.0
  H  H19  1  0.34980000  0.25720000  0.14021000  1.0
  H  H20  1  0.01904000  0.13821000  0.60929000  1.0
  H  H21  1  0.08764000  0.96238000  0.16815000  1.0
  H  H22  1  0.41921000  0.87740000  0.95202000  1.0
  H  H23  1  0.75335000  0.16797000  0.87801000  1.0
  H  H24  1  0.91202000  0.83150000  0.03787000  1.0
  H  H25  1  0.58120000  0.04816000  0.12239000  1.0
  H  H26  1  0.24644000  0.12223000  0.83245000  1.0
  H  H27  1  0.21210000  0.86125000  0.14843000  1.0
  H  H28  1  0.54510000  0.99684000  0.85122000  1.0
  H  H29  1  0.87809000  0.15114000  0.99822000  1.0
  H  H30  1  0.78763000  0.85108000  0.13912000  1.0
  H  H31  1  0.45550000  0.14888000  0.00269000  1.0
  H  H32  1  0.12147000  0.00202000  0.84919000  1.0
  C  C33  1  0.36558000  0.56093000  0.58560000  1.0
  C  C34  1  0.70278000  0.85423000  0.55975000  1.0
  C  C35  1  0.03217000  0.57873000  0.85485000  1.0
  C  C36  1  0.63433000  0.41430000  0.43940000  1.0
  C  C37  1  0.29707000  0.43992000  0.14570000  1.0
  C  C38  1  0.96804000  0.14541000  0.42096000  1.0
  C  C39  1  0.16137000  0.39871000  0.65536000  1.0
  C  C40  1  0.49810000  0.94411000  0.39821000  1.0
  C  C41  1  0.82675000  0.65560000  0.94305000  1.0
  C  C42  1  0.83847000  0.34468000  0.60151000  1.0
  C  C43  1  0.50194000  0.60152000  0.05617000  1.0
  C  C44  1  0.17361000  0.05709000  0.34427000  1.0
  C  C45  1  0.30795000  0.43462000  0.67725000  1.0
  C  C46  1  0.64583000  0.88681000  0.43369000  1.0
  C  C47  1  0.97466000  0.67438000  0.88596000  1.0
  C  C48  1  0.69194000  0.32267000  0.56563000  1.0
  C  C49  1  0.35399000  0.56608000  0.11319000  1.0
  C  C50  1  0.02569000  0.11416000  0.32543000  1.0
  C  C51  1  0.40254000  0.33950000  0.79711000  1.0
  C  C52  1  0.73853000  0.86098000  0.33665000  1.0
  C  C53  1  0.07013000  0.79477000  0.85934000  1.0
  C  C54  1  0.59765000  0.20246000  0.66094000  1.0
  C  C55  1  0.26127000  0.66312000  0.13897000  1.0
  C  C56  1  0.92992000  0.14071000  0.20529000  1.0
  C  C57  1  0.07704000  0.48825000  0.54338000  1.0
  C  C58  1  0.41267000  0.96895000  0.48694000  1.0
  C  C59  1  0.74206000  0.54272000  0.96912000  1.0
  C  C60  1  0.92295000  0.45667000  0.51196000  1.0
  C  C61  1  0.58740000  0.51288000  0.03124000  1.0
  C  C62  1  0.25810000  0.03108000  0.45719000  1.0
  C  C63  1  0.27492000  0.64516000  0.47594000  1.0
  C  C64  1  0.61125000  0.88185000  0.64383000  1.0
  C  C65  1  0.94138000  0.46812000  0.88331000  1.0
  C  C66  1  0.72516000  0.52394000  0.35515000  1.0
  C  C67  1  0.38868000  0.35584000  0.11809000  1.0
  C  C68  1  0.05868000  0.11688000  0.53162000  1.0
  N  N69  1  0.13391000  0.60977000  0.45508000  1.0
  N  N70  1  0.46938000  0.93839000  0.60831000  1.0
  N  N71  1  0.79948000  0.44993000  0.93988000  1.0
  N  N72  1  0.86618000  0.54481000  0.39045000  1.0
  N  N73  1  0.53061000  0.39149000  0.06151000  1.0
  N  N74  1  0.20056000  0.06031000  0.54996000  1.0
  O  O75  1  0.34595000  0.22342000  0.87510000  1.0
  O  O76  1  0.68250000  0.90454000  0.22005000  1.0
  O  O77  1  0.01197000  0.87478000  0.89593000  1.0
  O  O78  1  0.65454000  0.12473000  0.77686000  1.0
  O  O79  1  0.31740000  0.77975000  0.09552000  1.0
  O  O80  1  0.98771000  0.10432000  0.12497000  1.0
  O  O81  1  0.53085000  0.38337000  0.81148000  1.0
  O  O82  1  0.86455000  0.79585000  0.38046000  1.0
  O  O83  1  0.19989000  0.80743000  0.80205000  1.0
  O  O84  1  0.46944000  0.18758000  0.61731000  1.0
  O  O85  1  0.13515000  0.61928000  0.20409000  1.0
  O  O86  1  0.80013000  0.19766000  0.19321000  1.0
  O  O87  1  0.14424000  0.87513000  0.21240000  1.0
  O  O88  1  0.47682000  0.91923000  0.86523000  1.0
  O  O89  1  0.80854000  0.21279000  0.92102000  1.0
  O  O90  1  0.85542000  0.78711000  0.12515000  1.0
  O  O91  1  0.52352000  0.13490000  0.08038000  1.0
  O  O92  1  0.19110000  0.07925000  0.78764000  1.0
