# generated using pymatgen
data_SnH14C11O4
_symmetry_space_group_name_H-M   'P 1'
_cell_length_a   9.99922000
_cell_length_b   10.57680000
_cell_length_c   12.31380000
_cell_angle_alpha   68.17800000
_cell_angle_beta   89.99990000
_cell_angle_gamma   89.99980000
_symmetry_Int_Tables_number   1
_chemical_formula_structural   SnH14C11O4
_chemical_formula_sum   'Sn4 H56 C44 O16'
_cell_volume   1208.98539640
_cell_formula_units_Z   4
loop_
 _symmetry_equiv_pos_site_id
 _symmetry_equiv_pos_as_xyz
  1  'x, y, z'
loop_
 _atom_site_type_symbol
 _atom_site_label
 _atom_site_symmetry_multiplicity
 _atom_site_fract_x
 _atom_site_fract_y
 _atom_site_fract_z
 _atom_site_occupancy
  Sn  Sn0  1  0.60111000  0.55278000  0.77075000  1.0
  Sn  Sn1  1  0.10111000  0.44722000  0.72925000  1.0
  Sn  Sn2  1  0.39889000  0.44722000  0.22925000  1.0
  Sn  Sn3  1  0.89889000  0.55278000  0.27075000  1.0
  H  H4  1  0.59279000  0.28761000  0.62625000  1.0
  H  H5  1  0.09278000  0.71239000  0.87374000  1.0
  H  H6  1  0.40721000  0.71239000  0.37375000  1.0
  H  H7  1  0.90722000  0.28761000  0.12625000  1.0
  H  H8  1  0.44485000  0.08635000  0.68505000  1.0
  H  H9  1  0.94484000  0.91366000  0.81494000  1.0
  H  H10  1  0.55515000  0.91365000  0.31495000  1.0
  H  H11  1  0.05516000  0.08635000  0.18505000  1.0
  H  H12  1  0.49052000  0.88219000  0.86664000  1.0
  H  H13  1  0.99052000  0.11782000  0.63336000  1.0
  H  H14  1  0.50948000  0.11781000  0.13336000  1.0
  H  H15  1  0.00948000  0.88219000  0.36663000  1.0
  H  H16  1  0.89718000  0.88481000  0.08739000  1.0
  H  H17  1  0.39718000  0.11519000  0.41261000  1.0
  H  H18  1  0.10282000  0.11519000  0.91261000  1.0
  H  H19  1  0.60282000  0.88481000  0.58738000  1.0
  H  H20  1  0.76493000  0.98578000  0.11809000  1.0
  H  H21  1  0.26493000  0.01422000  0.38191000  1.0
  H  H22  1  0.23507000  0.01422000  0.88191000  1.0
  H  H23  1  0.73507000  0.98578000  0.61809000  1.0
  H  H24  1  0.70754000  0.75010000  0.83686000  1.0
  H  H25  1  0.20754000  0.24990000  0.66314000  1.0
  H  H26  1  0.29246000  0.24990000  0.16314000  1.0
  H  H27  1  0.79246000  0.75010000  0.33686000  1.0
  H  H28  1  0.81511000  0.72101000  0.73177000  1.0
  H  H29  1  0.31511000  0.27899000  0.76823000  1.0
  H  H30  1  0.18489000  0.27899000  0.26822000  1.0
  H  H31  1  0.68489000  0.72101000  0.23177000  1.0
  H  H32  1  0.81607000  0.60520000  0.87978000  1.0
  H  H33  1  0.31607000  0.39481000  0.62022000  1.0
  H  H34  1  0.18393000  0.39481000  0.12022000  1.0
  H  H35  1  0.68393000  0.60520000  0.37978000  1.0
  H  H36  1  0.63737000  0.64118000  0.53817000  1.0
  H  H37  1  0.13737000  0.35882000  0.96183000  1.0
  H  H38  1  0.36263000  0.35882000  0.46183000  1.0
  H  H39  1  0.86263000  0.64118000  0.03817000  1.0
  H  H40  1  0.46819000  0.67743000  0.56585000  1.0
  H  H41  1  0.96818000  0.32257000  0.93415000  1.0
  H  H42  1  0.53182000  0.32257000  0.43415000  1.0
  H  H43  1  0.03181000  0.67743000  0.06586000  1.0
  H  H44  1  0.51475000  0.50843000  0.57992000  1.0
  H  H45  1  0.01475000  0.49157000  0.92008000  1.0
  H  H46  1  0.48525000  0.49157000  0.42008000  1.0
  H  H47  1  0.98525000  0.50843000  0.07992000  1.0
  H  H48  1  0.45865000  0.40530000  0.96233000  1.0
  H  H49  1  0.95865000  0.59470000  0.53767000  1.0
  H  H50  1  0.54135000  0.59470000  0.03767000  1.0
  H  H51  1  0.04134000  0.40530000  0.46233000  1.0
  H  H52  1  0.62105000  0.33024000  0.97097000  1.0
  H  H53  1  0.12105000  0.66975000  0.52904000  1.0
  H  H54  1  0.37895000  0.66976000  0.02904000  1.0
  H  H55  1  0.87895000  0.33024000  0.47097000  1.0
  H  H56  1  0.49372000  0.30074000  0.88074000  1.0
  H  H57  1  0.99372000  0.69925000  0.61926000  1.0
  H  H58  1  0.50628000  0.69925000  0.11926000  1.0
  H  H59  1  0.00628000  0.30075000  0.38074000  1.0
  C  C60  1  0.82345000  0.32136000  0.73695000  1.0
  C  C61  1  0.32345000  0.67864000  0.76305000  1.0
  C  C62  1  0.17655000  0.67864000  0.26305000  1.0
  C  C63  1  0.67655000  0.32136000  0.23695000  1.0
  C  C64  1  0.72866000  0.20365000  0.77184000  1.0
  C  C65  1  0.22866000  0.79635000  0.72816000  1.0
  C  C66  1  0.27134000  0.79634000  0.22816000  1.0
  C  C67  1  0.77134000  0.20366000  0.27184000  1.0
  C  C68  1  0.61430000  0.20018000  0.70577000  1.0
  C  C69  1  0.11430000  0.79982000  0.79423000  1.0
  C  C70  1  0.38570000  0.79982000  0.29423000  1.0
  C  C71  1  0.88570000  0.20018000  0.20577000  1.0
  C  C72  1  0.53057000  0.08673000  0.73949000  1.0
  C  C73  1  0.03057000  0.91327000  0.76051000  1.0
  C  C74  1  0.46943000  0.91327000  0.26051000  1.0
  C  C75  1  0.96944000  0.08673000  0.23949000  1.0
  C  C76  1  0.55388000  0.97215000  0.84226000  1.0
  C  C77  1  0.05388000  0.02785000  0.65774000  1.0
  C  C78  1  0.44612000  0.02785000  0.15774000  1.0
  C  C79  1  0.94612000  0.97216000  0.34225000  1.0
  C  C80  1  0.66368000  0.97870000  0.90839000  1.0
  C  C81  1  0.16368000  0.02130000  0.59161000  1.0
  C  C82  1  0.33632000  0.02130000  0.09161000  1.0
  C  C83  1  0.83632000  0.97870000  0.40839000  1.0
  C  C84  1  0.74975000  0.09072000  0.87348000  1.0
  C  C85  1  0.24975000  0.90928000  0.62652000  1.0
  C  C86  1  0.25025000  0.90928000  0.12652000  1.0
  C  C87  1  0.75025000  0.09072000  0.37348000  1.0
  C  C88  1  0.81074000  0.95094000  0.05254000  1.0
  C  C89  1  0.31075000  0.04906000  0.44746000  1.0
  C  C90  1  0.18926000  0.04906000  0.94746000  1.0
  C  C91  1  0.68926000  0.95095000  0.55253000  1.0
  C  C92  1  0.75299000  0.67258000  0.80943000  1.0
  C  C93  1  0.25299000  0.32742000  0.69057000  1.0
  C  C94  1  0.24701000  0.32742000  0.19057000  1.0
  C  C95  1  0.74701000  0.67258000  0.30943000  1.0
  C  C96  1  0.54808000  0.60117000  0.59136000  1.0
  C  C97  1  0.04807000  0.39883000  0.90865000  1.0
  C  C98  1  0.45192000  0.39883000  0.40865000  1.0
  C  C99  1  0.95192000  0.60117000  0.09135000  1.0
  C  C100  1  0.53578000  0.37516000  0.91364000  1.0
  C  C101  1  0.03578000  0.62483000  0.58636000  1.0
  C  C102  1  0.46422000  0.62483000  0.08636000  1.0
  C  C103  1  0.96422000  0.37516000  0.41364000  1.0
  O  O104  1  0.78404000  0.43924000  0.72572000  1.0
  O  O105  1  0.28404000  0.56076000  0.77429000  1.0
  O  O106  1  0.21596000  0.56076000  0.27429000  1.0
  O  O107  1  0.71596000  0.43924000  0.22571000  1.0
  O  O108  1  0.94542000  0.29450000  0.72148000  1.0
  O  O109  1  0.44541000  0.70550000  0.77852000  1.0
  O  O110  1  0.05458000  0.70550000  0.27852000  1.0
  O  O111  1  0.55459000  0.29450000  0.22148000  1.0
  O  O112  1  0.71136000  0.88106000  0.01045000  1.0
  O  O113  1  0.21137000  0.11894000  0.48955000  1.0
  O  O114  1  0.28864000  0.11894000  0.98955000  1.0
  O  O115  1  0.78864000  0.88106000  0.51044000  1.0
  O  O116  1  0.85273000  0.06864000  0.95281000  1.0
  O  O117  1  0.35273000  0.93136000  0.54719000  1.0
  O  O118  1  0.14727000  0.93137000  0.04719000  1.0
  O  O119  1  0.64727000  0.06864000  0.45280000  1.0
