# generated using pymatgen
data_AgH39(C10O)2
_symmetry_space_group_name_H-M   'P 1'
_cell_length_a   4.00011000
_cell_length_b   4.53290000
_cell_length_c   53.15695725
_cell_angle_alpha   89.68627773
_cell_angle_beta   89.45075288
_cell_angle_gamma   79.07460000
_symmetry_Int_Tables_number   1
_chemical_formula_structural   AgH39(C10O)2
_chemical_formula_sum   'Ag2 H78 C40 O4'
_cell_volume   946.32720274
_cell_formula_units_Z   2
loop_
 _symmetry_equiv_pos_site_id
 _symmetry_equiv_pos_as_xyz
  1  'x, y, z'
loop_
 _atom_site_type_symbol
 _atom_site_label
 _atom_site_symmetry_multiplicity
 _atom_site_fract_x
 _atom_site_fract_y
 _atom_site_fract_z
 _atom_site_occupancy
  Ag  Ag0  1  0.24090000  0.82075000  0.01399000  1.0
  Ag  Ag1  1  0.75911000  0.17920000  0.98601000  1.0
  H  H2  1  0.84486000  0.61267000  0.07290000  1.0
  H  H3  1  0.15520000  0.38730000  0.92710000  1.0
  H  H4  1  0.42404000  0.63359000  0.06312000  1.0
  H  H5  1  0.57602000  0.36641000  0.93688000  1.0
  H  H6  1  0.40548000  0.14385000  0.08575000  1.0
  H  H7  1  0.59455000  0.85616000  0.91425000  1.0
  H  H8  1  0.82305000  0.13405000  0.09657000  1.0
  H  H9  1  0.17698000  0.86595000  0.90343000  1.0
  H  H10  1  0.62725000  0.62936000  0.11839000  1.0
  H  H11  1  0.37276000  0.37065000  0.88161000  1.0
  H  H12  1  0.21325000  0.64363000  0.10718000  1.0
  H  H13  1  0.78678000  0.35638000  0.89282000  1.0
  H  H14  1  0.59048000  0.15451000  0.14234000  1.0
  H  H15  1  0.40954000  0.84551000  0.85766000  1.0
  H  H16  1  0.17494000  0.17162000  0.13120000  1.0
  H  H17  1  0.82509000  0.82840000  0.86880000  1.0
  H  H18  1  0.99136000  0.67513000  0.15210000  1.0
  H  H19  1  0.00865000  0.32487000  0.84790000  1.0
  H  H20  1  0.40685000  0.65604000  0.16327000  1.0
  H  H21  1  0.59315000  0.34398000  0.83673000  1.0
  H  H22  1  0.36210000  0.18465000  0.18745000  1.0
  H  H23  1  0.63792000  0.81536000  0.81256000  1.0
  H  H24  1  0.94443000  0.20815000  0.17656000  1.0
  H  H25  1  0.05560000  0.79185000  0.82344000  1.0
  H  H26  1  0.77102000  0.71113000  0.19760000  1.0
  H  H27  1  0.22901000  0.28889000  0.80240000  1.0
  H  H28  1  0.18909000  0.68833000  0.20837000  1.0
  H  H29  1  0.81092000  0.31166000  0.79163000  1.0
  H  H30  1  0.14301000  0.21665000  0.23255000  1.0
  H  H31  1  0.85696000  0.78335000  0.76745000  1.0
  H  H32  1  0.72276000  0.24498000  0.22208000  1.0
  H  H33  1  0.27722000  0.75502000  0.77792000  1.0
  H  H34  1  0.55892000  0.74678000  0.24345000  1.0
  H  H35  1  0.44103000  0.25322000  0.75655000  1.0
  H  H36  1  0.97967000  0.71950000  0.25379000  1.0
  H  H37  1  0.02029000  0.28050000  0.74621000  1.0
  H  H38  1  0.93251000  0.24823000  0.27797000  1.0
  H  H39  1  0.06744000  0.75176000  0.72203000  1.0
  H  H40  1  0.51020000  0.28008000  0.26786000  1.0
  H  H41  1  0.48976000  0.71992000  0.73214000  1.0
  H  H42  1  0.35467000  0.78196000  0.28932000  1.0
  H  H43  1  0.64529000  0.21804000  0.71068000  1.0
  H  H44  1  0.77712000  0.75072000  0.29937000  1.0
  H  H45  1  0.22286000  0.24928000  0.70062000  1.0
  H  H46  1  0.72818000  0.28159000  0.32369000  1.0
  H  H47  1  0.27180000  0.71840000  0.67631000  1.0
  H  H48  1  0.30519000  0.31435000  0.31370000  1.0
  H  H49  1  0.69481000  0.68564000  0.68630000  1.0
  H  H50  1  0.15212000  0.81661000  0.33512000  1.0
  H  H51  1  0.84785000  0.18337000  0.66487000  1.0
  H  H52  1  0.57473000  0.78380000  0.34518000  1.0
  H  H53  1  0.42521000  0.21621000  0.65482000  1.0
  H  H54  1  0.52488000  0.31789000  0.36966000  1.0
  H  H55  1  0.47510000  0.68211000  0.63034000  1.0
  H  H56  1  0.10386000  0.34598000  0.35935000  1.0
  H  H57  1  0.89611000  0.65402000  0.64065000  1.0
  H  H58  1  0.94024000  0.84755000  0.38055000  1.0
  H  H59  1  0.05972000  0.15245000  0.61945000  1.0
  H  H60  1  0.36118000  0.82270000  0.39075000  1.0
  H  H61  1  0.63879000  0.17731000  0.60925000  1.0
  H  H62  1  0.32118000  0.35895000  0.41561000  1.0
  H  H63  1  0.67882000  0.64107000  0.58439000  1.0
  H  H64  1  0.90366000  0.37399000  0.40496000  1.0
  H  H65  1  0.09634000  0.62602000  0.59504000  1.0
  H  H66  1  0.71775000  0.87461000  0.42570000  1.0
  H  H67  1  0.28225000  0.12540000  0.57430000  1.0
  H  H68  1  0.13531000  0.86717000  0.43599000  1.0
  H  H69  1  0.86470000  0.13284000  0.56401000  1.0
  H  H70  1  0.11610000  0.40462000  0.46147000  1.0
  H  H71  1  0.88392000  0.59538000  0.53854000  1.0
  H  H72  1  0.70354000  0.40026000  0.45064000  1.0
  H  H73  1  0.29649000  0.59974000  0.54936000  1.0
  H  H74  1  0.48811000  0.90271000  0.47121000  1.0
  H  H75  1  0.51191000  0.09729000  0.52879000  1.0
  H  H76  1  0.90365000  0.90962000  0.48199000  1.0
  H  H77  1  0.09637000  0.09039000  0.51801000  1.0
  H  H78  1  0.68132000  0.63375000  0.49358000  1.0
  H  H79  1  0.31870000  0.36626000  0.50642000  1.0
  C  C80  1  0.79079000  0.29538000  0.04506000  1.0
  C  C81  1  0.20923000  0.70457000  0.95494000  1.0
  C  C82  1  0.65570000  0.47393000  0.06823000  1.0
  C  C83  1  0.34436000  0.52605000  0.93177000  1.0
  C  C84  1  0.58712000  0.28676000  0.09102000  1.0
  C  C85  1  0.41291000  0.71324000  0.90898000  1.0
  C  C86  1  0.44469000  0.48646000  0.11316000  1.0
  C  C87  1  0.55531000  0.51356000  0.88684000  1.0
  C  C88  1  0.36021000  0.31251000  0.13627000  1.0
  C  C89  1  0.63981000  0.68750000  0.86373000  1.0
  C  C90  1  0.22050000  0.51602000  0.15823000  1.0
  C  C91  1  0.77951000  0.48399000  0.84177000  1.0
  C  C92  1  0.13366000  0.34581000  0.18149000  1.0
  C  C93  1  0.86637000  0.65420000  0.81851000  1.0
  C  C94  1  0.99989000  0.55029000  0.20352000  1.0
  C  C95  1  0.00012000  0.44972000  0.79648000  1.0
  C  C96  1  0.91499000  0.38018000  0.22686000  1.0
  C  C97  1  0.08496000  0.61984000  0.77314000  1.0
  C  C98  1  0.78760000  0.58377000  0.24909000  1.0
  C  C99  1  0.21234000  0.41622000  0.75091000  1.0
  C  C100  1  0.70488000  0.41341000  0.27248000  1.0
  C  C101  1  0.29508000  0.58658000  0.72752000  1.0
  C  C102  1  0.58257000  0.61708000  0.29481000  1.0
  C  C103  1  0.41742000  0.38291000  0.70519000  1.0
  C  C104  1  0.50060000  0.44720000  0.31824000  1.0
  C  C105  1  0.49940000  0.55278000  0.68175000  1.0
  C  C106  1  0.37952000  0.65097000  0.34058000  1.0
  C  C107  1  0.62045000  0.34903000  0.65941000  1.0
  C  C108  1  0.29659000  0.48123000  0.36400000  1.0
  C  C109  1  0.70336000  0.51878000  0.63600000  1.0
  C  C110  1  0.16994000  0.68570000  0.38618000  1.0
  C  C111  1  0.83003000  0.31431000  0.61382000  1.0
  C  C112  1  0.08949000  0.51594000  0.40965000  1.0
  C  C113  1  0.91052000  0.48406000  0.59035000  1.0
  C  C114  1  0.95269000  0.72116000  0.43157000  1.0
  C  C115  1  0.04734000  0.27884000  0.56843000  1.0
  C  C116  1  0.87908000  0.55183000  0.45526000  1.0
  C  C117  1  0.12095000  0.44817000  0.54474000  1.0
  C  C118  1  0.73028000  0.75972000  0.47669000  1.0
  C  C119  1  0.26975000  0.24028000  0.52331000  1.0
  O  O120  1  0.67316000  0.39898000  0.02368000  1.0
  O  O121  1  0.32682000  0.60094000  0.97632000  1.0
  O  O122  1  0.01600000  0.05994000  0.04778000  1.0
  O  O123  1  0.98402000  0.94002000  0.95222000  1.0
