# generated using pymatgen
data_ZnH42C23(N3O4)3
_symmetry_space_group_name_H-M   'P 1'
_cell_length_a   10.13470000
_cell_length_b   10.57030000
_cell_length_c   16.47880000
_cell_angle_alpha   91.49280000
_cell_angle_beta   94.13750000
_cell_angle_gamma   90.88910000
_symmetry_Int_Tables_number   1
_chemical_formula_structural   ZnH42C23(N3O4)3
_chemical_formula_sum   'Zn2 H84 C46 N18 O24'
_cell_volume   1759.85508602
_cell_formula_units_Z   2
loop_
 _symmetry_equiv_pos_site_id
 _symmetry_equiv_pos_as_xyz
  1  'x, y, z'
loop_
 _atom_site_type_symbol
 _atom_site_label
 _atom_site_symmetry_multiplicity
 _atom_site_fract_x
 _atom_site_fract_y
 _atom_site_fract_z
 _atom_site_occupancy
  Zn  Zn0  1  0.35747000  0.50576000  0.47472000  1.0
  Zn  Zn1  1  0.69523000  0.49908000  0.45199000  1.0
  H  H2  1  0.97961000  0.32304000  0.51334000  1.0
  H  H3  1  0.27654000  0.90900000  0.68114000  1.0
  H  H4  1  0.44320000  0.95650000  0.70772000  1.0
  H  H5  1  0.39997000  0.79294000  0.70155000  1.0
  H  H6  1  0.61333000  0.77726000  0.63151000  1.0
  H  H7  1  0.83289000  0.94628000  0.61742000  1.0
  H  H8  1  0.76251000  0.97683000  0.71153000  1.0
  H  H9  1  0.81063000  0.82101000  0.68359000  1.0
  H  H10  1  0.37159000  0.13429000  0.58140000  1.0
  H  H11  1  0.65110000  0.20280000  0.62980000  1.0
  H  H12  1  0.82010000  0.73583000  0.52915000  1.0
  H  H13  1  0.13351000  0.34522000  0.42005000  1.0
  H  H14  1  0.15184000  0.78351000  0.55662000  1.0
  H  H15  1  0.93975000  0.57113000  0.37623000  1.0
  H  H16  1  0.05076000  0.73754000  0.38610000  1.0
  H  H17  1  0.76438000  0.59191000  0.62599000  1.0
  H  H18  1  0.73712000  0.49804000  0.75136000  1.0
  H  H19  1  0.79425000  0.65475000  0.77003000  1.0
  H  H20  1  0.90726000  0.52924000  0.78116000  1.0
  H  H21  1  0.21208000  0.55378000  0.73485000  1.0
  H  H22  1  0.01690000  0.71107000  0.77050000  1.0
  H  H23  1  0.03069000  0.73923000  0.66525000  1.0
  H  H24  1  0.33936000  0.86368000  0.43466000  1.0
  H  H25  1  0.17280000  0.75680000  0.73738000  1.0
  H  H26  1  0.80866000  0.28243000  0.43486000  1.0
  H  H27  1  0.96255000  0.40599000  0.32591000  1.0
  H  H28  1  0.77522000  0.35208000  0.59461000  1.0
  H  H29  1  0.87566000  0.18618000  0.69283000  1.0
  H  H30  1  0.78338000  0.30952000  0.73652000  1.0
  H  H31  1  0.95771000  0.31990000  0.74111000  1.0
  H  H32  1  0.25254000  0.42104000  0.64285000  1.0
  H  H33  1  0.18910000  0.19557000  0.66095000  1.0
  H  H34  1  0.18735000  0.24170000  0.55813000  1.0
  H  H35  1  0.74314000  0.95196000  0.50403000  1.0
  H  H36  1  0.03531000  0.22635000  0.60610000  1.0
  H  H37  1  0.35805000  0.73918000  0.91833000  1.0
  H  H38  1  0.07675000  0.64317000  0.90357000  1.0
  H  H39  1  0.12905000  0.80115000  0.88894000  1.0
  H  H40  1  0.13983000  0.73919000  0.98861000  1.0
  H  H41  1  0.56871000  0.80391000  0.98540000  1.0
  H  H42  1  0.56240000  0.91079000  0.86011000  1.0
  H  H43  1  0.56431000  0.76350000  0.80618000  1.0
  H  H44  1  0.70723000  0.81592000  0.86749000  1.0
  H  H45  1  0.75343000  0.58543000  0.97987000  1.0
  H  H46  1  0.30139000  0.63547000  0.12985000  1.0
  H  H47  1  0.19308000  0.43001000  0.95667000  1.0
  H  H48  1  0.71614000  0.46821000  0.07669000  1.0
  H  H49  1  0.87747000  0.58594000  0.15508000  1.0
  H  H50  1  0.72399000  0.61732000  0.19773000  1.0
  H  H51  1  0.79464000  0.72976000  0.13374000  1.0
  H  H52  1  0.28068000  0.35395000  0.05828000  1.0
  H  H53  1  0.07506000  0.38316000  0.11724000  1.0
  H  H54  1  0.07850000  0.54736000  0.09737000  1.0
  H  H55  1  0.19086000  0.48328000  0.17449000  1.0
  H  H56  1  0.32164000  0.34369000  0.87539000  1.0
  H  H57  1  0.45722000  0.72243000  0.08299000  1.0
  H  H58  1  0.34083000  0.17075000  0.78538000  1.0
  H  H59  1  0.50801000  0.14533000  0.82112000  1.0
  H  H60  1  0.46777000  0.28115000  0.76312000  1.0
  H  H61  1  0.69142000  0.43896000  0.88657000  1.0
  H  H62  1  0.65081000  0.17124000  0.93034000  1.0
  H  H63  1  0.79572000  0.26370000  0.94983000  1.0
  H  H64  1  0.74993000  0.20527000  0.84862000  1.0
  H  H65  1  0.39164000  0.23676000  0.93801000  1.0
  H  H66  1  0.61191000  0.26443000  0.09579000  1.0
  H  H67  1  0.51534000  0.81993000  0.33325000  1.0
  H  H68  1  0.31752000  0.98302000  0.53310000  1.0
  H  H69  1  0.37835000  0.81243000  0.22407000  1.0
  H  H70  1  0.29018000  0.94633000  0.25508000  1.0
  H  H71  1  0.26644000  0.79762000  0.30291000  1.0
  H  H72  1  0.83479000  0.83764000  0.42188000  1.0
  H  H73  1  0.82280000  0.80898000  0.28409000  1.0
  H  H74  1  0.67509000  0.89577000  0.27195000  1.0
  H  H75  1  0.67493000  0.74195000  0.31526000  1.0
  H  H76  1  0.36250000  0.21716000  0.36984000  1.0
  H  H77  1  0.16834000  0.14532000  0.29067000  1.0
  H  H78  1  0.13887000  0.15475000  0.39655000  1.0
  H  H79  1  0.76736000  0.15559000  0.52134000  1.0
  H  H80  1  0.16683000  0.00685000  0.35011000  1.0
  H  H81  1  0.54358000  0.08377000  0.32225000  1.0
  H  H82  1  0.69526000  0.10952000  0.23281000  1.0
  H  H83  1  0.81739000  0.08313000  0.31338000  1.0
  H  H84  1  0.76663000  0.24058000  0.29038000  1.0
  H  H85  1  0.38331000  0.79824000  0.56114000  1.0
  C  C86  1  0.55520000  0.73489000  0.47442000  1.0
  C  C87  1  0.64993000  0.09074000  0.43042000  1.0
  C  C88  1  0.54028000  0.92612000  0.56759000  1.0
  C  C89  1  0.55017000  0.87949000  0.47331000  1.0
  C  C90  1  0.52677000  0.12950000  0.47900000  1.0
  C  C91  1  0.47336000  0.54634000  0.65532000  1.0
  C  C92  1  0.54678000  0.07864000  0.56828000  1.0
  C  C93  1  0.95811000  0.63199000  0.49356000  1.0
  C  C94  1  0.11114000  0.64341000  0.48378000  1.0
  C  C95  1  0.92398000  0.48046000  0.62084000  1.0
  C  C96  1  0.06937000  0.47822000  0.65887000  1.0
  C  C97  1  0.50435000  0.35853000  0.01884000  1.0
  C  C98  1  0.95670000  0.40436000  0.47608000  1.0
  C  C99  1  0.08056000  0.43396000  0.42789000  1.0
  C  C100  1  0.51324000  0.27533000  0.48797000  1.0
  C  C101  1  0.49547000  0.47883000  0.31046000  1.0
  C  C102  1  0.32446000  0.55274000  0.93474000  1.0
  C  C103  1  0.57627000  0.62257000  0.94726000  1.0
  C  C104  1  0.57968000  0.59990000  0.04516000  1.0
  C  C105  1  0.33183000  0.53400000  0.03278000  1.0
  C  C106  1  0.48249000  0.47212000  0.22264000  1.0
  C  C107  1  0.46920000  0.52473000  0.90362000  1.0
  C  C108  1  0.51428000  0.38302000  0.92176000  1.0
  C  C109  1  0.47477000  0.49228000  0.06221000  1.0
  C  C110  1  0.38050000  0.88513000  0.67419000  1.0
  C  C111  1  0.76527000  0.90779000  0.66034000  1.0
  C  C112  1  0.82112000  0.56277000  0.74418000  1.0
  C  C113  1  0.08145000  0.70296000  0.72012000  1.0
  C  C114  1  0.87010000  0.28935000  0.70209000  1.0
  C  C115  1  0.13895000  0.25580000  0.61512000  1.0
  C  C116  1  0.15116000  0.71607000  0.92392000  1.0
  C  C117  1  0.59820000  0.81330000  0.86312000  1.0
  C  C118  1  0.78004000  0.62860000  0.14364000  1.0
  C  C119  1  0.47891000  0.47691000  0.14899000  1.0
  C  C120  1  0.14044000  0.46620000  0.11341000  1.0
  C  C121  1  0.43370000  0.21756000  0.80877000  1.0
  C  C122  1  0.71173000  0.24469000  0.90476000  1.0
  C  C123  1  0.33952000  0.86093000  0.27700000  1.0
  C  C124  1  0.73115000  0.83256000  0.31257000  1.0
  C  C125  1  0.19647000  0.10707000  0.35074000  1.0
  C  C126  1  0.73253000  0.14156000  0.29437000  1.0
  C  C127  1  0.46079000  0.53703000  0.81598000  1.0
  C  C128  1  0.45790000  0.53917000  0.74202000  1.0
  C  C129  1  0.42645000  0.91939000  0.41943000  1.0
  C  C130  1  0.67956000  0.94682000  0.44721000  1.0
  C  C131  1  0.39468000  0.06253000  0.43882000  1.0
  N  N132  1  0.91806000  0.50832000  0.53029000  1.0
  N  N133  1  0.54210000  0.75392000  0.93265000  1.0
  N  N134  1  0.71583000  0.56490000  0.07059000  1.0
  N  N135  1  0.23047000  0.43854000  0.04978000  1.0
  N  N136  1  0.40759000  0.28955000  0.88355000  1.0
  N  N137  1  0.63522000  0.35759000  0.88585000  1.0
  N  N138  1  0.45257000  0.89391000  0.33434000  1.0
  N  N139  1  0.76883000  0.89310000  0.39093000  1.0
  N  N140  1  0.33991000  0.12296000  0.36658000  1.0
  N  N141  1  0.62426000  0.13307000  0.34848000  1.0
  N  N142  1  0.16586000  0.52525000  0.46595000  1.0
  N  N143  1  0.40533000  0.88569000  0.58742000  1.0
  N  N144  1  0.63437000  0.87094000  0.62490000  1.0
  N  N145  1  0.85177000  0.57869000  0.65950000  1.0
  N  N146  1  0.12073000  0.57231000  0.70758000  1.0
  N  N147  1  0.86818000  0.35125000  0.62345000  1.0
  N  N148  1  0.15432000  0.38723000  0.64293000  1.0
  N  N149  1  0.28243000  0.67369000  0.90591000  1.0
  O  O150  1  0.44556000  0.67592000  0.46619000  1.0
  O  O151  1  0.55461000  0.71373000  0.08756000  1.0
  O  O152  1  0.29653000  0.06196000  0.49924000  1.0
  O  O153  1  0.77124000  0.15482000  0.46158000  1.0
  O  O154  1  0.45532000  0.13460000  0.61804000  1.0
  O  O155  1  0.67196000  0.12146000  0.60469000  1.0
  O  O156  1  0.91877000  0.73752000  0.53529000  1.0
  O  O157  1  0.17857000  0.69512000  0.55542000  1.0
  O  O158  1  0.88995000  0.62837000  0.41434000  1.0
  O  O159  1  0.12953000  0.74004000  0.42390000  1.0
  O  O160  1  0.84446000  0.37077000  0.42060000  1.0
  O  O161  1  0.66750000  0.68152000  0.48630000  1.0
  O  O162  1  0.03229000  0.46915000  0.34194000  1.0
  O  O163  1  0.70471000  0.59820000  0.92299000  1.0
  O  O164  1  0.22970000  0.46055000  0.90219000  1.0
  O  O165  1  0.41483000  0.26816000  0.03068000  1.0
  O  O166  1  0.63492000  0.32014000  0.05237000  1.0
  O  O167  1  0.38426000  0.49023000  0.60754000  1.0
  O  O168  1  0.57210000  0.60618000  0.63378000  1.0
  O  O169  1  0.39783000  0.31793000  0.47775000  1.0
  O  O170  1  0.61606000  0.34503000  0.50845000  1.0
  O  O171  1  0.39191000  0.46975000  0.34770000  1.0
  O  O172  1  0.61541000  0.49695000  0.33970000  1.0
  O  O173  1  0.30369000  0.65243000  0.07167000  1.0
