# generated using pymatgen
data_UH7C7NO5
_symmetry_space_group_name_H-M   'P 1'
_cell_length_a   6.38034000
_cell_length_b   8.26201000
_cell_length_c   9.02400000
_cell_angle_alpha   91.84850000
_cell_angle_beta   96.28720000
_cell_angle_gamma   110.12900000
_symmetry_Int_Tables_number   1
_chemical_formula_structural   UH7C7NO5
_chemical_formula_sum   'U2 H14 C14 N2 O10'
_cell_volume   442.70480900
_cell_formula_units_Z   2
loop_
 _symmetry_equiv_pos_site_id
 _symmetry_equiv_pos_as_xyz
  1  'x, y, z'
loop_
 _atom_site_type_symbol
 _atom_site_label
 _atom_site_symmetry_multiplicity
 _atom_site_fract_x
 _atom_site_fract_y
 _atom_site_fract_z
 _atom_site_occupancy
  U  U0  1  0.31445000  0.28985000  0.38496000  1.0
  U  U1  1  0.68555000  0.71017000  0.61500000  1.0
  H  H2  1  0.21035000  0.58642000  0.53011000  1.0
  H  H3  1  0.78963000  0.41357000  0.46989000  1.0
  H  H4  1  0.31497000  0.88624000  0.35065000  1.0
  H  H5  1  0.68504000  0.11376000  0.64935000  1.0
  H  H6  1  0.10581000  0.58324000  0.24895000  1.0
  H  H7  1  0.89420000  0.41676000  0.75104000  1.0
  H  H8  1  0.72744000  0.51479000  0.09295000  1.0
  H  H9  1  0.27256000  0.48521000  0.90704000  1.0
  H  H10  1  0.59105000  0.75787000  0.03537000  1.0
  H  H11  1  0.40894000  0.24213000  0.96464000  1.0
  H  H12  1  0.65933000  0.05717000  0.04233000  1.0
  H  H13  1  0.34067000  0.94283000  0.95768000  1.0
  H  H14  1  0.94386000  0.19952000  0.08337000  1.0
  H  H15  1  0.05614000  0.80048000  0.91664000  1.0
  C  C16  1  0.15391000  0.85294000  0.28013000  1.0
  C  C17  1  0.84610000  0.14705000  0.71987000  1.0
  C  C18  1  0.03455000  0.68316000  0.22473000  1.0
  C  C19  1  0.96545000  0.31684000  0.77527000  1.0
  C  C20  1  0.82728000  0.64623000  0.13736000  1.0
  C  C21  1  0.17273000  0.35377000  0.86264000  1.0
  C  C22  1  0.74970000  0.78102000  0.10592000  1.0
  C  C23  1  0.25030000  0.21899000  0.89409000  1.0
  C  C24  1  0.88120000  0.94891000  0.16228000  1.0
  C  C25  1  0.11880000  0.05109000  0.83772000  1.0
  C  C26  1  0.80684000  0.09842000  0.12729000  1.0
  C  C27  1  0.19316000  0.90157000  0.87272000  1.0
  C  C28  1  0.75483000  0.18038000  0.26507000  1.0
  C  C29  1  0.24518000  0.81961000  0.73493000  1.0
  N  N30  1  0.07962000  0.98415000  0.24979000  1.0
  N  N31  1  0.92039000  0.01584000  0.75022000  1.0
  O  O32  1  0.33055000  0.16328000  0.54328000  1.0
  O  O33  1  0.66946000  0.83672000  0.45671000  1.0
  O  O34  1  0.29362000  0.40243000  0.21731000  1.0
  O  O35  1  0.70638000  0.59757000  0.78268000  1.0
  O  O36  1  0.91067000  0.24522000  0.37411000  1.0
  O  O37  1  0.08932000  0.75478000  0.62589000  1.0
  O  O38  1  0.55723000  0.18322000  0.26275000  1.0
  O  O39  1  0.44278000  0.81678000  0.73726000  1.0
  O  O40  1  0.31598000  0.52322000  0.53439000  1.0
  O  O41  1  0.68402000  0.47679000  0.46559000  1.0
