# generated using pymatgen
data_Zn4H10C26S4Br2O13
_symmetry_space_group_name_H-M   'P 1'
_cell_length_a   19.69190000
_cell_length_b   19.68860000
_cell_length_c   33.39930000
_cell_angle_alpha   79.11890000
_cell_angle_beta   79.11330000
_cell_angle_gamma   63.89790000
_symmetry_Int_Tables_number   1
_chemical_formula_structural   Zn4H10C26S4Br2O13
_chemical_formula_sum   'Zn16 H40 C104 S16 Br8 O52'
_cell_volume   11336.87798661
_cell_formula_units_Z   4
loop_
 _symmetry_equiv_pos_site_id
 _symmetry_equiv_pos_as_xyz
  1  'x, y, z'
loop_
 _atom_site_type_symbol
 _atom_site_label
 _atom_site_symmetry_multiplicity
 _atom_site_fract_x
 _atom_site_fract_y
 _atom_site_fract_z
 _atom_site_occupancy
  Zn  Zn0  1  0.60041000  0.94407000  0.52212000  1.0
  Zn  Zn1  1  0.51649000  0.01529000  0.44005000  1.0
  Zn  Zn2  1  0.43953000  0.94121000  0.51841000  1.0
  Zn  Zn3  1  0.44403000  0.09915000  0.52034000  1.0
  Zn  Zn4  1  0.65003000  0.30585000  0.72814000  1.0
  Zn  Zn5  1  0.81047000  0.31126000  0.73343000  1.0
  Zn  Zn6  1  0.73258000  0.23119000  0.80956000  1.0
  Zn  Zn7  1  0.80699000  0.15260000  0.72867000  1.0
  Zn  Zn8  1  0.23362000  0.73322000  0.31103000  1.0
  Zn  Zn9  1  0.30369000  0.65089000  0.22854000  1.0
  Zn  Zn10  1  0.15093000  0.80788000  0.22912000  1.0
  Zn  Zn11  1  0.31065000  0.80831000  0.23199000  1.0
  Zn  Zn12  1  0.93880000  0.43988000  0.01653000  1.0
  Zn  Zn13  1  0.94464000  0.59942000  0.02232000  1.0
  Zn  Zn14  1  0.09830000  0.44288000  0.02090000  1.0
  Zn  Zn15  1  0.01769000  0.51867000  0.94023000  1.0
  H  H16  1  0.55205000  0.24985000  0.65107000  1.0
  H  H17  1  0.69764000  0.00020000  0.59946000  1.0
  H  H18  1  0.29999000  0.79950000  0.39858000  1.0
  H  H19  1  0.44996000  0.95070000  0.35151000  1.0
  H  H20  1  0.76089000  0.53632000  0.65893000  1.0
  H  H21  1  0.29735000  0.52039000  0.39890000  1.0
  H  H22  1  0.02085000  0.79676000  0.39916000  1.0
  H  H23  1  0.02940000  0.05155000  0.65231000  1.0
  H  H24  1  0.85116000  0.35178000  0.95037000  1.0
  H  H25  1  0.89867000  0.39819000  0.79972000  1.0
  H  H26  1  0.22856000  0.45349000  0.85154000  1.0
  H  H27  1  0.85760000  0.83840000  0.96001000  1.0
  H  H28  1  0.00054000  0.69763000  0.09909000  1.0
  H  H29  1  0.24989000  0.55196000  0.15091000  1.0
  H  H30  1  0.71963000  0.69965000  0.09795000  1.0
  H  H31  1  0.98871000  0.21317000  0.09126000  1.0
  H  H32  1  0.42441000  0.76810000  0.60111000  1.0
  H  H33  1  0.44937000  0.66872000  0.60311000  1.0
  H  H34  1  0.46417000  0.72377000  0.55605000  1.0
  H  H35  1  0.52339000  0.17896000  0.34578000  1.0
  H  H36  1  0.46347000  0.24290000  0.30839000  1.0
  H  H37  1  0.43634000  0.17595000  0.34342000  1.0
  H  H38  1  0.67685000  0.93575000  0.34331000  1.0
  H  H39  1  0.74396000  0.96307000  0.30859000  1.0
  H  H40  1  0.67953000  0.02290000  0.34588000  1.0
  H  H41  1  0.27797000  0.20240000  0.61013000  1.0
  H  H42  1  0.18003000  0.26862000  0.61403000  1.0
  H  H43  1  0.23277000  0.24257000  0.56536000  1.0
  H  H44  1  0.57063000  0.22711000  0.90375000  1.0
  H  H45  1  0.50657000  0.28730000  0.94100000  1.0
  H  H46  1  0.57367000  0.31420000  0.90600000  1.0
  H  H47  1  0.85213000  0.92748000  0.75993000  1.0
  H  H48  1  0.93018000  0.84149000  0.77593000  1.0
  H  H49  1  0.93945000  0.92955000  0.76264000  1.0
  H  H50  1  0.51763000  0.50699000  0.18466000  1.0
  H  H51  1  0.57050000  0.48089000  0.13602000  1.0
  H  H52  1  0.47253000  0.54697000  0.13985000  1.0
  H  H53  1  0.28597000  0.02657000  0.19394000  1.0
  H  H54  1  0.30124000  0.08141000  0.14688000  1.0
  H  H55  1  0.32565000  0.98212000  0.14894000  1.0
  C  C56  1  0.68400000  0.93858000  0.43811000  1.0
  C  C57  1  0.43011000  0.93078000  0.43163000  1.0
  C  C58  1  0.56133000  0.81590000  0.56187000  1.0
  C  C59  1  0.31528000  0.06244000  0.56151000  1.0
  C  C60  1  0.56789000  0.07036000  0.56905000  1.0
  C  C61  1  0.43836000  0.18354000  0.43773000  1.0
  C  C62  1  0.68907000  0.43454000  0.68856000  1.0
  C  C63  1  0.81868000  0.31795000  0.81963000  1.0
  C  C64  1  0.56529000  0.31095000  0.81141000  1.0
  C  C65  1  0.81170000  0.06501000  0.81108000  1.0
  C  C66  1  0.68209000  0.17991000  0.68121000  1.0
  C  C67  1  0.93498000  0.18862000  0.68878000  1.0
  C  C68  1  0.31118000  0.56584000  0.31201000  1.0
  C  C69  1  0.17976000  0.68208000  0.18114000  1.0
  C  C70  1  0.06632000  0.81156000  0.31239000  1.0
  C  C71  1  0.18911000  0.93484000  0.18855000  1.0
  C  C72  1  0.31972000  0.81947000  0.31846000  1.0
  C  C73  1  0.43396000  0.68725000  0.18822000  1.0
  C  C74  1  0.81553000  0.56231000  0.06159000  1.0
  C  C75  1  0.07046000  0.56759000  0.06897000  1.0
  C  C76  1  0.06015000  0.31528000  0.06111000  1.0
  C  C77  1  0.18423000  0.43872000  0.93822000  1.0
  C  C78  1  0.93139000  0.43184000  0.93044000  1.0
  C  C79  1  0.93838000  0.68551000  0.93933000  1.0
  C  C80  1  0.59401000  0.10145000  0.59799000  1.0
  C  C81  1  0.65561000  0.14855000  0.65258000  1.0
  C  C82  1  0.55265000  0.17277000  0.61301000  1.0
  C  C83  1  0.69681000  0.07710000  0.63771000  1.0
  C  C84  1  0.58378000  0.19479000  0.63959000  1.0
  C  C85  1  0.66581000  0.05519000  0.61101000  1.0
  C  C86  1  0.40027000  0.90064000  0.40410000  1.0
  C  C87  1  0.34951000  0.84973000  0.34598000  1.0
  C  C88  1  0.35735000  0.85726000  0.41730000  1.0
  C  C89  1  0.39246000  0.89309000  0.33278000  1.0
  C  C90  1  0.33308000  0.83295000  0.38842000  1.0
  C  C91  1  0.41675000  0.91736000  0.36165000  1.0
  C  C92  1  0.54464000  0.69624000  0.59870000  1.0
  C  C93  1  0.70405000  0.55375000  0.65091000  1.0
  C  C94  1  0.58543000  0.74097000  0.58631000  1.0
  C  C95  1  0.66384000  0.50919000  0.66346000  1.0
  C  C96  1  0.66133000  0.62192000  0.62728000  1.0
  C  C97  1  0.58913000  0.62826000  0.62219000  1.0
  C  C98  1  0.42493000  0.27257000  0.36981000  1.0
  C  C99  1  0.32652000  0.47552000  0.37901000  1.0
  C  C100  1  0.41431000  0.25767000  0.41251000  1.0
  C  C101  1  0.33668000  0.49073000  0.33664000  1.0
  C  C102  1  0.35844000  0.39632000  0.39145000  1.0
  C  C103  1  0.39249000  0.35237000  0.35831000  1.0
  C  C104  1  0.77307000  0.92446000  0.37010000  1.0
  C  C105  1  0.97595000  0.82585000  0.37929000  1.0
  C  C106  1  0.75817000  0.91404000  0.41284000  1.0
  C  C107  1  0.99117000  0.83618000  0.33693000  1.0
  C  C108  1  0.89677000  0.85776000  0.39172000  1.0
  C  C109  1  0.85286000  0.89184000  0.35858000  1.0
  C  C110  1  0.19998000  0.15749000  0.60252000  1.0
  C  C111  1  0.05032000  0.09555000  0.64760000  1.0
  C  C112  1  0.24098000  0.08815000  0.58646000  1.0
  C  C113  1  0.00950000  0.16428000  0.66367000  1.0
  C  C114  1  0.11985000  0.09230000  0.62529000  1.0
  C  C115  1  0.13074000  0.15875000  0.62471000  1.0
  C  C116  1  0.84597000  0.34576000  0.84964000  1.0
  C  C117  1  0.90388000  0.40420000  0.90046000  1.0
  C  C118  1  0.83253000  0.33293000  0.89282000  1.0
  C  C119  1  0.91707000  0.41729000  0.85727000  1.0
  C  C120  1  0.86141000  0.36183000  0.91709000  1.0
  C  C121  1  0.88839000  0.38818000  0.83300000  1.0
  C  C122  1  0.47696000  0.32557000  0.87960000  1.0
  C  C123  1  0.27382000  0.42429000  0.87117000  1.0
  C  C124  1  0.49132000  0.33607000  0.83683000  1.0
  C  C125  1  0.25917000  0.41373000  0.91356000  1.0
  C  C126  1  0.35287000  0.39243000  0.85842000  1.0
  C  C127  1  0.39726000  0.35820000  0.89137000  1.0
  C  C128  1  0.87582000  0.91869000  0.82150000  1.0
  C  C129  1  0.87412000  0.83099000  0.92762000  1.0
  C  C130  1  0.83650000  0.99012000  0.83547000  1.0
  C  C131  1  0.91324000  0.75989000  0.91405000  1.0
  C  C132  1  0.86011000  0.88920000  0.89422000  1.0
  C  C133  1  0.88884000  0.86152000  0.85567000  1.0
  C  C134  1  0.14872000  0.65573000  0.15228000  1.0
  C  C135  1  0.10173000  0.59395000  0.09769000  1.0
  C  C136  1  0.07741000  0.69703000  0.13726000  1.0
  C  C137  1  0.17308000  0.55267000  0.11267000  1.0
  C  C138  1  0.05553000  0.66584000  0.11063000  1.0
  C  C139  1  0.19495000  0.58383000  0.13932000  1.0
  C  C140  1  0.55016000  0.59224000  0.14746000  1.0
  C  C141  1  0.69924000  0.65527000  0.10261000  1.0
  C  C142  1  0.50862000  0.66156000  0.16349000  1.0
  C  C143  1  0.74070000  0.58661000  0.08655000  1.0
  C  C144  1  0.62981000  0.65797000  0.12485000  1.0
  C  C145  1  0.61944000  0.59124000  0.12540000  1.0
  C  C146  1  0.20561000  0.05435000  0.15123000  1.0
  C  C147  1  0.04558000  0.19607000  0.09914000  1.0
  C  C148  1  0.16499000  0.00953000  0.16388000  1.0
  C  C149  1  0.08548000  0.24083000  0.08633000  1.0
  C  C150  1  0.08872000  0.12812000  0.12278000  1.0
  C  C151  1  0.16091000  0.12215000  0.12765000  1.0
  C  C152  1  0.46647000  0.71493000  0.58933000  1.0
  C  C153  1  0.46405000  0.21476000  0.34009000  1.0
  C  C154  1  0.71552000  0.96357000  0.34022000  1.0
  C  C155  1  0.22366000  0.22141000  0.59786000  1.0
  C  C156  1  0.53483000  0.28650000  0.90932000  1.0
  C  C157  1  0.90090000  0.90307000  0.77770000  1.0
  C  C158  1  0.52677000  0.52811000  0.15214000  1.0
  C  C159  1  0.28379000  0.03545000  0.16064000  1.0
  S  S160  1  0.67538000  0.70065000  0.60286000  1.0
  S  S161  1  0.57433000  0.54970000  0.64667000  1.0
  S  S162  1  0.36614000  0.33898000  0.43768000  1.0
  S  S163  1  0.38489000  0.40928000  0.31180000  1.0
  S  S164  1  0.83950000  0.86574000  0.43797000  1.0
  S  S165  1  0.90978000  0.88439000  0.31207000  1.0
  S  S166  1  0.19599000  0.02659000  0.59823000  1.0
  S  S167  1  0.05495000  0.22507000  0.65178000  1.0
  S  S168  1  0.40963000  0.38462000  0.81201000  1.0
  S  S169  1  0.34095000  0.36527000  0.93807000  1.0
  S  S170  1  0.81613000  0.98716000  0.88872000  1.0
  S  S171  1  0.93316000  0.76334000  0.86088000  1.0
  S  S172  1  0.55328000  0.72343000  0.15187000  1.0
  S  S173  1  0.69577000  0.52526000  0.09835000  1.0
  S  S174  1  0.07497000  0.04938000  0.14747000  1.0
  S  S175  1  0.17521000  0.20081000  0.10288000  1.0
  Br  Br176  1  0.45448000  0.24512000  0.59983000  1.0
  Br  Br177  1  0.79483000  0.00454000  0.65104000  1.0
  Br  Br178  1  0.32823000  0.82742000  0.47303000  1.0
  Br  Br179  1  0.42198000  0.92259000  0.27704000  1.0
  Br  Br180  1  0.77640000  0.27769000  0.92241000  1.0
  Br  Br181  1  0.97226000  0.47335000  0.82767000  1.0
  Br  Br182  1  0.00524000  0.79517000  0.15038000  1.0
  Br  Br183  1  0.24529000  0.45451000  0.09953000  1.0
  O  O184  1  0.50146000  0.99934000  0.50017000  1.0
  O  O185  1  0.68469000  0.92258000  0.47711000  1.0
  O  O186  1  0.46855000  0.96848000  0.41383000  1.0
  O  O187  1  0.49467000  0.84462000  0.55060000  1.0
  O  O188  1  0.62493000  0.97385000  0.41910000  1.0
  O  O189  1  0.60886000  0.84637000  0.55393000  1.0
  O  O190  1  0.41498000  0.91672000  0.47007000  1.0
  O  O191  1  0.34284000  0.99494000  0.55119000  1.0
  O  O192  1  0.50269000  0.11161000  0.55742000  1.0
  O  O193  1  0.34645000  0.10913000  0.55205000  1.0
  O  O194  1  0.61367000  0.00476000  0.55851000  1.0
  O  O195  1  0.47425000  0.12417000  0.41905000  1.0
  O  O196  1  0.42113000  0.18473000  0.47667000  1.0
  O  O197  1  0.74947000  0.25165000  0.74950000  1.0
  O  O198  1  0.64215000  0.40348000  0.69655000  1.0
  O  O199  1  0.83662000  0.33550000  0.78155000  1.0
  O  O200  1  0.62432000  0.27424000  0.83029000  1.0
  O  O201  1  0.75529000  0.40752000  0.70013000  1.0
  O  O202  1  0.56464000  0.32767000  0.77240000  1.0
  O  O203  1  0.78028000  0.27951000  0.83433000  1.0
  O  O204  1  0.77429000  0.12299000  0.83094000  1.0
  O  O205  1  0.74709000  0.13842000  0.69301000  1.0
  O  O206  1  0.82942000  0.06659000  0.77215000  1.0
  O  O207  1  0.63683000  0.24597000  0.69128000  1.0
  O  O208  1  0.90695000  0.25520000  0.70017000  1.0
  O  O209  1  0.90493000  0.14100000  0.69703000  1.0
  O  O210  1  0.24968000  0.74923000  0.25072000  1.0
  O  O211  1  0.27600000  0.62401000  0.33159000  1.0
  O  O212  1  0.24563000  0.63632000  0.19143000  1.0
  O  O213  1  0.06631000  0.82851000  0.27344000  1.0
  O  O214  1  0.32676000  0.56587000  0.27299000  1.0
  O  O215  1  0.12456000  0.77583000  0.33191000  1.0
  O  O216  1  0.13868000  0.74710000  0.19296000  1.0
  O  O217  1  0.14081000  0.90527000  0.19713000  1.0
  O  O218  1  0.33399000  0.83455000  0.28003000  1.0
  O  O219  1  0.25611000  0.90519000  0.19942000  1.0
  O  O220  1  0.28229000  0.78080000  0.33624000  1.0
  O  O221  1  0.40194000  0.64122000  0.19702000  1.0
  O  O222  1  0.40693000  0.75437000  0.19901000  1.0
  O  O223  1  0.99866000  0.50071000  0.00036000  1.0
  O  O224  1  0.84296000  0.49591000  0.04999000  1.0
  O  O225  1  0.00436000  0.61306000  0.05895000  1.0
  O  O226  1  0.10773000  0.34556000  0.05262000  1.0
  O  O227  1  0.84629000  0.60930000  0.05375000  1.0
  O  O228  1  0.99362000  0.34307000  0.04989000  1.0
  O  O229  1  0.11178000  0.50271000  0.05701000  1.0
  O  O230  1  0.18399000  0.42060000  0.97714000  1.0
  O  O231  1  0.97002000  0.47005000  0.91570000  1.0
  O  O232  1  0.12605000  0.47627000  0.91882000  1.0
  O  O233  1  0.91347000  0.41439000  0.96853000  1.0
  O  O234  1  0.92200000  0.68544000  0.97823000  1.0
  O  O235  1  0.97476000  0.62720000  0.91977000  1.0
