# generated using pymatgen
data_HgH6(C5N6)2
_symmetry_space_group_name_H-M   'P 1'
_cell_length_a   9.36994000
_cell_length_b   10.31730000
_cell_length_c   13.44500000
_cell_angle_alpha   93.31330000
_cell_angle_beta   90.00000000
_cell_angle_gamma   90.00000000
_symmetry_Int_Tables_number   1
_chemical_formula_structural   HgH6(C5N6)2
_chemical_formula_sum   'Hg4 H24 C40 N48'
_cell_volume   1297.58887430
_cell_formula_units_Z   4
loop_
 _symmetry_equiv_pos_site_id
 _symmetry_equiv_pos_as_xyz
  1  'x, y, z'
loop_
 _atom_site_type_symbol
 _atom_site_label
 _atom_site_symmetry_multiplicity
 _atom_site_fract_x
 _atom_site_fract_y
 _atom_site_fract_z
 _atom_site_occupancy
  Hg  Hg0  1  0.91457000  0.24926000  0.76250000  1.0
  Hg  Hg1  1  0.41457000  0.75074000  0.73750000  1.0
  Hg  Hg2  1  0.08543000  0.75074000  0.23750000  1.0
  Hg  Hg3  1  0.58543000  0.24926000  0.26250000  1.0
  H  H4  1  0.22942000  0.03493000  0.43959000  1.0
  H  H5  1  0.72942000  0.96507000  0.06041000  1.0
  H  H6  1  0.77058000  0.96507000  0.56041000  1.0
  H  H7  1  0.27058000  0.03493000  0.93959000  1.0
  H  H8  1  0.98619000  0.34865000  0.36018000  1.0
  H  H9  1  0.48619000  0.65135000  0.13982000  1.0
  H  H10  1  0.01382000  0.65135000  0.63982000  1.0
  H  H11  1  0.51381000  0.34865000  0.86018000  1.0
  H  H12  1  0.87844000  0.36703000  0.53386000  1.0
  H  H13  1  0.37844000  0.63297000  0.96614000  1.0
  H  H14  1  0.12156000  0.63297000  0.46614000  1.0
  H  H15  1  0.62156000  0.36703000  0.03386000  1.0
  H  H16  1  0.24534000  0.47717000  0.06441000  1.0
  H  H17  1  0.74534000  0.52283000  0.43559000  1.0
  H  H18  1  0.75466000  0.52283000  0.93559000  1.0
  H  H19  1  0.25466000  0.47717000  0.56441000  1.0
  H  H20  1  0.03926000  0.17377000  0.19317000  1.0
  H  H21  1  0.53926000  0.82623000  0.30683000  1.0
  H  H22  1  0.96074000  0.82623000  0.80683000  1.0
  H  H23  1  0.46074000  0.17377000  0.69317000  1.0
  H  H24  1  0.90928000  0.11811000  0.03023000  1.0
  H  H25  1  0.40928000  0.88189000  0.46977000  1.0
  H  H26  1  0.09072000  0.88189000  0.96977000  1.0
  H  H27  1  0.59072000  0.11811000  0.53023000  1.0
  C  C28  1  0.14932000  0.04252000  0.63587000  1.0
  C  C29  1  0.64932000  0.95748000  0.86413000  1.0
  C  C30  1  0.85068000  0.95748000  0.36413000  1.0
  C  C31  1  0.35068000  0.04252000  0.13587000  1.0
  C  C32  1  0.09922000  0.12495000  0.55859000  1.0
  C  C33  1  0.59922000  0.87505000  0.94141000  1.0
  C  C34  1  0.90078000  0.87505000  0.44141000  1.0
  C  C35  1  0.40078000  0.12495000  0.05859000  1.0
  C  C36  1  0.15252000  0.11096000  0.46086000  1.0
  C  C37  1  0.65252000  0.88904000  0.03914000  1.0
  C  C38  1  0.84747000  0.88904000  0.53914000  1.0
  C  C39  1  0.34748000  0.11096000  0.96086000  1.0
  C  C40  1  0.01720000  0.28183000  0.41637000  1.0
  C  C41  1  0.51720000  0.71817000  0.08363000  1.0
  C  C42  1  0.98280000  0.71817000  0.58363000  1.0
  C  C43  1  0.48280000  0.28183000  0.91637000  1.0
  C  C44  1  0.95926000  0.29434000  0.51223000  1.0
  C  C45  1  0.45926000  0.70566000  0.98777000  1.0
  C  C46  1  0.04074000  0.70566000  0.48777000  1.0
  C  C47  1  0.54074000  0.29434000  0.01223000  1.0
  C  C48  1  0.12820000  0.43544000  0.87744000  1.0
  C  C49  1  0.62820000  0.56456000  0.62256000  1.0
  C  C50  1  0.87180000  0.56456000  0.12256000  1.0
  C  C51  1  0.37180000  0.43544000  0.37744000  1.0
  C  C52  1  0.10275000  0.36330000  0.96580000  1.0
  C  C53  1  0.60275000  0.63670000  0.53420000  1.0
  C  C54  1  0.89725000  0.63670000  0.03420000  1.0
  C  C55  1  0.39725000  0.36330000  0.46580000  1.0
  C  C56  1  0.17088000  0.39586000  0.05671000  1.0
  C  C57  1  0.67088000  0.60414000  0.44329000  1.0
  C  C58  1  0.82912000  0.60414000  0.94329000  1.0
  C  C59  1  0.32912000  0.39586000  0.55671000  1.0
  C  C60  1  0.05668000  0.22923000  0.12767000  1.0
  C  C61  1  0.55669000  0.77077000  0.37233000  1.0
  C  C62  1  0.94331000  0.77077000  0.87233000  1.0
  C  C63  1  0.44332000  0.22923000  0.62767000  1.0
  C  C64  1  0.98595000  0.19749000  0.03779000  1.0
  C  C65  1  0.48595000  0.80251000  0.46221000  1.0
  C  C66  1  0.01405000  0.80251000  0.96221000  1.0
  C  C67  1  0.51405000  0.19749000  0.53779000  1.0
  N  N68  1  0.10665000  0.05342000  0.73220000  1.0
  N  N69  1  0.60665000  0.94658000  0.76780000  1.0
  N  N70  1  0.89335000  0.94658000  0.26780000  1.0
  N  N71  1  0.39335000  0.05342000  0.23220000  1.0
  N  N72  1  0.17650000  0.96281000  0.77847000  1.0
  N  N73  1  0.67650000  0.03719000  0.72153000  1.0
  N  N74  1  0.82350000  0.03719000  0.22153000  1.0
  N  N75  1  0.32350000  0.96281000  0.27847000  1.0
  N  N76  1  0.25853000  0.89976000  0.71034000  1.0
  N  N77  1  0.75853000  0.10024000  0.78966000  1.0
  N  N78  1  0.74147000  0.10024000  0.28966000  1.0
  N  N79  1  0.24147000  0.89976000  0.21034000  1.0
  N  N80  1  0.24528000  0.94668000  0.62039000  1.0
  N  N81  1  0.74528000  0.05332000  0.87961000  1.0
  N  N82  1  0.75472000  0.05332000  0.37961000  1.0
  N  N83  1  0.25472000  0.94668000  0.12039000  1.0
  N  N84  1  0.00012000  0.21604000  0.58303000  1.0
  N  N85  1  0.50012000  0.78396000  0.91697000  1.0
  N  N86  1  0.99988000  0.78396000  0.41697000  1.0
  N  N87  1  0.49988000  0.21604000  0.08303000  1.0
  N  N88  1  0.11215000  0.18875000  0.38998000  1.0
  N  N89  1  0.61215000  0.81125000  0.11002000  1.0
  N  N90  1  0.88785000  0.81125000  0.61002000  1.0
  N  N91  1  0.38785000  0.18875000  0.88998000  1.0
  N  N92  1  0.21736000  0.53588000  0.87114000  1.0
  N  N93  1  0.71736000  0.46412000  0.62886000  1.0
  N  N94  1  0.78264000  0.46412000  0.12886000  1.0
  N  N95  1  0.28264000  0.53588000  0.37114000  1.0
  N  N96  1  0.20330000  0.57252000  0.77712000  1.0
  N  N97  1  0.70330000  0.42748000  0.72288000  1.0
  N  N98  1  0.79670000  0.42748000  0.22288000  1.0
  N  N99  1  0.29670000  0.57252000  0.27712000  1.0
  N  N100  1  0.10992000  0.49843000  0.72724000  1.0
  N  N101  1  0.60992000  0.50157000  0.77276000  1.0
  N  N102  1  0.89007000  0.50157000  0.27276000  1.0
  N  N103  1  0.39007000  0.49843000  0.22724000  1.0
  N  N104  1  0.06146000  0.41174000  0.78938000  1.0
  N  N105  1  0.56145000  0.58826000  0.71062000  1.0
  N  N106  1  0.93854000  0.58826000  0.21062000  1.0
  N  N107  1  0.43854000  0.41174000  0.28938000  1.0
  N  N108  1  0.00945000  0.26396000  0.95703000  1.0
  N  N109  1  0.50945000  0.73604000  0.54297000  1.0
  N  N110  1  0.99055000  0.73604000  0.04297000  1.0
  N  N111  1  0.49055000  0.26396000  0.45703000  1.0
  N  N112  1  0.14861000  0.32864000  0.13729000  1.0
  N  N113  1  0.64861000  0.67136000  0.36271000  1.0
  N  N114  1  0.85139000  0.67136000  0.86271000  1.0
  N  N115  1  0.35139000  0.32864000  0.63729000  1.0
