# generated using pymatgen
data_Zn2H11C18N3O7
_symmetry_space_group_name_H-M   'P 1'
_cell_length_a   11.13420000
_cell_length_b   11.13500000
_cell_length_c   19.88630000
_cell_angle_alpha   100.64800000
_cell_angle_beta   97.59130000
_cell_angle_gamma   115.70700000
_symmetry_Int_Tables_number   1
_chemical_formula_structural   Zn2H11C18N3O7
_chemical_formula_sum   'Zn8 H44 C72 N12 O28'
_cell_volume   2119.56744075
_cell_formula_units_Z   4
loop_
 _symmetry_equiv_pos_site_id
 _symmetry_equiv_pos_as_xyz
  1  'x, y, z'
loop_
 _atom_site_type_symbol
 _atom_site_label
 _atom_site_symmetry_multiplicity
 _atom_site_fract_x
 _atom_site_fract_y
 _atom_site_fract_z
 _atom_site_occupancy
  Zn  Zn0  1  0.05381000  0.30386000  0.24996000  1.0
  Zn  Zn1  1  0.94619000  0.69614000  0.75004000  1.0
  Zn  Zn2  1  0.11727000  0.55685000  0.37536000  1.0
  Zn  Zn3  1  0.18144000  0.24184000  0.12458000  1.0
  Zn  Zn4  1  0.88272000  0.44315000  0.62464000  1.0
  Zn  Zn5  1  0.81856000  0.75816000  0.87542000  1.0
  Zn  Zn6  1  0.31874000  0.56860000  0.25001000  1.0
  Zn  Zn7  1  0.68126000  0.43140000  0.74999000  1.0
  H  H8  1  0.10019000  0.56223000  0.24328000  1.0
  H  H9  1  0.31888000  0.35659000  0.25665000  1.0
  H  H10  1  0.89981000  0.43777000  0.75672000  1.0
  H  H11  1  0.68112000  0.64341000  0.74335000  1.0
  H  H12  1  0.19102000  0.11999000  0.37808000  1.0
  H  H13  1  0.74219000  0.31335000  0.12188000  1.0
  H  H14  1  0.80898000  0.88001000  0.62192000  1.0
  H  H15  1  0.25781000  0.68665000  0.87812000  1.0
  H  H16  1  0.36676000  0.49853000  0.54462000  1.0
  H  H17  1  0.95396000  0.32231000  0.95523000  1.0
  H  H18  1  0.63324000  0.50147000  0.45538000  1.0
  H  H19  1  0.04604000  0.67769000  0.04477000  1.0
  H  H20  1  0.39937000  0.14648000  0.58446000  1.0
  H  H21  1  0.56180000  0.31457000  0.91542000  1.0
  H  H22  1  0.60063000  0.85352000  0.41554000  1.0
  H  H23  1  0.43820000  0.68543000  0.08458000  1.0
  H  H24  1  0.46168000  0.90038000  0.30413000  1.0
  H  H25  1  0.59633000  0.65721000  0.19585000  1.0
  H  H26  1  0.53832000  0.09962000  0.69587000  1.0
  H  H27  1  0.40367000  0.34280000  0.80415000  1.0
  H  H28  1  0.67349000  0.05574000  0.27185000  1.0
  H  H29  1  0.78378000  0.90133000  0.22818000  1.0
  H  H30  1  0.32651000  0.94427000  0.72815000  1.0
  H  H31  1  0.21622000  0.09867000  0.77182000  1.0
  H  H32  1  0.75653000  0.38363000  0.45269000  1.0
  H  H33  1  0.93109000  0.80399000  0.04730000  1.0
  H  H34  1  0.24347000  0.61637000  0.54731000  1.0
  H  H35  1  0.06891000  0.19601000  0.95270000  1.0
  H  H36  1  0.54891000  0.23400000  0.48566000  1.0
  H  H37  1  0.74844000  0.56339000  0.01421000  1.0
  H  H38  1  0.45109000  0.76600000  0.51434000  1.0
  H  H39  1  0.25156000  0.43660000  0.98579000  1.0
  H  H40  1  0.99870000  0.87630000  0.46358000  1.0
  H  H41  1  0.41316000  0.03527000  0.03645000  1.0
  H  H42  1  0.00131000  0.12370000  0.53642000  1.0
  H  H43  1  0.58684000  0.96472000  0.96355000  1.0
  H  H44  1  0.10114000  0.88327000  0.54238000  1.0
  H  H45  1  0.34125000  0.05880000  0.95762000  1.0
  H  H46  1  0.89885000  0.11673000  0.45762000  1.0
  H  H47  1  0.65875000  0.94120000  0.04238000  1.0
  H  H48  1  0.99932000  0.72256000  0.47678000  1.0
  H  H49  1  0.24615000  0.02253000  0.02322000  1.0
  H  H50  1  0.00068000  0.27744000  0.52322000  1.0
  H  H51  1  0.75385000  0.97747000  0.97678000  1.0
  C  C52  1  0.36705000  0.95769000  0.41337000  1.0
  C  C53  1  0.54446000  0.45366000  0.08662000  1.0
  C  C54  1  0.63296000  0.04231000  0.58663000  1.0
  C  C55  1  0.45554000  0.54634000  0.91338000  1.0
  C  C56  1  0.17851000  0.85799000  0.45086000  1.0
  C  C57  1  0.40732000  0.22766000  0.04912000  1.0
  C  C58  1  0.82149000  0.14201000  0.54914000  1.0
  C  C59  1  0.59268000  0.77233000  0.95088000  1.0
  C  C60  1  0.29120000  0.11819000  0.47903000  1.0
  C  C61  1  0.63929000  0.31227000  0.02090000  1.0
  C  C62  1  0.70880000  0.88181000  0.52097000  1.0
  C  C63  1  0.36071000  0.68773000  0.97910000  1.0
  C  C64  1  0.24362000  0.17672000  0.43294000  1.0
  C  C65  1  0.74402000  0.31100000  0.06700000  1.0
  C  C66  1  0.75638000  0.82327000  0.56706000  1.0
  C  C67  1  0.25598000  0.68900000  0.93300000  1.0
  C  C68  1  0.26740000  0.31337000  0.45718000  1.0
  C  C69  1  0.85638000  0.31050000  0.04273000  1.0
  C  C70  1  0.73260000  0.68663000  0.54282000  1.0
  C  C71  1  0.14362000  0.68951000  0.95727000  1.0
  C  C72  1  0.34174000  0.39024000  0.52624000  1.0
  C  C73  1  0.86404000  0.31561000  0.97363000  1.0
  C  C74  1  0.65826000  0.60976000  0.47376000  1.0
  C  C75  1  0.13595000  0.68439000  0.02637000  1.0
  C  C76  1  0.38760000  0.32986000  0.57231000  1.0
  C  C77  1  0.75746000  0.31520000  0.92756000  1.0
  C  C78  1  0.61240000  0.67014000  0.42769000  1.0
  C  C79  1  0.24254000  0.68480000  0.07244000  1.0
  C  C80  1  0.35992000  0.19173000  0.54896000  1.0
  C  C81  1  0.64267000  0.31079000  0.95092000  1.0
  C  C82  1  0.64008000  0.80826000  0.45104000  1.0
  C  C83  1  0.35733000  0.68921000  0.04908000  1.0
  C  C84  1  0.21148000  0.37302000  0.40739000  1.0
  C  C85  1  0.96586000  0.30439000  0.09254000  1.0
  C  C86  1  0.78852000  0.62698000  0.59261000  1.0
  C  C87  1  0.03414000  0.69561000  0.90746000  1.0
  C  C88  1  0.47992000  0.41603000  0.64429000  1.0
  C  C89  1  0.77162000  0.33563000  0.85558000  1.0
  C  C90  1  0.52007000  0.58397000  0.35571000  1.0
  C  C91  1  0.22838000  0.66437000  0.14442000  1.0
  C  C92  1  0.48943000  0.05638000  0.39656000  1.0
  C  C93  1  0.65995000  0.59281000  0.10337000  1.0
  C  C94  1  0.51057000  0.94362000  0.60344000  1.0
  C  C95  1  0.34005000  0.40719000  0.89663000  1.0
  C  C96  1  0.52624000  0.00669000  0.33628000  1.0
  C  C97  1  0.67051000  0.68975000  0.16370000  1.0
  C  C98  1  0.47376000  0.99331000  0.66372000  1.0
  C  C99  1  0.32949000  0.31025000  0.83630000  1.0
  C  C100  1  0.64393000  0.09275000  0.31828000  1.0
  C  C101  1  0.77453000  0.82543000  0.18176000  1.0
  C  C102  1  0.35608000  0.90725000  0.68172000  1.0
  C  C103  1  0.22548000  0.17457000  0.81824000  1.0
  C  C104  1  0.72705000  0.22950000  0.35989000  1.0
  C  C105  1  0.86969000  0.86704000  0.14014000  1.0
  C  C106  1  0.27295000  0.77050000  0.64011000  1.0
  C  C107  1  0.13031000  0.13296000  0.85986000  1.0
  C  C108  1  0.69089000  0.27835000  0.41979000  1.0
  C  C109  1  0.85871000  0.77114000  0.08019000  1.0
  C  C110  1  0.30911000  0.72165000  0.58022000  1.0
  C  C111  1  0.14129000  0.22886000  0.91981000  1.0
  C  C112  1  0.57286000  0.19321000  0.43818000  1.0
  C  C113  1  0.75516000  0.63472000  0.06174000  1.0
  C  C114  1  0.42714000  0.80679000  0.56182000  1.0
  C  C115  1  0.24484000  0.36527000  0.93826000  1.0
  C  C116  1  0.85480000  0.32053000  0.34055000  1.0
  C  C117  1  0.97986000  0.01420000  0.15946000  1.0
  C  C118  1  0.14520000  0.67946000  0.65945000  1.0
  C  C119  1  0.02014000  0.98580000  0.84053000  1.0
  C  C120  1  0.06314000  0.83411000  0.48534000  1.0
  C  C121  1  0.34915000  0.07787000  0.01467000  1.0
  C  C122  1  0.93686000  0.16589000  0.51466000  1.0
  C  C123  1  0.65085000  0.92213000  0.98533000  1.0
  N  N124  1  0.28105000  0.98429000  0.45146000  1.0
  N  N125  1  0.53298000  0.32963000  0.04852000  1.0
  N  N126  1  0.71895000  0.01571000  0.54854000  1.0
  N  N127  1  0.46702000  0.67037000  0.95148000  1.0
  N  N128  1  0.31952000  0.82241000  0.39117000  1.0
  N  N129  1  0.43134000  0.42829000  0.10881000  1.0
  N  N130  1  0.68048000  0.17759000  0.60883000  1.0
  N  N131  1  0.56866000  0.57171000  0.89119000  1.0
  N  N132  1  0.20227000  0.76152000  0.41413000  1.0
  N  N133  1  0.34750000  0.28809000  0.08585000  1.0
  N  N134  1  0.79773000  0.23848000  0.58587000  1.0
  N  N135  1  0.65250000  0.71191000  0.91415000  1.0
  O  O136  1  0.14015000  0.29292000  0.34744000  1.0
  O  O137  1  0.94546000  0.29265000  0.15242000  1.0
  O  O138  1  0.85985000  0.70707000  0.65256000  1.0
  O  O139  1  0.05454000  0.70735000  0.84757000  1.0
  O  O140  1  0.23664000  0.49938000  0.43019000  1.0
  O  O141  1  0.06956000  0.30694000  0.06981000  1.0
  O  O142  1  0.76336000  0.50062000  0.56981000  1.0
  O  O143  1  0.93044000  0.69306000  0.93019000  1.0
  O  O144  1  0.50554000  0.34389000  0.68296000  1.0
  O  O145  1  0.66074000  0.32242000  0.81692000  1.0
  O  O146  1  0.49446000  0.65611000  0.31704000  1.0
  O  O147  1  0.33926000  0.67758000  0.18309000  1.0
  O  O148  1  0.52840000  0.54482000  0.66059000  1.0
  O  O149  1  0.88418000  0.36810000  0.83932000  1.0
  O  O150  1  0.47160000  0.45518000  0.33941000  1.0
  O  O151  1  0.11582000  0.63191000  0.16068000  1.0
  O  O152  1  0.87695000  0.27328000  0.28356000  1.0
  O  O153  1  0.98932000  0.09335000  0.21637000  1.0
  O  O154  1  0.12305000  0.72673000  0.71644000  1.0
  O  O155  1  0.01068000  0.90665000  0.78362000  1.0
  O  O156  1  0.93264000  0.44064000  0.38465000  1.0
  O  O157  1  0.05594000  0.04800000  0.11538000  1.0
  O  O158  1  0.06736000  0.55936000  0.61535000  1.0
  O  O159  1  0.94407000  0.95200000  0.88462000  1.0
  O  O160  1  0.13970000  0.52747000  0.27786000  1.0
  O  O161  1  0.24963000  0.36167000  0.22209000  1.0
  O  O162  1  0.86030000  0.47253000  0.72214000  1.0
  O  O163  1  0.75037000  0.63834000  0.77790000  1.0
