# generated using pymatgen
data_CdH38C44(SN6)2
_symmetry_space_group_name_H-M   'P 1'
_cell_length_a   5.71722000
_cell_length_b   10.32450000
_cell_length_c   17.56980000
_cell_angle_alpha   90.11010000
_cell_angle_beta   92.31510000
_cell_angle_gamma   92.27730000
_symmetry_Int_Tables_number   1
_chemical_formula_structural   CdH38C44(SN6)2
_chemical_formula_sum   'Cd1 H38 C44 S2 N12'
_cell_volume   1035.42890407
_cell_formula_units_Z   1
loop_
 _symmetry_equiv_pos_site_id
 _symmetry_equiv_pos_as_xyz
  1  'x, y, z'
loop_
 _atom_site_type_symbol
 _atom_site_label
 _atom_site_symmetry_multiplicity
 _atom_site_fract_x
 _atom_site_fract_y
 _atom_site_fract_z
 _atom_site_occupancy
  Cd  Cd0  1  0.49998000  0.99999000  0.00000000  1.0
  H  H1  1  0.65615000  0.87841000  0.55496000  1.0
  H  H2  1  0.34384000  0.12157000  0.44504000  1.0
  H  H3  1  0.60133000  0.78884000  0.63820000  1.0
  H  H4  1  0.39869000  0.21114000  0.36180000  1.0
  H  H5  1  0.79153000  0.53145000  0.51232000  1.0
  H  H6  1  0.20845000  0.46854000  0.48768000  1.0
  H  H7  1  0.60579000  0.65965000  0.48603000  1.0
  H  H8  1  0.39421000  0.34036000  0.51397000  1.0
  H  H9  1  0.57324000  0.57851000  0.57478000  1.0
  H  H10  1  0.42676000  0.42150000  0.42523000  1.0
  H  H11  1  0.95463000  0.80724000  0.46524000  1.0
  H  H12  1  0.04540000  0.19275000  0.53476000  1.0
  H  H13  1  0.14796000  0.68206000  0.49079000  1.0
  H  H14  1  0.85207000  0.31793000  0.50921000  1.0
  H  H15  1  0.17878000  0.83459000  0.53734000  1.0
  H  H16  1  0.82124000  0.16541000  0.46266000  1.0
  H  H17  1  0.87872000  0.59489000  0.67411000  1.0
  H  H18  1  0.12129000  0.40512000  0.32589000  1.0
  H  H19  1  0.12141000  0.57560000  0.61722000  1.0
  H  H20  1  0.87859000  0.42440000  0.38279000  1.0
  H  H21  1  0.19739000  0.93856000  0.72850000  1.0
  H  H22  1  0.80258000  0.06144000  0.27150000  1.0
  H  H23  1  0.43599000  0.77351000  0.77172000  1.0
  H  H24  1  0.56402000  0.22648000  0.22828000  1.0
  H  H25  1  0.27792000  0.49871000  0.71569000  1.0
  H  H26  1  0.72210000  0.50129000  0.28431000  1.0
  H  H27  1  0.44514000  0.32337000  0.77242000  1.0
  H  H28  1  0.55489000  0.67662000  0.22758000  1.0
  H  H29  1  0.75949000  0.22291000  0.84903000  1.0
  H  H30  1  0.24054000  0.77709000  0.15098000  1.0
  H  H31  1  0.08387000  0.60109000  0.89564000  1.0
  H  H32  1  0.91612000  0.39892000  0.10436000  1.0
  H  H33  1  0.76324000  0.70258000  0.82253000  1.0
  H  H34  1  0.23673000  0.29742000  0.17747000  1.0
  H  H35  1  0.08439000  0.14639000  0.88074000  1.0
  H  H36  1  0.91563000  0.85363000  0.11927000  1.0
  H  H37  1  0.57293000  0.34498000  0.02864000  1.0
  H  H38  1  0.42707000  0.65502000  0.97137000  1.0
  C  C39  1  0.98157000  0.14073000  0.69765000  1.0
  C  C40  1  0.01842000  0.85926000  0.30236000  1.0
  C  C41  1  0.63033000  0.09364000  0.61930000  1.0
  C  C42  1  0.36967000  0.90636000  0.38070000  1.0
  C  C43  1  0.83800000  0.04909000  0.65547000  1.0
  C  C44  1  0.16199000  0.95091000  0.34453000  1.0
  C  C45  1  0.89534000  0.91944000  0.65030000  1.0
  C  C46  1  0.10465000  0.08056000  0.34970000  1.0
  C  C47  1  0.74251000  0.82740000  0.60248000  1.0
  C  C48  1  0.25749000  0.17259000  0.39751000  1.0
  C  C49  1  0.87662000  0.71331000  0.57192000  1.0
  C  C50  1  0.12339000  0.28668000  0.42808000  1.0
  C  C51  1  0.70107000  0.61508000  0.53408000  1.0
  C  C52  1  0.29893000  0.38492000  0.46592000  1.0
  C  C53  1  0.05024000  0.76247000  0.51308000  1.0
  C  C54  1  0.94978000  0.23752000  0.48692000  1.0
  C  C55  1  0.00631000  0.64873000  0.63924000  1.0
  C  C56  1  0.99370000  0.35127000  0.36076000  1.0
  C  C57  1  0.14608000  0.74263000  0.69034000  1.0
  C  C58  1  0.85392000  0.25737000  0.30966000  1.0
  C  C59  1  0.09122000  0.87147000  0.69203000  1.0
  C  C60  1  0.90877000  0.12853000  0.30797000  1.0
  C  C61  1  0.33587000  0.69904000  0.73838000  1.0
  C  C62  1  0.66413000  0.30096000  0.26161000  1.0
  C  C63  1  0.38943000  0.57203000  0.74597000  1.0
  C  C64  1  0.61058000  0.42796000  0.25403000  1.0
  C  C65  1  0.57966000  0.52017000  0.79168000  1.0
  C  C66  1  0.42035000  0.47983000  0.20832000  1.0
  C  C67  1  0.58521000  0.38432000  0.79945000  1.0
  C  C68  1  0.41481000  0.61568000  0.20055000  1.0
  C  C69  1  0.76244000  0.32776000  0.84208000  1.0
  C  C70  1  0.23757000  0.67225000  0.15793000  1.0
  C  C71  1  0.94326000  0.40612000  0.87577000  1.0
  C  C72  1  0.05677000  0.59388000  0.12423000  1.0
  C  C73  1  0.94278000  0.54119000  0.86895000  1.0
  C  C74  1  0.05723000  0.45881000  0.13106000  1.0
  C  C75  1  0.76154000  0.59735000  0.82762000  1.0
  C  C76  1  0.23845000  0.40265000  0.17238000  1.0
  C  C77  1  0.18059000  0.21941000  0.91483000  1.0
  C  C78  1  0.81941000  0.78060000  0.08517000  1.0
  C  C79  1  0.42603000  0.32315000  0.98923000  1.0
  C  C80  1  0.57399000  0.67685000  0.01077000  1.0
  C  C81  1  0.01543000  0.07901000  0.09105000  1.0
  C  C82  1  0.98451000  0.92100000  0.90894000  1.0
  S  S83  1  0.26412000  0.04301000  0.13345000  1.0
  S  S84  1  0.73580000  0.95701000  0.86654000  1.0
  N  N85  1  0.10365000  0.21536000  0.73208000  1.0
  N  N86  1  0.89632000  0.78460000  0.26793000  1.0
  N  N87  1  0.45571000  0.12708000  0.58982000  1.0
  N  N88  1  0.54431000  0.87295000  0.41017000  1.0
  N  N89  1  0.12892000  0.34607000  0.91600000  1.0
  N  N90  1  0.87110000  0.65393000  0.08400000  1.0
  N  N91  1  0.28616000  0.41360000  0.96318000  1.0
  N  N92  1  0.71385000  0.58641000  0.03682000  1.0
  N  N93  1  0.36714000  0.20175000  0.96095000  1.0
  N  N94  1  0.63288000  0.79826000  0.03906000  1.0
  N  N95  1  0.83352000  0.10379000  0.06074000  1.0
  N  N96  1  0.16640000  0.89623000  0.93924000  1.0
