# generated using pymatgen
data_Zn3H46C56(N2O3)4
_symmetry_space_group_name_H-M   'P 1'
_cell_length_a   9.42349000
_cell_length_b   18.09960000
_cell_length_c   18.57390000
_cell_angle_alpha   61.92650000
_cell_angle_beta   84.04040000
_cell_angle_gamma   86.24680000
_symmetry_Int_Tables_number   1
_chemical_formula_structural   Zn3H46C56(N2O3)4
_chemical_formula_sum   'Zn6 H92 C112 N16 O24'
_cell_volume   2779.65461390
_cell_formula_units_Z   2
loop_
 _symmetry_equiv_pos_site_id
 _symmetry_equiv_pos_as_xyz
  1  'x, y, z'
loop_
 _atom_site_type_symbol
 _atom_site_label
 _atom_site_symmetry_multiplicity
 _atom_site_fract_x
 _atom_site_fract_y
 _atom_site_fract_z
 _atom_site_occupancy
  Zn  Zn0  1  0.35661000  0.93161000  0.86843000  1.0
  Zn  Zn1  1  0.64339000  0.06838000  0.13157000  1.0
  Zn  Zn2  1  0.65895000  0.91985000  0.35658000  1.0
  Zn  Zn3  1  0.34105000  0.08015000  0.64342000  1.0
  Zn  Zn4  1  0.48243000  0.49943000  0.25485000  1.0
  Zn  Zn5  1  0.51757000  0.50058000  0.74515000  1.0
  H  H6  1  0.20419000  0.79537000  0.77521000  1.0
  H  H7  1  0.79581000  0.20463000  0.22479000  1.0
  H  H8  1  0.13669000  0.72436000  0.87531000  1.0
  H  H9  1  0.86331000  0.27564000  0.12469000  1.0
  H  H10  1  0.29401000  0.77928000  0.86222000  1.0
  H  H11  1  0.70599000  0.22072000  0.13778000  1.0
  H  H12  1  0.12547000  0.04841000  0.89936000  1.0
  H  H13  1  0.87453000  0.95159000  0.10064000  1.0
  H  H14  1  0.88216000  0.10731000  0.91419000  1.0
  H  H15  1  0.11784000  0.89269000  0.08580000  1.0
  H  H16  1  0.66850000  0.05504000  0.88839000  1.0
  H  H17  1  0.33150000  0.94496000  0.11161000  1.0
  H  H18  1  0.68440000  0.94126000  0.84842000  1.0
  H  H19  1  0.31560000  0.05874000  0.15158000  1.0
  H  H20  1  0.93032000  0.78473000  0.78984000  1.0
  H  H21  1  0.06968000  0.21527000  0.21016000  1.0
  H  H22  1  0.77737000  0.84161000  0.80008000  1.0
  H  H23  1  0.22263000  0.15839000  0.19992000  1.0
  H  H24  1  0.78605000  0.68115000  0.90203000  1.0
  H  H25  1  0.21395000  0.31885000  0.09797000  1.0
  H  H26  1  0.91845000  0.70477000  0.94935000  1.0
  H  H27  1  0.08155000  0.29523000  0.05065000  1.0
  H  H28  1  0.73176000  0.81437000  0.96079000  1.0
  H  H29  1  0.26824000  0.18563000  0.03921000  1.0
  H  H30  1  0.60523000  0.76410000  0.93665000  1.0
  H  H31  1  0.39477000  0.23590000  0.06335000  1.0
  H  H32  1  0.00823000  0.76909000  0.17874000  1.0
  H  H33  1  0.99177000  0.23091000  0.82126000  1.0
  H  H34  1  0.91271000  0.79942000  0.04718000  1.0
  H  H35  1  0.08729000  0.20058000  0.95282000  1.0
  H  H36  1  0.72444000  0.56115000  0.31518000  1.0
  H  H37  1  0.27557000  0.43885000  0.68482000  1.0
  H  H38  1  0.91540000  0.65247000  0.31010000  1.0
  H  H39  1  0.08460000  0.34754000  0.68990000  1.0
  H  H40  1  0.42898000  0.65906000  0.01010000  1.0
  H  H41  1  0.57102000  0.34094000  0.98990000  1.0
  H  H42  1  0.44507000  0.55089000  0.08015000  1.0
  H  H43  1  0.55493000  0.44911000  0.91985000  1.0
  H  H44  1  0.56734000  0.59681000  0.99038000  1.0
  H  H45  1  0.43266000  0.40319000  0.00962000  1.0
  H  H46  1  0.54575000  0.89932000  0.08208000  1.0
  H  H47  1  0.45425000  0.10068000  0.91792000  1.0
  H  H48  1  0.48054000  0.72326000  0.33801000  1.0
  H  H49  1  0.51946000  0.27673000  0.66199000  1.0
  H  H50  1  0.31261000  0.67472000  0.15732000  1.0
  H  H51  1  0.68739000  0.32528000  0.84268000  1.0
  H  H52  1  0.65850000  0.66645000  0.64448000  1.0
  H  H53  1  0.34150000  0.33355000  0.35552000  1.0
  H  H54  1  0.54922000  0.73376000  0.83697000  1.0
  H  H55  1  0.45079000  0.26624000  0.16303000  1.0
  H  H56  1  0.50745000  0.91620000  0.58508000  1.0
  H  H57  1  0.49255000  0.08380000  0.41493000  1.0
  H  H58  1  0.54539000  0.66438000  0.49889000  1.0
  H  H59  1  0.45461000  0.33562000  0.50111000  1.0
  H  H60  1  0.43052000  0.59620000  0.48752000  1.0
  H  H61  1  0.56947000  0.40380000  0.51248000  1.0
  H  H62  1  0.55387000  0.55545000  0.56584000  1.0
  H  H63  1  0.44613000  0.44455000  0.43416000  1.0
  H  H64  1  0.26434000  0.55168000  0.83398000  1.0
  H  H65  1  0.73566000  0.44832000  0.16602000  1.0
  H  H66  1  0.02233000  0.60674000  0.85586000  1.0
  H  H67  1  0.97767000  0.39326000  0.14414000  1.0
  H  H68  1  0.87944000  0.69332000  0.73947000  1.0
  H  H69  1  0.12056000  0.30668000  0.26053000  1.0
  H  H70  1  0.96742000  0.72630000  0.59704000  1.0
  H  H71  1  0.03258000  0.27370000  0.40296000  1.0
  H  H72  1  0.09128000  0.72391000  0.48720000  1.0
  H  H73  1  0.90872000  0.27609000  0.51280000  1.0
  H  H74  1  0.23195000  0.67881000  0.44861000  1.0
  H  H75  1  0.76805000  0.32119000  0.55139000  1.0
  H  H76  1  0.31647000  0.90520000  0.32122000  1.0
  H  H77  1  0.68353000  0.09479000  0.67878000  1.0
  H  H78  1  0.23341000  0.82160000  0.31989000  1.0
  H  H79  1  0.76659000  0.17840000  0.68011000  1.0
  H  H80  1  0.40060000  0.78599000  0.43431000  1.0
  H  H81  1  0.59940000  0.21401000  0.56569000  1.0
  H  H82  1  0.27003000  0.83009000  0.47870000  1.0
  H  H83  1  0.72997000  0.16991000  0.52130000  1.0
  H  H84  1  0.84513000  0.77412000  0.36579000  1.0
  H  H85  1  0.15487000  0.22588000  0.63421000  1.0
  H  H86  1  0.03121000  0.75962000  0.34508000  1.0
  H  H87  1  0.96879000  0.24038000  0.65492000  1.0
  H  H88  1  0.92753000  0.82993000  0.26458000  1.0
  H  H89  1  0.07247000  0.17006000  0.73542000  1.0
  H  H90  1  0.76274000  0.06536000  0.38081000  1.0
  H  H91  1  0.23726000  0.93464000  0.61919000  1.0
  H  H92  1  0.93077000  0.14850000  0.40861000  1.0
  H  H93  1  0.06923000  0.85150000  0.59139000  1.0
  H  H94  1  0.18861000  0.11401000  0.41333000  1.0
  H  H95  1  0.81139000  0.88599000  0.58667000  1.0
  H  H96  1  0.29035000  0.99498000  0.39143000  1.0
  H  H97  1  0.70965000  0.00502000  0.60857000  1.0
  C  C98  1  0.18994000  0.78457000  0.83894000  1.0
  C  C99  1  0.81006000  0.21543000  0.16106000  1.0
  C  C100  1  0.10510000  0.85315000  0.84587000  1.0
  C  C101  1  0.89491000  0.14685000  0.15413000  1.0
  C  C102  1  0.03920000  0.96076000  0.86682000  1.0
  C  C103  1  0.96080000  0.03924000  0.13318000  1.0
  C  C104  1  0.03030000  0.02576000  0.88793000  1.0
  C  C105  1  0.96970000  0.97424000  0.11207000  1.0
  C  C106  1  0.89470000  0.05835000  0.89541000  1.0
  C  C107  1  0.10530000  0.94165000  0.10459000  1.0
  C  C108  1  0.77225000  0.02855000  0.88073000  1.0
  C  C109  1  0.22775000  0.97145000  0.11927000  1.0
  C  C110  1  0.77987000  0.96456000  0.85879000  1.0
  C  C111  1  0.22013000  0.03544000  0.14121000  1.0
  C  C112  1  0.91524000  0.93025000  0.85370000  1.0
  C  C113  1  0.08476000  0.06975000  0.14630000  1.0
  C  C114  1  0.87043000  0.80543000  0.83119000  1.0
  C  C115  1  0.12957000  0.19457000  0.16881000  1.0
  C  C116  1  0.82510000  0.73048000  0.91336000  1.0
  C  C117  1  0.17490000  0.26952000  0.08664000  1.0
  C  C118  1  0.70836000  0.75492000  0.96250000  1.0
  C  C119  1  0.29164000  0.24508000  0.03750000  1.0
  C  C120  1  0.92378000  0.73065000  0.17890000  1.0
  C  C121  1  0.07623000  0.26935000  0.82110000  1.0
  C  C122  1  0.87157000  0.74790000  0.10488000  1.0
  C  C123  1  0.12843000  0.25210000  0.89512000  1.0
  C  C124  1  0.76585000  0.69530000  0.10880000  1.0
  C  C125  1  0.23415000  0.30470000  0.89120000  1.0
  C  C126  1  0.76483000  0.61234000  0.25711000  1.0
  C  C127  1  0.23518000  0.38766000  0.74289000  1.0
  C  C128  1  0.87113000  0.66424000  0.25364000  1.0
  C  C129  1  0.12887000  0.33577000  0.74636000  1.0
  C  C130  1  0.71290000  0.62809000  0.18327000  1.0
  C  C131  1  0.28711000  0.37191000  0.81673000  1.0
  C  C132  1  0.60020000  0.62806000  0.08500000  1.0
  C  C133  1  0.39980000  0.37194000  0.91500000  1.0
  C  C134  1  0.50573000  0.60698000  0.03879000  1.0
  C  C135  1  0.49427000  0.39302000  0.96121000  1.0
  C  C136  1  0.39188000  0.82087000  0.02443000  1.0
  C  C137  1  0.60812000  0.17913000  0.97557000  1.0
  C  C138  1  0.42593000  0.78992000  0.11122000  1.0
  C  C139  1  0.57407000  0.21008000  0.88878000  1.0
  C  C140  1  0.50450000  0.84006000  0.13061000  1.0
  C  C141  1  0.49550000  0.15994000  0.86939000  1.0
  C  C142  1  0.52277000  0.81667000  0.21233000  1.0
  C  C143  1  0.47723000  0.18333000  0.78767000  1.0
  C  C144  1  0.58621000  0.87695000  0.23284000  1.0
  C  C145  1  0.41379000  0.12305000  0.76716000  1.0
  C  C146  1  0.46753000  0.74096000  0.27432000  1.0
  C  C147  1  0.53247000  0.25904000  0.72568000  1.0
  C  C148  1  0.39504000  0.68817000  0.25533000  1.0
  C  C149  1  0.60496000  0.31183000  0.74467000  1.0
  C  C150  1  0.37323000  0.71333000  0.17347000  1.0
  C  C151  1  0.62677000  0.28667000  0.82653000  1.0
  C  C152  1  0.33711000  0.60744000  0.32507000  1.0
  C  C153  1  0.66289000  0.39256000  0.67493000  1.0
  C  C154  1  0.64148000  0.60276000  0.81292000  1.0
  C  C155  1  0.35852000  0.39724000  0.18708000  1.0
  C  C156  1  0.61704000  0.71176000  0.66484000  1.0
  C  C157  1  0.38296000  0.28824000  0.33516000  1.0
  C  C158  1  0.60176000  0.68957000  0.74826000  1.0
  C  C159  1  0.39824000  0.31043000  0.25175000  1.0
  C  C160  1  0.55730000  0.75062000  0.77220000  1.0
  C  C161  1  0.44270000  0.24938000  0.22781000  1.0
  C  C162  1  0.52231000  0.83195000  0.71402000  1.0
  C  C163  1  0.47769000  0.16805000  0.28598000  1.0
  C  C164  1  0.53331000  0.85279000  0.63088000  1.0
  C  C165  1  0.46669000  0.14721000  0.36912000  1.0
  C  C166  1  0.58440000  0.79339000  0.60604000  1.0
  C  C167  1  0.41560000  0.20661000  0.39396000  1.0
  C  C168  1  0.61423000  0.81842000  0.51664000  1.0
  C  C169  1  0.38577000  0.18158000  0.48336000  1.0
  C  C170  1  0.47219000  0.89694000  0.73918000  1.0
  C  C171  1  0.52780000  0.10306000  0.26082000  1.0
  C  C172  1  0.48090000  0.60754000  0.53216000  1.0
  C  C173  1  0.51910000  0.39246000  0.46784000  1.0
  C  C174  1  0.37098000  0.61763000  0.59012000  1.0
  C  C175  1  0.62902000  0.38237000  0.40988000  1.0
  C  C176  1  0.25174000  0.60879000  0.70234000  1.0
  C  C177  1  0.74826000  0.39121000  0.29766000  1.0
  C  C178  1  0.20165000  0.59038000  0.78250000  1.0
  C  C179  1  0.79835000  0.40962000  0.21749000  1.0
  C  C180  1  0.06703000  0.62188000  0.79404000  1.0
  C  C181  1  0.93296000  0.37811000  0.20596000  1.0
  C  C182  1  0.98485000  0.67087000  0.72779000  1.0
  C  C183  1  0.01515000  0.32913000  0.27221000  1.0
  C  C184  1  0.03369000  0.69011000  0.64759000  1.0
  C  C185  1  0.96631000  0.30989000  0.35241000  1.0
  C  C186  1  0.16854000  0.65857000  0.63631000  1.0
  C  C187  1  0.83145000  0.34143000  0.36369000  1.0
  C  C188  1  0.20760000  0.71428000  0.48307000  1.0
  C  C189  1  0.79240000  0.28572000  0.51693000  1.0
  C  C190  1  0.23850000  0.85552000  0.35536000  1.0
  C  C191  1  0.76150000  0.14448000  0.64463000  1.0
  C  C192  1  0.28540000  0.79766000  0.44097000  1.0
  C  C193  1  0.71460000  0.20234000  0.55903000  1.0
  C  C194  1  0.94308000  0.80565000  0.32980000  1.0
  C  C195  1  0.05692000  0.19435000  0.67020000  1.0
  C  C196  1  0.97010000  0.87571000  0.34647000  1.0
  C  C197  1  0.02990000  0.12429000  0.65353000  1.0
  C  C198  1  0.93397000  0.98507000  0.36853000  1.0
  C  C199  1  0.06603000  0.01493000  0.63147000  1.0
  C  C200  1  0.87678000  0.05109000  0.38213000  1.0
  C  C201  1  0.12322000  0.94891000  0.61787000  1.0
  C  C202  1  0.97153000  0.09654000  0.39788000  1.0
  C  C203  1  0.02847000  0.90346000  0.60212000  1.0
  C  C204  1  0.11855000  0.07702000  0.40038000  1.0
  C  C205  1  0.88144000  0.92298000  0.59962000  1.0
  C  C206  1  0.17682000  0.01091000  0.38749000  1.0
  C  C207  1  0.82318000  0.98909000  0.61251000  1.0
  C  C208  1  0.08143000  0.96546000  0.37160000  1.0
  C  C209  1  0.91856000  0.03454000  0.62840000  1.0
  N  N210  1  0.60995000  0.58784000  0.16626000  1.0
  N  N211  1  0.39005000  0.41216000  0.83374000  1.0
  N  N212  1  0.69185000  0.69370000  0.04866000  1.0
  N  N213  1  0.30815000  0.30630000  0.95134000  1.0
  N  N214  1  0.96088000  0.86266000  0.84046000  1.0
  N  N215  1  0.03912000  0.13734000  0.15954000  1.0
  N  N216  1  0.15541000  0.91224000  0.85990000  1.0
  N  N217  1  0.84459000  0.08776000  0.14010000  1.0
  N  N218  1  0.86849000  0.92822000  0.35252000  1.0
  N  N219  1  0.13151000  0.07178000  0.64748000  1.0
  N  N220  1  0.10042000  0.89645000  0.35708000  1.0
  N  N221  1  0.89958000  0.10355000  0.64291000  1.0
  N  N222  1  0.24707000  0.66321000  0.56677000  1.0
  N  N223  1  0.75293000  0.33679000  0.43323000  1.0
  N  N224  1  0.37657000  0.58411000  0.67147000  1.0
  N  N225  1  0.62343000  0.41589000  0.32853000  1.0
  O  O226  1  0.35054000  0.53992000  0.31705000  1.0
  O  O227  1  0.64946000  0.46008000  0.68295000  1.0
  O  O228  1  0.27905000  0.60942000  0.38768000  1.0
  O  O229  1  0.72095000  0.39058000  0.61232000  1.0
  O  O230  1  0.32816000  0.77593000  0.00410000  1.0
  O  O231  1  0.67184000  0.22407000  0.99590000  1.0
  O  O232  1  0.43086000  0.89738000  0.97397000  1.0
  O  O233  1  0.56914000  0.10262000  0.02603000  1.0
  O  O234  1  0.63826000  0.94390000  0.17464000  1.0
  O  O235  1  0.36174000  0.05610000  0.82536000  1.0
  O  O236  1  0.57978000  0.85757000  0.30897000  1.0
  O  O237  1  0.42022000  0.14243000  0.69103000  1.0
  O  O238  1  0.64191000  0.54188000  0.79486000  1.0
  O  O239  1  0.35809000  0.45812000  0.20514000  1.0
  O  O240  1  0.67612000  0.59429000  0.87951000  1.0
  O  O241  1  0.32387000  0.40572000  0.12049000  1.0
  O  O242  1  0.56672000  0.89227000  0.46648000  1.0
  O  O243  1  0.43328000  0.10773000  0.53352000  1.0
  O  O244  1  0.68491000  0.77071000  0.49411000  1.0
  O  O245  1  0.31509000  0.22930000  0.50589000  1.0
  O  O246  1  0.40706000  0.96033000  0.68796000  1.0
  O  O247  1  0.59294000  0.03967000  0.31204000  1.0
  O  O248  1  0.49494000  0.88409000  0.81122000  1.0
  O  O249  1  0.50506000  0.11591000  0.18878000  1.0
