# generated using pymatgen
data_Zn2H13C24N2O8F
_symmetry_space_group_name_H-M   'P 1'
_cell_length_a   9.74554000
_cell_length_b   11.08450000
_cell_length_c   14.14010000
_cell_angle_alpha   88.92630000
_cell_angle_beta   80.61790000
_cell_angle_gamma   88.84990000
_symmetry_Int_Tables_number   1
_chemical_formula_structural   Zn2H13C24N2O8F
_chemical_formula_sum   'Zn2 H13 C24 N2 O8 F1'
_cell_volume   1506.55469391
_cell_formula_units_Z   1
loop_
 _symmetry_equiv_pos_site_id
 _symmetry_equiv_pos_as_xyz
  1  'x, y, z'
loop_
 _atom_site_type_symbol
 _atom_site_label
 _atom_site_symmetry_multiplicity
 _atom_site_fract_x
 _atom_site_fract_y
 _atom_site_fract_z
 _atom_site_occupancy
  Zn  Zn0  1  0.63563000  0.50171000  0.49750000  1.0
  Zn  Zn1  1  0.34927000  0.50673000  0.51198000  1.0
  H  H2  1  0.65640000  0.50714000  0.98177000  1.0
  H  H3  1  0.82974000  0.40904000  0.62931000  1.0
  H  H4  1  0.90350000  0.70577000  0.33825000  1.0
  H  H5  1  0.18504000  0.57016000  0.28411000  1.0
  H  H6  1  0.16446000  0.71094000  0.34556000  1.0
  H  H7  1  0.33586000  0.49516000  0.02837000  1.0
  H  H8  1  0.27245000  0.89188000  0.55132000  1.0
  H  H9  1  0.26864000  0.11605000  0.55472000  1.0
  H  H10  1  0.79958000  0.12286000  0.38641000  1.0
  H  H11  1  0.82545000  0.11482000  0.50835000  1.0
  H  H12  1  0.80212000  0.89688000  0.38001000  1.0
  H  H13  1  0.83024000  0.88745000  0.50187000  1.0
  H  H14  1  0.08634000  0.41669000  0.63848000  1.0
  C  C15  1  0.49442000  0.73979000  0.50350000  1.0
  C  C16  1  0.53983000  0.50348000  0.21333000  1.0
  C  C17  1  0.61461000  0.94139000  0.48507000  1.0
  C  C18  1  0.49387000  0.87419000  0.50691000  1.0
  C  C19  1  0.36903000  0.94127000  0.53270000  1.0
  C  C20  1  0.36699000  0.06707000  0.53491000  1.0
  C  C21  1  0.48975000  0.13434000  0.51183000  1.0
  C  C22  1  0.61256000  0.06735000  0.48769000  1.0
  C  C23  1  0.76822000  0.07636000  0.45560000  1.0
  C  C24  1  0.77060000  0.93384000  0.45206000  1.0
  C  C25  1  0.08300000  0.55286000  0.43429000  1.0
  C  C26  1  0.52666000  0.50307000  0.31661000  1.0
  C  C27  1  0.04499000  0.45502000  0.57712000  1.0
  C  C28  1  0.90313000  0.44963000  0.57166000  1.0
  C  C29  1  0.94221000  0.54618000  0.42846000  1.0
  C  C30  1  0.95928000  0.61835000  0.33410000  1.0
  C  C31  1  0.11996000  0.62153000  0.34072000  1.0
  C  C32  1  0.48736000  0.26885000  0.51122000  1.0
  C  C33  1  0.45911000  0.50291000  0.69360000  1.0
  C  C34  1  0.44822000  0.50066000  0.79675000  1.0
  C  C35  1  0.43830000  0.49901000  0.98333000  1.0
  C  C36  1  0.55365000  0.50338000  0.02642000  1.0
  C  C37  1  0.54637000  0.50349000  0.12636000  1.0
  C  C38  1  0.44428000  0.49965000  0.88352000  1.0
  N  N39  1  0.13794000  0.50894000  0.50829000  1.0
  N  N40  1  0.84869000  0.49681000  0.49635000  1.0
  O  O41  1  0.61270000  0.68614000  0.49608000  1.0
  O  O42  1  0.37737000  0.68852000  0.50809000  1.0
  O  O43  1  0.63870000  0.50335000  0.35181000  1.0
  O  O44  1  0.40279000  0.50247000  0.36297000  1.0
  O  O45  1  0.60520000  0.31970000  0.50276000  1.0
  O  O46  1  0.36946000  0.32291000  0.51809000  1.0
  O  O47  1  0.58252000  0.50184000  0.64647000  1.0
  O  O48  1  0.34599000  0.50619000  0.65932000  1.0
  F  F49  1  0.93110000  0.55775000  0.25464000  1.0
