# generated using pymatgen
data_Al2H6C18(SO4)3
_symmetry_space_group_name_H-M   'P 1'
_cell_length_a   3.97482000
_cell_length_b   16.14745000
_cell_length_c   16.14730000
_cell_angle_alpha   119.99907813
_cell_angle_beta   90.00180000
_cell_angle_gamma   90.00170005
_symmetry_Int_Tables_number   1
_chemical_formula_structural   Al2H6C18(SO4)3
_chemical_formula_sum   'Al2 H6 C18 S3 O12'
_cell_volume   897.54450853
_cell_formula_units_Z   1
loop_
 _symmetry_equiv_pos_site_id
 _symmetry_equiv_pos_as_xyz
  1  'x, y, z'
loop_
 _atom_site_type_symbol
 _atom_site_label
 _atom_site_symmetry_multiplicity
 _atom_site_fract_x
 _atom_site_fract_y
 _atom_site_fract_z
 _atom_site_occupancy
  Al  Al0  1  0.05387000  0.50000000  0.00000000  1.0
  Al  Al1  1  0.94608000  0.83334000  0.66668000  1.0
  H  H2  1  0.45294000  0.52967000  0.42766000  1.0
  H  H3  1  0.54733000  0.43536000  0.23902000  1.0
  H  H4  1  0.45276000  0.89797000  0.97032000  1.0
  H  H5  1  0.54709000  0.80366000  0.06466000  1.0
  H  H6  1  0.45294000  0.07233000  0.60200000  1.0
  H  H7  1  0.54727000  0.26098000  0.69633000  1.0
  C  C8  1  0.55143000  0.35655000  0.90133000  1.0
  C  C9  1  0.55145000  0.54480000  0.14346000  1.0
  C  C10  1  0.55145000  0.59866000  0.95520000  1.0
  C  C11  1  0.44850000  0.73468000  0.52322000  1.0
  C  C12  1  0.44857000  0.97679000  0.71146000  1.0
  C  C13  1  0.44852000  0.78854000  0.76533000  1.0
  C  C14  1  0.46226000  0.66057000  0.42090000  1.0
  C  C15  1  0.47307000  0.56265000  0.38334000  1.0
  C  C16  1  0.52707000  0.51266000  0.28334000  1.0
  C  C17  1  0.53769000  0.57302000  0.24578000  1.0
  C  C18  1  0.46237000  0.76032000  0.83942000  1.0
  C  C19  1  0.47297000  0.82068000  0.93735000  1.0
  C  C20  1  0.52697000  0.77070000  0.98736000  1.0
  C  C21  1  0.53772000  0.67277000  0.92699000  1.0
  C  C22  1  0.46234000  0.07910000  0.73967000  1.0
  C  C23  1  0.47307000  0.11667000  0.67932000  1.0
  C  C24  1  0.52708000  0.21665000  0.72930000  1.0
  C  C25  1  0.53769000  0.25423000  0.82724000  1.0
  S  S26  1  0.49992000  0.69084000  0.33334000  1.0
  S  S27  1  0.50010000  0.64250000  0.80915000  1.0
  S  S28  1  0.49999000  0.16666000  0.85749000  1.0
  O  O29  1  0.79005000  0.60444000  0.01061000  1.0
  O  O30  1  0.79002000  0.40617000  0.89554000  1.0
  O  O31  1  0.79003000  0.48938000  0.09383000  1.0
  O  O32  1  0.32157000  0.53476000  0.92294000  1.0
  O  O33  1  0.32156000  0.57706000  0.11182000  1.0
  O  O34  1  0.32156000  0.38817000  0.96523000  1.0
  O  O35  1  0.20995000  0.84395000  0.77113000  1.0
  O  O36  1  0.20989000  0.72889000  0.57284000  1.0
  O  O37  1  0.20991000  0.92717000  0.65606000  1.0
  O  O38  1  0.67837000  0.75627000  0.70142000  1.0
  O  O39  1  0.67842000  0.94516000  0.74375000  1.0
  O  O40  1  0.67835000  0.79859000  0.55487000  1.0
