# generated using pymatgen
data_Zn4H5C24S4ClO13F2
_symmetry_space_group_name_H-M   'P 1'
_cell_length_a   19.67950000
_cell_length_b   19.70830000
_cell_length_c   33.39800000
_cell_angle_alpha   79.05030000
_cell_angle_beta   79.13290000
_cell_angle_gamma   63.90880000
_symmetry_Int_Tables_number   1
_chemical_formula_structural   Zn4H5C24S4ClO13F2
_chemical_formula_sum   'Zn16 H20 C96 S16 Cl4 O52 F8'
_cell_volume   11340.32960059
_cell_formula_units_Z   4
loop_
 _symmetry_equiv_pos_site_id
 _symmetry_equiv_pos_as_xyz
  1  'x, y, z'
loop_
 _atom_site_type_symbol
 _atom_site_label
 _atom_site_symmetry_multiplicity
 _atom_site_fract_x
 _atom_site_fract_y
 _atom_site_fract_z
 _atom_site_occupancy
  Zn  Zn0  1  0.05488000  0.40016000  0.47801000  1.0
  Zn  Zn1  1  0.98485000  0.48376000  0.56102000  1.0
  Zn  Zn2  1  0.05883000  0.56019000  0.48255000  1.0
  Zn  Zn3  1  0.90125000  0.55510000  0.47965000  1.0
  Zn  Zn4  1  0.69466000  0.34901000  0.27175000  1.0
  Zn  Zn5  1  0.68871000  0.18953000  0.26624000  1.0
  Zn  Zn6  1  0.76854000  0.26643000  0.19062000  1.0
  Zn  Zn7  1  0.84822000  0.19464000  0.27269000  1.0
  Zn  Zn8  1  0.26701000  0.76650000  0.68962000  1.0
  Zn  Zn9  1  0.34945000  0.69605000  0.77227000  1.0
  Zn  Zn10  1  0.19356000  0.84755000  0.77124000  1.0
  Zn  Zn11  1  0.19088000  0.68832000  0.76658000  1.0
  Zn  Zn12  1  0.56061000  0.05988000  0.98330000  1.0
  Zn  Zn13  1  0.40132000  0.05509000  0.97821000  1.0
  Zn  Zn14  1  0.55494000  0.90129000  0.97815000  1.0
  Zn  Zn15  1  0.48384000  0.98294000  0.06037000  1.0
  H  H16  1  0.95485000  0.24862000  0.35168000  1.0
  H  H17  1  0.74730000  0.45363000  0.35031000  1.0
  H  H18  1  0.99973000  0.29944000  0.39959000  1.0
  H  H19  1  0.09689000  0.59679000  0.69988000  1.0
  H  H20  1  0.20157000  0.70141000  0.59800000  1.0
  H  H21  1  0.05057000  0.55081000  0.65029000  1.0
  H  H22  1  0.46329000  0.24027000  0.34105000  1.0
  H  H23  1  0.47936000  0.70258000  0.60142000  1.0
  H  H24  1  0.20272000  0.97917000  0.60164000  1.0
  H  H25  1  0.94832000  0.97020000  0.34794000  1.0
  H  H26  1  0.54996000  0.05001000  0.15346000  1.0
  H  H27  1  0.65176000  0.15194000  0.04880000  1.0
  H  H28  1  0.59951000  0.09946000  0.19968000  1.0
  H  H29  1  0.54755000  0.77036000  0.14829000  1.0
  H  H30  1  0.16292000  0.14128000  0.04062000  1.0
  H  H31  1  0.50148000  0.79503000  0.89837000  1.0
  H  H32  1  0.29664000  0.00278000  0.89965000  1.0
  H  H33  1  0.45015000  0.75082000  0.85044000  1.0
  H  H34  1  0.30127000  0.27973000  0.90211000  1.0
  H  H35  1  0.78689000  0.00954000  0.90898000  1.0
  C  C36  1  0.06146000  0.31637000  0.56170000  1.0
  C  C37  1  0.06878000  0.56974000  0.56947000  1.0
  C  C38  1  0.18325000  0.43974000  0.43857000  1.0
  C  C39  1  0.93712000  0.68376000  0.43878000  1.0
  C  C40  1  0.93174000  0.42966000  0.43088000  1.0
  C  C41  1  0.81685000  0.56120000  0.56214000  1.0
  C  C42  1  0.56571000  0.31147000  0.31127000  1.0
  C  C43  1  0.68057000  0.18006000  0.18123000  1.0
  C  C44  1  0.68967000  0.43322000  0.18837000  1.0
  C  C45  1  0.93491000  0.18791000  0.18978000  1.0
  C  C46  1  0.81950000  0.31929000  0.31954000  1.0
  C  C47  1  0.81098000  0.06595000  0.31153000  1.0
  C  C48  1  0.43373000  0.68947000  0.68832000  1.0
  C  C49  1  0.31962000  0.81909000  0.81918000  1.0
  C  C50  1  0.18872000  0.93350000  0.68843000  1.0
  C  C51  1  0.06604000  0.80978000  0.81104000  1.0
  C  C52  1  0.18089000  0.68038000  0.68059000  1.0
  C  C53  1  0.31265000  0.56610000  0.81130000  1.0
  C  C54  1  0.43852000  0.18385000  0.93869000  1.0
  C  C55  1  0.43089000  0.93028000  0.93062000  1.0
  C  C56  1  0.68404000  0.93870000  0.93868000  1.0
  C  C57  1  0.56144000  0.81594000  0.06144000  1.0
  C  C58  1  0.56932000  0.06906000  0.06964000  1.0
  C  C59  1  0.31610000  0.06138000  0.06126000  1.0
  C  C60  1  0.89978000  0.40454000  0.40206000  1.0
  C  C61  1  0.84816000  0.34820000  0.34804000  1.0
  C  C62  1  0.82777000  0.44815000  0.38773000  1.0
  C  C63  1  0.91969000  0.30432000  0.36190000  1.0
  C  C64  1  0.80285000  0.41964000  0.36102000  1.0
  C  C65  1  0.94438000  0.33265000  0.38845000  1.0
  C  C66  1  0.09935000  0.59976000  0.59648000  1.0
  C  C67  1  0.15215000  0.65204000  0.65186000  1.0
  C  C68  1  0.14261000  0.64278000  0.58185000  1.0
  C  C69  1  0.10944000  0.60940000  0.66687000  1.0
  C  C70  1  0.16837000  0.66838000  0.60957000  1.0
  C  C71  1  0.08383000  0.58402000  0.63930000  1.0
  C  C72  1  0.30426000  0.45362000  0.40095000  1.0
  C  C73  1  0.44621000  0.29700000  0.34900000  1.0
  C  C74  1  0.25809000  0.41495000  0.41392000  1.0
  C  C75  1  0.49103000  0.33683000  0.33641000  1.0
  C  C76  1  0.37809000  0.33992000  0.37261000  1.0
  C  C77  1  0.37283000  0.41172000  0.37738000  1.0
  C  C78  1  0.72536000  0.57626000  0.62939000  1.0
  C  C79  1  0.52411000  0.67361000  0.62141000  1.0
  C  C80  1  0.74230000  0.58555000  0.58700000  1.0
  C  C81  1  0.50888000  0.66379000  0.66375000  1.0
  C  C82  1  0.60334000  0.64150000  0.60904000  1.0
  C  C83  1  0.64646000  0.60786000  0.64250000  1.0
  C  C84  1  0.07674000  0.22500000  0.62910000  1.0
  C  C85  1  0.17382000  0.02392000  0.62153000  1.0
  C  C86  1  0.08600000  0.24184000  0.58668000  1.0
  C  C87  1  0.16373000  0.00869000  0.66387000  1.0
  C  C88  1  0.14191000  0.10303000  0.60904000  1.0
  C  C89  1  0.10824000  0.14620000  0.64239000  1.0
  C  C90  1  0.84394000  0.80086000  0.39726000  1.0
  C  C91  1  0.90399000  0.94977000  0.35250000  1.0
  C  C92  1  0.91222000  0.75819000  0.41380000  1.0
  C  C93  1  0.83538000  0.99107000  0.33640000  1.0
  C  C94  1  0.90688000  0.88020000  0.37464000  1.0
  C  C95  1  0.83995000  0.87047000  0.37484000  1.0
  C  C96  1  0.65338000  0.15325000  0.15086000  1.0
  C  C97  1  0.59796000  0.09794000  0.09818000  1.0
  C  C98  1  0.66791000  0.16794000  0.10768000  1.0
  C  C99  1  0.58297000  0.08299000  0.14089000  1.0
  C  C100  1  0.64020000  0.14026000  0.08194000  1.0
  C  C101  1  0.61051000  0.11050000  0.16644000  1.0
  C  C102  1  0.67364000  0.52443000  0.12088000  1.0
  C  C103  1  0.57648000  0.72559000  0.12840000  1.0
  C  C104  1  0.66446000  0.50766000  0.16333000  1.0
  C  C105  1  0.58652000  0.74079000  0.08606000  1.0
  C  C106  1  0.60835000  0.64645000  0.14092000  1.0
  C  C107  1  0.64203000  0.60324000  0.10757000  1.0
  C  C108  1  0.08164000  0.12404000  0.17763000  1.0
  C  C109  1  0.17048000  0.12474000  0.07300000  1.0
  C  C110  1  0.00955000  0.16291000  0.16492000  1.0
  C  C111  1  0.24162000  0.08598000  0.08656000  1.0
  C  C112  1  0.11220000  0.13851000  0.10642000  1.0
  C  C113  1  0.14078000  0.10965000  0.14473000  1.0
  C  C114  1  0.34510000  0.85091000  0.84790000  1.0
  C  C115  1  0.40203000  0.90189000  0.90196000  1.0
  C  C116  1  0.30172000  0.92279000  0.86219000  1.0
  C  C117  1  0.44572000  0.83045000  0.88814000  1.0
  C  C118  1  0.33051000  0.94739000  0.88890000  1.0
  C  C119  1  0.41711000  0.80608000  0.86155000  1.0
  C  C120  1  0.40581000  0.44892000  0.85286000  1.0
  C  C121  1  0.34566000  0.30005000  0.89759000  1.0
  C  C122  1  0.33762000  0.49155000  0.83624000  1.0
  C  C123  1  0.41420000  0.25869000  0.91377000  1.0
  C  C124  1  0.34298000  0.36946000  0.87531000  1.0
  C  C125  1  0.40988000  0.37919000  0.87521000  1.0
  C  C126  1  0.94529000  0.79593000  0.84914000  1.0
  C  C127  1  0.80383000  0.95277000  0.90112000  1.0
  C  C128  1  0.99152000  0.83447000  0.83600000  1.0
  C  C129  1  0.75883000  0.91311000  0.91373000  1.0
  C  C130  1  0.87190000  0.90964000  0.87754000  1.0
  C  C131  1  0.87691000  0.83790000  0.87282000  1.0
  S  S132  1  0.29930000  0.32543000  0.39707000  1.0
  S  S133  1  0.45121000  0.42646000  0.35301000  1.0
  S  S134  1  0.66022000  0.63372000  0.56251000  1.0
  S  S135  1  0.59004000  0.61559000  0.68895000  1.0
  S  S136  1  0.13418000  0.15973000  0.56242000  1.0
  S  S137  1  0.11562000  0.08985000  0.68892000  1.0
  S  S138  1  0.97297000  0.80396000  0.40175000  1.0
  S  S139  1  0.77383000  0.94627000  0.34791000  1.0
  S  S140  1  0.61605000  0.58981000  0.18756000  1.0
  S  S141  1  0.63457000  0.65958000  0.06103000  1.0
  S  S142  1  0.01394000  0.18241000  0.11162000  1.0
  S  S143  1  0.23867000  0.06582000  0.13977000  1.0
  S  S144  1  0.27700000  0.44563000  0.84813000  1.0
  S  S145  1  0.47586000  0.30339000  0.90223000  1.0
  S  S146  1  0.95071000  0.92395000  0.85292000  1.0
  S  S147  1  0.79843000  0.82342000  0.89722000  1.0
  Cl  Cl148  1  0.76513000  0.53735000  0.40089000  1.0
  Cl  Cl149  1  0.16769000  0.66727000  0.53057000  1.0
  Cl  Cl150  1  0.71892000  0.21941000  0.08289000  1.0
  Cl  Cl151  1  0.21244000  0.98567000  0.84895000  1.0
  O  O152  1  0.00066000  0.49817000  0.50055000  1.0
  O  O153  1  0.07786000  0.31518000  0.52276000  1.0
  O  O154  1  0.03158000  0.53092000  0.58753000  1.0
  O  O155  1  0.15505000  0.50627000  0.44948000  1.0
  O  O156  1  0.02652000  0.37471000  0.58088000  1.0
  O  O157  1  0.15339000  0.39182000  0.44667000  1.0
  O  O158  1  0.08182000  0.58501000  0.53089000  1.0
  O  O159  1  0.00422000  0.65684000  0.44947000  1.0
  O  O160  1  0.89081000  0.49409000  0.44337000  1.0
  O  O161  1  0.89041000  0.65288000  0.44761000  1.0
  O  O162  1  0.99808000  0.38389000  0.44071000  1.0
  O  O163  1  0.87558000  0.52622000  0.58114000  1.0
  O  O164  1  0.81533000  0.57792000  0.52322000  1.0
  O  O165  1  0.74945000  0.24955000  0.25085000  1.0
  O  O166  1  0.59647000  0.35859000  0.30319000  1.0
  O  O167  1  0.66176000  0.16279000  0.21932000  1.0
  O  O168  1  0.72609000  0.37469000  0.16939000  1.0
  O  O169  1  0.59273000  0.24532000  0.29988000  1.0
  O  O170  1  0.67251000  0.43436000  0.22730000  1.0
  O  O171  1  0.72007000  0.21765000  0.16708000  1.0
  O  O172  1  0.87719000  0.22376000  0.16966000  1.0
  O  O173  1  0.86298000  0.25327000  0.30906000  1.0
  O  O174  1  0.93403000  0.17206000  0.22865000  1.0
  O  O175  1  0.75410000  0.36297000  0.30811000  1.0
  O  O176  1  0.74461000  0.09344000  0.29990000  1.0
  O  O177  1  0.85816000  0.09640000  0.30387000  1.0
  O  O178  1  0.25092000  0.74886000  0.74986000  1.0
  O  O179  1  0.37576000  0.72493000  0.66860000  1.0
  O  O180  1  0.36602000  0.75352000  0.80879000  1.0
  O  O181  1  0.17176000  0.93337000  0.72737000  1.0
  O  O182  1  0.43374000  0.67378000  0.72731000  1.0
  O  O183  1  0.22473000  0.87559000  0.66884000  1.0
  O  O184  1  0.25430000  0.85924000  0.80736000  1.0
  O  O185  1  0.09559000  0.85801000  0.80296000  1.0
  O  O186  1  0.16509000  0.66328000  0.71892000  1.0
  O  O187  1  0.09444000  0.74354000  0.79976000  1.0
  O  O188  1  0.21879000  0.71927000  0.66434000  1.0
  O  O189  1  0.35871000  0.59775000  0.80332000  1.0
  O  O190  1  0.24616000  0.59220000  0.79991000  1.0
  O  O191  1  0.50009000  0.99982000  0.00005000  1.0
  O  O192  1  0.50521000  0.15618000  0.94997000  1.0
  O  O193  1  0.38745000  0.99588000  0.94173000  1.0
  O  O194  1  0.65307000  0.89177000  0.94674000  1.0
  O  O195  1  0.39128000  0.15342000  0.94678000  1.0
  O  O196  1  0.65694000  0.00498000  0.94997000  1.0
  O  O197  1  0.49660000  0.88647000  0.94156000  1.0
  O  O198  1  0.57755000  0.81598000  0.02247000  1.0
  O  O199  1  0.53104000  0.03069000  0.08614000  1.0
  O  O200  1  0.52609000  0.87391000  0.08103000  1.0
  O  O201  1  0.58557000  0.08513000  0.03122000  1.0
  O  O202  1  0.31567000  0.07793000  0.02241000  1.0
  O  O203  1  0.37456000  0.02550000  0.08074000  1.0
  F  F204  1  0.28688000  0.52371000  0.40951000  1.0
  F  F205  1  0.77766000  0.54118000  0.65588000  1.0
  F  F206  1  0.04164000  0.27729000  0.65549000  1.0
  F  F207  1  0.78668000  0.77937000  0.40167000  1.0
  F  F208  1  0.70879000  0.47210000  0.09453000  1.0
  F  F209  1  0.09530000  0.10184000  0.21703000  1.0
  F  F210  1  0.46302000  0.47049000  0.84855000  1.0
  F  F211  1  0.96256000  0.72586000  0.84057000  1.0
