# generated using pymatgen
data_NiH16C22N3O5
_symmetry_space_group_name_H-M   'P 1'
_cell_length_a   11.69520000
_cell_length_b   11.69520000
_cell_length_c   16.72730000
_cell_angle_alpha   76.79490000
_cell_angle_beta   76.79510000
_cell_angle_gamma   84.95190000
_symmetry_Int_Tables_number   1
_chemical_formula_structural   NiH16C22N3O5
_chemical_formula_sum   'Ni4 H64 C88 N12 O20'
_cell_volume   2166.98301471
_cell_formula_units_Z   4
loop_
 _symmetry_equiv_pos_site_id
 _symmetry_equiv_pos_as_xyz
  1  'x, y, z'
loop_
 _atom_site_type_symbol
 _atom_site_label
 _atom_site_symmetry_multiplicity
 _atom_site_fract_x
 _atom_site_fract_y
 _atom_site_fract_z
 _atom_site_occupancy
  Ni  Ni0  1  0.56191000  0.93509000  0.85377000  1.0
  Ni  Ni1  1  0.06491000  0.43809000  0.64623000  1.0
  Ni  Ni2  1  0.43809000  0.06491000  0.14623000  1.0
  Ni  Ni3  1  0.93509000  0.56190000  0.35377000  1.0
  H  H4  1  0.76798000  0.30386000  0.59219000  1.0
  H  H5  1  0.69613000  0.23202000  0.90781000  1.0
  H  H6  1  0.23202000  0.69613000  0.40781000  1.0
  H  H7  1  0.30387000  0.76798000  0.09219000  1.0
  H  H8  1  0.92565000  0.15237000  0.38065000  1.0
  H  H9  1  0.84763000  0.07435000  0.11935000  1.0
  H  H10  1  0.07435000  0.84763000  0.61935000  1.0
  H  H11  1  0.15237000  0.92565000  0.88065000  1.0
  H  H12  1  0.73804000  0.93774000  0.61340000  1.0
  H  H13  1  0.06226000  0.26195000  0.88659000  1.0
  H  H14  1  0.26195000  0.06226000  0.38659000  1.0
  H  H15  1  0.93774000  0.73805000  0.11341000  1.0
  H  H16  1  0.75552000  0.80519000  0.56359000  1.0
  H  H17  1  0.19481000  0.24448000  0.93641000  1.0
  H  H18  1  0.24448000  0.19481000  0.43641000  1.0
  H  H19  1  0.80519000  0.75552000  0.06359000  1.0
  H  H20  1  0.80537000  0.62884000  0.50463000  1.0
  H  H21  1  0.37116000  0.19464000  0.99537000  1.0
  H  H22  1  0.19464000  0.37116000  0.49537000  1.0
  H  H23  1  0.62884000  0.80537000  0.00463000  1.0
  H  H24  1  0.02732000  0.81007000  0.29315000  1.0
  H  H25  1  0.18993000  0.97268000  0.20685000  1.0
  H  H26  1  0.97268000  0.18993000  0.70685000  1.0
  H  H27  1  0.81007000  0.02732000  0.79315000  1.0
  H  H28  1  0.98911000  0.99638000  0.34294000  1.0
  H  H29  1  0.00362000  0.01089000  0.15706000  1.0
  H  H30  1  0.01089000  0.00362000  0.65706000  1.0
  H  H31  1  0.99638000  0.98911000  0.84294000  1.0
  H  H32  1  0.76522000  0.71905000  0.84332000  1.0
  H  H33  1  0.28094000  0.23478000  0.65669000  1.0
  H  H34  1  0.23479000  0.28094000  0.15668000  1.0
  H  H35  1  0.71906000  0.76522000  0.34331000  1.0
  H  H36  1  0.77567000  0.59004000  0.72199000  1.0
  H  H37  1  0.40996000  0.22433000  0.77802000  1.0
  H  H38  1  0.22433000  0.40996000  0.27801000  1.0
  H  H39  1  0.59004000  0.77567000  0.22198000  1.0
  H  H40  1  0.45003000  0.78485000  0.75601000  1.0
  H  H41  1  0.21516000  0.54997000  0.74399000  1.0
  H  H42  1  0.54997000  0.21516000  0.24399000  1.0
  H  H43  1  0.78484000  0.45003000  0.25601000  1.0
  H  H44  1  0.47836000  0.78187000  0.60517000  1.0
  H  H45  1  0.21814000  0.52164000  0.89483000  1.0
  H  H46  1  0.52164000  0.21814000  0.39483000  1.0
  H  H47  1  0.78187000  0.47837000  0.10517000  1.0
  H  H48  1  0.42782000  0.69739000  0.49754000  1.0
  H  H49  1  0.30261000  0.57218000  0.00246000  1.0
  H  H50  1  0.57218000  0.30261000  0.50246000  1.0
  H  H51  1  0.69739000  0.42782000  0.99754000  1.0
  H  H52  1  0.60165000  0.36921000  0.59177000  1.0
  H  H53  1  0.63079000  0.39835000  0.90823000  1.0
  H  H54  1  0.39835000  0.63079000  0.40823000  1.0
  H  H55  1  0.36921000  0.60164000  0.09177000  1.0
  H  H56  1  0.65477000  0.45501000  0.69677000  1.0
  H  H57  1  0.54499000  0.34523000  0.80323000  1.0
  H  H58  1  0.34523000  0.54499000  0.30323000  1.0
  H  H59  1  0.45501000  0.65477000  0.19676000  1.0
  H  H60  1  0.54725000  0.11255000  0.92891000  1.0
  H  H61  1  0.88745000  0.45276000  0.57109000  1.0
  H  H62  1  0.45275000  0.88745000  0.07109000  1.0
  H  H63  1  0.11255000  0.54725000  0.42891000  1.0
  H  H64  1  0.57551000  0.14986000  0.82546000  1.0
  H  H65  1  0.85014000  0.42449000  0.67454000  1.0
  H  H66  1  0.42449000  0.85014000  0.17454000  1.0
  H  H67  1  0.14986000  0.57551000  0.32546000  1.0
  C  C68  1  0.66829000  0.10613000  0.69702000  1.0
  C  C69  1  0.89387000  0.33171000  0.80298000  1.0
  C  C70  1  0.33171000  0.89387000  0.30298000  1.0
  C  C71  1  0.10613000  0.66829000  0.19702000  1.0
  C  C72  1  0.74301000  0.11923000  0.60955000  1.0
  C  C73  1  0.88077000  0.25699000  0.89045000  1.0
  C  C74  1  0.25699000  0.88077000  0.39045000  1.0
  C  C75  1  0.11923000  0.74301000  0.10955000  1.0
  C  C76  1  0.78590000  0.22772000  0.56370000  1.0
  C  C77  1  0.77228000  0.21410000  0.93630000  1.0
  C  C78  1  0.21410000  0.77228000  0.43630000  1.0
  C  C79  1  0.22772000  0.78590000  0.06370000  1.0
  C  C80  1  0.85035000  0.23854000  0.48105000  1.0
  C  C81  1  0.76146000  0.14965000  0.01895000  1.0
  C  C82  1  0.14964000  0.76146000  0.51895000  1.0
  C  C83  1  0.23854000  0.85035000  0.98105000  1.0
  C  C84  1  0.87607000  0.13951000  0.44543000  1.0
  C  C85  1  0.86049000  0.12392000  0.05457000  1.0
  C  C86  1  0.12392000  0.86049000  0.55457000  1.0
  C  C87  1  0.13951000  0.87608000  0.94543000  1.0
  C  C88  1  0.83830000  0.02824000  0.49223000  1.0
  C  C89  1  0.97176000  0.16170000  0.00777000  1.0
  C  C90  1  0.16170000  0.97176000  0.50777000  1.0
  C  C91  1  0.02824000  0.83830000  0.99223000  1.0
  C  C92  1  0.77071000  0.02080000  0.57403000  1.0
  C  C93  1  0.97920000  0.22929000  0.92597000  1.0
  C  C94  1  0.22929000  0.97920000  0.42597000  1.0
  C  C95  1  0.02080000  0.77071000  0.07403000  1.0
  C  C96  1  0.88653000  0.35748000  0.43089000  1.0
  C  C97  1  0.64252000  0.11347000  0.06911000  1.0
  C  C98  1  0.11347000  0.64252000  0.56911000  1.0
  C  C99  1  0.35748000  0.88653000  0.93089000  1.0
  C  C100  1  0.86657000  0.92035000  0.45845000  1.0
  C  C101  1  0.07964000  0.13343000  0.04155000  1.0
  C  C102  1  0.13343000  0.07964000  0.54155000  1.0
  C  C103  1  0.92036000  0.86657000  0.95845000  1.0
  C  C104  1  0.81675000  0.81280000  0.50320000  1.0
  C  C105  1  0.18720000  0.18325000  0.99680000  1.0
  C  C106  1  0.18325000  0.18720000  0.49680000  1.0
  C  C107  1  0.81280000  0.81675000  0.00320000  1.0
  C  C108  1  0.84390000  0.71240000  0.47095000  1.0
  C  C109  1  0.28760000  0.15610000  0.02905000  1.0
  C  C110  1  0.15610000  0.28760000  0.52905000  1.0
  C  C111  1  0.71240000  0.84390000  0.97095000  1.0
  C  C112  1  0.96748000  0.81385000  0.35288000  1.0
  C  C113  1  0.18615000  0.03252000  0.14712000  1.0
  C  C114  1  0.03252000  0.18615000  0.64712000  1.0
  C  C115  1  0.81385000  0.96748000  0.85288000  1.0
  C  C116  1  0.94450000  0.91799000  0.38119000  1.0
  C  C117  1  0.08201000  0.05550000  0.11881000  1.0
  C  C118  1  0.05550000  0.08201000  0.61881000  1.0
  C  C119  1  0.91799000  0.94450000  0.88119000  1.0
  C  C120  1  0.70032000  0.71315000  0.80759000  1.0
  C  C121  1  0.28685000  0.29968000  0.69241000  1.0
  C  C122  1  0.29968000  0.28685000  0.19241000  1.0
  C  C123  1  0.71315000  0.70033000  0.30759000  1.0
  C  C124  1  0.70705000  0.64808000  0.74806000  1.0
  C  C125  1  0.35193000  0.29294000  0.75195000  1.0
  C  C126  1  0.29295000  0.35193000  0.25194000  1.0
  C  C127  1  0.64808000  0.70706000  0.24805000  1.0
  C  C128  1  0.53671000  0.75008000  0.76392000  1.0
  C  C129  1  0.24992000  0.46329000  0.73608000  1.0
  C  C130  1  0.46330000  0.24992000  0.23608000  1.0
  C  C131  1  0.75008000  0.53671000  0.26392000  1.0
  C  C132  1  0.57087000  0.62429000  0.65794000  1.0
  C  C133  1  0.37571000  0.42913000  0.84206000  1.0
  C  C134  1  0.42913000  0.37572000  0.34206000  1.0
  C  C135  1  0.62429000  0.57087000  0.15794000  1.0
  C  C136  1  0.50572000  0.69114000  0.60185000  1.0
  C  C137  1  0.30886000  0.49428000  0.89815000  1.0
  C  C138  1  0.49428000  0.30886000  0.39815000  1.0
  C  C139  1  0.69114000  0.50572000  0.10185000  1.0
  C  C140  1  0.47790000  0.64234000  0.54039000  1.0
  C  C141  1  0.35766000  0.52211000  0.95961000  1.0
  C  C142  1  0.52210000  0.35766000  0.45961000  1.0
  C  C143  1  0.64234000  0.47790000  0.04039000  1.0
  C  C144  1  0.51347000  0.52613000  0.53299000  1.0
  C  C145  1  0.47387000  0.48652000  0.96701000  1.0
  C  C146  1  0.48652000  0.47387000  0.46701000  1.0
  C  C147  1  0.52613000  0.51348000  0.03299000  1.0
  C  C148  1  0.57618000  0.46077000  0.59171000  1.0
  C  C149  1  0.53923000  0.42382000  0.90829000  1.0
  C  C150  1  0.42382000  0.53923000  0.40829000  1.0
  C  C151  1  0.46077000  0.57618000  0.09171000  1.0
  C  C152  1  0.60601000  0.50855000  0.65253000  1.0
  C  C153  1  0.49145000  0.39399000  0.84747000  1.0
  C  C154  1  0.39399000  0.49145000  0.34747000  1.0
  C  C155  1  0.50855000  0.60601000  0.15253000  1.0
  N  N156  1  0.91795000  0.71215000  0.39636000  1.0
  N  N157  1  0.28785000  0.08205000  0.10364000  1.0
  N  N158  1  0.08205000  0.28785000  0.60364000  1.0
  N  N159  1  0.71215000  0.91795000  0.89636000  1.0
  N  N160  1  0.59406000  0.77627000  0.81696000  1.0
  N  N161  1  0.22373000  0.40594000  0.68304000  1.0
  N  N162  1  0.40594000  0.22373000  0.18304000  1.0
  N  N163  1  0.77627000  0.59406000  0.31696000  1.0
  N  N164  1  0.60247000  0.67257000  0.72018000  1.0
  N  N165  1  0.32743000  0.39753000  0.77983000  1.0
  N  N166  1  0.39754000  0.32744000  0.27982000  1.0
  N  N167  1  0.67257000  0.60247000  0.22017000  1.0
  O  O168  1  0.63804000  0.00094000  0.73273000  1.0
  O  O169  1  0.99906000  0.36196000  0.76727000  1.0
  O  O170  1  0.36196000  0.99906000  0.26727000  1.0
  O  O171  1  0.00094000  0.63804000  0.23273000  1.0
  O  O172  1  0.64295000  0.19620000  0.72848000  1.0
  O  O173  1  0.80380000  0.35705000  0.77151000  1.0
  O  O174  1  0.35704000  0.80380000  0.27152000  1.0
  O  O175  1  0.19620000  0.64295000  0.22849000  1.0
  O  O176  1  0.87300000  0.44362000  0.46901000  1.0
  O  O177  1  0.55638000  0.12700000  0.03099000  1.0
  O  O178  1  0.12700000  0.55638000  0.53099000  1.0
  O  O179  1  0.44362000  0.87300000  0.96901000  1.0
  O  O180  1  0.92620000  0.37492000  0.35208000  1.0
  O  O181  1  0.62508000  0.07380000  0.14792000  1.0
  O  O182  1  0.07380000  0.62508000  0.64792000  1.0
  O  O183  1  0.37492000  0.92620000  0.85208000  1.0
  O  O184  1  0.52344000  0.10326000  0.87756000  1.0
  O  O185  1  0.89674000  0.47656000  0.62243000  1.0
  O  O186  1  0.47656000  0.89674000  0.12244000  1.0
  O  O187  1  0.10326000  0.52344000  0.37757000  1.0
