# generated using pymatgen
data_CuH10C12S2N4O5
_symmetry_space_group_name_H-M   'P 1'
_cell_length_a   5.43834000
_cell_length_b   10.28820000
_cell_length_c   29.36800000
_cell_angle_alpha   89.99980000
_cell_angle_beta   90.00000000
_cell_angle_gamma   89.99930000
_symmetry_Int_Tables_number   1
_chemical_formula_structural   CuH10C12S2N4O5
_chemical_formula_sum   'Cu4 H40 C48 S8 N16 O20'
_cell_volume   1643.16102641
_cell_formula_units_Z   4
loop_
 _symmetry_equiv_pos_site_id
 _symmetry_equiv_pos_as_xyz
  1  'x, y, z'
loop_
 _atom_site_type_symbol
 _atom_site_label
 _atom_site_symmetry_multiplicity
 _atom_site_fract_x
 _atom_site_fract_y
 _atom_site_fract_z
 _atom_site_occupancy
  Cu  Cu0  1  0.23527000  0.49086000  0.23469000  1.0
  Cu  Cu1  1  0.26473000  0.50914000  0.73469000  1.0
  Cu  Cu2  1  0.76473000  0.99086000  0.26531000  1.0
  Cu  Cu3  1  0.73527000  0.00914000  0.76531000  1.0
  H  H4  1  0.94599000  0.30932000  0.25405000  1.0
  H  H5  1  0.55400000  0.69067000  0.75405000  1.0
  H  H6  1  0.05401000  0.80932000  0.24595000  1.0
  H  H7  1  0.44599000  0.19067000  0.74595000  1.0
  H  H8  1  0.90411000  0.65050000  0.67835000  1.0
  H  H9  1  0.59588000  0.34949000  0.17835000  1.0
  H  H10  1  0.09588000  0.15049000  0.82165000  1.0
  H  H11  1  0.40411000  0.84950000  0.32165000  1.0
  H  H12  1  0.81648000  0.67851000  0.59516000  1.0
  H  H13  1  0.68351000  0.32149000  0.09516000  1.0
  H  H14  1  0.18350000  0.17852000  0.90484000  1.0
  H  H15  1  0.31649000  0.82149000  0.40484000  1.0
  H  H16  1  0.48291000  0.46229000  0.56807000  1.0
  H  H17  1  0.01710000  0.53773000  0.06808000  1.0
  H  H18  1  0.51710000  0.96229000  0.93193000  1.0
  H  H19  1  0.98290000  0.03771000  0.43193000  1.0
  H  H20  1  0.53789000  0.43918000  0.65151000  1.0
  H  H21  1  0.96212000  0.56082000  0.15151000  1.0
  H  H22  1  0.46212000  0.93918000  0.84849000  1.0
  H  H23  1  0.03788000  0.06082000  0.34849000  1.0
  H  H24  1  0.79310000  0.66770000  0.37656000  1.0
  H  H25  1  0.70690000  0.33230000  0.87656000  1.0
  H  H26  1  0.20689000  0.16770000  0.12344000  1.0
  H  H27  1  0.29311000  0.83229000  0.62344000  1.0
  H  H28  1  0.85987000  0.63271000  0.29348000  1.0
  H  H29  1  0.64014000  0.36730000  0.79348000  1.0
  H  H30  1  0.14012000  0.13270000  0.20653000  1.0
  H  H31  1  0.35986000  0.86729000  0.70652000  1.0
  H  H32  1  0.51901000  0.44203000  0.31626000  1.0
  H  H33  1  0.98099000  0.55797000  0.81626000  1.0
  H  H34  1  0.48098000  0.94203000  0.18373000  1.0
  H  H35  1  0.01901000  0.05797000  0.68374000  1.0
  H  H36  1  0.47884000  0.46478000  0.39990000  1.0
  H  H37  1  0.02115000  0.53522000  0.89990000  1.0
  H  H38  1  0.52117000  0.96477000  0.10010000  1.0
  H  H39  1  0.97885000  0.03522000  0.60010000  1.0
  H  H40  1  0.77931000  0.43682000  0.23907000  1.0
  H  H41  1  0.72069000  0.56318000  0.73907000  1.0
  H  H42  1  0.22069000  0.93682000  0.26093000  1.0
  H  H43  1  0.27931000  0.06318000  0.76093000  1.0
  C  C44  1  0.02637000  0.61032000  0.65254000  1.0
  C  C45  1  0.47364000  0.38968000  0.15254000  1.0
  C  C46  1  0.97363000  0.11032000  0.84746000  1.0
  C  C47  1  0.52637000  0.88968000  0.34746000  1.0
  C  C48  1  0.97864000  0.62571000  0.60641000  1.0
  C  C49  1  0.52136000  0.37429000  0.10641000  1.0
  C  C50  1  0.02134000  0.12572000  0.89359000  1.0
  C  C51  1  0.47865000  0.87429000  0.39359000  1.0
  C  C52  1  0.14114000  0.57137000  0.57451000  1.0
  C  C53  1  0.35888000  0.42864000  0.07451000  1.0
  C  C54  1  0.85887000  0.07138000  0.92549000  1.0
  C  C55  1  0.64114000  0.92862000  0.42549000  1.0
  C  C56  1  0.34838000  0.50556000  0.59105000  1.0
  C  C57  1  0.15163000  0.49445000  0.09106000  1.0
  C  C58  1  0.65162000  0.00556000  0.90895000  1.0
  C  C59  1  0.84838000  0.99444000  0.40895000  1.0
  C  C60  1  0.38273000  0.49338000  0.63771000  1.0
  C  C61  1  0.11728000  0.50663000  0.13771000  1.0
  C  C62  1  0.61727000  0.99338000  0.86229000  1.0
  C  C63  1  0.88273000  0.00662000  0.36229000  1.0
  C  C64  1  0.09290000  0.58226000  0.52579000  1.0
  C  C65  1  0.40710000  0.41775000  0.02579000  1.0
  C  C66  1  0.90709000  0.08226000  0.97422000  1.0
  C  C67  1  0.59291000  0.91774000  0.47422000  1.0
  C  C68  1  0.08823000  0.58036000  0.44447000  1.0
  C  C69  1  0.41177000  0.41964000  0.94447000  1.0
  C  C70  1  0.91177000  0.08036000  0.05553000  1.0
  C  C71  1  0.58824000  0.91964000  0.55553000  1.0
  C  C72  1  0.12895000  0.56764000  0.39556000  1.0
  C  C73  1  0.37105000  0.43235000  0.89556000  1.0
  C  C74  1  0.87106000  0.06765000  0.10444000  1.0
  C  C75  1  0.62896000  0.93235000  0.60444000  1.0
  C  C76  1  0.95579000  0.61665000  0.36455000  1.0
  C  C77  1  0.54420000  0.38336000  0.86455000  1.0
  C  C78  1  0.04418000  0.11664000  0.13545000  1.0
  C  C79  1  0.45581000  0.88335000  0.63545000  1.0
  C  C80  1  0.99277000  0.59814000  0.31829000  1.0
  C  C81  1  0.50723000  0.40186000  0.81829000  1.0
  C  C82  1  0.00722000  0.09813000  0.18171000  1.0
  C  C83  1  0.49277000  0.90186000  0.68171000  1.0
  C  C84  1  0.36270000  0.49246000  0.33102000  1.0
  C  C85  1  0.13730000  0.50754000  0.83102000  1.0
  C  C86  1  0.63730000  0.99245000  0.16897000  1.0
  C  C87  1  0.86268000  0.00754000  0.66898000  1.0
  C  C88  1  0.33736000  0.50552000  0.37784000  1.0
  C  C89  1  0.16263000  0.49447000  0.87784000  1.0
  C  C90  1  0.66262000  0.00551000  0.12216000  1.0
  C  C91  1  0.83737000  0.99448000  0.62217000  1.0
  S  S92  1  0.66265000  0.68831000  0.21381000  1.0
  S  S93  1  0.83736000  0.31169000  0.71381000  1.0
  S  S94  1  0.33735000  0.18831000  0.28619000  1.0
  S  S95  1  0.16264000  0.81169000  0.78619000  1.0
  S  S96  1  0.30130000  0.53290000  0.48481000  1.0
  S  S97  1  0.19870000  0.46710000  0.98482000  1.0
  S  S98  1  0.69870000  0.03290000  0.01518000  1.0
  S  S99  1  0.80132000  0.96709000  0.51519000  1.0
  N  N100  1  0.22355000  0.54422000  0.66780000  1.0
  N  N101  1  0.27646000  0.45578000  0.16780000  1.0
  N  N102  1  0.77645000  0.04421000  0.83220000  1.0
  N  N103  1  0.72355000  0.95578000  0.33220000  1.0
  N  N104  1  0.88696000  0.62999000  0.50836000  1.0
  N  N105  1  0.61305000  0.37001000  0.00836000  1.0
  N  N106  1  0.11303000  0.13000000  0.99164000  1.0
  N  N107  1  0.38697000  0.87001000  0.49164000  1.0
  N  N108  1  0.88439000  0.62901000  0.46246000  1.0
  N  N109  1  0.61561000  0.37100000  0.96247000  1.0
  N  N110  1  0.11561000  0.12901000  0.03753000  1.0
  N  N111  1  0.38441000  0.87099000  0.53754000  1.0
  N  N112  1  0.19185000  0.53614000  0.30159000  1.0
  N  N113  1  0.30815000  0.46387000  0.80159000  1.0
  N  N114  1  0.80813000  0.03613000  0.19840000  1.0
  N  N115  1  0.69186000  0.96386000  0.69841000  1.0
  O  O116  1  0.92844000  0.38394000  0.23222000  1.0
  O  O117  1  0.57155000  0.61606000  0.73222000  1.0
  O  O118  1  0.07155000  0.88394000  0.26778000  1.0
  O  O119  1  0.42845000  0.11606000  0.76778000  1.0
  O  O120  1  0.57553000  0.55953000  0.23603000  1.0
  O  O121  1  0.92448000  0.44047000  0.73603000  1.0
  O  O122  1  0.42447000  0.05953000  0.26397000  1.0
  O  O123  1  0.07553000  0.94047000  0.76397000  1.0
  O  O124  1  0.56115000  0.79466000  0.24195000  1.0
  O  O125  1  0.93885000  0.20533000  0.74195000  1.0
  O  O126  1  0.43884000  0.29467000  0.25805000  1.0
  O  O127  1  0.06115000  0.70534000  0.75804000  1.0
  O  O128  1  0.93762000  0.68345000  0.21798000  1.0
  O  O129  1  0.56238000  0.31655000  0.71798000  1.0
  O  O130  1  0.06238000  0.18345000  0.28202000  1.0
  O  O131  1  0.43762000  0.81655000  0.78202000  1.0
  O  O132  1  0.58581000  0.69366000  0.16623000  1.0
  O  O133  1  0.91421000  0.30634000  0.66623000  1.0
  O  O134  1  0.41419000  0.19366000  0.33377000  1.0
  O  O135  1  0.08579000  0.80634000  0.83377000  1.0
