# generated using pymatgen
data_ZnH6C4SN
_symmetry_space_group_name_H-M   'P 1'
_cell_length_a   6.15487000
_cell_length_b   6.44232000
_cell_length_c   12.76990000
_cell_angle_alpha   104.58700000
_cell_angle_beta   89.99980000
_cell_angle_gamma   89.99960000
_symmetry_Int_Tables_number   1
_chemical_formula_structural   ZnH6C4SN
_chemical_formula_sum   'Zn4 H24 C16 S4 N4'
_cell_volume   490.02607025
_cell_formula_units_Z   4
loop_
 _symmetry_equiv_pos_site_id
 _symmetry_equiv_pos_as_xyz
  1  'x, y, z'
loop_
 _atom_site_type_symbol
 _atom_site_label
 _atom_site_symmetry_multiplicity
 _atom_site_fract_x
 _atom_site_fract_y
 _atom_site_fract_z
 _atom_site_occupancy
  Zn  Zn0  1  0.78561000  0.07424000  0.43814000  1.0
  Zn  Zn1  1  0.28561000  0.92576000  0.56186000  1.0
  Zn  Zn2  1  0.78574000  0.63610000  0.56182000  1.0
  Zn  Zn3  1  0.28574000  0.36390000  0.43818000  1.0
  H  H4  1  0.71605000  0.87613000  0.00002000  1.0
  H  H5  1  0.21606000  0.12387000  0.99998000  1.0
  H  H6  1  0.09788000  0.89964000  0.31655000  1.0
  H  H7  1  0.59788000  0.10036000  0.68345000  1.0
  H  H8  1  0.09796000  0.58295000  0.68353000  1.0
  H  H9  1  0.59797000  0.41704000  0.31647000  1.0
  H  H10  1  0.91217000  0.70849000  0.30114000  1.0
  H  H11  1  0.41217000  0.29150000  0.69886000  1.0
  H  H12  1  0.91207000  0.40737000  0.69898000  1.0
  H  H13  1  0.41207000  0.59262000  0.30102000  1.0
  H  H14  1  0.86642000  0.09619000  0.21850000  1.0
  H  H15  1  0.36643000  0.90381000  0.78151000  1.0
  H  H16  1  0.86612000  0.87769000  0.78131000  1.0
  H  H17  1  0.36614000  0.12231000  0.21868000  1.0
  H  H18  1  0.68835000  0.87641000  0.19047000  1.0
  H  H19  1  0.18836000  0.12359000  0.80953000  1.0
  H  H20  1  0.68827000  0.68583000  0.80951000  1.0
  H  H21  1  0.18828000  0.31416000  0.19049000  1.0
  H  H22  1  0.28137000  0.75486000  0.17402000  1.0
  H  H23  1  0.78137000  0.24514000  0.82598000  1.0
  H  H24  1  0.28143000  0.58154000  0.82590000  1.0
  H  H25  1  0.78144000  0.41846000  0.17409000  1.0
  H  H26  1  0.46979000  0.60732000  0.99994000  1.0
  H  H27  1  0.96979000  0.39269000  0.00005000  1.0
  C  C28  1  0.88228000  0.81674000  1.00000000  1.0
  C  C29  1  0.38229000  0.18326000  1.00000000  1.0
  C  C30  1  0.98452000  0.82536000  0.09892000  1.0
  C  C31  1  0.48453000  0.17464000  0.90108000  1.0
  C  C32  1  0.98450000  0.72684000  0.90105000  1.0
  C  C33  1  0.48452000  0.27316000  0.09895000  1.0
  C  C34  1  0.86108000  0.91983000  0.20209000  1.0
  C  C35  1  0.36109000  0.08017000  0.79791000  1.0
  C  C36  1  0.86095000  0.71780000  0.79785000  1.0
  C  C37  1  0.36097000  0.28219000  0.20215000  1.0
  C  C38  1  0.19747000  0.74911000  0.09800000  1.0
  C  C39  1  0.69748000  0.25089000  0.90201000  1.0
  C  C40  1  0.19749000  0.65151000  0.90193000  1.0
  C  C41  1  0.69750000  0.34850000  0.09807000  1.0
  C  C42  1  0.30385000  0.66541000  0.99995000  1.0
  C  C43  1  0.80385000  0.33460000  0.00005000  1.0
  S  S44  1  0.91520000  0.99006000  0.59222000  1.0
  S  S45  1  0.41520000  0.00993000  0.40779000  1.0
  S  S46  1  0.91530000  0.39779000  0.40781000  1.0
  S  S47  1  0.41530000  0.60220000  0.59219000  1.0
  N  N48  1  0.93484000  0.86662000  0.30153000  1.0
  N  N49  1  0.43484000  0.13338000  0.69847000  1.0
  N  N50  1  0.93490000  0.56504000  0.69853000  1.0
  N  N51  1  0.43490000  0.43495000  0.30148000  1.0
