# generated using pymatgen
data_Cd2H32C37N5O11
_symmetry_space_group_name_H-M   'P 1'
_cell_length_a   16.70520000
_cell_length_b   18.47690000
_cell_length_c   19.17600000
_cell_angle_alpha   89.99990000
_cell_angle_beta   90.00000000
_cell_angle_gamma   107.12300000
_symmetry_Int_Tables_number   1
_chemical_formula_structural   Cd2H32C37N5O11
_chemical_formula_sum   'Cd8 H128 C148 N20 O44'
_cell_volume   5656.51560752
_cell_formula_units_Z   4
loop_
 _symmetry_equiv_pos_site_id
 _symmetry_equiv_pos_as_xyz
  1  'x, y, z'
loop_
 _atom_site_type_symbol
 _atom_site_label
 _atom_site_symmetry_multiplicity
 _atom_site_fract_x
 _atom_site_fract_y
 _atom_site_fract_z
 _atom_site_occupancy
  Cd  Cd0  1  0.87311000  0.72251000  0.26724000  1.0
  Cd  Cd1  1  0.12689000  0.77749000  0.76724000  1.0
  Cd  Cd2  1  0.12689000  0.27749000  0.73276000  1.0
  Cd  Cd3  1  0.87311000  0.22251000  0.23276000  1.0
  Cd  Cd4  1  0.05325000  0.73931000  0.37786000  1.0
  Cd  Cd5  1  0.94675000  0.76069000  0.87786000  1.0
  Cd  Cd6  1  0.94675000  0.26069000  0.62214000  1.0
  Cd  Cd7  1  0.05325000  0.23931000  0.12214000  1.0
  H  H8  1  0.84377000  0.74250000  0.05499000  1.0
  H  H9  1  0.15623000  0.75750000  0.55499000  1.0
  H  H10  1  0.15623000  0.25750000  0.94501000  1.0
  H  H11  1  0.84377000  0.24250000  0.44501000  1.0
  H  H12  1  0.47952000  0.71555000  0.93010000  1.0
  H  H13  1  0.52048000  0.78445000  0.43010000  1.0
  H  H14  1  0.52048000  0.28445000  0.06990000  1.0
  H  H15  1  0.47952000  0.21555000  0.56989000  1.0
  H  H16  1  0.10601000  0.77344000  0.03565000  1.0
  H  H17  1  0.89399000  0.72656000  0.53565000  1.0
  H  H18  1  0.89399000  0.22656000  0.96435000  1.0
  H  H19  1  0.10601000  0.27344000  0.46435000  1.0
  H  H20  1  0.25569000  0.80460000  0.07215000  1.0
  H  H21  1  0.74431000  0.69540000  0.57215000  1.0
  H  H22  1  0.74431000  0.19540000  0.92785000  1.0
  H  H23  1  0.25569000  0.30460000  0.42785000  1.0
  H  H24  1  0.29105000  0.80132000  0.19720000  1.0
  H  H25  1  0.70895000  0.69868000  0.69720000  1.0
  H  H26  1  0.70895000  0.19868000  0.80280000  1.0
  H  H27  1  0.29105000  0.30132000  0.30280000  1.0
  H  H28  1  0.97234000  0.74278000  0.05435000  1.0
  H  H29  1  0.02766000  0.75722000  0.55435000  1.0
  H  H30  1  0.02766000  0.25722000  0.94565000  1.0
  H  H31  1  0.97234000  0.24278000  0.44565000  1.0
  H  H32  1  0.73843000  0.70067000  0.99075000  1.0
  H  H33  1  0.26157000  0.79933000  0.49075000  1.0
  H  H34  1  0.26157000  0.29933000  0.00925000  1.0
  H  H35  1  0.73843000  0.20067000  0.50925000  1.0
  H  H36  1  0.61148000  0.70642000  0.92801000  1.0
  H  H37  1  0.38852000  0.79359000  0.42801000  1.0
  H  H38  1  0.38852000  0.29359000  0.07199000  1.0
  H  H39  1  0.61148000  0.20642000  0.57199000  1.0
  H  H40  1  0.48283000  0.70402000  0.12313000  1.0
  H  H41  1  0.51717000  0.79598000  0.62313000  1.0
  H  H42  1  0.51717000  0.29598000  0.87687000  1.0
  H  H43  1  0.48283000  0.20402000  0.37687000  1.0
  H  H44  1  0.61174000  0.69864000  0.18623000  1.0
  H  H45  1  0.38826000  0.80136000  0.68623000  1.0
  H  H46  1  0.38826000  0.30136000  0.81377000  1.0
  H  H47  1  0.61174000  0.19864000  0.31377000  1.0
  H  H48  1  0.43589000  0.80130000  0.88161000  1.0
  H  H49  1  0.56411000  0.69870000  0.38161000  1.0
  H  H50  1  0.56411000  0.19870000  0.11839000  1.0
  H  H51  1  0.43589000  0.30130000  0.61839000  1.0
  H  H52  1  0.33237000  0.82272000  0.79581000  1.0
  H  H53  1  0.66763000  0.67728000  0.29582000  1.0
  H  H54  1  0.66763000  0.17728000  0.20419000  1.0
  H  H55  1  0.33237000  0.32272000  0.70419000  1.0
  H  H56  1  0.13139000  0.69924000  0.91387000  1.0
  H  H57  1  0.86861000  0.80076000  0.41387000  1.0
  H  H58  1  0.86861000  0.30076000  0.08613000  1.0
  H  H59  1  0.13140000  0.19924000  0.58613000  1.0
  H  H60  1  0.22640000  0.67004000  0.00432000  1.0
  H  H61  1  0.77360000  0.82996000  0.50432000  1.0
  H  H62  1  0.77360000  0.32996000  0.99568000  1.0
  H  H63  1  0.22640000  0.17004000  0.49568000  1.0
  H  H64  1  0.29582000  0.75195000  0.30397000  1.0
  H  H65  1  0.70418000  0.74805000  0.80397000  1.0
  H  H66  1  0.70418000  0.24806000  0.69603000  1.0
  H  H67  1  0.29582000  0.25195000  0.19603000  1.0
  H  H68  1  0.25706000  0.78292000  0.38238000  1.0
  H  H69  1  0.74294000  0.71708000  0.88238000  1.0
  H  H70  1  0.74294000  0.21708000  0.61762000  1.0
  H  H71  1  0.25706000  0.28292000  0.11762000  1.0
  H  H72  1  0.29349000  0.84866000  0.31197000  1.0
  H  H73  1  0.70651000  0.65134000  0.81197000  1.0
  H  H74  1  0.70651000  0.15134000  0.68803000  1.0
  H  H75  1  0.29349000  0.34866000  0.18803000  1.0
  H  H76  1  0.83088000  0.45376000  0.32787000  1.0
  H  H77  1  0.16912000  0.04624000  0.82787000  1.0
  H  H78  1  0.16912000  0.54624000  0.67213000  1.0
  H  H79  1  0.83088000  0.95376000  0.17213000  1.0
  H  H80  1  0.83799000  0.34921000  0.40701000  1.0
  H  H81  1  0.16201000  0.15079000  0.90701000  1.0
  H  H82  1  0.16201000  0.65079000  0.59299000  1.0
  H  H83  1  0.83799000  0.84921000  0.09299000  1.0
  H  H84  1  0.91699000  0.50807000  0.57533000  1.0
  H  H85  1  0.08301000  0.99193000  0.07533000  1.0
  H  H86  1  0.08301000  0.49193000  0.42467000  1.0
  H  H87  1  0.91699000  0.00807000  0.92467000  1.0
  H  H88  1  0.91091000  0.61327000  0.49512000  1.0
  H  H89  1  0.08909000  0.88673000  0.99512000  1.0
  H  H90  1  0.08909000  0.38673000  0.50488000  1.0
  H  H91  1  0.91091000  0.11327000  0.00488000  1.0
  H  H92  1  0.92259000  0.86725000  0.53085000  1.0
  H  H93  1  0.07741000  0.63275000  0.03085000  1.0
  H  H94  1  0.07741000  0.13275000  0.46915000  1.0
  H  H95  1  0.92259000  0.36725000  0.96915000  1.0
  H  H96  1  0.11794000  0.02436000  0.41540000  1.0
  H  H97  1  0.88206000  0.47563000  0.91540000  1.0
  H  H98  1  0.88206000  0.97564000  0.58460000  1.0
  H  H99  1  0.11794000  0.52436000  0.08460000  1.0
  H  H100  1  0.08223000  0.91978000  0.26465000  1.0
  H  H101  1  0.91777000  0.58022000  0.76465000  1.0
  H  H102  1  0.91777000  0.08022000  0.73535000  1.0
  H  H103  1  0.08223000  0.41978000  0.23535000  1.0
  H  H104  1  0.05639000  0.97441000  0.19631000  1.0
  H  H105  1  0.94361000  0.52559000  0.69631000  1.0
  H  H106  1  0.94361000  0.02559000  0.80369000  1.0
  H  H107  1  0.05639000  0.47441000  0.30369000  1.0
  H  H108  1  0.02231000  0.87325000  0.19225000  1.0
  H  H109  1  0.97769000  0.62675000  0.69225000  1.0
  H  H110  1  0.97769000  0.12675000  0.80775000  1.0
  H  H111  1  0.02231000  0.37325000  0.30775000  1.0
  H  H112  1  0.06333000  0.06156000  0.30934000  1.0
  H  H113  1  0.93667000  0.43844000  0.80934000  1.0
  H  H114  1  0.93667000  0.93844000  0.69066000  1.0
  H  H115  1  0.06333000  0.56156000  0.19066000  1.0
  H  H116  1  0.97796000  0.09985000  0.29882000  1.0
  H  H117  1  0.02204000  0.40015000  0.79882000  1.0
  H  H118  1  0.02204000  0.90015000  0.70118000  1.0
  H  H119  1  0.97796000  0.59985000  0.20118000  1.0
  H  H120  1  0.02034000  0.06746000  0.22473000  1.0
  H  H121  1  0.97966000  0.43254000  0.72473000  1.0
  H  H122  1  0.97966000  0.93254000  0.77527000  1.0
  H  H123  1  0.02034000  0.56746000  0.27527000  1.0
  H  H124  1  0.82840000  0.92397000  0.33439000  1.0
  H  H125  1  0.17160000  0.57603000  0.83439000  1.0
  H  H126  1  0.17160000  0.07603000  0.66561000  1.0
  H  H127  1  0.82840000  0.42397000  0.16561000  1.0
  H  H128  1  0.83950000  0.02035000  0.31004000  1.0
  H  H129  1  0.16050000  0.47965000  0.81004000  1.0
  H  H130  1  0.16050000  0.97965000  0.68996000  1.0
  H  H131  1  0.83950000  0.52035000  0.18996000  1.0
  H  H132  1  0.89074000  0.99993000  0.38686000  1.0
  H  H133  1  0.10926000  0.50007000  0.88686000  1.0
  H  H134  1  0.10926000  0.00007000  0.61314000  1.0
  H  H135  1  0.89074000  0.49993000  0.11314000  1.0
  C  C136  1  0.16260000  0.77094000  0.23126000  1.0
  C  C137  1  0.83740000  0.72906000  0.73126000  1.0
  C  C138  1  0.83740000  0.22906000  0.76874000  1.0
  C  C139  1  0.16260000  0.27094000  0.26874000  1.0
  C  C140  1  0.07573000  0.75377000  0.21315000  1.0
  C  C141  1  0.92427000  0.74623000  0.71314000  1.0
  C  C142  1  0.92427000  0.24623000  0.78686000  1.0
  C  C143  1  0.07573000  0.25377000  0.28686000  1.0
  C  C144  1  0.05678000  0.75525000  0.14048000  1.0
  C  C145  1  0.94322000  0.74475000  0.64048000  1.0
  C  C146  1  0.94322000  0.24475000  0.85952000  1.0
  C  C147  1  0.05678000  0.25525000  0.35952000  1.0
  C  C148  1  0.12288000  0.77374000  0.09066000  1.0
  C  C149  1  0.87712000  0.72626000  0.59066000  1.0
  C  C150  1  0.87712000  0.22626000  0.90934000  1.0
  C  C151  1  0.12288000  0.27374000  0.40934000  1.0
  C  C152  1  0.20562000  0.79075000  0.11062000  1.0
  C  C153  1  0.79438000  0.70925000  0.61062000  1.0
  C  C154  1  0.79438000  0.20925000  0.88938000  1.0
  C  C155  1  0.20562000  0.29075000  0.38938000  1.0
  C  C156  1  0.22569000  0.78903000  0.18174000  1.0
  C  C157  1  0.77431000  0.71097000  0.68174000  1.0
  C  C158  1  0.77431000  0.21097000  0.81826000  1.0
  C  C159  1  0.22569000  0.28903000  0.31826000  1.0
  C  C160  1  0.97419000  0.74052000  0.11153000  1.0
  C  C161  1  0.02581000  0.75948000  0.61153000  1.0
  C  C162  1  0.02581000  0.25948000  0.88847000  1.0
  C  C163  1  0.97419000  0.24052000  0.38847000  1.0
  C  C164  1  0.75756000  0.69968000  0.13622000  1.0
  C  C165  1  0.24244000  0.80032000  0.63622000  1.0
  C  C166  1  0.24244000  0.30032000  0.86378000  1.0
  C  C167  1  0.75756000  0.19968000  0.36378000  1.0
  C  C168  1  0.68390000  0.70012000  0.09344000  1.0
  C  C169  1  0.31610000  0.79988000  0.59344000  1.0
  C  C170  1  0.31610000  0.29988000  0.90656000  1.0
  C  C171  1  0.68391000  0.20012000  0.40656000  1.0
  C  C172  1  0.68301000  0.70149000  0.02026000  1.0
  C  C173  1  0.31699000  0.79851000  0.52026000  1.0
  C  C174  1  0.31699000  0.29851000  0.97974000  1.0
  C  C175  1  0.68301000  0.20149000  0.47974000  1.0
  C  C176  1  0.61168000  0.70482000  0.98496000  1.0
  C  C177  1  0.38832000  0.79519000  0.48496000  1.0
  C  C178  1  0.38832000  0.29518000  0.01504000  1.0
  C  C179  1  0.61168000  0.20482000  0.51504000  1.0
  C  C180  1  0.53944000  0.70677000  0.02167000  1.0
  C  C181  1  0.46056000  0.79323000  0.52167000  1.0
  C  C182  1  0.46056000  0.29323000  0.97833000  1.0
  C  C183  1  0.53944000  0.20677000  0.47833000  1.0
  C  C184  1  0.53903000  0.70354000  0.09490000  1.0
  C  C185  1  0.46097000  0.79645000  0.59491000  1.0
  C  C186  1  0.46097000  0.29645000  0.90509000  1.0
  C  C187  1  0.53903000  0.20355000  0.40509000  1.0
  C  C188  1  0.61085000  0.70029000  0.12948000  1.0
  C  C189  1  0.38915000  0.79971000  0.62948000  1.0
  C  C190  1  0.38915000  0.29971000  0.87052000  1.0
  C  C191  1  0.61085000  0.20029000  0.37052000  1.0
  C  C192  1  0.39392000  0.71613000  0.00560000  1.0
  C  C193  1  0.60608000  0.78387000  0.50560000  1.0
  C  C194  1  0.60608000  0.28387000  0.99440000  1.0
  C  C195  1  0.39393000  0.21613000  0.49440000  1.0
  C  C196  1  0.33858000  0.73100000  0.94917000  1.0
  C  C197  1  0.66142000  0.76900000  0.44918000  1.0
  C  C198  1  0.66142000  0.26900000  0.05083000  1.0
  C  C199  1  0.33858000  0.23100000  0.55082000  1.0
  C  C200  1  0.36901000  0.77507000  0.89011000  1.0
  C  C201  1  0.63099000  0.72492000  0.39012000  1.0
  C  C202  1  0.63099000  0.22493000  0.10989000  1.0
  C  C203  1  0.36901000  0.27507000  0.60988000  1.0
  C  C204  1  0.31201000  0.78854000  0.84247000  1.0
  C  C205  1  0.68799000  0.71146000  0.34247000  1.0
  C  C206  1  0.68799000  0.21146000  0.15753000  1.0
  C  C207  1  0.31201000  0.28854000  0.65753000  1.0
  C  C208  1  0.19933000  0.71907000  0.90801000  1.0
  C  C209  1  0.80067000  0.78093000  0.40801000  1.0
  C  C210  1  0.80067000  0.28093000  0.09199000  1.0
  C  C211  1  0.19933000  0.21907000  0.59199000  1.0
  C  C212  1  0.25185000  0.70313000  0.95817000  1.0
  C  C213  1  0.74815000  0.79687000  0.45817000  1.0
  C  C214  1  0.74815000  0.29687000  0.04183000  1.0
  C  C215  1  0.25185000  0.20313000  0.54183000  1.0
  C  C216  1  0.26142000  0.78931000  0.32570000  1.0
  C  C217  1  0.73858000  0.71069000  0.82570000  1.0
  C  C218  1  0.73858000  0.21069000  0.67430000  1.0
  C  C219  1  0.26142000  0.28931000  0.17430000  1.0
  C  C220  1  0.87138000  0.53984000  0.40653000  1.0
  C  C221  1  0.12862000  0.96016000  0.90653000  1.0
  C  C222  1  0.12862000  0.46015000  0.59347000  1.0
  C  C223  1  0.87138000  0.03984000  0.09347000  1.0
  C  C224  1  0.84934000  0.46507000  0.38223000  1.0
  C  C225  1  0.15066000  0.03493000  0.88223000  1.0
  C  C226  1  0.15066000  0.53493000  0.61777000  1.0
  C  C227  1  0.84934000  0.96507000  0.11777000  1.0
  C  C228  1  0.85307000  0.40676000  0.42683000  1.0
  C  C229  1  0.14693000  0.09324000  0.92683000  1.0
  C  C230  1  0.14693000  0.59324000  0.57317000  1.0
  C  C231  1  0.85307000  0.90676000  0.07317000  1.0
  C  C232  1  0.87776000  0.42191000  0.49659000  1.0
  C  C233  1  0.12224000  0.07809000  0.99659000  1.0
  C  C234  1  0.12224000  0.57809000  0.50341000  1.0
  C  C235  1  0.87776000  0.92191000  0.00341000  1.0
  C  C236  1  0.89728000  0.49661000  0.52128000  1.0
  C  C237  1  0.10272000  0.00339000  0.02128000  1.0
  C  C238  1  0.10272000  0.50339000  0.47872000  1.0
  C  C239  1  0.89728000  0.99661000  0.97872000  1.0
  C  C240  1  0.89435000  0.55500000  0.47661000  1.0
  C  C241  1  0.10565000  0.94500000  0.97661000  1.0
  C  C242  1  0.10565000  0.44500000  0.52339000  1.0
  C  C243  1  0.89435000  0.05500000  0.02339000  1.0
  C  C244  1  0.87324000  0.60316000  0.35736000  1.0
  C  C245  1  0.12676000  0.89684000  0.85736000  1.0
  C  C246  1  0.12676000  0.39684000  0.64264000  1.0
  C  C247  1  0.87324000  0.10316000  0.14264000  1.0
  C  C248  1  0.88913000  0.36099000  0.54347000  1.0
  C  C249  1  0.11087000  0.13901000  0.04347000  1.0
  C  C250  1  0.11087000  0.63901000  0.45653000  1.0
  C  C251  1  0.88913000  0.86099000  0.95653000  1.0
  C  C252  1  0.02226000  0.93962000  0.46936000  1.0
  C  C253  1  0.97774000  0.56038000  0.96936000  1.0
  C  C254  1  0.97774000  0.06038000  0.53064000  1.0
  C  C255  1  0.02226000  0.43961000  0.03064000  1.0
  C  C256  1  0.95583000  0.92563000  0.51727000  1.0
  C  C257  1  0.04417000  0.57437000  0.01727000  1.0
  C  C258  1  0.04417000  0.07437000  0.48273000  1.0
  C  C259  1  0.95583000  0.42563000  0.98273000  1.0
  C  C260  1  0.06642000  0.01452000  0.45257000  1.0
  C  C261  1  0.93358000  0.48548000  0.95257000  1.0
  C  C262  1  0.93358000  0.98548000  0.54743000  1.0
  C  C263  1  0.06642000  0.51452000  0.04743000  1.0
  C  C264  1  0.04411000  0.87493000  0.43503000  1.0
  C  C265  1  0.95589000  0.62507000  0.93503000  1.0
  C  C266  1  0.95589000  0.12507000  0.56497000  1.0
  C  C267  1  0.04411000  0.37493000  0.06497000  1.0
  C  C268  1  0.95448000  0.91766000  0.26633000  1.0
  C  C269  1  0.04552000  0.58234000  0.76633000  1.0
  C  C270  1  0.04552000  0.08234000  0.73367000  1.0
  C  C271  1  0.95448000  0.41766000  0.23367000  1.0
  C  C272  1  0.03349000  0.92223000  0.22678000  1.0
  C  C273  1  0.96651000  0.57777000  0.72678000  1.0
  C  C274  1  0.96651000  0.07777000  0.77322000  1.0
  C  C275  1  0.03349000  0.42223000  0.27322000  1.0
  C  C276  1  0.00532000  0.05650000  0.28015000  1.0
  C  C277  1  0.99468000  0.44350000  0.78015000  1.0
  C  C278  1  0.99468000  0.94350000  0.71986000  1.0
  C  C279  1  0.00532000  0.55650000  0.21985000  1.0
  C  C280  1  0.87094000  0.98166000  0.33333333  1.0
  C  C281  1  0.12906000  0.51834000  0.83331000  1.0
  C  C282  1  0.12906000  0.01834000  0.66666667  1.0
  C  C283  1  0.87094000  0.48166000  0.16669000  1.0
  N  N284  1  0.90344000  0.72508000  0.14570000  1.0
  N  N285  1  0.09656000  0.77492000  0.64570000  1.0
  N  N286  1  0.09656000  0.27492000  0.85430000  1.0
  N  N287  1  0.90344000  0.22508000  0.35430000  1.0
  N  N288  1  0.83378000  0.71766000  0.10469000  1.0
  N  N289  1  0.16622000  0.78234000  0.60469000  1.0
  N  N290  1  0.16622000  0.28234000  0.89531000  1.0
  N  N291  1  0.83378000  0.21766000  0.39531000  1.0
  N  N292  1  0.47106000  0.71305000  0.98260000  1.0
  N  N293  1  0.52894000  0.78695000  0.48260000  1.0
  N  N294  1  0.52894000  0.28695000  0.01740000  1.0
  N  N295  1  0.47106000  0.21305000  0.51740000  1.0
  N  N296  1  0.22889000  0.76060000  0.85086000  1.0
  N  N297  1  0.77111000  0.73940000  0.35086000  1.0
  N  N298  1  0.77111000  0.23940000  0.14914000  1.0
  N  N299  1  0.22889000  0.26060000  0.64914000  1.0
  N  N300  1  0.94393000  0.98252000  0.29108000  1.0
  N  N301  1  0.05607000  0.51748000  0.79108000  1.0
  N  N302  1  0.05607000  0.01748000  0.70892000  1.0
  N  N303  1  0.94393000  0.48253000  0.20892000  1.0
  O  O304  1  0.17703000  0.76749000  0.30174000  1.0
  O  O305  1  0.82297000  0.73251000  0.80174000  1.0
  O  O306  1  0.82297000  0.23251000  0.69826000  1.0
  O  O307  1  0.17703000  0.26749000  0.19826000  1.0
  O  O308  1  0.01884000  0.73778000  0.26253000  1.0
  O  O309  1  0.98116000  0.76222000  0.76253000  1.0
  O  O310  1  0.98116000  0.26222000  0.73747000  1.0
  O  O311  1  0.01884000  0.23779000  0.23747000  1.0
  O  O312  1  0.74891000  0.68507000  0.20023000  1.0
  O  O313  1  0.25109000  0.81493000  0.70023000  1.0
  O  O314  1  0.25109000  0.31493000  0.79977000  1.0
  O  O315  1  0.74891000  0.18507000  0.29977000  1.0
  O  O316  1  0.37062000  0.70821000  0.06693000  1.0
  O  O317  1  0.62938000  0.79179000  0.56693000  1.0
  O  O318  1  0.62938000  0.29179000  0.93307000  1.0
  O  O319  1  0.37062000  0.20821000  0.43307000  1.0
  O  O320  1  0.83916000  0.58913000  0.29795000  1.0
  O  O321  1  0.16084000  0.91087000  0.79795000  1.0
  O  O322  1  0.16084000  0.41087000  0.70205000  1.0
  O  O323  1  0.83916000  0.08913000  0.20205000  1.0
  O  O324  1  0.91003000  0.67136000  0.37788000  1.0
  O  O325  1  0.08997000  0.82864000  0.87788000  1.0
  O  O326  1  0.08997000  0.32864000  0.62212000  1.0
  O  O327  1  0.91003000  0.17136000  0.12212000  1.0
  O  O328  1  0.91844000  0.37810000  0.60439000  1.0
  O  O329  1  0.08155000  0.12190000  0.10439000  1.0
  O  O330  1  0.08155000  0.62190000  0.39561000  1.0
  O  O331  1  0.91844000  0.87810000  0.89561000  1.0
  O  O332  1  0.87232000  0.29236000  0.52061000  1.0
  O  O333  1  0.12768000  0.20764000  0.02061000  1.0
  O  O334  1  0.12768000  0.70764000  0.47939000  1.0
  O  O335  1  0.87232000  0.79236000  0.97939000  1.0
  O  O336  1  0.99849000  0.80786000  0.45187000  1.0
  O  O337  1  0.00151000  0.69214000  0.95187000  1.0
  O  O338  1  0.00151000  0.19214000  0.54813000  1.0
  O  O339  1  0.99848000  0.30786000  0.04813000  1.0
  O  O340  1  0.10295000  0.88664000  0.39111000  1.0
  O  O341  1  0.89705000  0.61336000  0.89111000  1.0
  O  O342  1  0.89705000  0.11336000  0.60889000  1.0
  O  O343  1  0.10295000  0.38664000  0.10889000  1.0
  O  O344  1  0.89967000  0.85499000  0.27743000  1.0
  O  O345  1  0.10033000  0.64501000  0.77743000  1.0
  O  O346  1  0.10033000  0.14501000  0.72257000  1.0
  O  O347  1  0.89966000  0.35499000  0.22257000  1.0
