# generated using pymatgen
data_NiH23C19NO9
_symmetry_space_group_name_H-M   'P 1'
_cell_length_a   7.61965000
_cell_length_b   8.93923000
_cell_length_c   14.82140000
_cell_angle_alpha   105.75800000
_cell_angle_beta   96.18230000
_cell_angle_gamma   92.43390000
_symmetry_Int_Tables_number   1
_chemical_formula_structural   NiH23C19NO9
_chemical_formula_sum   'Ni2 H46 C38 N2 O18'
_cell_volume   963.23318508
_cell_formula_units_Z   2
loop_
 _symmetry_equiv_pos_site_id
 _symmetry_equiv_pos_as_xyz
  1  'x, y, z'
loop_
 _atom_site_type_symbol
 _atom_site_label
 _atom_site_symmetry_multiplicity
 _atom_site_fract_x
 _atom_site_fract_y
 _atom_site_fract_z
 _atom_site_occupancy
  Ni  Ni0  1  0.50000000  0.50000000  0.00000000  1.0
  Ni  Ni1  1  0.00000000  0.50000000  0.00000000  1.0
  H  H2  1  0.20930000  0.69518000  0.96588000  1.0
  H  H3  1  0.79070000  0.30482000  0.03413000  1.0
  H  H4  1  0.18460000  0.55567000  0.87864000  1.0
  H  H5  1  0.81540000  0.44433000  0.12136000  1.0
  H  H6  1  0.21420000  0.29977000  0.97837000  1.0
  H  H7  1  0.78580000  0.70023000  0.02163000  1.0
  H  H8  1  0.28020000  0.41286000  0.09038000  1.0
  H  H9  1  0.71980000  0.58714000  0.90962000  1.0
  H  H10  1  0.22070000  0.73391000  0.27749000  1.0
  H  H11  1  0.77930000  0.26609000  0.72251000  1.0
  H  H12  1  0.34110000  0.90944000  0.43698000  1.0
  H  H13  1  0.65890000  0.09057000  0.56302000  1.0
  H  H14  1  0.95678000  0.11244000  0.21157000  1.0
  H  H15  1  0.04321000  0.88755000  0.78843000  1.0
  H  H16  1  0.06618000  0.13859000  0.57587000  1.0
  H  H17  1  0.93382000  0.86141000  0.42413000  1.0
  H  H18  1  0.18342000  0.29753000  0.73851000  1.0
  H  H19  1  0.81658000  0.70247000  0.26149000  1.0
  H  H20  1  0.63779000  0.45905000  0.63369000  1.0
  H  H21  1  0.36221000  0.54095000  0.36631000  1.0
  H  H22  1  0.75908000  0.31596000  0.39625000  1.0
  H  H23  1  0.24092000  0.68404000  0.60375000  1.0
  H  H24  1  0.79611000  0.28389000  0.51053000  1.0
  H  H25  1  0.20389000  0.71612000  0.48947000  1.0
  H  H26  1  0.73315000  0.46978000  0.49874000  1.0
  H  H27  1  0.26686000  0.53022000  0.50126000  1.0
  H  H28  1  0.01248000  0.51861000  0.34531000  1.0
  H  H29  1  0.98751000  0.48139000  0.65469000  1.0
  H  H30  1  0.87939000  0.34695000  0.27959000  1.0
  H  H31  1  0.12061000  0.65304000  0.72041000  1.0
  H  H32  1  0.09832000  0.38063000  0.25088000  1.0
  H  H33  1  0.90168000  0.61937000  0.74912000  1.0
  H  H34  1  0.57097000  0.80250000  0.16364000  1.0
  H  H35  1  0.42904000  0.19750000  0.83636000  1.0
  H  H36  1  0.27124000  0.95045000  0.00445000  1.0
  H  H37  1  0.72875000  0.04955000  0.99555000  1.0
  H  H38  1  0.39001000  0.13691000  0.05180000  1.0
  H  H39  1  0.60998000  0.86309000  0.94821000  1.0
  H  H40  1  0.20560000  0.08733000  0.10508000  1.0
  H  H41  1  0.79440000  0.91267000  0.89493000  1.0
  H  H42  1  0.60609000  0.03047000  0.25965000  1.0
  H  H43  1  0.39391000  0.96953000  0.74035000  1.0
  H  H44  1  0.41959000  0.14565000  0.26151000  1.0
  H  H45  1  0.58041000  0.85434000  0.73849000  1.0
  H  H46  1  0.60056000  0.18192000  0.20140000  1.0
  H  H47  1  0.39944000  0.81808000  0.79860000  1.0
  C  C48  1  0.99892000  0.80495000  0.14377000  1.0
  C  C49  1  0.00109000  0.19505000  0.85622000  1.0
  C  C50  1  0.07884000  0.91306000  0.23691000  1.0
  C  C51  1  0.92117000  0.08694000  0.76308000  1.0
  C  C52  1  0.18963000  0.85528000  0.29909000  1.0
  C  C53  1  0.81038000  0.14472000  0.70091000  1.0
  C  C54  1  0.25549000  0.95328000  0.38773000  1.0
  C  C55  1  0.74451000  0.04673000  0.61227000  1.0
  C  C56  1  0.21639000  0.10916000  0.41540000  1.0
  C  C57  1  0.78362000  0.89084000  0.58460000  1.0
  C  C58  1  0.11306000  0.16879000  0.35003000  1.0
  C  C59  1  0.88694000  0.83121000  0.64997000  1.0
  C  C60  1  0.04113000  0.07009000  0.26201000  1.0
  C  C61  1  0.95887000  0.92991000  0.73799000  1.0
  C  C62  1  0.28366000  0.20866000  0.51174000  1.0
  C  C63  1  0.71634000  0.79134000  0.48826000  1.0
  C  C64  1  0.19084000  0.20979000  0.58814000  1.0
  C  C65  1  0.80916000  0.79021000  0.41186000  1.0
  C  C66  1  0.25620000  0.29832000  0.67942000  1.0
  C  C67  1  0.74380000  0.70169000  0.32058000  1.0
  C  C68  1  0.41667000  0.38882000  0.69526000  1.0
  C  C69  1  0.58333000  0.61119000  0.30474000  1.0
  C  C70  1  0.51287000  0.38838000  0.61963000  1.0
  C  C71  1  0.48713000  0.61163000  0.38037000  1.0
  C  C72  1  0.44772000  0.29750000  0.52859000  1.0
  C  C73  1  0.55228000  0.70251000  0.47141000  1.0
  C  C74  1  0.49245000  0.47936000  0.79354000  1.0
  C  C75  1  0.50755000  0.52064000  0.20646000  1.0
  C  C76  1  0.71623000  0.34337000  0.46642000  1.0
  C  C77  1  0.28377000  0.65664000  0.53358000  1.0
  C  C78  1  0.01563000  0.39503000  0.30846000  1.0
  C  C79  1  0.98437000  0.60497000  0.69153000  1.0
  C  C80  1  0.47785000  0.83225000  0.11059000  1.0
  C  C81  1  0.52215000  0.16775000  0.88941000  1.0
  C  C82  1  0.31897000  0.04135000  0.06938000  1.0
  C  C83  1  0.68102000  0.95865000  0.93062000  1.0
  C  C84  1  0.52068000  0.09064000  0.21888000  1.0
  C  C85  1  0.47932000  0.90936000  0.78112000  1.0
  N  N86  1  0.43800000  0.97973000  0.13181000  1.0
  N  N87  1  0.56200000  0.02027000  0.86819000  1.0
  O  O88  1  0.06773000  0.67404000  0.11934000  1.0
  O  O89  1  0.93227000  0.32596000  0.88066000  1.0
  O  O90  1  0.86944000  0.84723000  0.09713000  1.0
  O  O91  1  0.13056000  0.15277000  0.90287000  1.0
  O  O92  1  0.64154000  0.55429000  0.80605000  1.0
  O  O93  1  0.35846000  0.44571000  0.19395000  1.0
  O  O94  1  0.40006000  0.47036000  0.86057000  1.0
  O  O95  1  0.59994000  0.52963000  0.13943000  1.0
  O  O96  1  0.08916000  0.32446000  0.37883000  1.0
  O  O97  1  0.91084000  0.67554000  0.62117000  1.0
  O  O98  1  0.53431000  0.28471000  0.45119000  1.0
  O  O99  1  0.46569000  0.71530000  0.54881000  1.0
  O  O100  1  0.11384000  0.63167000  0.91831000  1.0
  O  O101  1  0.88616000  0.36833000  0.08169000  1.0
  O  O102  1  0.25152000  0.41214000  0.02054000  1.0
  O  O103  1  0.74848000  0.58785000  0.97946000  1.0
  O  O104  1  0.41846000  0.72979000  0.03459000  1.0
  O  O105  1  0.58154000  0.27021000  0.96541000  1.0
