# generated using pymatgen
data_Zn3P2H22C28(N2O5)2
_symmetry_space_group_name_H-M   'P 1'
_cell_length_a   10.33420000
_cell_length_b   12.33840000
_cell_length_c   12.88950000
_cell_angle_alpha   72.20040000
_cell_angle_beta   77.35990000
_cell_angle_gamma   82.65800000
_symmetry_Int_Tables_number   1
_chemical_formula_structural   Zn3P2H22C28(N2O5)2
_chemical_formula_sum   'Zn6 P4 H44 C56 N8 O20'
_cell_volume   1523.62615122
_cell_formula_units_Z   2
loop_
 _symmetry_equiv_pos_site_id
 _symmetry_equiv_pos_as_xyz
  1  'x, y, z'
loop_
 _atom_site_type_symbol
 _atom_site_label
 _atom_site_symmetry_multiplicity
 _atom_site_fract_x
 _atom_site_fract_y
 _atom_site_fract_z
 _atom_site_occupancy
  Zn  Zn0  1  0.02196000  0.84000000  0.98713000  1.0
  Zn  Zn1  1  0.97804000  0.16000000  0.01287000  1.0
  Zn  Zn2  1  0.94719000  0.04853000  0.34772000  1.0
  Zn  Zn3  1  0.05281000  0.95147000  0.65229000  1.0
  Zn  Zn4  1  0.86468000  0.79150000  0.36347000  1.0
  Zn  Zn5  1  0.13532000  0.20850000  0.63653000  1.0
  P  P6  1  0.82503000  0.87909000  0.57666000  1.0
  P  P7  1  0.17497000  0.12090000  0.42334000  1.0
  P  P8  1  0.08842000  0.91630000  0.17361000  1.0
  P  P9  1  0.91158000  0.08370000  0.82639000  1.0
  H  H10  1  0.58259000  0.88330000  0.49730000  1.0
  H  H11  1  0.41741000  0.11670000  0.50270000  1.0
  H  H12  1  0.34503000  0.87736000  0.58964000  1.0
  H  H13  1  0.65497000  0.12264000  0.41036000  1.0
  H  H14  1  0.45526000  0.84222000  0.90183000  1.0
  H  H15  1  0.54475000  0.15778000  0.09817000  1.0
  H  H16  1  0.69265000  0.85767000  0.80844000  1.0
  H  H17  1  0.30735000  0.14233000  0.19156000  1.0
  H  H18  1  0.57449000  0.87773000  0.05914000  1.0
  H  H19  1  0.42551000  0.12227000  0.94086000  1.0
  H  H20  1  0.33900000  0.91455000  0.02816000  1.0
  H  H21  1  0.66100000  0.08544000  0.97184000  1.0
  H  H22  1  0.20021000  0.86432000  0.37917000  1.0
  H  H23  1  0.79979000  0.13569000  0.62083000  1.0
  H  H24  1  0.43434000  0.83124000  0.40740000  1.0
  H  H25  1  0.56566000  0.16876000  0.59260000  1.0
  H  H26  1  0.95017000  0.59872000  0.15996000  1.0
  H  H27  1  0.04984000  0.40128000  0.84004000  1.0
  H  H28  1  0.87242000  0.74809000  0.83646000  1.0
  H  H29  1  0.12758000  0.25191000  0.16354000  1.0
  H  H30  1  0.75876000  0.53758000  0.92604000  1.0
  H  H31  1  0.24124000  0.46242000  0.07396000  1.0
  H  H32  1  0.89422000  0.38568000  0.17933000  1.0
  H  H33  1  0.10578000  0.61432000  0.82067000  1.0
  H  H34  1  0.79695000  0.37145000  0.08939000  1.0
  H  H35  1  0.20306000  0.62855000  0.91061000  1.0
  H  H36  1  0.55920000  0.48112000  0.10445000  1.0
  H  H37  1  0.44080000  0.51888000  0.89555000  1.0
  H  H38  1  0.34751000  0.47626000  0.24032000  1.0
  H  H39  1  0.65249000  0.52374000  0.75969000  1.0
  H  H40  1  0.35065000  0.41416000  0.44285000  1.0
  H  H41  1  0.64935000  0.58584000  0.55715000  1.0
  H  H42  1  0.56566000  0.36407000  0.50703000  1.0
  H  H43  1  0.43434000  0.63593000  0.49297000  1.0
  H  H44  1  0.87850000  0.29859000  0.34578000  1.0
  H  H45  1  0.12150000  0.70141000  0.65422000  1.0
  H  H46  1  0.79037000  0.31168000  0.47574000  1.0
  H  H47  1  0.20963000  0.68833000  0.52426000  1.0
  H  H48  1  0.72661000  0.58677000  0.37075000  1.0
  H  H49  1  0.27339000  0.41324000  0.62924000  1.0
  H  H50  1  0.08752000  0.38092000  0.36872000  1.0
  H  H51  1  0.91248000  0.61908000  0.63128000  1.0
  H  H52  1  0.13756000  0.60781000  0.34109000  1.0
  H  H53  1  0.86244000  0.39219000  0.65891000  1.0
  C  C54  1  0.65340000  0.87017000  0.64707000  1.0
  C  C55  1  0.34660000  0.12983000  0.35293000  1.0
  C  C56  1  0.55480000  0.87589000  0.58569000  1.0
  C  C57  1  0.44520000  0.12411000  0.41431000  1.0
  C  C58  1  0.42187000  0.87064000  0.63760000  1.0
  C  C59  1  0.57813000  0.12936000  0.36240000  1.0
  C  C60  1  0.38562000  0.85783000  0.75190000  1.0
  C  C61  1  0.61438000  0.14217000  0.24810000  1.0
  C  C62  1  0.48417000  0.85213000  0.81321000  1.0
  C  C63  1  0.51582000  0.14787000  0.18679000  1.0
  C  C64  1  0.61699000  0.85909000  0.76105000  1.0
  C  C65  1  0.38301000  0.14091000  0.23895000  1.0
  C  C66  1  0.24397000  0.84780000  0.80842000  1.0
  C  C67  1  0.75603000  0.15220000  0.19158000  1.0
  C  C68  1  0.65989000  0.83280000  0.25033000  1.0
  C  C69  1  0.34011000  0.16720000  0.74967000  1.0
  C  C70  1  0.51793000  0.85001000  0.23529000  1.0
  C  C71  1  0.48207000  0.14999000  0.76471000  1.0
  C  C72  1  0.49089000  0.87375000  0.12822000  1.0
  C  C73  1  0.50911000  0.12625000  0.87178000  1.0
  C  C74  1  0.36052000  0.89379000  0.11145000  1.0
  C  C75  1  0.63948000  0.10621000  0.88855000  1.0
  C  C76  1  0.25456000  0.88867000  0.20208000  1.0
  C  C77  1  0.74544000  0.11133000  0.79793000  1.0
  C  C78  1  0.28136000  0.86434000  0.30904000  1.0
  C  C79  1  0.71864000  0.13566000  0.69096000  1.0
  C  C80  1  0.41249000  0.84598000  0.32518000  1.0
  C  C81  1  0.58751000  0.15402000  0.67482000  1.0
  C  C82  1  0.91331000  0.61147000  0.08435000  1.0
  C  C83  1  0.08670000  0.38853000  0.91565000  1.0
  C  C84  1  0.86966000  0.68614000  0.91752000  1.0
  C  C85  1  0.13034000  0.31386000  0.08248000  1.0
  C  C86  1  0.81361000  0.58275000  0.96055000  1.0
  C  C87  1  0.18640000  0.41725000  0.03945000  1.0
  C  C88  1  0.80796000  0.42388000  0.14165000  1.0
  C  C89  1  0.19204000  0.57612000  0.85835000  1.0
  C  C90  1  0.68282000  0.42520000  0.22805000  1.0
  C  C91  1  0.31718000  0.57480000  0.77195000  1.0
  C  C92  1  0.56074000  0.45598000  0.19312000  1.0
  C  C93  1  0.43926000  0.54401000  0.80688000  1.0
  C  C94  1  0.44163000  0.45352000  0.26928000  1.0
  C  C95  1  0.55837000  0.54647000  0.73073000  1.0
  C  C96  1  0.44337000  0.42004000  0.38252000  1.0
  C  C97  1  0.55663000  0.57995000  0.61748000  1.0
  C  C98  1  0.56444000  0.39066000  0.41833000  1.0
  C  C99  1  0.43556000  0.60934000  0.58167000  1.0
  C  C100  1  0.68481000  0.39178000  0.34255000  1.0
  C  C101  1  0.31519000  0.60822000  0.65745000  1.0
  C  C102  1  0.81261000  0.35663000  0.38660000  1.0
  C  C103  1  0.18739000  0.64337000  0.61340000  1.0
  C  C104  1  0.83150000  0.56249000  0.36804000  1.0
  C  C105  1  0.16850000  0.43751000  0.63196000  1.0
  C  C106  1  0.02306000  0.45865000  0.36135000  1.0
  C  C107  1  0.97694000  0.54135000  0.63865000  1.0
  C  C108  1  0.04500000  0.56936000  0.35194000  1.0
  C  C109  1  0.95500000  0.43064000  0.64806000  1.0
  N  N110  1  0.93162000  0.70237000  0.99594000  1.0
  N  N111  1  0.06839000  0.29763000  0.00405000  1.0
  N  N112  1  0.84229000  0.53643000  0.06599000  1.0
  N  N113  1  0.15771000  0.46357000  0.93401000  1.0
  N  N114  1  0.92478000  0.63274000  0.35644000  1.0
  N  N115  1  0.07522000  0.36726000  0.64356000  1.0
  N  N116  1  0.88721000  0.45637000  0.37115000  1.0
  N  N117  1  0.11279000  0.54363000  0.62885000  1.0
  O  O118  1  0.83642000  0.99940000  0.49300000  1.0
  O  O119  1  0.16358000  0.00060000  0.50700000  1.0
  O  O120  1  0.90733000  0.86090000  0.66808000  1.0
  O  O121  1  0.09267000  0.13910000  0.33193000  1.0
  O  O122  1  0.86164000  0.78311000  0.52017000  1.0
  O  O123  1  0.13836000  0.21689000  0.47983000  1.0
  O  O124  1  0.15651000  0.84046000  0.75435000  1.0
  O  O125  1  0.84349000  0.15954000  0.24565000  1.0
  O  O126  1  0.21510000  0.84060000  0.91158000  1.0
  O  O127  1  0.78490000  0.15941000  0.08842000  1.0
  O  O128  1  0.08415000  0.03411000  0.09090000  1.0
  O  O129  1  0.91584000  0.96589000  0.90910000  1.0
  O  O130  1  0.05839000  0.81858000  0.13484000  1.0
  O  O131  1  0.94161000  0.18142000  0.86516000  1.0
  O  O132  1  0.99153000  0.91368000  0.28797000  1.0
  O  O133  1  0.00847000  0.08632000  0.71203000  1.0
  O  O134  1  0.67638000  0.81362000  0.35265000  1.0
  O  O135  1  0.32362000  0.18638000  0.64735000  1.0
  O  O136  1  0.75295000  0.83633000  0.16987000  1.0
  O  O137  1  0.24705000  0.16367000  0.83013000  1.0
