# generated using pymatgen
data_UH8C14(SO3)2
_symmetry_space_group_name_H-M   'P 1'
_cell_length_a   10.34600000
_cell_length_b   10.83360000
_cell_length_c   14.09820000
_cell_angle_alpha   88.58400000
_cell_angle_beta   84.42570000
_cell_angle_gamma   76.99680000
_symmetry_Int_Tables_number   1
_chemical_formula_structural   UH8C14(SO3)2
_chemical_formula_sum   'U4 H32 C56 S8 O24'
_cell_volume   1532.38103515
_cell_formula_units_Z   4
loop_
 _symmetry_equiv_pos_site_id
 _symmetry_equiv_pos_as_xyz
  1  'x, y, z'
loop_
 _atom_site_type_symbol
 _atom_site_label
 _atom_site_symmetry_multiplicity
 _atom_site_fract_x
 _atom_site_fract_y
 _atom_site_fract_z
 _atom_site_occupancy
  U  U0  1  0.69881000  0.55230000  0.14208000  1.0
  U  U1  1  0.30119000  0.44770000  0.85792000  1.0
  U  U2  1  0.18182000  0.63077000  0.19735000  1.0
  U  U3  1  0.81818000  0.36924000  0.80265000  1.0
  H  H4  1  0.28427000  0.97680000  0.04506000  1.0
  H  H5  1  0.71573000  0.02320000  0.95494000  1.0
  H  H6  1  0.31212000  0.13101000  0.91384000  1.0
  H  H7  1  0.68788000  0.86899000  0.08616000  1.0
  H  H8  1  0.46992000  0.06300000  0.77193000  1.0
  H  H9  1  0.53008000  0.93701000  0.22807000  1.0
  H  H10  1  0.57928000  0.68711000  0.89189000  1.0
  H  H11  1  0.42071000  0.31289000  0.10811000  1.0
  H  H12  1  0.26410000  0.55180000  0.46381000  1.0
  H  H13  1  0.73590000  0.44820000  0.53619000  1.0
  H  H14  1  0.24471000  0.41546000  0.60827000  1.0
  H  H15  1  0.75529000  0.58454000  0.39173000  1.0
  H  H16  1  0.40696000  0.21473000  0.62611000  1.0
  H  H17  1  0.59303000  0.78527000  0.37389000  1.0
  H  H18  1  0.61307000  0.27800000  0.35392000  1.0
  H  H19  1  0.38693000  0.72200000  0.64608000  1.0
  H  H20  1  0.78887000  0.74937000  0.88030000  1.0
  H  H21  1  0.21113000  0.25063000  0.11970000  1.0
  H  H22  1  0.99050000  0.03045000  0.75367000  1.0
  H  H23  1  0.00950000  0.96955000  0.24633000  1.0
  H  H24  1  0.15324000  0.98228000  0.87378000  1.0
  H  H25  1  0.84675000  0.01773000  0.12622000  1.0
  H  H26  1  0.12961000  0.82504000  0.00236000  1.0
  H  H27  1  0.87039000  0.17496000  0.99764000  1.0
  H  H28  1  0.82360000  0.26875000  0.28357000  1.0
  H  H29  1  0.17640000  0.73126000  0.71643000  1.0
  H  H30  1  0.92656000  0.09809000  0.55376000  1.0
  H  H31  1  0.07344000  0.90191000  0.44624000  1.0
  H  H32  1  0.07060000  0.24893000  0.57134000  1.0
  H  H33  1  0.92940000  0.75108000  0.42866000  1.0
  H  H34  1  0.09286000  0.40991000  0.44369000  1.0
  H  H35  1  0.90713000  0.59010000  0.55631000  1.0
  C  C36  1  0.41634000  0.73349000  0.05483000  1.0
  C  C37  1  0.58366000  0.26651000  0.94516000  1.0
  C  C38  1  0.42852000  0.82308000  0.97529000  1.0
  C  C39  1  0.57148000  0.17693000  0.02470000  1.0
  C  C40  1  0.35292000  0.94766000  0.98194000  1.0
  C  C41  1  0.64708000  0.05234000  0.01806000  1.0
  C  C42  1  0.36907000  0.03347000  0.90886000  1.0
  C  C43  1  0.63093000  0.96653000  0.09114000  1.0
  C  C44  1  0.45790000  0.99526000  0.82866000  1.0
  C  C45  1  0.54210000  0.00474000  0.17134000  1.0
  C  C46  1  0.53343000  0.87031000  0.82235000  1.0
  C  C47  1  0.46657000  0.12969000  0.17765000  1.0
  C  C48  1  0.51967000  0.78401000  0.89572000  1.0
  C  C49  1  0.48033000  0.21600000  0.10428000  1.0
  C  C50  1  0.45184000  0.50006000  0.31339000  1.0
  C  C51  1  0.54817000  0.49993000  0.68661000  1.0
  C  C52  1  0.44042000  0.42252000  0.40075000  1.0
  C  C53  1  0.55958000  0.57747000  0.59925000  1.0
  C  C54  1  0.33511000  0.46199000  0.47162000  1.0
  C  C55  1  0.66489000  0.53801000  0.52838000  1.0
  C  C56  1  0.32472000  0.38592000  0.55191000  1.0
  C  C57  1  0.67528000  0.61408000  0.44809000  1.0
  C  C58  1  0.41675000  0.27176000  0.56212000  1.0
  C  C59  1  0.58325000  0.72824000  0.43788000  1.0
  C  C60  1  0.52153000  0.23214000  0.49070000  1.0
  C  C61  1  0.47847000  0.76785000  0.50930000  1.0
  C  C62  1  0.53371000  0.30820000  0.41052000  1.0
  C  C63  1  0.46629000  0.69180000  0.58948000  1.0
  C  C64  1  0.93960000  0.69062000  0.02979000  1.0
  C  C65  1  0.06040000  0.30938000  0.97021000  1.0
  C  C66  1  0.95661000  0.77951000  0.94994000  1.0
  C  C67  1  0.04339000  0.22049000  0.05006000  1.0
  C  C68  1  0.86667000  0.80249000  0.87929000  1.0
  C  C69  1  0.13333000  0.19751000  0.12071000  1.0
  C  C70  1  0.87922000  0.89320000  0.80895000  1.0
  C  C71  1  0.12078000  0.10680000  0.19105000  1.0
  C  C72  1  0.98249000  0.95827000  0.80779000  1.0
  C  C73  1  0.01751000  0.04174000  0.19221000  1.0
  C  C74  1  0.07268000  0.93246000  0.87637000  1.0
  C  C75  1  0.92732000  0.06754000  0.12363000  1.0
  C  C76  1  0.06007000  0.84399000  0.94798000  1.0
  C  C77  1  0.93993000  0.15601000  0.05202000  1.0
  C  C78  1  0.96496000  0.44743000  0.28272000  1.0
  C  C79  1  0.03504000  0.55257000  0.71727000  1.0
  C  C80  1  0.95778000  0.34983000  0.35717000  1.0
  C  C81  1  0.04222000  0.65017000  0.64283000  1.0
  C  C82  1  0.87728000  0.26397000  0.34675000  1.0
  C  C83  1  0.12271000  0.73604000  0.65325000  1.0
  C  C84  1  0.86868000  0.17188000  0.41645000  1.0
  C  C85  1  0.13131000  0.82812000  0.58355000  1.0
  C  C86  1  0.93698000  0.16766000  0.49808000  1.0
  C  C87  1  0.06302000  0.83235000  0.50192000  1.0
  C  C88  1  0.01716000  0.25349000  0.50806000  1.0
  C  C89  1  0.98284000  0.74651000  0.49194000  1.0
  C  C90  1  0.02918000  0.34360000  0.43742000  1.0
  C  C91  1  0.97082000  0.65640000  0.56258000  1.0
  S  S92  1  0.65091000  0.81679000  0.72241000  1.0
  S  S93  1  0.34909000  0.18321000  0.27759000  1.0
  S  S94  1  0.63271000  0.08536000  0.51090000  1.0
  S  S95  1  0.36729000  0.91464000  0.48910000  1.0
  S  S96  1  0.77087000  0.94215000  0.71836000  1.0
  S  S97  1  0.22913000  0.05785000  0.28165000  1.0
  S  S98  1  0.77048000  0.06110000  0.39566000  1.0
  S  S99  1  0.22952000  0.93890000  0.60434000  1.0
  O  O100  1  0.67604000  0.69558000  0.21111000  1.0
  O  O101  1  0.32396000  0.30442000  0.78889000  1.0
  O  O102  1  0.84260000  0.63483000  0.03386000  1.0
  O  O103  1  0.15740000  0.36517000  0.96614000  1.0
  O  O104  1  0.56005000  0.47687000  0.25853000  1.0
  O  O105  1  0.43996000  0.52313000  0.74147000  1.0
  O  O106  1  0.51474000  0.64108000  0.06681000  1.0
  O  O107  1  0.48526000  0.35892000  0.93319000  1.0
  O  O108  1  0.72049000  0.40798000  0.07543000  1.0
  O  O109  1  0.27951000  0.59202000  0.92457000  1.0
  O  O110  1  0.88265000  0.46256000  0.21910000  1.0
  O  O111  1  0.11734000  0.53744000  0.78090000  1.0
  O  O112  1  0.26486000  0.48999000  0.13127000  1.0
  O  O113  1  0.73514000  0.51001000  0.86873000  1.0
  O  O114  1  0.30800000  0.75300000  0.10968000  1.0
  O  O115  1  0.69201000  0.24700000  0.89031000  1.0
  O  O116  1  0.05222000  0.51325000  0.28520000  1.0
  O  O117  1  0.94779000  0.48675000  0.71480000  1.0
  O  O118  1  0.35067000  0.58734000  0.29598000  1.0
  O  O119  1  0.64933000  0.41265000  0.70402000  1.0
  O  O120  1  0.02109000  0.67450000  0.09400000  1.0
  O  O121  1  0.97891000  0.32550000  0.90600000  1.0
  O  O122  1  0.09997000  0.76736000  0.26906000  1.0
  O  O123  1  0.90003000  0.23263000  0.73094000  1.0
