# generated using pymatgen
data_Zn3H30C54(NO9)2
_symmetry_space_group_name_H-M   'P 1'
_cell_length_a   10.21410000
_cell_length_b   10.54380000
_cell_length_c   12.78600000
_cell_angle_alpha   97.25590000
_cell_angle_beta   94.23310000
_cell_angle_gamma   114.11500000
_symmetry_Int_Tables_number   1
_chemical_formula_structural   Zn3H30C54(NO9)2
_chemical_formula_sum   'Zn3 H30 C54 N2 O18'
_cell_volume   1234.73612212
_cell_formula_units_Z   1
loop_
 _symmetry_equiv_pos_site_id
 _symmetry_equiv_pos_as_xyz
  1  'x, y, z'
loop_
 _atom_site_type_symbol
 _atom_site_label
 _atom_site_symmetry_multiplicity
 _atom_site_fract_x
 _atom_site_fract_y
 _atom_site_fract_z
 _atom_site_occupancy
  Zn  Zn0  1  0.49997000  0.00000000  0.50000000  1.0
  Zn  Zn1  1  0.66414000  0.80391000  0.55838000  1.0
  Zn  Zn2  1  0.33586000  0.19612000  0.44161000  1.0
  H  H3  1  0.44868000  0.45720000  0.28516000  1.0
  H  H4  1  0.55134000  0.54282000  0.71483000  1.0
  H  H5  1  0.18198000  0.68410000  0.28460000  1.0
  H  H6  1  0.81799000  0.31588000  0.71541000  1.0
  H  H7  1  0.29549000  0.29312000  0.12427000  1.0
  H  H8  1  0.70454000  0.70689000  0.87573000  1.0
  H  H9  1  0.61520000  0.51492000  0.45000000  1.0
  H  H10  1  0.38479000  0.48510000  0.54999000  1.0
  H  H11  1  0.26800000  0.36806000  0.93096000  1.0
  H  H12  1  0.73200000  0.63193000  0.06905000  1.0
  H  H13  1  0.73567000  0.09215000  0.87643000  1.0
  H  H14  1  0.26434000  0.90784000  0.12357000  1.0
  H  H15  1  0.87890000  0.05559000  0.12795000  1.0
  H  H16  1  0.12111000  0.94439000  0.87206000  1.0
  H  H17  1  0.71320000  0.01656000  0.26638000  1.0
  H  H18  1  0.28680000  0.98343000  0.73362000  1.0
  H  H19  1  0.60878000  0.35265000  0.18872000  1.0
  H  H20  1  0.39122000  0.64734000  0.81128000  1.0
  H  H21  1  0.76515000  0.38453000  0.04418000  1.0
  H  H22  1  0.23486000  0.61545000  0.95581000  1.0
  H  H23  1  0.75581000  0.37741000  0.41838000  1.0
  H  H24  1  0.24418000  0.62259000  0.58162000  1.0
  H  H25  1  0.12930000  0.73541000  0.59638000  1.0
  H  H26  1  0.87069000  0.26460000  0.40362000  1.0
  H  H27  1  0.97303000  0.85886000  0.62023000  1.0
  H  H28  1  0.02696000  0.14115000  0.37976000  1.0
  H  H29  1  0.02819000  0.52101000  0.12066000  1.0
  H  H30  1  0.97179000  0.47896000  0.87934000  1.0
  H  H31  1  0.35389000  0.31252000  0.68327000  1.0
  H  H32  1  0.64612000  0.68752000  0.31672000  1.0
  C  C33  1  0.42494000  0.69598000  0.38313000  1.0
  C  C34  1  0.57505000  0.30404000  0.61687000  1.0
  C  C35  1  0.32797000  0.58567000  0.29240000  1.0
  C  C36  1  0.67202000  0.41433000  0.70760000  1.0
  C  C37  1  0.35831000  0.47343000  0.24845000  1.0
  C  C38  1  0.64169000  0.52658000  0.75156000  1.0
  C  C39  1  0.20554000  0.59846000  0.24769000  1.0
  C  C40  1  0.79444000  0.40153000  0.75231000  1.0
  C  C41  1  0.27222000  0.38096000  0.15751000  1.0
  C  C42  1  0.72779000  0.61904000  0.84249000  1.0
  C  C43  1  0.15429000  0.39865000  0.10884000  1.0
  C  C44  1  0.84571000  0.60134000  0.89117000  1.0
  C  C45  1  0.72931000  0.55949000  0.48229000  1.0
  C  C46  1  0.27068000  0.44053000  0.51770000  1.0
  C  C47  1  0.07346000  0.31108000  0.00522000  1.0
  C  C48  1  0.92655000  0.68891000  0.99479000  1.0
  C  C49  1  0.15076000  0.30785000  0.91948000  1.0
  C  C50  1  0.84925000  0.69214000  0.08053000  1.0
  C  C51  1  0.08196000  0.22831000  0.81914000  1.0
  C  C52  1  0.91805000  0.77169000  0.18086000  1.0
  C  C53  1  0.16753000  0.21748000  0.73153000  1.0
  C  C54  1  0.83249000  0.78253000  0.26847000  1.0
  C  C55  1  0.93104000  0.14967000  0.80391000  1.0
  C  C56  1  0.06898000  0.85032000  0.19609000  1.0
  C  C57  1  0.84792000  0.04683000  0.70528000  1.0
  C  C58  1  0.15209000  0.95318000  0.29472000  1.0
  C  C59  1  0.85274000  0.15413000  0.88828000  1.0
  C  C60  1  0.14727000  0.84586000  0.11172000  1.0
  C  C61  1  0.92145000  0.23333000  0.98870000  1.0
  C  C62  1  0.07856000  0.76666000  0.01130000  1.0
  C  C63  1  0.55034000  0.15283000  0.31824000  1.0
  C  C64  1  0.44966000  0.84716000  0.68175000  1.0
  C  C65  1  0.81769000  0.11899000  0.14012000  1.0
  C  C66  1  0.18232000  0.88099000  0.85989000  1.0
  C  C67  1  0.72557000  0.09709000  0.21738000  1.0
  C  C68  1  0.27443000  0.90290000  0.78263000  1.0
  C  C69  1  0.64867000  0.18035000  0.23434000  1.0
  C  C70  1  0.35133000  0.81964000  0.76566000  1.0
  C  C71  1  0.66575000  0.28595000  0.17330000  1.0
  C  C72  1  0.33426000  0.71404000  0.82670000  1.0
  C  C73  1  0.75459000  0.30463000  0.09351000  1.0
  C  C74  1  0.24542000  0.69535000  0.90649000  1.0
  C  C75  1  0.83129000  0.22154000  0.07639000  1.0
  C  C76  1  0.16871000  0.77844000  0.92361000  1.0
  C  C77  1  0.81004000  0.48280000  0.46446000  1.0
  C  C78  1  0.18995000  0.51721000  0.53554000  1.0
  C  C79  1  0.95659000  0.54103000  0.50716000  1.0
  C  C80  1  0.04340000  0.45898000  0.49284000  1.0
  C  C81  1  0.01567000  0.67974000  0.56332000  1.0
  C  C82  1  0.98432000  0.32027000  0.43668000  1.0
  C  C83  1  0.92848000  0.75084000  0.57756000  1.0
  C  C84  1  0.07151000  0.24917000  0.42243000  1.0
  C  C85  1  0.11981000  0.50638000  0.15683000  1.0
  C  C86  1  0.88018000  0.49360000  0.84318000  1.0
  N  N87  1  0.78624000  0.69115000  0.53909000  1.0
  N  N88  1  0.21375000  0.30887000  0.46090000  1.0
  O  O89  1  0.12120000  0.11681000  0.65766000  1.0
  O  O90  1  0.87884000  0.88319000  0.34235000  1.0
  O  O91  1  0.29813000  0.32590000  0.74360000  1.0
  O  O92  1  0.70188000  0.67413000  0.25640000  1.0
  O  O93  1  0.80250000  0.91853000  0.70585000  1.0
  O  O94  1  0.19749000  0.08148000  0.29415000  1.0
  O  O95  1  0.81741000  0.10466000  0.62568000  1.0
  O  O96  1  0.18261000  0.89535000  0.37432000  1.0
  O  O97  1  0.55141000  0.69828000  0.40896000  1.0
  O  O98  1  0.44859000  0.30176000  0.59103000  1.0
  O  O99  1  0.38259000  0.78135000  0.42991000  1.0
  O  O100  1  0.61738000  0.21864000  0.57010000  1.0
  O  O101  1  0.50133000  0.24345000  0.34882000  1.0
  O  O102  1  0.49867000  0.75655000  0.65117000  1.0
  O  O103  1  0.52413000  0.03816000  0.35288000  1.0
  O  O104  1  0.47586000  0.96183000  0.64712000  1.0
  O  O105  1  0.72904000  0.00326000  0.53125000  1.0
  O  O106  1  0.27098000  0.99676000  0.46875000  1.0
