# generated using pymatgen
data_Co2H32C52N10O9
_symmetry_space_group_name_H-M   'P 1'
_cell_length_a   11.88050000
_cell_length_b   15.29195152
_cell_length_c   16.51520000
_cell_angle_alpha   65.87919220
_cell_angle_beta   69.88100000
_cell_angle_gamma   68.04462029
_symmetry_Int_Tables_number   1
_chemical_formula_structural   Co2H32C52N10O9
_chemical_formula_sum   'Co4 H64 C104 N20 O18'
_cell_volume   2474.21010352
_cell_formula_units_Z   2
loop_
 _symmetry_equiv_pos_site_id
 _symmetry_equiv_pos_as_xyz
  1  'x, y, z'
loop_
 _atom_site_type_symbol
 _atom_site_label
 _atom_site_symmetry_multiplicity
 _atom_site_fract_x
 _atom_site_fract_y
 _atom_site_fract_z
 _atom_site_occupancy
  Co  Co0  1  0.00000000  0.50000000  0.00000000  1.0
  Co  Co1  1  0.50000000  0.00000000  0.50000000  1.0
  Co  Co2  1  0.50000000  0.50000000  1.00000000  1.0
  Co  Co3  1  0.00000000  0.00000000  0.50000000  1.0
  H  H4  1  0.02069000  0.70288000  0.97912000  1.0
  H  H5  1  0.70083000  0.80930000  0.52017000  1.0
  H  H6  1  0.97930000  0.29712000  0.02088000  1.0
  H  H7  1  0.29917000  0.19070000  0.47984000  1.0
  H  H8  1  0.89261000  0.87744000  0.95046000  1.0
  H  H9  1  0.71942000  0.63388000  0.54991000  1.0
  H  H10  1  0.10739000  0.12256000  0.04955000  1.0
  H  H11  1  0.28057000  0.36613000  0.45010000  1.0
  H  H12  1  0.62221000  0.78942000  0.90038000  1.0
  H  H13  1  0.31780000  0.71502000  0.59332000  1.0
  H  H14  1  0.37779000  0.21058000  0.09962000  1.0
  H  H15  1  0.68221000  0.28498000  0.40668000  1.0
  H  H16  1  0.75879000  0.61953000  0.93512000  1.0
  H  H17  1  0.31735000  0.88638000  0.55836000  1.0
  H  H18  1  0.24121000  0.38047000  0.06488000  1.0
  H  H19  1  0.68266000  0.11362000  0.44164000  1.0
  H  H20  1  0.39121000  0.11226000  0.76891000  1.0
  H  H21  1  0.28244000  0.38617000  0.72271000  1.0
  H  H22  1  0.60879000  0.88773000  0.23109000  1.0
  H  H23  1  0.71755000  0.61383000  0.27729000  1.0
  H  H24  1  0.35570000  0.09499000  0.63664000  1.0
  H  H25  1  0.09886000  0.40256000  0.85290000  1.0
  H  H26  1  0.64431000  0.90500000  0.36337000  1.0
  H  H27  1  0.90114000  0.59744000  0.14710000  1.0
  H  H28  1  0.68838000  0.87520000  0.61358000  1.0
  H  H29  1  0.17911000  0.63222000  0.87398000  1.0
  H  H30  1  0.31163000  0.12481000  0.38641000  1.0
  H  H31  1  0.82089000  0.36778000  0.12602000  1.0
  H  H32  1  0.73446000  0.87790000  0.74520000  1.0
  H  H33  1  0.36340000  0.62620000  0.74808000  1.0
  H  H34  1  0.26555000  0.12210000  0.25479000  1.0
  H  H35  1  0.63661000  0.37379000  0.25192000  1.0
  H  H36  1  0.67104000  0.11861000  0.04915000  1.0
  H  H37  1  0.83893000  0.38687000  0.44710000  1.0
  H  H38  1  0.32897000  0.88138000  0.95085000  1.0
  H  H39  1  0.16107000  0.61313000  0.55290000  1.0
  H  H40  1  0.63342000  0.27587000  0.07774000  1.0
  H  H41  1  0.98476000  0.22977000  0.42125000  1.0
  H  H42  1  0.36658000  0.72413000  0.92226000  1.0
  H  H43  1  0.01524000  0.77023000  0.57876000  1.0
  H  H44  1  0.44855000  0.44419000  0.86940000  1.0
  H  H45  1  0.76625000  0.05933000  0.63072000  1.0
  H  H46  1  0.55145000  0.55580000  0.13060000  1.0
  H  H47  1  0.23374000  0.94068000  0.36928000  1.0
  H  H48  1  0.47670000  0.29410000  0.83006000  1.0
  H  H49  1  0.60751000  0.20896000  0.66716000  1.0
  H  H50  1  0.52329000  0.70590000  0.16994000  1.0
  H  H51  1  0.39248000  0.79105000  0.33284000  1.0
  H  H52  1  0.33822000  0.50379000  0.31071000  1.0
  H  H53  1  0.15452000  0.99645000  0.18784000  1.0
  H  H54  1  0.66178000  0.49622000  0.68929000  1.0
  H  H55  1  0.84549000  0.00354000  0.81216000  1.0
  H  H56  1  0.16692000  0.65069000  0.34015000  1.0
  H  H57  1  0.15813000  0.84718000  0.15953000  1.0
  H  H58  1  0.83307000  0.34932000  0.65985000  1.0
  H  H59  1  0.84186000  0.15282000  0.84047000  1.0
  H  H60  1  0.03133000  0.68253000  0.11725000  1.0
  H  H61  1  0.83678000  0.81488000  0.37957000  1.0
  H  H62  1  0.96867000  0.31748000  0.88275000  1.0
  H  H63  1  0.16322000  0.18512000  0.62043000  1.0
  H  H64  1  0.70527000  0.98943000  0.00141000  1.0
  H  H65  1  0.69795000  0.51799000  0.49589000  1.0
  H  H66  1  0.29472000  0.01057000  0.99859000  1.0
  H  H67  1  0.30205000  0.48201000  0.50411000  1.0
  C  C68  1  0.93048000  0.72499000  0.96326000  1.0
  C  C69  1  0.61825000  0.78530000  0.53619000  1.0
  C  C70  1  0.06952000  0.27501000  0.03675000  1.0
  C  C71  1  0.38176000  0.21470000  0.46382000  1.0
  C  C72  1  0.85689000  0.82240000  0.94849000  1.0
  C  C73  1  0.62756000  0.68711000  0.55096000  1.0
  C  C74  1  0.14311000  0.17760000  0.05152000  1.0
  C  C75  1  0.37244000  0.31289000  0.44904000  1.0
  C  C76  1  0.74263000  0.84939000  0.92499000  1.0
  C  C77  1  0.51966000  0.65705000  0.57215000  1.0
  C  C78  1  0.25737000  0.15061000  0.07502000  1.0
  C  C79  1  0.48034000  0.34295000  0.42786000  1.0
  C  C80  1  0.70919000  0.77436000  0.91819000  1.0
  C  C81  1  0.40613000  0.73130000  0.57722000  1.0
  C  C82  1  0.29081000  0.22564000  0.08181000  1.0
  C  C83  1  0.59388000  0.26870000  0.42278000  1.0
  C  C84  1  0.78711000  0.67845000  0.93633000  1.0
  C  C85  1  0.40461000  0.82842000  0.55942000  1.0
  C  C86  1  0.21290000  0.32155000  0.06366000  1.0
  C  C87  1  0.59539000  0.17159000  0.44058000  1.0
  C  C88  1  0.66531000  0.95143000  0.90614000  1.0
  C  C89  1  0.52694000  0.55395000  0.58972000  1.0
  C  C90  1  0.33469000  0.04857000  0.09386000  1.0
  C  C91  1  0.47306000  0.44605000  0.41028000  1.0
  C  C92  1  0.59155000  0.10664000  0.91303000  1.0
  C  C93  1  0.61593000  0.39844000  0.58276000  1.0
  C  C94  1  0.40845000  0.89336000  0.08697000  1.0
  C  C95  1  0.38406000  0.60157000  0.41724000  1.0
  C  C96  1  0.59062000  0.01330000  0.84291000  1.0
  C  C97  1  0.45280000  0.49009000  0.65140000  1.0
  C  C98  1  0.40938000  0.98669000  0.15709000  1.0
  C  C99  1  0.54720000  0.50991000  0.34860000  1.0
  C  C100  1  0.56549000  0.99567000  0.77084000  1.0
  C  C101  1  0.33874000  0.50632000  0.72181000  1.0
  C  C102  1  0.43452000  0.00433000  0.22916000  1.0
  C  C103  1  0.66126000  0.49368000  0.27819000  1.0
  C  C104  1  0.45796000  0.05690000  0.73761000  1.0
  C  C105  1  0.26101000  0.44310000  0.75345000  1.0
  C  C106  1  0.54204000  0.94309000  0.26239000  1.0
  C  C107  1  0.73898000  0.55690000  0.24655000  1.0
  C  C108  1  0.43880000  0.04982000  0.66276000  1.0
  C  C109  1  0.16024000  0.45067000  0.82662000  1.0
  C  C110  1  0.56119000  0.95018000  0.33724000  1.0
  C  C111  1  0.83975000  0.54933000  0.17338000  1.0
  C  C112  1  0.62257000  0.92526000  0.65052000  1.0
  C  C113  1  0.20342000  0.57919000  0.83856000  1.0
  C  C114  1  0.37743000  0.07475000  0.34948000  1.0
  C  C115  1  0.79657000  0.42081000  0.16145000  1.0
  C  C116  1  0.64733000  0.92690000  0.72617000  1.0
  C  C117  1  0.30645000  0.57665000  0.76577000  1.0
  C  C118  1  0.35268000  0.07310000  0.27383000  1.0
  C  C119  1  0.69354000  0.42335000  0.23423000  1.0
  C  C120  1  0.57561000  0.19308000  0.93629000  1.0
  C  C121  1  0.70838000  0.31186000  0.56057000  1.0
  C  C122  1  0.42439000  0.80692000  0.06370000  1.0
  C  C123  1  0.29161000  0.68815000  0.43943000  1.0
  C  C124  1  0.62175000  0.18872000  0.00616000  1.0
  C  C125  1  0.81767000  0.31638000  0.49111000  1.0
  C  C126  1  0.37825000  0.81128000  0.99384000  1.0
  C  C127  1  0.18233000  0.68362000  0.50889000  1.0
  C  C128  1  0.60235000  0.27611000  0.02271000  1.0
  C  C129  1  0.90100000  0.22882000  0.47605000  1.0
  C  C130  1  0.39764000  0.72389000  0.97729000  1.0
  C  C131  1  0.09900000  0.77118000  0.52395000  1.0
  C  C132  1  0.49746000  0.37014000  0.90658000  1.0
  C  C133  1  0.77783000  0.13381000  0.59249000  1.0
  C  C134  1  0.50253000  0.62986000  0.09342000  1.0
  C  C135  1  0.22218000  0.86618000  0.40751000  1.0
  C  C136  1  0.51229000  0.28704000  0.88565000  1.0
  C  C137  1  0.68973000  0.21697000  0.61194000  1.0
  C  C138  1  0.48771000  0.71296000  0.11435000  1.0
  C  C139  1  0.31027000  0.78303000  0.38805000  1.0
  C  C140  1  0.38288000  0.41320000  0.19114000  1.0
  C  C141  1  0.99198000  0.08765000  0.30681000  1.0
  C  C142  1  0.61712000  0.58680000  0.80886000  1.0
  C  C143  1  0.00802000  0.91235000  0.69318000  1.0
  C  C144  1  0.28382000  0.50968000  0.19723000  1.0
  C  C145  1  0.99554000  0.99041000  0.29990000  1.0
  C  C146  1  0.71617000  0.49033000  0.80277000  1.0
  C  C147  1  0.00447000  0.00958000  0.70010000  1.0
  C  C148  1  0.27086000  0.54334000  0.26804000  1.0
  C  C149  1  0.08496000  0.95630000  0.23011000  1.0
  C  C150  1  0.72913000  0.45667000  0.73196000  1.0
  C  C151  1  0.91505000  0.04369000  0.76988000  1.0
  C  C152  1  0.17511000  0.62500000  0.28521000  1.0
  C  C153  1  0.08727000  0.87323000  0.21366000  1.0
  C  C154  1  0.82488000  0.37501000  0.71479000  1.0
  C  C155  1  0.91272000  0.12677000  0.78634000  1.0
  C  C156  1  0.08757000  0.67328000  0.23100000  1.0
  C  C157  1  0.99522000  0.82388000  0.26748000  1.0
  C  C158  1  0.91241000  0.32673000  0.76900000  1.0
  C  C159  1  0.00478000  0.17612000  0.73251000  1.0
  C  C160  1  0.09962000  0.64289000  0.15934000  1.0
  C  C161  1  0.90705000  0.85489000  0.33804000  1.0
  C  C162  1  0.90038000  0.35711000  0.84066000  1.0
  C  C163  1  0.09295000  0.14511000  0.66196000  1.0
  C  C164  1  0.19824000  0.56256000  0.14092000  1.0
  C  C165  1  0.90791000  0.93667000  0.35565000  1.0
  C  C166  1  0.80175000  0.43745000  0.85909000  1.0
  C  C167  1  0.09210000  0.06333000  0.64435000  1.0
  C  C168  1  0.20598000  0.53690000  0.06055000  1.0
  C  C169  1  0.81014000  0.96478000  0.43337000  1.0
  C  C170  1  0.79402000  0.46310000  0.93945000  1.0
  C  C171  1  0.18986000  0.03522000  0.56662000  1.0
  N  N172  1  0.89663000  0.65240000  0.95908000  1.0
  N  N173  1  0.50890000  0.85703000  0.53849000  1.0
  N  N174  1  0.10336000  0.34760000  0.04093000  1.0
  N  N175  1  0.49111000  0.14297000  0.46151000  1.0
  N  N176  1  0.66327000  0.01267000  0.94932000  1.0
  N  N177  1  0.62874000  0.49354000  0.54742000  1.0
  N  N178  1  0.33672000  0.98733000  0.05068000  1.0
  N  N179  1  0.37126000  0.50646000  0.45258000  1.0
  N  N180  1  0.54578000  0.10792000  0.84921000  1.0
  N  N181  1  0.50917000  0.39569000  0.64519000  1.0
  N  N182  1  0.45421000  0.89208000  0.15079000  1.0
  N  N183  1  0.49082000  0.60431000  0.35481000  1.0
  N  N184  1  0.52137000  0.98681000  0.61719000  1.0
  N  N185  1  0.13208000  0.51626000  0.87045000  1.0
  N  N186  1  0.47864000  0.01319000  0.38281000  1.0
  N  N187  1  0.86792000  0.48374000  0.12955000  1.0
  N  N188  1  0.54144000  0.36578000  0.97373000  1.0
  N  N189  1  0.88261000  0.13823000  0.52600000  1.0
  N  N190  1  0.45855000  0.63422000  0.02627000  1.0
  N  N191  1  0.11739000  0.86177000  0.47400000  1.0
  O  O192  1  0.48791000  0.41923000  0.13238000  1.0
  O  O193  1  0.04275000  0.08253000  0.36737000  1.0
  O  O194  1  0.51208000  0.58077000  0.86763000  1.0
  O  O195  1  0.95726000  0.91746000  0.63263000  1.0
  O  O196  1  0.35908000  0.33416000  0.24631000  1.0
  O  O197  1  0.94467000  0.16615000  0.25123000  1.0
  O  O198  1  0.64091000  0.66584000  0.75369000  1.0
  O  O199  1  0.05534000  0.83384000  0.74877000  1.0
  O  O200  1  0.10135000  0.54394000  0.04894000  1.0
  O  O201  1  0.70260000  0.95841000  0.44214000  1.0
  O  O202  1  0.89865000  0.45606000  0.95106000  1.0
  O  O203  1  0.29741000  0.04159000  0.55785000  1.0
  O  O204  1  0.31063000  0.51196000  0.00856000  1.0
  O  O205  1  0.83627000  0.99300000  0.48566000  1.0
  O  O206  1  0.68937000  0.48804000  0.99144000  1.0
  O  O207  1  0.16372000  0.00701000  0.51434000  1.0
  O  O208  1  0.98173000  0.74776000  0.24953000  1.0
  O  O209  1  0.01826000  0.25224000  0.75047000  1.0
