# generated using pymatgen
data_TbAgH10C20(N3O4)2
_symmetry_space_group_name_H-M   'P 1'
_cell_length_a   9.14073000
_cell_length_b   11.05180000
_cell_length_c   11.05180000
_cell_angle_alpha   99.99720000
_cell_angle_beta   106.35800000
_cell_angle_gamma   106.35800000
_symmetry_Int_Tables_number   1
_chemical_formula_structural   TbAgH10C20(N3O4)2
_chemical_formula_sum   'Tb2 Ag2 H20 C40 N12 O16'
_cell_volume   988.36446202
_cell_formula_units_Z   2
loop_
 _symmetry_equiv_pos_site_id
 _symmetry_equiv_pos_as_xyz
  1  'x, y, z'
loop_
 _atom_site_type_symbol
 _atom_site_label
 _atom_site_symmetry_multiplicity
 _atom_site_fract_x
 _atom_site_fract_y
 _atom_site_fract_z
 _atom_site_occupancy
  Tb  Tb0  1  0.75000000  0.09292000  0.90708000  1.0
  Tb  Tb1  1  0.25000000  0.90707000  0.09293000  1.0
  Ag  Ag2  1  0.75000000  0.36551000  0.63449000  1.0
  Ag  Ag3  1  0.25000000  0.63449000  0.36551000  1.0
  H  H4  1  0.37616000  0.33685000  0.82176000  1.0
  H  H5  1  0.12384000  0.17824000  0.66315000  1.0
  H  H6  1  0.62383000  0.66315000  0.17824000  1.0
  H  H7  1  0.87617000  0.82176000  0.33685000  1.0
  H  H8  1  0.88258000  0.57094000  0.93949000  1.0
  H  H9  1  0.61742000  0.06051000  0.42906000  1.0
  H  H10  1  0.11742000  0.42906000  0.06051000  1.0
  H  H11  1  0.38258000  0.93949000  0.57094000  1.0
  H  H12  1  0.52205000  0.75362000  0.85273000  1.0
  H  H13  1  0.97796000  0.14728000  0.24638000  1.0
  H  H14  1  0.47795000  0.24638000  0.14727000  1.0
  H  H15  1  0.02205000  0.85273000  0.75362000  1.0
  H  H16  1  0.12183000  0.37232000  0.82997000  1.0
  H  H17  1  0.37817000  0.17003000  0.62768000  1.0
  H  H18  1  0.87817000  0.62768000  0.17003000  1.0
  H  H19  1  0.62183000  0.82997000  0.37232000  1.0
  H  H20  1  0.29318000  0.68165000  0.66912000  1.0
  H  H21  1  0.20682000  0.33089000  0.31835000  1.0
  H  H22  1  0.70681000  0.31835000  0.33088000  1.0
  H  H23  1  0.79318000  0.66912000  0.68165000  1.0
  C  C24  1  0.42988000  0.54305000  0.82809000  1.0
  C  C25  1  0.07012000  0.17191000  0.45695000  1.0
  C  C26  1  0.57011000  0.45695000  0.17190000  1.0
  C  C27  1  0.92989000  0.82809000  0.54305000  1.0
  C  C28  1  0.46912000  0.43234000  0.84297000  1.0
  C  C29  1  0.03088000  0.15703000  0.56766000  1.0
  C  C30  1  0.53088000  0.56766000  0.15703000  1.0
  C  C31  1  0.96912000  0.84297000  0.43234000  1.0
  C  C32  1  0.63272000  0.44281000  0.88484000  1.0
  C  C33  1  0.86728000  0.11516000  0.55719000  1.0
  C  C34  1  0.36728000  0.55719000  0.11516000  1.0
  C  C35  1  0.13272000  0.88484000  0.44281000  1.0
  C  C36  1  0.75531000  0.56360000  0.91075000  1.0
  C  C37  1  0.74469000  0.08925000  0.43640000  1.0
  C  C38  1  0.24469000  0.43640000  0.08925000  1.0
  C  C39  1  0.25531000  0.91075000  0.56360000  1.0
  C  C40  1  0.71409000  0.67513000  0.89997000  1.0
  C  C41  1  0.78591000  0.10003000  0.32487000  1.0
  C  C42  1  0.28590000  0.32487000  0.10003000  1.0
  C  C43  1  0.21409000  0.89997000  0.67513000  1.0
  C  C44  1  0.55088000  0.66530000  0.86012000  1.0
  C  C45  1  0.94912000  0.13988000  0.33470000  1.0
  C  C46  1  0.44912000  0.33469000  0.13987000  1.0
  C  C47  1  0.05088000  0.86013000  0.66531000  1.0
  C  C48  1  0.12644000  0.44610000  0.77659000  1.0
  C  C49  1  0.37356000  0.22342000  0.55390000  1.0
  C  C50  1  0.87356000  0.55389000  0.22341000  1.0
  C  C51  1  0.62644000  0.77659000  0.44611000  1.0
  C  C52  1  0.21104000  0.60659000  0.69407000  1.0
  C  C53  1  0.28896000  0.30593000  0.39341000  1.0
  C  C54  1  0.78896000  0.39341000  0.30593000  1.0
  C  C55  1  0.71104000  0.69407000  0.60659000  1.0
  C  C56  1  0.67293000  0.32160000  0.89546000  1.0
  C  C57  1  0.82707000  0.10454000  0.67840000  1.0
  C  C58  1  0.32707000  0.67839000  0.10453000  1.0
  C  C59  1  0.17293000  0.89546000  0.32160000  1.0
  C  C60  1  0.84266000  0.80484000  0.91981000  1.0
  C  C61  1  0.65735000  0.08019000  0.19516000  1.0
  C  C62  1  0.15734000  0.19515000  0.08019000  1.0
  C  C63  1  0.34266000  0.91981000  0.80485000  1.0
  N  N64  1  0.26406000  0.53193000  0.77201000  1.0
  N  N65  1  0.23594000  0.22799000  0.46807000  1.0
  N  N66  1  0.73593000  0.46807000  0.22799000  1.0
  N  N67  1  0.76407000  0.77201000  0.53193000  1.0
  N  N68  1  0.99931000  0.46912000  0.70582000  1.0
  N  N69  1  0.50069000  0.29418000  0.53088000  1.0
  N  N70  1  0.00069000  0.53088000  0.29418000  1.0
  N  N71  1  0.49931000  0.70582000  0.46912000  1.0
  N  N72  1  0.05184000  0.57089000  0.65357000  1.0
  N  N73  1  0.44816000  0.34643000  0.42911000  1.0
  N  N74  1  0.94816000  0.42911000  0.34643000  1.0
  N  N75  1  0.55184000  0.65357000  0.57089000  1.0
  O  O76  1  0.55887000  0.21563000  0.87903000  1.0
  O  O77  1  0.94113000  0.12096000  0.78437000  1.0
  O  O78  1  0.44113000  0.78437000  0.12096000  1.0
  O  O79  1  0.05887000  0.87903000  0.21563000  1.0
  O  O80  1  0.82023000  0.32673000  0.91869000  1.0
  O  O81  1  0.67977000  0.08131000  0.67327000  1.0
  O  O82  1  0.17977000  0.67327000  0.08131000  1.0
  O  O83  1  0.32023000  0.91869000  0.32672000  1.0
  O  O84  1  0.98642000  0.80634000  0.93811000  1.0
  O  O85  1  0.51359000  0.06189000  0.19366000  1.0
  O  O86  1  0.01357000  0.19366000  0.06189000  1.0
  O  O87  1  0.48642000  0.93811000  0.80634000  1.0
  O  O88  1  0.79633000  0.90147000  0.90902000  1.0
  O  O89  1  0.70367000  0.09098000  0.09853000  1.0
  O  O90  1  0.20366000  0.09852000  0.09097000  1.0
  O  O91  1  0.29633000  0.90902000  0.90147000  1.0
