# generated using pymatgen
data_ZnH3C3(N2O)2
_symmetry_space_group_name_H-M   'P 1'
_cell_length_a   8.03348000
_cell_length_b   9.12665000
_cell_length_c   10.30630000
_cell_angle_alpha   104.02900000
_cell_angle_beta   89.99950000
_cell_angle_gamma   89.99970000
_symmetry_Int_Tables_number   1
_chemical_formula_structural   ZnH3C3(N2O)2
_chemical_formula_sum   'Zn4 H12 C12 N16 O8'
_cell_volume   733.10662769
_cell_formula_units_Z   4
loop_
 _symmetry_equiv_pos_site_id
 _symmetry_equiv_pos_as_xyz
  1  'x, y, z'
loop_
 _atom_site_type_symbol
 _atom_site_label
 _atom_site_symmetry_multiplicity
 _atom_site_fract_x
 _atom_site_fract_y
 _atom_site_fract_z
 _atom_site_occupancy
  Zn  Zn0  1  0.94021000  0.68687000  0.44481000  1.0
  Zn  Zn1  1  0.44023000  0.31314000  0.05519000  1.0
  Zn  Zn2  1  0.05978000  0.31313000  0.55519000  1.0
  Zn  Zn3  1  0.55978000  0.68687000  0.94481000  1.0
  H  H4  1  0.76206000  0.82313000  0.21229000  1.0
  H  H5  1  0.26209000  0.17688000  0.28772000  1.0
  H  H6  1  0.23793000  0.17688000  0.78771000  1.0
  H  H7  1  0.73793000  0.82313000  0.71229000  1.0
  H  H8  1  0.70189000  0.26687000  0.24527000  1.0
  H  H9  1  0.20186000  0.73313000  0.25472000  1.0
  H  H10  1  0.29812000  0.73313000  0.75473000  1.0
  H  H11  1  0.79811000  0.26687000  0.74528000  1.0
  H  H12  1  0.78921000  0.38305000  0.38699000  1.0
  H  H13  1  0.28918000  0.61694000  0.11301000  1.0
  H  H14  1  0.21080000  0.61695000  0.61301000  1.0
  H  H15  1  0.71081000  0.38306000  0.88700000  1.0
  C  C16  1  0.91105000  0.01902000  0.52861000  1.0
  C  C17  1  0.41104000  0.98098000  0.97136000  1.0
  C  C18  1  0.08895000  0.98097000  0.47135000  1.0
  C  C19  1  0.58894000  0.01901000  0.02861000  1.0
  C  C20  1  0.72604000  0.70758000  0.20792000  1.0
  C  C21  1  0.22606000  0.29243000  0.29209000  1.0
  C  C22  1  0.27395000  0.29243000  0.79208000  1.0
  C  C23  1  0.77396000  0.70757000  0.70792000  1.0
  C  C24  1  0.70244000  0.48847000  0.24774000  1.0
  C  C25  1  0.20244000  0.51153000  0.25226000  1.0
  C  C26  1  0.29756000  0.51153000  0.75226000  1.0
  C  C27  1  0.79756000  0.48847000  0.74775000  1.0
  N  N28  1  0.77337000  0.62699000  0.29574000  1.0
  N  N29  1  0.27337000  0.37301000  0.20427000  1.0
  N  N30  1  0.22663000  0.37301000  0.70426000  1.0
  N  N31  1  0.72663000  0.62699000  0.79574000  1.0
  N  N32  1  0.63164000  0.62687000  0.11119000  1.0
  N  N33  1  0.13166000  0.37313000  0.38883000  1.0
  N  N34  1  0.36835000  0.37313000  0.88882000  1.0
  N  N35  1  0.86836000  0.62687000  0.61119000  1.0
  N  N36  1  0.61544000  0.48425000  0.13520000  1.0
  N  N37  1  0.11544000  0.51575000  0.36480000  1.0
  N  N38  1  0.38456000  0.51576000  0.86480000  1.0
  N  N39  1  0.88456000  0.48424000  0.63520000  1.0
  N  N40  1  0.71086000  0.37200000  0.30816000  1.0
  N  N41  1  0.21084000  0.62799000  0.19183000  1.0
  N  N42  1  0.28915000  0.62799000  0.69183000  1.0
  N  N43  1  0.78915000  0.37200000  0.80817000  1.0
  O  O44  1  0.87724000  0.15939000  0.57172000  1.0
  O  O45  1  0.37721000  0.84062000  0.92827000  1.0
  O  O46  1  0.12277000  0.84061000  0.42826000  1.0
  O  O47  1  0.62276000  0.15939000  0.07171000  1.0
  O  O48  1  0.81439000  0.91115000  0.52867000  1.0
  O  O49  1  0.31437000  0.08886000  0.97133000  1.0
  O  O50  1  0.18563000  0.08885000  0.47133000  1.0
  O  O51  1  0.68560000  0.91115000  0.02867000  1.0
