# generated using pymatgen
data_MnCrH12C17N9O
_symmetry_space_group_name_H-M   'P 1'
_cell_length_a   7.85045000
_cell_length_b   10.10490000
_cell_length_c   13.46940000
_cell_angle_alpha   70.12500000
_cell_angle_beta   79.45520000
_cell_angle_gamma   73.44040000
_symmetry_Int_Tables_number   1
_chemical_formula_structural   MnCrH12C17N9O
_chemical_formula_sum   'Mn2 Cr2 H24 C34 N18 O2'
_cell_volume   958.77491860
_cell_formula_units_Z   2
loop_
 _symmetry_equiv_pos_site_id
 _symmetry_equiv_pos_as_xyz
  1  'x, y, z'
loop_
 _atom_site_type_symbol
 _atom_site_label
 _atom_site_symmetry_multiplicity
 _atom_site_fract_x
 _atom_site_fract_y
 _atom_site_fract_z
 _atom_site_occupancy
  Mn  Mn0  1  0.62523000  0.83170000  0.49230000  1.0
  Mn  Mn1  1  0.37291000  0.16460000  0.51694000  1.0
  Cr  Cr2  1  0.75387000  0.30541000  0.72914000  1.0
  Cr  Cr3  1  0.24430000  0.69757000  0.26837000  1.0
  H  H4  1  0.39957000  0.54974000  0.75397000  1.0
  H  H5  1  0.59364000  0.44804000  0.24491000  1.0
  H  H6  1  0.17813000  0.58921000  0.90249000  1.0
  H  H7  1  0.81551000  0.40712000  0.09695000  1.0
  H  H8  1  0.20501000  0.40564000  0.08449000  1.0
  H  H9  1  0.79365000  0.59220000  0.91541000  1.0
  H  H10  1  0.02542000  0.99328000  0.78591000  1.0
  H  H11  1  0.97428000  0.01058000  0.21141000  1.0
  H  H12  1  0.06130000  0.77701000  0.94379000  1.0
  H  H13  1  0.93966000  0.22577000  0.05198000  1.0
  H  H14  1  0.85721000  0.78077000  0.11059000  1.0
  H  H15  1  0.14516000  0.22010000  0.88659000  1.0
  H  H16  1  0.60144000  0.92935000  0.20443000  1.0
  H  H17  1  0.40239000  0.07054000  0.79428000  1.0
  H  H18  1  0.37101000  0.15624000  0.19705000  1.0
  H  H19  1  0.63174000  0.84297000  0.80260000  1.0
  H  H20  1  0.02383000  0.85124000  0.56057000  1.0
  H  H21  1  0.98159000  0.15115000  0.43813000  1.0
  H  H22  1  0.96618000  0.85544000  0.69442000  1.0
  H  H23  1  0.03887000  0.15065000  0.30349000  1.0
  H  H24  1  0.84201000  0.99075000  0.59038000  1.0
  H  H25  1  0.15927000  0.01006000  0.40697000  1.0
  H  H26  1  0.84042000  0.69028000  0.67217000  1.0
  H  H27  1  0.17101000  0.30791000  0.33211000  1.0
  C  C28  1  0.67511000  0.49639000  0.62273000  1.0
  C  C29  1  0.32481000  0.50584000  0.37788000  1.0
  C  C30  1  0.88839000  0.41942000  0.77209000  1.0
  C  C31  1  0.10860000  0.58286000  0.22634000  1.0
  C  C32  1  0.01701000  0.75728000  0.35802000  1.0
  C  C33  1  0.97934000  0.24391000  0.64179000  1.0
  C  C34  1  0.38549000  0.78023000  0.33568000  1.0
  C  C35  1  0.61188000  0.22393000  0.66350000  1.0
  C  C36  1  0.40936000  0.46964000  0.83197000  1.0
  C  C37  1  0.58623000  0.52903000  0.16716000  1.0
  C  C38  1  0.28516000  0.49124000  0.91780000  1.0
  C  C39  1  0.71056000  0.50648000  0.08162000  1.0
  C  C40  1  0.29962000  0.38928000  0.01688000  1.0
  C  C41  1  0.69896000  0.60933000  0.98285000  1.0
  C  C42  1  0.43770000  0.26111000  0.02936000  1.0
  C  C43  1  0.56315000  0.73898000  0.97008000  1.0
  C  C44  1  0.55701000  0.24734000  0.93884000  1.0
  C  C45  1  0.44377000  0.75374000  0.06031000  1.0
  C  C46  1  0.69502000  0.11915000  0.94470000  1.0
  C  C47  1  0.30674000  0.88290000  0.05397000  1.0
  C  C48  1  0.93494000  0.99377000  0.85738000  1.0
  C  C49  1  0.06539000  0.00928000  0.14018000  1.0
  C  C50  1  0.95434000  0.87159000  0.94772000  1.0
  C  C51  1  0.04676000  0.13081000  0.04927000  1.0
  C  C52  1  0.84237000  0.87458000  0.03943000  1.0
  C  C53  1  0.15980000  0.12687000  0.95817000  1.0
  C  C54  1  0.70824000  0.00180000  0.03990000  1.0
  C  C55  1  0.29443000  0.99952000  0.95847000  1.0
  C  C56  1  0.58776000  0.01840000  0.13065000  1.0
  C  C57  1  0.41523000  0.98190000  0.86819000  1.0
  C  C58  1  0.45920000  0.14393000  0.12631000  1.0
  C  C59  1  0.54321000  0.85598000  0.87305000  1.0
  C  C60  1  0.91276000  0.87667000  0.61924000  1.0
  C  C61  1  0.09229000  0.12522000  0.37941000  1.0
  N  N62  1  0.61814000  0.61559000  0.56987000  1.0
  N  N63  1  0.37049000  0.38643000  0.43251000  1.0
  N  N64  1  0.95394000  0.50254000  0.78559000  1.0
  N  N65  1  0.04244000  0.50050000  0.21246000  1.0
  N  N66  1  0.87909000  0.79156000  0.40481000  1.0
  N  N67  1  0.11601000  0.20108000  0.59670000  1.0
  N  N68  1  0.47037000  0.82244000  0.37610000  1.0
  N  N69  1  0.52588000  0.17824000  0.62616000  1.0
  N  N70  1  0.54413000  0.35152000  0.84200000  1.0
  N  N71  1  0.45461000  0.64910000  0.15687000  1.0
  N  N72  1  0.80843000  0.11548000  0.85505000  1.0
  N  N73  1  0.19219000  0.88779000  0.14292000  1.0
  N  N74  1  0.39475000  0.92625000  0.58127000  1.0
  N  N75  1  0.60611000  0.06506000  0.42698000  1.0
  N  N76  1  0.33104000  0.86419000  0.66716000  1.0
  N  N77  1  0.66915000  0.12764000  0.34097000  1.0
  N  N78  1  0.26836000  0.80578000  0.75034000  1.0
  N  N79  1  0.73033000  0.18804000  0.25798000  1.0
  O  O80  1  0.78482000  0.79190000  0.63483000  1.0
  O  O81  1  0.22446000  0.20515000  0.36669000  1.0
