# generated using pymatgen
data_CoP2H14C9(NO3)2
_symmetry_space_group_name_H-M   'P 1'
_cell_length_a   6.82819000
_cell_length_b   10.53280000
_cell_length_c   10.68570000
_cell_angle_alpha   113.41500000
_cell_angle_beta   94.40950000
_cell_angle_gamma   101.02900000
_symmetry_Int_Tables_number   1
_chemical_formula_structural   CoP2H14C9(NO3)2
_chemical_formula_sum   'Co2 P4 H28 C18 N4 O12'
_cell_volume   682.15560715
_cell_formula_units_Z   2
loop_
 _symmetry_equiv_pos_site_id
 _symmetry_equiv_pos_as_xyz
  1  'x, y, z'
loop_
 _atom_site_type_symbol
 _atom_site_label
 _atom_site_symmetry_multiplicity
 _atom_site_fract_x
 _atom_site_fract_y
 _atom_site_fract_z
 _atom_site_occupancy
  Co  Co0  1  0.12742000  0.37305000  0.31599000  1.0
  Co  Co1  1  0.87258000  0.62696000  0.68401000  1.0
  P  P2  1  0.27836000  0.53404000  0.64673000  1.0
  P  P3  1  0.72164000  0.46596000  0.35328000  1.0
  P  P4  1  0.93987000  0.88817000  0.62978000  1.0
  P  P5  1  0.06012000  0.11184000  0.37022000  1.0
  H  H6  1  0.26434000  0.31125000  0.60361000  1.0
  H  H7  1  0.73566000  0.68875000  0.39639000  1.0
  H  H8  1  0.07956000  0.09345000  0.62094000  1.0
  H  H9  1  0.92044000  0.90656000  0.37906000  1.0
  H  H10  1  0.55227000  0.68146000  0.56690000  1.0
  H  H11  1  0.44773000  0.31854000  0.43310000  1.0
  H  H12  1  0.38569000  0.77914000  0.78722000  1.0
  H  H13  1  0.61432000  0.22086000  0.21278000  1.0
  H  H14  1  0.86513000  0.93326000  0.90909000  1.0
  H  H15  1  0.13487000  0.06673000  0.09091000  1.0
  H  H16  1  0.83970000  0.08482000  0.88125000  1.0
  H  H17  1  0.16029000  0.91518000  0.11875000  1.0
  H  H18  1  0.62749000  0.98012000  0.91114000  1.0
  H  H19  1  0.37251000  0.01987000  0.08886000  1.0
  H  H20  1  0.41080000  0.93535000  0.68183000  1.0
  H  H21  1  0.58919000  0.06465000  0.31817000  1.0
  H  H22  1  0.61570000  0.05705000  0.66503000  1.0
  H  H23  1  0.38429000  0.94295000  0.33497000  1.0
  H  H24  1  0.51846000  0.88454000  0.52789000  1.0
  H  H25  1  0.48154000  0.11546000  0.47211000  1.0
  H  H26  1  0.99447000  0.59101000  0.93987000  1.0
  H  H27  1  0.00555000  0.40899000  0.06012000  1.0
  H  H28  1  0.85911000  0.61930000  0.15999000  1.0
  H  H29  1  0.14090000  0.38070000  0.84001000  1.0
  H  H30  1  0.53315000  0.69542000  0.19163000  1.0
  H  H31  1  0.46686000  0.30457000  0.80836000  1.0
  H  H32  1  0.35503000  0.73810000  0.00221000  1.0
  H  H33  1  0.64496000  0.26189000  0.99779000  1.0
  C  C34  1  0.47670000  0.69935000  0.75242000  1.0
  C  C35  1  0.52331000  0.30065000  0.24757000  1.0
  C  C36  1  0.70368000  0.88686000  0.70433000  1.0
  C  C37  1  0.29632000  0.11314000  0.29567000  1.0
  C  C38  1  0.76224000  0.97553000  0.86102000  1.0
  C  C39  1  0.23776000  0.02447000  0.13898000  1.0
  C  C40  1  0.55318000  0.94415000  0.64090000  1.0
  C  C41  1  0.44681000  0.05585000  0.35910000  1.0
  C  C42  1  0.58097000  0.68570000  0.87390000  1.0
  C  C43  1  0.41903000  0.31430000  0.12610000  1.0
  C  C44  1  0.85366000  0.62362000  0.96005000  1.0
  C  C45  1  0.14633000  0.37637000  0.03995000  1.0
  C  C46  1  0.77814000  0.64016000  0.08104000  1.0
  C  C47  1  0.22186000  0.35983000  0.91894000  1.0
  C  C48  1  0.59670000  0.68268000  0.09823000  1.0
  C  C49  1  0.40331000  0.31731000  0.90178000  1.0
  C  C50  1  0.49761000  0.70587000  0.99348000  1.0
  C  C51  1  0.50239000  0.29413000  0.00651000  1.0
  N  N52  1  0.62285000  0.73115000  0.66849000  1.0
  N  N53  1  0.37715000  0.26885000  0.33150000  1.0
  N  N54  1  0.75745000  0.64585000  0.85801000  1.0
  N  N55  1  0.24255000  0.35416000  0.14198000  1.0
  O  O56  1  0.24857000  0.52854000  0.50197000  1.0
  O  O57  1  0.75143000  0.47146000  0.49803000  1.0
  O  O58  1  0.09690000  0.54125000  0.72179000  1.0
  O  O59  1  0.90310000  0.45875000  0.27821000  1.0
  O  O60  1  0.37157000  0.40857000  0.65042000  1.0
  O  O61  1  0.62843000  0.59143000  0.34958000  1.0
  O  O62  1  0.05233000  0.80324000  0.68439000  1.0
  O  O63  1  0.94767000  0.19677000  0.31561000  1.0
  O  O64  1  0.88514000  0.82855000  0.47127000  1.0
  O  O65  1  0.11485000  0.17145000  0.52873000  1.0
  O  O66  1  0.06569000  0.04745000  0.68975000  1.0
  O  O67  1  0.93430000  0.95256000  0.31025000  1.0
