# generated using pymatgen
data_Zn2H21C33(NO2)5
_symmetry_space_group_name_H-M   'P 1'
_cell_length_a   9.69100000
_cell_length_b   12.66260000
_cell_length_c   14.27390000
_cell_angle_alpha   114.66500000
_cell_angle_beta   90.73430000
_cell_angle_gamma   109.10100000
_symmetry_Int_Tables_number   1
_chemical_formula_structural   Zn2H21C33(NO2)5
_chemical_formula_sum   'Zn4 H42 C66 N10 O20'
_cell_volume   1481.21708287
_cell_formula_units_Z   2
loop_
 _symmetry_equiv_pos_site_id
 _symmetry_equiv_pos_as_xyz
  1  'x, y, z'
loop_
 _atom_site_type_symbol
 _atom_site_label
 _atom_site_symmetry_multiplicity
 _atom_site_fract_x
 _atom_site_fract_y
 _atom_site_fract_z
 _atom_site_occupancy
  Zn  Zn0  1  0.62216000  0.59258000  0.35889000  1.0
  Zn  Zn1  1  0.37784000  0.40742000  0.64111000  1.0
  Zn  Zn2  1  0.87880000  0.86544000  0.44033000  1.0
  Zn  Zn3  1  0.12119000  0.13456000  0.55967000  1.0
  H  H4  1  0.67990000  0.03960000  0.45716000  1.0
  H  H5  1  0.32010000  0.96040000  0.54284000  1.0
  H  H6  1  0.35850000  0.58108000  0.39210000  1.0
  H  H7  1  0.64150000  0.41892000  0.60790000  1.0
  H  H8  1  0.39099000  0.47975000  0.41865000  1.0
  H  H9  1  0.60901000  0.52025000  0.58135000  1.0
  H  H10  1  0.15574000  0.15075000  0.75740000  1.0
  H  H11  1  0.84426000  0.84925000  0.24260000  1.0
  H  H12  1  0.15105000  0.14390000  0.92917000  1.0
  H  H13  1  0.84895000  0.85609000  0.07084000  1.0
  H  H14  1  0.81187000  0.77864000  0.77999000  1.0
  H  H15  1  0.18812000  0.22136000  0.22001000  1.0
  H  H16  1  0.44834000  0.14840000  0.35720000  1.0
  H  H17  1  0.55166000  0.85160000  0.64280000  1.0
  H  H18  1  0.35836000  0.69323000  0.19001000  1.0
  H  H19  1  0.64164000  0.30677000  0.80999000  1.0
  H  H20  1  0.84863000  0.18085000  0.29560000  1.0
  H  H21  1  0.15138000  0.81915000  0.70440000  1.0
  H  H22  1  0.34876000  0.37167000  0.96385000  1.0
  H  H23  1  0.65123000  0.62833000  0.03614000  1.0
  H  H24  1  0.91105000  0.36211000  0.47296000  1.0
  H  H25  1  0.08895000  0.63789000  0.52703000  1.0
  H  H26  1  0.56613000  0.07977000  0.96878000  1.0
  H  H27  1  0.43387000  0.92022000  0.03122000  1.0
  H  H28  1  0.43669000  0.54408000  0.14751000  1.0
  H  H29  1  0.56331000  0.45591000  0.85248000  1.0
  H  H30  1  0.72371000  0.07942000  0.10661000  1.0
  H  H31  1  0.27629000  0.92057000  0.89339000  1.0
  H  H32  1  0.82150000  0.53561000  0.50037000  1.0
  H  H33  1  0.17850000  0.46439000  0.49963000  1.0
  H  H34  1  0.24991000  0.99924000  0.19895000  1.0
  H  H35  1  0.75009000  0.00076000  0.80105000  1.0
  H  H36  1  0.42244000  0.18515000  0.91432000  1.0
  H  H37  1  0.57755000  0.81484000  0.08567000  1.0
  H  H38  1  0.79920000  0.60931000  0.80282000  1.0
  H  H39  1  0.20081000  0.39069000  0.19718000  1.0
  H  H40  1  0.82112000  0.31847000  0.61379000  1.0
  H  H41  1  0.17888000  0.68154000  0.38621000  1.0
  H  H42  1  0.97116000  0.72816000  0.97490000  1.0
  H  H43  1  0.02884000  0.27184000  0.02511000  1.0
  H  H44  1  0.17157000  0.45080000  0.88052000  1.0
  H  H45  1  0.82843000  0.54920000  0.11948000  1.0
  C  C46  1  0.98611000  0.96837000  0.66990000  1.0
  C  C47  1  0.01388000  0.03163000  0.33010000  1.0
  C  C48  1  0.77804000  0.74592000  0.58885000  1.0
  C  C49  1  0.22196000  0.25408000  0.41115000  1.0
  C  C50  1  0.08323000  0.06803000  0.76297000  1.0
  C  C51  1  0.91677000  0.93196000  0.23704000  1.0
  C  C52  1  0.88856000  0.85971000  0.67625000  1.0
  C  C53  1  0.11144000  0.14029000  0.32375000  1.0
  C  C54  1  0.08002000  0.06530000  0.85808000  1.0
  C  C55  1  0.91998000  0.93469000  0.14192000  1.0
  C  C56  1  0.88941000  0.85946000  0.77445000  1.0
  C  C57  1  0.11059000  0.14054000  0.22555000  1.0
  C  C58  1  0.98014000  0.96011000  0.86549000  1.0
  C  C59  1  0.01985000  0.03988000  0.13451000  1.0
  C  C60  1  0.42776000  0.04871000  0.31944000  1.0
  C  C61  1  0.57224000  0.95130000  0.68055000  1.0
  C  C62  1  0.51722000  0.00455000  0.36025000  1.0
  C  C63  1  0.48278000  0.99545000  0.63975000  1.0
  C  C64  1  0.58522000  0.82495000  0.35308000  1.0
  C  C65  1  0.41478000  0.17505000  0.64692000  1.0
  C  C66  1  0.49064000  0.87387000  0.31321000  1.0
  C  C67  1  0.50936000  0.12613000  0.68679000  1.0
  C  C68  1  0.37848000  0.79263000  0.22610000  1.0
  C  C69  1  0.62152000  0.20737000  0.77391000  1.0
  C  C70  1  0.01349000  0.30884000  0.68212000  1.0
  C  C71  1  0.98651000  0.69116000  0.31788000  1.0
  C  C72  1  0.81027000  0.25733000  0.31012000  1.0
  C  C73  1  0.18973000  0.74267000  0.68988000  1.0
  C  C74  1  0.41592000  0.36372000  0.02058000  1.0
  C  C75  1  0.58408000  0.63627000  0.97941000  1.0
  C  C76  1  0.84609000  0.35804000  0.40796000  1.0
  C  C77  1  0.15391000  0.64196000  0.59203000  1.0
  C  C78  1  0.59453000  0.15452000  0.04831000  1.0
  C  C79  1  0.40547000  0.84548000  0.95169000  1.0
  C  C80  1  0.46367000  0.46054000  0.12326000  1.0
  C  C81  1  0.53634000  0.53946000  0.87674000  1.0
  C  C82  1  0.68152000  0.15444000  0.12429000  1.0
  C  C83  1  0.31848000  0.84556000  0.87571000  1.0
  C  C84  1  0.79528000  0.45524000  0.42407000  1.0
  C  C85  1  0.20472000  0.54476000  0.57592000  1.0
  C  C86  1  0.31808000  0.96635000  0.23287000  1.0
  C  C87  1  0.68192000  0.03365000  0.76713000  1.0
  C  C88  1  0.45584000  0.26082000  0.99374000  1.0
  C  C89  1  0.54415000  0.73917000  0.00625000  1.0
  C  C90  1  0.58415000  0.35591000  0.17185000  1.0
  C  C91  1  0.41585000  0.64409000  0.82815000  1.0
  C  C92  1  0.54282000  0.25456000  0.07003000  1.0
  C  C93  1  0.45718000  0.74544000  0.92997000  1.0
  C  C94  1  0.72241000  0.25387000  0.22849000  1.0
  C  C95  1  0.27759000  0.74613000  0.77151000  1.0
  C  C96  1  0.29296000  0.83762000  0.18378000  1.0
  C  C97  1  0.70704000  0.16238000  0.81622000  1.0
  C  C98  1  0.67432000  0.35534000  0.25240000  1.0
  C  C99  1  0.32568000  0.64466000  0.74760000  1.0
  C  C100  1  0.99683000  0.41947000  0.76639000  1.0
  C  C101  1  0.00317000  0.58053000  0.23361000  1.0
  C  C102  1  0.88802000  0.46291000  0.74553000  1.0
  C  C103  1  0.11198000  0.53709000  0.25447000  1.0
  C  C104  1  0.88011000  0.57491000  0.82119000  1.0
  C  C105  1  0.11990000  0.42509000  0.17882000  1.0
  C  C106  1  0.97479000  0.64020000  0.91665000  1.0
  C  C107  1  0.02521000  0.35980000  0.08335000  1.0
  C  C108  1  0.07982000  0.59528000  0.94004000  1.0
  C  C109  1  0.92018000  0.40472000  0.05997000  1.0
  C  C110  1  0.08929000  0.48520000  0.86418000  1.0
  C  C111  1  0.91071000  0.51480000  0.13583000  1.0
  N  N112  1  0.96146000  0.95083000  0.95901000  1.0
  N  N113  1  0.03854000  0.04916000  0.04100000  1.0
  N  N114  1  0.18610000  0.76735000  0.09207000  1.0
  N  N115  1  0.81390000  0.23265000  0.90793000  1.0
  N  N116  1  0.54496000  0.45652000  0.19680000  1.0
  N  N117  1  0.45504000  0.54348000  0.80319000  1.0
  N  N118  1  0.71166000  0.45427000  0.34862000  1.0
  N  N119  1  0.28834000  0.54573000  0.65137000  1.0
  N  N120  1  0.18284000  0.65790000  0.03431000  1.0
  N  N121  1  0.81716000  0.34210000  0.96569000  1.0
  O  O122  1  0.99001000  0.98360000  0.58403000  1.0
  O  O123  1  0.00999000  0.01640000  0.41597000  1.0
  O  O124  1  0.69304000  0.66355000  0.61032000  1.0
  O  O125  1  0.30696000  0.33645000  0.38969000  1.0
  O  O126  1  0.77435000  0.73413000  0.49337000  1.0
  O  O127  1  0.22565000  0.26587000  0.50663000  1.0
  O  O128  1  0.62518000  0.08820000  0.44252000  1.0
  O  O129  1  0.37482000  0.91180000  0.55748000  1.0
  O  O130  1  0.55835000  0.70868000  0.31172000  1.0
  O  O131  1  0.44165000  0.29132000  0.68828000  1.0
  O  O132  1  0.69604000  0.90681000  0.42729000  1.0
  O  O133  1  0.30395000  0.09319000  0.57271000  1.0
  O  O134  1  0.91677000  0.24448000  0.59835000  1.0
  O  O135  1  0.08323000  0.75553000  0.40165000  1.0
  O  O136  1  0.12864000  0.28301000  0.69418000  1.0
  O  O137  1  0.87136000  0.71699000  0.30583000  1.0
  O  O138  1  0.43718000  0.56583000  0.42377000  1.0
  O  O139  1  0.56283000  0.43417000  0.57622000  1.0
  O  O140  1  0.79402000  0.39805000  0.65307000  1.0
  O  O141  1  0.20598000  0.60196000  0.34693000  1.0
