# generated using pymatgen
data_ZnH18C24N2O5
_symmetry_space_group_name_H-M   'P 1'
_cell_length_a   8.97605000
_cell_length_b   11.16330000
_cell_length_c   11.57390000
_cell_angle_alpha   110.98750000
_cell_angle_beta   103.71990000
_cell_angle_gamma   91.61070000
_symmetry_Int_Tables_number   1
_chemical_formula_structural   ZnH18C24N2O5
_chemical_formula_sum   'Zn2 H36 C48 N4 O10'
_cell_volume   1043.69458891
_cell_formula_units_Z   2
loop_
 _symmetry_equiv_pos_site_id
 _symmetry_equiv_pos_as_xyz
  1  'x, y, z'
loop_
 _atom_site_type_symbol
 _atom_site_label
 _atom_site_symmetry_multiplicity
 _atom_site_fract_x
 _atom_site_fract_y
 _atom_site_fract_z
 _atom_site_occupancy
  Zn  Zn0  1  0.77730000  0.84244000  0.83901000  1.0
  Zn  Zn1  1  0.22270000  0.15756000  0.16098000  1.0
  H  H2  1  0.03083000  0.86323000  0.68458000  1.0
  H  H3  1  0.96917000  0.13677000  0.31542000  1.0
  H  H4  1  0.54580000  0.71760000  0.99524000  1.0
  H  H5  1  0.45420000  0.28241000  0.00476000  1.0
  H  H6  1  0.18078000  0.68279000  0.71386000  1.0
  H  H7  1  0.81922000  0.31721000  0.28615000  1.0
  H  H8  1  0.81603000  0.97228000  0.36988000  1.0
  H  H9  1  0.18397000  0.02771000  0.63012000  1.0
  H  H10  1  0.52690000  0.93765000  0.15030000  1.0
  H  H11  1  0.47310000  0.06235000  0.84969000  1.0
  H  H12  1  0.28419000  0.74398000  0.96938000  1.0
  H  H13  1  0.71581000  0.25602000  0.03062000  1.0
  H  H14  1  0.37321000  0.91937000  0.26559000  1.0
  H  H15  1  0.62679000  0.08064000  0.73441000  1.0
  H  H16  1  0.78511000  0.05073000  0.58342000  1.0
  H  H17  1  0.21489000  0.94927000  0.41657000  1.0
  H  H18  1  0.23484000  0.40261000  0.97409000  1.0
  H  H19  1  0.76517000  0.59739000  0.02591000  1.0
  H  H20  1  0.16182000  0.57004000  0.47801000  1.0
  H  H21  1  0.83818000  0.42996000  0.52199000  1.0
  H  H22  1  0.04593000  0.50626000  0.89096000  1.0
  H  H23  1  0.95407000  0.49374000  0.10904000  1.0
  H  H24  1  0.79955000  0.65884000  0.28196000  1.0
  H  H25  1  0.20045000  0.34116000  0.71804000  1.0
  H  H26  1  0.03826000  0.78423000  0.45352000  1.0
  H  H27  1  0.96173000  0.21577000  0.54648000  1.0
  H  H28  1  0.29238000  0.52442000  0.29689000  1.0
  H  H29  1  0.70762000  0.47558000  0.70312000  1.0
  H  H30  1  0.52230000  0.56017000  0.22683000  1.0
  H  H31  1  0.47769000  0.43983000  0.77317000  1.0
  H  H32  1  0.43226000  0.80999000  0.86075000  1.0
  H  H33  1  0.56774000  0.19001000  0.13926000  1.0
  H  H34  1  0.94194000  0.05004000  0.85725000  1.0
  H  H35  1  0.05805000  0.94995000  0.14275000  1.0
  H  H36  1  0.86470000  0.08719000  0.97025000  1.0
  H  H37  1  0.13530000  0.91281000  0.02975000  1.0
  C  C38  1  0.93011000  0.80794000  0.60736000  1.0
  C  C39  1  0.06988000  0.19207000  0.39264000  1.0
  C  C40  1  0.59252000  0.98342000  0.41283000  1.0
  C  C41  1  0.40748000  0.01658000  0.58717000  1.0
  C  C42  1  0.52568000  0.62262000  0.99902000  1.0
  C  C43  1  0.47432000  0.37738000  0.00098000  1.0
  C  C44  1  0.67395000  0.72214000  0.55143000  1.0
  C  C45  1  0.32605000  0.27786000  0.44857000  1.0
  C  C46  1  0.39951000  0.63692000  0.50013000  1.0
  C  C47  1  0.60049000  0.36308000  0.49988000  1.0
  C  C48  1  0.66657000  0.67094000  0.41867000  1.0
  C  C49  1  0.33342000  0.32906000  0.58133000  1.0
  C  C50  1  0.37324000  0.56955000  0.98044000  1.0
  C  C51  1  0.62676000  0.43045000  0.01956000  1.0
  C  C52  1  0.27920000  0.68677000  0.67502000  1.0
  C  C53  1  0.72080000  0.31323000  0.32498000  1.0
  C  C54  1  0.69212000  0.96607000  0.32705000  1.0
  C  C55  1  0.30788000  0.03393000  0.67294000  1.0
  C  C56  1  0.64770000  0.94172000  0.20018000  1.0
  C  C57  1  0.35230000  0.05827000  0.79982000  1.0
  C  C58  1  0.24855000  0.64394000  0.95448000  1.0
  C  C59  1  0.75146000  0.35606000  0.04551000  1.0
  C  C60  1  0.43035000  0.95429000  0.36790000  1.0
  C  C61  1  0.56965000  0.04570000  0.63209000  1.0
  C  C62  1  0.65957000  0.02881000  0.54649000  1.0
  C  C63  1  0.34043000  0.97119000  0.45351000  1.0
  C  C64  1  0.34962000  0.44521000  0.98259000  1.0
  C  C65  1  0.65038000  0.55480000  0.01741000  1.0
  C  C66  1  0.53745000  0.70790000  0.59256000  1.0
  C  C67  1  0.46255000  0.29210000  0.40744000  1.0
  C  C68  1  0.26928000  0.62574000  0.54586000  1.0
  C  C69  1  0.73072000  0.37426000  0.45414000  1.0
  C  C70  1  0.09523000  0.60394000  0.90940000  1.0
  C  C71  1  0.90477000  0.39606000  0.09060000  1.0
  C  C72  1  0.80158000  0.69421000  0.38333000  1.0
  C  C73  1  0.19841000  0.30579000  0.61667000  1.0
  C  C74  1  0.93288000  0.76343000  0.47770000  1.0
  C  C75  1  0.06712000  0.23657000  0.52230000  1.0
  C  C76  1  0.75931000  0.91813000  0.11988000  1.0
  C  C77  1  0.24069000  0.08187000  0.88013000  1.0
  C  C78  1  0.98575000  0.69255000  0.88099000  1.0
  C  C79  1  0.01425000  0.30745000  0.11901000  1.0
  C  C80  1  0.39744000  0.58202000  0.36723000  1.0
  C  C81  1  0.60256000  0.41798000  0.63277000  1.0
  C  C82  1  0.52558000  0.60016000  0.32822000  1.0
  C  C83  1  0.47442000  0.39984000  0.67179000  1.0
  C  C84  1  0.42005000  0.75766000  0.75880000  1.0
  C  C85  1  0.57995000  0.24235000  0.24121000  1.0
  N  N86  1  0.80428000  0.78734000  0.64279000  1.0
  N  N87  1  0.19572000  0.21266000  0.35721000  1.0
  N  N88  1  0.54621000  0.76607000  0.71930000  1.0
  N  N89  1  0.45379000  0.23393000  0.28070000  1.0
  O  O90  1  0.84051000  0.03349000  0.87663000  1.0
  O  O91  1  0.15949000  0.96651000  0.12337000  1.0
  O  O92  1  0.90022000  0.91786000  0.17156000  1.0
  O  O93  1  0.09978000  0.08214000  0.82845000  1.0
  O  O94  1  0.03692000  0.80353000  0.88634000  1.0
  O  O95  1  0.96308000  0.19648000  0.11366000  1.0
  O  O96  1  0.84057000  0.65629000  0.84958000  1.0
  O  O97  1  0.15944000  0.34371000  0.15041000  1.0
  O  O98  1  0.69777000  0.89717000  0.00064000  1.0
  O  O99  1  0.30224000  0.10283000  0.99936000  1.0
