# generated using pymatgen
data_InH6C8O5
_symmetry_space_group_name_H-M   'P 1'
_cell_length_a   12.42250000
_cell_length_b   12.66940000
_cell_length_c   12.66921337
_cell_angle_alpha   76.09418308
_cell_angle_beta   60.64310048
_cell_angle_gamma   60.64180000
_symmetry_Int_Tables_number   1
_chemical_formula_structural   InH6C8O5
_chemical_formula_sum   'In4 H24 C32 O20'
_cell_volume   1514.69958225
_cell_formula_units_Z   4
loop_
 _symmetry_equiv_pos_site_id
 _symmetry_equiv_pos_as_xyz
  1  'x, y, z'
loop_
 _atom_site_type_symbol
 _atom_site_label
 _atom_site_symmetry_multiplicity
 _atom_site_fract_x
 _atom_site_fract_y
 _atom_site_fract_z
 _atom_site_occupancy
  In  In0  1  0.18641000  0.00000000  0.62718000  1.0
  In  In1  1  0.93641000  0.12718000  0.50000000  1.0
  In  In2  1  0.81360000  0.99999000  0.37281000  1.0
  In  In3  1  0.56360000  0.87281000  0.49999000  1.0
  H  H4  1  0.19166000  0.93334000  0.43334000  1.0
  H  H5  1  0.87493000  0.93338000  0.56670000  1.0
  H  H6  1  0.55834000  0.06666000  0.56666000  1.0
  H  H7  1  0.37499000  0.06670000  0.43338000  1.0
  H  H8  1  0.87455000  0.00002000  0.99999000  1.0
  H  H9  1  0.62456000  0.50000000  0.49999000  1.0
  H  H10  1  0.87545000  0.49999000  0.50001000  1.0
  H  H11  1  0.12545000  0.99999000  1.00000000  1.0
  H  H12  1  0.63892000  0.06029000  0.81360000  1.0
  H  H13  1  0.44922000  0.31359000  0.43971000  1.0
  H  H14  1  0.51282000  0.93972000  0.18641000  1.0
  H  H15  1  0.20253000  0.68641000  0.56028000  1.0
  H  H16  1  0.23719000  0.31360000  0.56029000  1.0
  H  H17  1  0.30078000  0.06028000  0.18641000  1.0
  H  H18  1  0.11105000  0.68640000  0.43972000  1.0
  H  H19  1  0.54746000  0.93972000  0.81360000  1.0
  H  H20  1  0.31893000  0.78367000  0.27028000  1.0
  H  H21  1  0.85260000  0.77026000  0.71634000  1.0
  H  H22  1  0.37288000  0.21634000  0.72971000  1.0
  H  H23  1  0.33920000  0.22972000  0.28366000  1.0
  H  H24  1  0.37713000  0.77028000  0.28367000  1.0
  H  H25  1  0.89741000  0.78366000  0.72972000  1.0
  H  H26  1  0.43108000  0.22972000  0.71633000  1.0
  H  H27  1  0.41079000  0.21634000  0.27026000  1.0
  C  C28  1  0.87447000  0.05213000  0.77940000  1.0
  C  C29  1  0.67660000  0.27940000  0.44788000  1.0
  C  C30  1  0.70601000  0.94788000  0.22059000  1.0
  C  C31  1  0.40389000  0.72060000  0.55211000  1.0
  C  C32  1  0.04400000  0.27940000  0.55213000  1.0
  C  C33  1  0.07341000  0.05211000  0.22060000  1.0
  C  C34  1  0.87551000  0.72059000  0.44789000  1.0
  C  C35  1  0.34613000  0.94788000  0.77940000  1.0
  C  C36  1  0.76867000  0.02860000  0.89458000  1.0
  C  C37  1  0.54726000  0.39458000  0.47141000  1.0
  C  C38  1  0.69184000  0.97142000  0.10542000  1.0
  C  C39  1  0.41326000  0.60542000  0.52858000  1.0
  C  C40  1  0.05816000  0.39458000  0.52859000  1.0
  C  C41  1  0.20274000  0.02858000  0.10542000  1.0
  C  C42  1  0.98132000  0.60542000  0.47142000  1.0
  C  C43  1  0.33675000  0.97141000  0.89458000  1.0
  C  C44  1  0.78696000  0.00001000  0.00000000  1.0
  C  C45  1  0.53696000  0.50000000  0.50000000  1.0
  C  C46  1  0.96304000  0.50000000  0.50000000  1.0
  C  C47  1  0.21304000  0.00000000  0.00000000  1.0
  C  C48  1  0.65380000  0.03197000  0.89569000  1.0
  C  C49  1  0.43578000  0.39568000  0.46803000  1.0
  C  C50  1  0.58146000  0.96804000  0.10432000  1.0
  C  C51  1  0.29949000  0.60432000  0.53197000  1.0
  C  C52  1  0.16854000  0.39568000  0.53197000  1.0
  C  C53  1  0.31422000  0.03197000  0.10432000  1.0
  C  C54  1  0.09618000  0.60431000  0.46804000  1.0
  C  C55  1  0.45050000  0.96804000  0.89569000  1.0
  C  C56  1  0.55962000  0.00000000  0.00000000  1.0
  C  C57  1  0.30962000  0.50000000  0.50000000  1.0
  C  C58  1  0.19037000  0.50000000  0.50000000  1.0
  C  C59  1  0.44037000  0.00000000  0.00000000  1.0
  O  O60  1  0.12954000  0.99546000  0.49546000  1.0
  O  O61  1  0.87507000  0.99542000  0.50450000  1.0
  O  O62  1  0.62046000  0.00454000  0.50454000  1.0
  O  O63  1  0.37501000  0.00451000  0.49543000  1.0
  O  O64  1  0.99559000  0.00317000  0.77207000  1.0
  O  O65  1  0.74874000  0.27207000  0.49685000  1.0
  O  O66  1  0.77082000  0.99687000  0.22792000  1.0
  O  O67  1  0.51767000  0.72792000  0.50314000  1.0
  O  O68  1  0.97917000  0.27207000  0.50317000  1.0
  O  O69  1  0.00127000  0.00314000  0.22792000  1.0
  O  O70  1  0.75440000  0.72792000  0.49686000  1.0
  O  O71  1  0.23232000  0.99686000  0.77208000  1.0
  O  O72  1  0.83572000  0.11605000  0.69931000  1.0
  O  O73  1  0.70180000  0.19932000  0.38393000  1.0
  O  O74  1  0.65113000  0.88394000  0.30067000  1.0
  O  O75  1  0.28506000  0.80068000  0.61606000  1.0
  O  O76  1  0.09891000  0.19931000  0.61605000  1.0
  O  O77  1  0.04820000  0.11606000  0.30068000  1.0
  O  O78  1  0.91426000  0.80066000  0.38393000  1.0
  O  O79  1  0.46495000  0.88394000  0.69932000  1.0
