# generated using pymatgen
data_ZnH12C16(NO2)2
_symmetry_space_group_name_H-M   'P 1'
_cell_length_a   8.69568000
_cell_length_b   10.07740000
_cell_length_c   10.46350000
_cell_angle_alpha   83.80130000
_cell_angle_beta   66.84660000
_cell_angle_gamma   68.41930000
_symmetry_Int_Tables_number   1
_chemical_formula_structural   ZnH12C16(NO2)2
_chemical_formula_sum   'Zn2 H24 C32 N4 O8'
_cell_volume   783.24371622
_cell_formula_units_Z   2
loop_
 _symmetry_equiv_pos_site_id
 _symmetry_equiv_pos_as_xyz
  1  'x, y, z'
loop_
 _atom_site_type_symbol
 _atom_site_label
 _atom_site_symmetry_multiplicity
 _atom_site_fract_x
 _atom_site_fract_y
 _atom_site_fract_z
 _atom_site_occupancy
  Zn  Zn0  1  0.64839000  0.84232000  0.88394000  1.0
  Zn  Zn1  1  0.35161000  0.15768000  0.11606000  1.0
  H  H2  1  0.87627000  0.65982000  0.03865000  1.0
  H  H3  1  0.12373000  0.34018000  0.96135000  1.0
  H  H4  1  0.89066000  0.46232000  0.20254000  1.0
  H  H5  1  0.10934000  0.53768000  0.79746000  1.0
  H  H6  1  0.36292000  0.50136000  0.23609000  1.0
  H  H7  1  0.63708000  0.49864000  0.76391000  1.0
  H  H8  1  0.37687000  0.69319000  0.06465000  1.0
  H  H9  1  0.62314000  0.30681000  0.93535000  1.0
  H  H10  1  0.48673000  0.33490000  0.37589000  1.0
  H  H11  1  0.51327000  0.66510000  0.62411000  1.0
  H  H12  1  0.85036000  0.31983000  0.37110000  1.0
  H  H13  1  0.14964000  0.68017000  0.62890000  1.0
  H  H14  1  0.89550000  0.01495000  0.74214000  1.0
  H  H15  1  0.10450000  0.98505000  0.25786000  1.0
  H  H16  1  0.94112000  0.18190000  0.54911000  1.0
  H  H17  1  0.05888000  0.81810000  0.45089000  1.0
  H  H18  1  0.45903000  0.17892000  0.51842000  1.0
  H  H19  1  0.54097000  0.82108000  0.48158000  1.0
  H  H20  1  0.44008000  0.00929000  0.70792000  1.0
  H  H21  1  0.55992000  0.99071000  0.29208000  1.0
  H  H22  1  0.88981000  0.13630000  0.09612000  1.0
  H  H23  1  0.11018000  0.86370000  0.90388000  1.0
  H  H24  1  0.08232000  0.45636000  0.61072000  1.0
  H  H25  1  0.91768000  0.54365000  0.38928000  1.0
  C  C26  1  0.76562000  0.62066000  0.08501000  1.0
  C  C27  1  0.23438000  0.37934000  0.91499000  1.0
  C  C28  1  0.77138000  0.51164000  0.17800000  1.0
  C  C29  1  0.22862000  0.48836000  0.82200000  1.0
  C  C30  1  0.62357000  0.46633000  0.23814000  1.0
  C  C31  1  0.37644000  0.53367000  0.76186000  1.0
  C  C32  1  0.47990000  0.53303000  0.19495000  1.0
  C  C33  1  0.52009000  0.46697000  0.80505000  1.0
  C  C34  1  0.48605000  0.64045000  0.10017000  1.0
  C  C35  1  0.51395000  0.35955000  0.89983000  1.0
  C  C36  1  0.60877000  0.35964000  0.34322000  1.0
  C  C37  1  0.39123000  0.64036000  0.65678000  1.0
  C  C38  1  0.72796000  0.29595000  0.40393000  1.0
  C  C39  1  0.27204000  0.70405000  0.59607000  1.0
  C  C40  1  0.80147000  0.05490000  0.69005000  1.0
  C  C41  1  0.19853000  0.94510000  0.30995000  1.0
  C  C42  1  0.82631000  0.14780000  0.58193000  1.0
  C  C43  1  0.17369000  0.85220000  0.41807000  1.0
  C  C44  1  0.70358000  0.19691000  0.51582000  1.0
  C  C45  1  0.29642000  0.80309000  0.48418000  1.0
  C  C46  1  0.55989000  0.14649000  0.56409000  1.0
  C  C47  1  0.44011000  0.85351000  0.43591000  1.0
  C  C48  1  0.54674000  0.05284000  0.67142000  1.0
  C  C49  1  0.45326000  0.94716000  0.32858000  1.0
  C  C50  1  0.75746000  0.02277000  0.03043000  1.0
  C  C51  1  0.24254000  0.97723000  0.96957000  1.0
  C  C52  1  0.91600000  0.04375000  0.03492000  1.0
  C  C53  1  0.08400000  0.95625000  0.96508000  1.0
  C  C54  1  0.84612000  0.65576000  0.63719000  1.0
  C  C55  1  0.15388000  0.34424000  0.36281000  1.0
  C  C56  1  0.99080000  0.52168000  0.56171000  1.0
  C  C57  1  0.00920000  0.47832000  0.43829000  1.0
  N  N58  1  0.62516000  0.68597000  0.04654000  1.0
  N  N59  1  0.37484000  0.31403000  0.95346000  1.0
  N  N60  1  0.66377000  0.00764000  0.73551000  1.0
  N  N61  1  0.33624000  0.99236000  0.26449000  1.0
  O  O62  1  0.78256000  0.90897000  0.97110000  1.0
  O  O63  1  0.21744000  0.09103000  0.02890000  1.0
  O  O64  1  0.60863000  0.12434000  0.08735000  1.0
  O  O65  1  0.39137000  0.87566000  0.91265000  1.0
  O  O66  1  0.84744000  0.67889000  0.75667000  1.0
  O  O67  1  0.15256000  0.32111000  0.24333000  1.0
  O  O68  1  0.73658000  0.73366000  0.58634000  1.0
  O  O69  1  0.26342000  0.26634000  0.41366000  1.0
