# generated using pymatgen
data_ZnH6C16N4(ClO)4
_symmetry_space_group_name_H-M   'P 1'
_cell_length_a   7.97365000
_cell_length_b   9.88559000
_cell_length_c   11.55600000
_cell_angle_alpha   105.78900000
_cell_angle_beta   91.77330000
_cell_angle_gamma   96.28990000
_symmetry_Int_Tables_number   1
_chemical_formula_structural   ZnH6C16N4(ClO)4
_chemical_formula_sum   'Zn2 H12 C32 N8 Cl8 O8'
_cell_volume   869.48923114
_cell_formula_units_Z   2
loop_
 _symmetry_equiv_pos_site_id
 _symmetry_equiv_pos_as_xyz
  1  'x, y, z'
loop_
 _atom_site_type_symbol
 _atom_site_label
 _atom_site_symmetry_multiplicity
 _atom_site_fract_x
 _atom_site_fract_y
 _atom_site_fract_z
 _atom_site_occupancy
  Zn  Zn0  1  0.13610000  0.85228000  0.98521000  1.0
  Zn  Zn1  1  0.86390000  0.14772000  0.01479000  1.0
  H  H2  1  0.74442000  0.83523000  0.87011000  1.0
  H  H3  1  0.25558000  0.16477000  0.12989000  1.0
  H  H4  1  0.58018000  0.10973000  0.16618000  1.0
  H  H5  1  0.41982000  0.89027000  0.83382000  1.0
  H  H6  1  0.93685000  0.55744000  0.10518000  1.0
  H  H7  1  0.06315000  0.44257000  0.89482000  1.0
  H  H8  1  0.34034000  0.62548000  0.20129000  1.0
  H  H9  1  0.65966000  0.37452000  0.79871000  1.0
  H  H10  1  0.62696000  0.87413000  0.47369000  1.0
  H  H11  1  0.37304000  0.12587000  0.52631000  1.0
  H  H12  1  0.17801000  0.87753000  0.27876000  1.0
  H  H13  1  0.82199000  0.12247000  0.72125000  1.0
  C  C14  1  0.80714000  0.57247000  0.12689000  1.0
  C  C15  1  0.19286000  0.42753000  0.87310000  1.0
  C  C16  1  0.73341000  0.51859000  0.21474000  1.0
  C  C17  1  0.26658000  0.48141000  0.78526000  1.0
  C  C18  1  0.56300000  0.53645000  0.24066000  1.0
  C  C19  1  0.43700000  0.46355000  0.75933000  1.0
  C  C20  1  0.47005000  0.60995000  0.18028000  1.0
  C  C21  1  0.52995000  0.39004000  0.81972000  1.0
  C  C22  1  0.54462000  0.66589000  0.09228000  1.0
  C  C23  1  0.45537000  0.33410000  0.90772000  1.0
  C  C24  1  0.71288000  0.64628000  0.06566000  1.0
  C  C25  1  0.28711000  0.35371000  0.93434000  1.0
  C  C26  1  0.45053000  0.74360000  0.02684000  1.0
  C  C27  1  0.54947000  0.25640000  0.97316000  1.0
  C  C28  1  0.78814000  0.70935000  0.97723000  1.0
  C  C29  1  0.21185000  0.29065000  0.02277000  1.0
  C  C30  1  0.74536000  0.87024000  0.42865000  1.0
  C  C31  1  0.25464000  0.12976000  0.57135000  1.0
  C  C32  1  0.87632000  0.80636000  0.46566000  1.0
  C  C33  1  0.12368000  0.19364000  0.53434000  1.0
  C  C34  1  0.03248000  0.80689000  0.41035000  1.0
  C  C35  1  0.96752000  0.19311000  0.58965000  1.0
  C  C36  1  0.05638000  0.87264000  0.31907000  1.0
  C  C37  1  0.94362000  0.12736000  0.68093000  1.0
  C  C38  1  0.92388000  0.93566000  0.28067000  1.0
  C  C39  1  0.07612000  0.06435000  0.71933000  1.0
  C  C40  1  0.76771000  0.93441000  0.33535000  1.0
  C  C41  1  0.23229000  0.06559000  0.66465000  1.0
  C  C42  1  0.94488000  0.00263000  0.18366000  1.0
  C  C43  1  0.05512000  0.99737000  0.81634000  1.0
  C  C44  1  0.62842000  0.00101000  0.29480000  1.0
  C  C45  1  0.37158000  0.99899000  0.70520000  1.0
  N  N46  1  0.52216000  0.79855000  0.94445000  1.0
  N  N47  1  0.47784000  0.20145000  0.05555000  1.0
  N  N48  1  0.68737000  0.77908000  0.92446000  1.0
  N  N49  1  0.31263000  0.22092000  0.07554000  1.0
  N  N50  1  0.81815000  0.06217000  0.14933000  1.0
  N  N51  1  0.18185000  0.93783000  0.85067000  1.0
  N  N52  1  0.66846000  0.06225000  0.20415000  1.0
  N  N53  1  0.33154000  0.93775000  0.79585000  1.0
  Cl  Cl54  1  0.47080000  0.46629000  0.34693000  1.0
  Cl  Cl55  1  0.52920000  0.53371000  0.65307000  1.0
  Cl  Cl56  1  0.84867000  0.43137000  0.29237000  1.0
  Cl  Cl57  1  0.15133000  0.56863000  0.70762000  1.0
  Cl  Cl58  1  0.84745000  0.72724000  0.58001000  1.0
  Cl  Cl59  1  0.15255000  0.27276000  0.41999000  1.0
  Cl  Cl60  1  0.19399000  0.72740000  0.45535000  1.0
  Cl  Cl61  1  0.80601000  0.27260000  0.54465000  1.0
  O  O62  1  0.29519000  0.75651000  0.05193000  1.0
  O  O63  1  0.70481000  0.24349000  0.94807000  1.0
  O  O64  1  0.94188000  0.70100000  0.95037000  1.0
  O  O65  1  0.05812000  0.29900000  0.04963000  1.0
  O  O66  1  0.08474000  0.00649000  0.12802000  1.0
  O  O67  1  0.91526000  0.99351000  0.87198000  1.0
  O  O68  1  0.48591000  0.00332000  0.33535000  1.0
  O  O69  1  0.51409000  0.99669000  0.66466000  1.0
