# generated using pymatgen
data_ZnH5C11INO4
_symmetry_space_group_name_H-M   'P 1'
_cell_length_a   7.39351000
_cell_length_b   8.85994000
_cell_length_c   14.75925589
_cell_angle_alpha   85.30750591
_cell_angle_beta   80.81407740
_cell_angle_gamma   81.14860000
_symmetry_Int_Tables_number   1
_chemical_formula_structural   ZnH5C11INO4
_chemical_formula_sum   'Zn2 H10 C22 I2 N2 O8'
_cell_volume   941.42980431
_cell_formula_units_Z   2
loop_
 _symmetry_equiv_pos_site_id
 _symmetry_equiv_pos_as_xyz
  1  'x, y, z'
loop_
 _atom_site_type_symbol
 _atom_site_label
 _atom_site_symmetry_multiplicity
 _atom_site_fract_x
 _atom_site_fract_y
 _atom_site_fract_z
 _atom_site_occupancy
  Zn  Zn0  1  0.83463000  0.50861000  0.46090000  1.0
  Zn  Zn1  1  0.16537000  0.49136000  0.53909000  1.0
  H  H2  1  0.69303000  0.72919000  0.76832000  1.0
  H  H3  1  0.47499000  0.51115000  0.40842000  1.0
  H  H4  1  0.30698000  0.27082000  0.23168000  1.0
  H  H5  1  0.64774000  0.10327000  0.94744000  1.0
  H  H6  1  0.35227000  0.89675000  0.05256000  1.0
  H  H7  1  0.48080000  0.11804000  0.10556000  1.0
  H  H8  1  0.51920000  0.88196000  0.89444000  1.0
  H  H9  1  0.19631000  0.97743000  0.52702000  1.0
  H  H10  1  0.80366000  0.02255000  0.47298000  1.0
  H  H11  1  0.52499000  0.48884000  0.59158000  1.0
  C  C12  1  0.04528000  0.20749000  0.50204000  1.0
  C  C13  1  0.32800000  0.37589000  0.18984000  1.0
  C  C14  1  0.74354000  0.48286000  0.77395000  1.0
  C  C15  1  0.25645000  0.51714000  0.22606000  1.0
  C  C16  1  0.71561000  0.34735000  0.82652000  1.0
  C  C17  1  0.28440000  0.65267000  0.17348000  1.0
  C  C18  1  0.61999000  0.34947000  0.91740000  1.0
  C  C19  1  0.38004000  0.65052000  0.08260000  1.0
  C  C20  1  0.54875000  0.49581000  0.95426000  1.0
  C  C21  1  0.45127000  0.50419000  0.04575000  1.0
  C  C22  1  0.57447000  0.63354000  0.89950000  1.0
  C  C23  1  0.95472000  0.79249000  0.49796000  1.0
  C  C24  1  0.42555000  0.36650000  0.10049000  1.0
  C  C25  1  0.59185000  0.21429000  0.97492000  1.0
  C  C26  1  0.40817000  0.78573000  0.02508000  1.0
  C  C27  1  0.49944000  0.22246000  0.06253000  1.0
  C  C28  1  0.50058000  0.77758000  0.93746000  1.0
  C  C29  1  0.06700000  0.03811000  0.50784000  1.0
  C  C30  1  0.93301000  0.96186000  0.49217000  1.0
  C  C31  1  0.15025000  0.51596000  0.32194000  1.0
  C  C32  1  0.84974000  0.48404000  0.67806000  1.0
  C  C33  1  0.67201000  0.62412000  0.81015000  1.0
  I  I34  1  0.81896000  0.13753000  0.76486000  1.0
  I  I35  1  0.18103000  0.86248000  0.23513000  1.0
  N  N36  1  0.44764000  0.49411000  0.53698000  1.0
  N  N37  1  0.55235000  0.50588000  0.46302000  1.0
  O  O38  1  0.90232000  0.28056000  0.47204000  1.0
  O  O39  1  0.09767000  0.71942000  0.52796000  1.0
  O  O40  1  0.17371000  0.26620000  0.52852000  1.0
  O  O41  1  0.82629000  0.73378000  0.47149000  1.0
  O  O42  1  0.97652000  0.51910000  0.32990000  1.0
  O  O43  1  0.02347000  0.48089000  0.67009000  1.0
  O  O44  1  0.24396000  0.50585000  0.38810000  1.0
  O  O45  1  0.75603000  0.49414000  0.61190000  1.0
