# generated using pymatgen
data_ErH7C14(NO4)2
_symmetry_space_group_name_H-M   'P 1'
_cell_length_a   8.34476000
_cell_length_b   12.15320000
_cell_length_c   13.38120000
_cell_angle_alpha   102.07800000
_cell_angle_beta   89.99990000
_cell_angle_gamma   89.99990000
_symmetry_Int_Tables_number   1
_chemical_formula_structural   ErH7C14(NO4)2
_chemical_formula_sum   'Er4 H28 C56 N8 O32'
_cell_volume   1327.02119984
_cell_formula_units_Z   4
loop_
 _symmetry_equiv_pos_site_id
 _symmetry_equiv_pos_as_xyz
  1  'x, y, z'
loop_
 _atom_site_type_symbol
 _atom_site_label
 _atom_site_symmetry_multiplicity
 _atom_site_fract_x
 _atom_site_fract_y
 _atom_site_fract_z
 _atom_site_occupancy
  Er  Er0  1  0.27243000  0.19792000  0.31714000  1.0
  Er  Er1  1  0.77244000  0.80207000  0.18286000  1.0
  Er  Er2  1  0.72757000  0.80209000  0.68286000  1.0
  Er  Er3  1  0.22757000  0.19792000  0.81714000  1.0
  H  H4  1  0.80946000  0.52285000  0.37564000  1.0
  H  H5  1  0.30948000  0.47714000  0.12434000  1.0
  H  H6  1  0.19053000  0.47715000  0.62434000  1.0
  H  H7  1  0.69054000  0.52285000  0.87566000  1.0
  H  H8  1  0.98702000  0.69288000  0.41042000  1.0
  H  H9  1  0.48704000  0.30712000  0.08957000  1.0
  H  H10  1  0.01297000  0.30712000  0.58957000  1.0
  H  H11  1  0.51298000  0.69288000  0.91043000  1.0
  H  H12  1  0.28808000  0.66404000  0.40736000  1.0
  H  H13  1  0.78810000  0.33597000  0.09265000  1.0
  H  H14  1  0.71191000  0.33597000  0.59264000  1.0
  H  H15  1  0.21191000  0.66404000  0.90736000  1.0
  H  H16  1  0.59281000  0.15513000  0.66573000  1.0
  H  H17  1  0.09280000  0.84488000  0.83427000  1.0
  H  H18  1  0.40720000  0.84487000  0.33426000  1.0
  H  H19  1  0.90721000  0.15511000  0.16574000  1.0
  H  H20  1  0.84959000  0.08144000  0.57938000  1.0
  H  H21  1  0.34959000  0.91857000  0.92062000  1.0
  H  H22  1  0.15041000  0.91856000  0.42061000  1.0
  H  H23  1  0.65042000  0.08143000  0.07939000  1.0
  H  H24  1  0.85680000  0.02610000  0.38735000  1.0
  H  H25  1  0.35681000  0.97389000  0.11265000  1.0
  H  H26  1  0.14318000  0.97389000  0.61264000  1.0
  H  H27  1  0.64319000  0.02612000  0.88736000  1.0
  H  H28  1  0.59943000  0.33951000  0.33924000  1.0
  H  H29  1  0.09944000  0.66049000  0.16077000  1.0
  H  H30  1  0.40056000  0.66049000  0.66076000  1.0
  H  H31  1  0.90056000  0.33950000  0.83924000  1.0
  C  C32  1  0.00946000  0.40770000  0.35512000  1.0
  C  C33  1  0.50947000  0.59229000  0.14488000  1.0
  C  C34  1  0.99053000  0.59230000  0.64488000  1.0
  C  C35  1  0.49054000  0.40770000  0.85512000  1.0
  C  C36  1  0.93971000  0.51462000  0.37468000  1.0
  C  C37  1  0.43973000  0.48537000  0.12531000  1.0
  C  C38  1  0.06028000  0.48538000  0.62531000  1.0
  C  C39  1  0.56029000  0.51462000  0.87469000  1.0
  C  C40  1  0.03949000  0.60899000  0.39364000  1.0
  C  C41  1  0.53951000  0.39101000  0.10636000  1.0
  C  C42  1  0.96049000  0.39102000  0.60635000  1.0
  C  C43  1  0.46050000  0.60899000  0.89364000  1.0
  C  C44  1  0.20493000  0.59363000  0.39273000  1.0
  C  C45  1  0.70494000  0.40637000  0.10727000  1.0
  C  C46  1  0.79507000  0.40638000  0.60726000  1.0
  C  C47  1  0.29507000  0.59362000  0.89273000  1.0
  C  C48  1  0.26458000  0.48406000  0.37233000  1.0
  C  C49  1  0.76459000  0.51594000  0.12768000  1.0
  C  C50  1  0.73541000  0.51595000  0.62767000  1.0
  C  C51  1  0.23541000  0.48406000  0.87232000  1.0
  C  C52  1  0.91451000  0.29926000  0.33358000  1.0
  C  C53  1  0.41452000  0.70074000  0.16642000  1.0
  C  C54  1  0.08547000  0.70075000  0.66642000  1.0
  C  C55  1  0.58549000  0.29926000  0.83358000  1.0
  C  C56  1  0.44062000  0.46286000  0.37024000  1.0
  C  C57  1  0.94063000  0.53714000  0.12977000  1.0
  C  C58  1  0.55937000  0.53714000  0.62976000  1.0
  C  C59  1  0.05937000  0.46286000  0.87023000  1.0
  C  C60  1  0.47565000  0.15880000  0.52267000  1.0
  C  C61  1  0.97565000  0.84120000  0.97733000  1.0
  C  C62  1  0.52435000  0.84120000  0.47733000  1.0
  C  C63  1  0.02436000  0.15880000  0.02267000  1.0
  C  C64  1  0.60390000  0.13792000  0.58284000  1.0
  C  C65  1  0.10390000  0.86209000  0.91716000  1.0
  C  C66  1  0.39610000  0.86209000  0.41716000  1.0
  C  C67  1  0.89611000  0.13790000  0.08284000  1.0
  C  C68  1  0.74557000  0.09415000  0.53420000  1.0
  C  C69  1  0.24557000  0.90586000  0.96580000  1.0
  C  C70  1  0.25443000  0.90586000  0.46580000  1.0
  C  C71  1  0.75444000  0.09414000  0.03420000  1.0
  C  C72  1  0.75137000  0.06471000  0.42805000  1.0
  C  C73  1  0.25138000  0.93528000  0.07195000  1.0
  C  C74  1  0.24862000  0.93528000  0.57195000  1.0
  C  C75  1  0.74863000  0.06472000  0.92805000  1.0
  C  C76  1  0.61640000  0.08647000  0.37390000  1.0
  C  C77  1  0.11641000  0.91352000  0.12610000  1.0
  C  C78  1  0.38359000  0.91353000  0.62609000  1.0
  C  C79  1  0.88360000  0.08648000  0.87391000  1.0
  C  C80  1  0.31566000  0.20784000  0.56171000  1.0
  C  C81  1  0.81566000  0.79215000  0.93829000  1.0
  C  C82  1  0.68434000  0.79216000  0.43829000  1.0
  C  C83  1  0.18435000  0.20784000  0.06171000  1.0
  C  C84  1  0.60191000  0.05661000  0.25983000  1.0
  C  C85  1  0.10192000  0.94339000  0.24017000  1.0
  C  C86  1  0.39807000  0.94339000  0.74017000  1.0
  C  C87  1  0.89807000  0.05662000  0.75983000  1.0
  N  N88  1  0.16924000  0.39312000  0.35365000  1.0
  N  N89  1  0.66924000  0.60688000  0.14635000  1.0
  N  N90  1  0.83075000  0.60689000  0.64635000  1.0
  N  N91  1  0.33076000  0.39312000  0.85365000  1.0
  N  N92  1  0.48500000  0.13596000  0.42013000  1.0
  N  N93  1  0.98501000  0.86403000  0.07987000  1.0
  N  N94  1  0.51499000  0.86404000  0.57987000  1.0
  N  N95  1  0.01500000  0.13596000  0.92013000  1.0
  O  O96  1  0.99620000  0.20909000  0.32405000  1.0
  O  O97  1  0.49620000  0.79091000  0.17594000  1.0
  O  O98  1  0.00380000  0.79092000  0.67594000  1.0
  O  O99  1  0.50380000  0.20909000  0.82406000  1.0
  O  O100  1  0.76470000  0.30190000  0.32307000  1.0
  O  O101  1  0.26471000  0.69809000  0.17693000  1.0
  O  O102  1  0.23529000  0.69810000  0.67692000  1.0
  O  O103  1  0.73530000  0.30189000  0.82307000  1.0
  O  O104  1  0.47572000  0.35200000  0.34465000  1.0
  O  O105  1  0.97572000  0.64800000  0.15537000  1.0
  O  O106  1  0.52427000  0.64800000  0.65536000  1.0
  O  O107  1  0.02428000  0.35200000  0.84464000  1.0
  O  O108  1  0.54159000  0.53734000  0.38878000  1.0
  O  O109  1  0.04160000  0.46267000  0.11123000  1.0
  O  O110  1  0.45840000  0.46266000  0.61123000  1.0
  O  O111  1  0.95840000  0.53734000  0.88877000  1.0
  O  O112  1  0.22344000  0.23273000  0.49391000  1.0
  O  O113  1  0.72344000  0.76726000  0.00609000  1.0
  O  O114  1  0.77656000  0.76727000  0.50610000  1.0
  O  O115  1  0.27657000  0.23273000  0.99391000  1.0
  O  O116  1  0.28153000  0.21994000  0.65556000  1.0
  O  O117  1  0.78153000  0.78006000  0.84445000  1.0
  O  O118  1  0.71847000  0.78005000  0.34444000  1.0
  O  O119  1  0.21848000  0.21994000  0.15556000  1.0
  O  O120  1  0.49442000  0.10764000  0.22001000  1.0
  O  O121  1  0.99442000  0.89235000  0.27999000  1.0
  O  O122  1  0.50557000  0.89236000  0.77999000  1.0
  O  O123  1  0.00557000  0.10765000  0.72002000  1.0
  O  O124  1  0.69436000  0.98124000  0.21076000  1.0
  O  O125  1  0.19436000  0.01874000  0.28924000  1.0
  O  O126  1  0.30562000  0.01874000  0.78924000  1.0
  O  O127  1  0.80562000  0.98126000  0.71077000  1.0
