# generated using pymatgen
data_ZnH17C13S2N5
_symmetry_space_group_name_H-M   'P 1'
_cell_length_a   7.55888000
_cell_length_b   9.96193000
_cell_length_c   13.23190000
_cell_angle_alpha   71.21910000
_cell_angle_beta   86.37420000
_cell_angle_gamma   69.22810000
_symmetry_Int_Tables_number   1
_chemical_formula_structural   ZnH17C13S2N5
_chemical_formula_sum   'Zn2 H34 C26 S4 N10'
_cell_volume   880.54741064
_cell_formula_units_Z   2
loop_
 _symmetry_equiv_pos_site_id
 _symmetry_equiv_pos_as_xyz
  1  'x, y, z'
loop_
 _atom_site_type_symbol
 _atom_site_label
 _atom_site_symmetry_multiplicity
 _atom_site_fract_x
 _atom_site_fract_y
 _atom_site_fract_z
 _atom_site_occupancy
  Zn  Zn0  1  0.59711000  0.23477000  0.38308000  1.0
  Zn  Zn1  1  0.40288000  0.76523000  0.61693000  1.0
  H  H2  1  0.29372000  0.29986000  0.26567000  1.0
  H  H3  1  0.70628000  0.70015000  0.73433000  1.0
  H  H4  1  0.27990000  0.20845000  0.38912000  1.0
  H  H5  1  0.72009000  0.79155000  0.61088000  1.0
  H  H6  1  0.69826000  0.43857000  0.23454000  1.0
  H  H7  1  0.30172000  0.56143000  0.76546000  1.0
  H  H8  1  0.61252000  0.50454000  0.33358000  1.0
  H  H9  1  0.38747000  0.49547000  0.66642000  1.0
  H  H10  1  0.91954000  0.94427000  0.38981000  1.0
  H  H11  1  0.08046000  0.05574000  0.61019000  1.0
  H  H12  1  0.05255000  0.77982000  0.27725000  1.0
  H  H13  1  0.94746000  0.22019000  0.72275000  1.0
  H  H14  1  0.63647000  0.11082000  0.02645000  1.0
  H  H15  1  0.36353000  0.88919000  0.97354000  1.0
  H  H16  1  0.52214000  0.26218000  0.14792000  1.0
  H  H17  1  0.47786000  0.73782000  0.85208000  1.0
  H  H18  1  0.06975000  0.75106000  0.09650000  1.0
  H  H19  1  0.93026000  0.24895000  0.90350000  1.0
  H  H20  1  0.91850000  0.89743000  0.98795000  1.0
  H  H21  1  0.08151000  0.10257000  0.01205000  1.0
  H  H22  1  0.83225000  0.76350000  0.07714000  1.0
  H  H23  1  0.16776000  0.23649000  0.92285000  1.0
  H  H24  1  0.23817000  0.53310000  0.31669000  1.0
  H  H25  1  0.76183000  0.46690000  0.68332000  1.0
  H  H26  1  0.18133000  0.42855000  0.44080000  1.0
  H  H27  1  0.81865000  0.57144000  0.55920000  1.0
  H  H28  1  0.89017000  0.59452000  0.31907000  1.0
  H  H29  1  0.10982000  0.40549000  0.68094000  1.0
  H  H30  1  0.98403000  0.50444000  0.22188000  1.0
  H  H31  1  0.01596000  0.49557000  0.77812000  1.0
  H  H32  1  0.97907000  0.25697000  0.35033000  1.0
  H  H33  1  0.02092000  0.74303000  0.64966000  1.0
  H  H34  1  0.88307000  0.34753000  0.44718000  1.0
  H  H35  1  0.11692000  0.65247000  0.55282000  1.0
  C  C36  1  0.85792000  0.97585000  0.30942000  1.0
  C  C37  1  0.14208000  0.02415000  0.69058000  1.0
  C  C38  1  0.93169000  0.88429000  0.24576000  1.0
  C  C39  1  0.06830000  0.11571000  0.75424000  1.0
  C  C40  1  0.85348000  0.92794000  0.14194000  1.0
  C  C41  1  0.14654000  0.07206000  0.85807000  1.0
  C  C42  1  0.70360000  0.06766000  0.10671000  1.0
  C  C43  1  0.29641000  0.93234000  0.89328000  1.0
  C  C44  1  0.63897000  0.15358000  0.17471000  1.0
  C  C45  1  0.36104000  0.84642000  0.82529000  1.0
  C  C46  1  0.92390000  0.82991000  0.07221000  1.0
  C  C47  1  0.07610000  0.17009000  0.92778000  1.0
  C  C48  1  0.18047000  0.44294000  0.35489000  1.0
  C  C49  1  0.81952000  0.55706000  0.64511000  1.0
  C  C50  1  0.98071000  0.48620000  0.30860000  1.0
  C  C51  1  0.01928000  0.51380000  0.69140000  1.0
  C  C52  1  0.89276000  0.36614000  0.36060000  1.0
  C  C53  1  0.10723000  0.63386000  0.63940000  1.0
  C  C54  1  0.62697000  0.14743000  0.62246000  1.0
  C  C55  1  0.37305000  0.85255000  0.37754000  1.0
  C  C56  1  0.64838000  0.08125000  0.73561000  1.0
  C  C57  1  0.35164000  0.91874000  0.26440000  1.0
  C  C58  1  0.57133000  0.17363000  0.80045000  1.0
  C  C59  1  0.42869000  0.82636000  0.19955000  1.0
  C  C60  1  0.75035000  0.92619000  0.78515000  1.0
  C  C61  1  0.24967000  0.07379000  0.21486000  1.0
  S  S62  1  0.73278000  0.03779000  0.54172000  1.0
  S  S63  1  0.26723000  0.96220000  0.45828000  1.0
  S  S64  1  0.50517000  0.33464000  0.56271000  1.0
  S  S65  1  0.49484000  0.66535000  0.43730000  1.0
  N  N66  1  0.71228000  0.10878000  0.27542000  1.0
  N  N67  1  0.28770000  0.89123000  0.72456000  1.0
  N  N68  1  0.31449000  0.29976000  0.34181000  1.0
  N  N69  1  0.68550000  0.70024000  0.65820000  1.0
  N  N70  1  0.69829000  0.40818000  0.31626000  1.0
  N  N71  1  0.30170000  0.59182000  0.68374000  1.0
  N  N72  1  0.50973000  0.25218000  0.85376000  1.0
  N  N73  1  0.49027000  0.74782000  0.14623000  1.0
  N  N74  1  0.83432000  0.79567000  0.82420000  1.0
  N  N75  1  0.16568000  0.20432000  0.17580000  1.0
