# generated using pymatgen
data_ZnH8C12(N2Cl)2
_symmetry_space_group_name_H-M   'P 1'
_cell_length_a   5.82494000
_cell_length_b   25.25190000
_cell_length_c   26.22920108
_cell_angle_alpha   89.28613225
_cell_angle_beta   83.61090752
_cell_angle_gamma   83.41310000
_symmetry_Int_Tables_number   1
_chemical_formula_structural   ZnH8C12(N2Cl)2
_chemical_formula_sum   'Zn6 H48 C72 N24 Cl12'
_cell_volume   3808.80311808
_cell_formula_units_Z   6
loop_
 _symmetry_equiv_pos_site_id
 _symmetry_equiv_pos_as_xyz
  1  'x, y, z'
loop_
 _atom_site_type_symbol
 _atom_site_label
 _atom_site_symmetry_multiplicity
 _atom_site_fract_x
 _atom_site_fract_y
 _atom_site_fract_z
 _atom_site_occupancy
  Zn  Zn0  1  0.14489000  0.74930000  0.27609000  1.0
  Zn  Zn1  1  0.17049000  0.25082000  0.72370000  1.0
  Zn  Zn2  1  0.17104000  0.24928000  0.22388000  1.0
  Zn  Zn3  1  0.64367000  0.75084000  0.77621000  1.0
  Zn  Zn4  1  0.35630000  0.50004000  0.50016000  1.0
  Zn  Zn5  1  0.60622000  0.99994000  0.00002000  1.0
  H  H6  1  0.69482000  0.72818000  0.34143000  1.0
  H  H7  1  0.45475000  0.65269000  0.35506000  1.0
  H  H8  1  0.91245000  0.56787000  0.23455000  1.0
  H  H9  1  0.13171000  0.64870000  0.22424000  1.0
  H  H10  1  0.99476000  0.59484000  0.39558000  1.0
  H  H11  1  0.62231000  0.58847000  0.45310000  1.0
  H  H12  1  0.65618000  0.42610000  0.42828000  1.0
  H  H13  1  0.03179000  0.42550000  0.37005000  1.0
  H  H14  1  0.44391000  0.36405000  0.31319000  1.0
  H  H15  1  0.68490000  0.27971000  0.28358000  1.0
  H  H16  1  0.20048000  0.36224000  0.20865000  1.0
  H  H17  1  0.98093000  0.45092000  0.23745000  1.0
  H  H18  1  0.76517000  0.27185000  0.65815000  1.0
  H  H19  1  0.46319000  0.34728000  0.64461000  1.0
  H  H20  1  0.71536000  0.43210000  0.76515000  1.0
  H  H21  1  0.00425000  0.35121000  0.77560000  1.0
  H  H22  1  0.98500000  0.40509000  0.60442000  1.0
  H  H23  1  0.66234000  0.41147000  0.54730000  1.0
  H  H24  1  0.51100000  0.57389000  0.57202000  1.0
  H  H25  1  0.82797000  0.57439000  0.63021000  1.0
  H  H26  1  0.12141000  0.63571000  0.68684000  1.0
  H  H27  1  0.24748000  0.72018000  0.71656000  1.0
  H  H28  1  0.77087000  0.63794000  0.79146000  1.0
  H  H29  1  0.67012000  0.54918000  0.76245000  1.0
  H  H30  1  0.78670000  0.22811000  0.15844000  1.0
  H  H31  1  0.56041000  0.15257000  0.14483000  1.0
  H  H32  1  0.89804000  0.06778000  0.26518000  1.0
  H  H33  1  0.10552000  0.14880000  0.27578000  1.0
  H  H34  1  0.14027000  0.09483000  0.10456000  1.0
  H  H35  1  0.82481000  0.08850000  0.04721000  1.0
  H  H36  1  0.83469000  0.92608000  0.07171000  1.0
  H  H37  1  0.15216000  0.92546000  0.12990000  1.0
  H  H38  1  0.50880000  0.86412000  0.18640000  1.0
  H  H39  1  0.71951000  0.77975000  0.21618000  1.0
  H  H40  1  0.15853000  0.86233000  0.29153000  1.0
  H  H41  1  0.96882000  0.95099000  0.26249000  1.0
  H  H42  1  0.17289000  0.77198000  0.84170000  1.0
  H  H43  1  0.85764000  0.84746000  0.85535000  1.0
  H  H44  1  0.22982000  0.93209000  0.73458000  1.0
  H  H45  1  0.52960000  0.85128000  0.72424000  1.0
  H  H46  1  0.33952000  0.90513000  0.89563000  1.0
  H  H47  1  0.96025000  0.91146000  0.95299000  1.0
  H  H48  1  0.83229000  0.07381000  0.92819000  1.0
  H  H49  1  0.20725000  0.07440000  0.86991000  1.0
  H  H50  1  0.55864000  0.13602000  0.81351000  1.0
  H  H51  1  0.71506000  0.22036000  0.78369000  1.0
  H  H52  1  0.31267000  0.13788000  0.70866000  1.0
  H  H53  1  0.18196000  0.04920000  0.73756000  1.0
  C  C54  1  0.73830000  0.69198000  0.31853000  1.0
  C  C55  1  0.60433000  0.64968000  0.32598000  1.0
  C  C56  1  0.66876000  0.60367000  0.29624000  1.0
  C  C57  1  0.85956000  0.60294000  0.25853000  1.0
  C  C58  1  0.98138000  0.64699000  0.25282000  1.0
  C  C59  1  0.55038000  0.55502000  0.30537000  1.0
  C  C60  1  0.25858000  0.51117000  0.34373000  1.0
  C  C61  1  0.56357000  0.46537000  0.29561000  1.0
  C  C62  1  0.03763000  0.51060000  0.37733000  1.0
  C  C63  1  0.92300000  0.55703000  0.40122000  1.0
  C  C64  1  0.71825000  0.55365000  0.43326000  1.0
  C  C65  1  0.73783000  0.46239000  0.41926000  1.0
  C  C66  1  0.94303000  0.46239000  0.38700000  1.0
  C  C67  1  0.69444000  0.41415000  0.27723000  1.0
  C  C68  1  0.61081000  0.36540000  0.29028000  1.0
  C  C69  1  0.74618000  0.31832000  0.27416000  1.0
  C  C70  1  0.03369000  0.36508000  0.23255000  1.0
  C  C71  1  0.91087000  0.41365000  0.24779000  1.0
  C  C72  1  0.74946000  0.30803000  0.68109000  1.0
  C  C73  1  0.58070000  0.35030000  0.67366000  1.0
  C  C74  1  0.56939000  0.39629000  0.70345000  1.0
  C  C75  1  0.72153000  0.39702000  0.74118000  1.0
  C  C76  1  0.88127000  0.35296000  0.74694000  1.0
  C  C77  1  0.41149000  0.44491000  0.69443000  1.0
  C  C78  1  0.11382000  0.48872000  0.65628000  1.0
  C  C79  1  0.32524000  0.53452000  0.70436000  1.0
  C  C80  1  0.92576000  0.48932000  0.62276000  1.0
  C  C81  1  0.88106000  0.44290000  0.59888000  1.0
  C  C82  1  0.70435000  0.44631000  0.56702000  1.0
  C  C83  1  0.61959000  0.53758000  0.58103000  1.0
  C  C84  1  0.79276000  0.53754000  0.61320000  1.0
  C  C85  1  0.38636000  0.58577000  0.72275000  1.0
  C  C86  1  0.26665000  0.63447000  0.70976000  1.0
  C  C87  1  0.33825000  0.68161000  0.72593000  1.0
  C  C88  1  0.63109000  0.63501000  0.76752000  1.0
  C  C89  1  0.57273000  0.58639000  0.75219000  1.0
  C  C90  1  0.80724000  0.19194000  0.18136000  1.0
  C  C91  1  0.68086000  0.14962000  0.17389000  1.0
  C  C92  1  0.71575000  0.10361000  0.20359000  1.0
  C  C93  1  0.86878000  0.10289000  0.24129000  1.0
  C  C94  1  0.98429000  0.14701000  0.24712000  1.0
  C  C95  1  0.60643000  0.05499000  0.19447000  1.0
  C  C96  1  0.35254000  0.01115000  0.15625000  1.0
  C  C97  1  0.60997000  0.96536000  0.20421000  1.0
  C  C98  1  0.16509000  0.01056000  0.12270000  1.0
  C  C99  1  0.07418000  0.05701000  0.09890000  1.0
  C  C100  1  0.90121000  0.05365000  0.06694000  1.0
  C  C101  1  0.90727000  0.96236000  0.08076000  1.0
  C  C102  1  0.08030000  0.96234000  0.11298000  1.0
  C  C103  1  0.72274000  0.91418000  0.22255000  1.0
  C  C104  1  0.65241000  0.86544000  0.20941000  1.0
  C  C105  1  0.77121000  0.81837000  0.22563000  1.0
  C  C106  1  0.01630000  0.86515000  0.26747000  1.0
  C  C107  1  0.90919000  0.91371000  0.25213000  1.0
  C  C108  1  0.18017000  0.80815000  0.81876000  1.0
  C  C109  1  0.00404000  0.85044000  0.82623000  1.0
  C  C110  1  0.02239000  0.89640000  0.79642000  1.0
  C  C111  1  0.21212000  0.89707000  0.75862000  1.0
  C  C112  1  0.37782000  0.85303000  0.75289000  1.0
  C  C113  1  0.85553000  0.94504000  0.80552000  1.0
  C  C114  1  0.51977000  0.98882000  0.84379000  1.0
  C  C115  1  0.77913000  0.03467000  0.79573000  1.0
  C  C116  1  0.29818000  0.98936000  0.87734000  1.0
  C  C117  1  0.22995000  0.94292000  0.90123000  1.0
  C  C118  1  0.02159000  0.94629000  0.93320000  1.0
  C  C119  1  0.95017000  0.03754000  0.91917000  1.0
  C  C120  1  0.15535000  0.03754000  0.88693000  1.0
  C  C121  1  0.85893000  0.08592000  0.77742000  1.0
  C  C122  1  0.72675000  0.13467000  0.79052000  1.0
  C  C123  1  0.81489000  0.18175000  0.77431000  1.0
  C  C124  1  0.14891000  0.13503000  0.73262000  1.0
  C  C125  1  0.07471000  0.08645000  0.74792000  1.0
  N  N126  1  0.66345000  0.50990000  0.28397000  1.0
  N  N127  1  0.34767000  0.55784000  0.33571000  1.0
  N  N128  1  0.35965000  0.46396000  0.32448000  1.0
  N  N129  1  0.62744000  0.50728000  0.44193000  1.0
  N  N130  1  0.92459000  0.69036000  0.28302000  1.0
  N  N131  1  0.95365000  0.31828000  0.24585000  1.0
  N  N132  1  0.45824000  0.49002000  0.71585000  1.0
  N  N133  1  0.24165000  0.44207000  0.66419000  1.0
  N  N134  1  0.14846000  0.53590000  0.67560000  1.0
  N  N135  1  0.57614000  0.49269000  0.55840000  1.0
  N  N136  1  0.89823000  0.30963000  0.71666000  1.0
  N  N137  1  0.51719000  0.68177000  0.75427000  1.0
  N  N138  1  0.69838000  0.00988000  0.21578000  1.0
  N  N139  1  0.43371000  0.05781000  0.16424000  1.0
  N  N140  1  0.43449000  0.96394000  0.17547000  1.0
  N  N141  1  0.81920000  0.00728000  0.05821000  1.0
  N  N142  1  0.95768000  0.19037000  0.21691000  1.0
  N  N143  1  0.94973000  0.81834000  0.25411000  1.0
  N  N144  1  0.92358000  0.99016000  0.78413000  1.0
  N  N145  1  0.65559000  0.94219000  0.83583000  1.0
  N  N146  1  0.57360000  0.03603000  0.82452000  1.0
  N  N147  1  0.88451000  0.99264000  0.94183000  1.0
  N  N148  1  0.36457000  0.80972000  0.78318000  1.0
  N  N149  1  0.02210000  0.18182000  0.74590000  1.0
  Cl  Cl150  1  0.40502000  0.72210000  0.20973000  1.0
  Cl  Cl151  1  0.23617000  0.77166000  0.35223000  1.0
  Cl  Cl152  1  0.24546000  0.42047000  0.48888000  1.0
  Cl  Cl153  1  0.33675000  0.27812000  0.79008000  1.0
  Cl  Cl154  1  0.36083000  0.22834000  0.64765000  1.0
  Cl  Cl155  1  0.15543000  0.57966000  0.51144000  1.0
  Cl  Cl156  1  0.36432000  0.22210000  0.29029000  1.0
  Cl  Cl157  1  0.33926000  0.27170000  0.14783000  1.0
  Cl  Cl158  1  0.48498000  0.92026000  0.01113000  1.0
  Cl  Cl159  1  0.87647000  0.77794000  0.70976000  1.0
  Cl  Cl160  1  0.75789000  0.72851000  0.85228000  1.0
  Cl  Cl161  1  0.41632000  0.07953000  0.98881000  1.0
