# generated using pymatgen
data_SnH16C16(ClO)2
_symmetry_space_group_name_H-M   'P 1'
_cell_length_a   8.63892000
_cell_length_b   8.63897000
_cell_length_c   11.26650000
_cell_angle_alpha   87.59800000
_cell_angle_beta   87.59810000
_cell_angle_gamma   87.49440000
_symmetry_Int_Tables_number   1
_chemical_formula_structural   SnH16C16(ClO)2
_chemical_formula_sum   'Sn2 H32 C32 Cl4 O4'
_cell_volume   838.61562451
_cell_formula_units_Z   2
loop_
 _symmetry_equiv_pos_site_id
 _symmetry_equiv_pos_as_xyz
  1  'x, y, z'
loop_
 _atom_site_type_symbol
 _atom_site_label
 _atom_site_symmetry_multiplicity
 _atom_site_fract_x
 _atom_site_fract_y
 _atom_site_fract_z
 _atom_site_occupancy
  Sn  Sn0  1  0.04863000  0.95489000  0.49695000  1.0
  Sn  Sn1  1  0.95490000  0.04863000  0.99694000  1.0
  H  H2  1  0.29582000  0.98770000  0.28515000  1.0
  H  H3  1  0.98770000  0.29582000  0.78515000  1.0
  H  H4  1  0.47291000  0.81404000  0.16782000  1.0
  H  H5  1  0.81404000  0.47291000  0.66782000  1.0
  H  H6  1  0.46599000  0.52840000  0.20251000  1.0
  H  H7  1  0.52840000  0.46599000  0.70251000  1.0
  H  H8  1  0.28685000  0.41750000  0.35900000  1.0
  H  H9  1  0.41750000  0.28685000  0.85900000  1.0
  H  H10  1  0.11604000  0.59010000  0.48187000  1.0
  H  H11  1  0.59010000  0.11604000  0.98187000  1.0
  H  H12  1  0.77724000  0.02626000  0.69246000  1.0
  H  H13  1  0.02626000  0.77724000  0.19246000  1.0
  H  H14  1  0.51595000  0.93089000  0.74151000  1.0
  H  H15  1  0.93089000  0.51595000  0.24150000  1.0
  H  H16  1  0.40875000  0.72835000  0.62086000  1.0
  H  H17  1  0.72835000  0.40875000  0.12085000  1.0
  H  H18  1  0.56676000  0.61861000  0.45263000  1.0
  H  H19  1  0.61861000  0.56676000  0.95263000  1.0
  H  H20  1  0.82917000  0.71153000  0.40272000  1.0
  H  H21  1  0.71153000  0.82917000  0.90273000  1.0
  H  H22  1  0.13230000  0.23986000  0.44133000  1.0
  H  H23  1  0.23986000  0.13230000  0.94133000  1.0
  H  H24  1  0.03419000  0.24032000  0.58197000  1.0
  H  H25  1  0.24033000  0.03419000  0.08197000  1.0
  H  H26  1  0.31940000  0.30117000  0.59817000  1.0
  H  H27  1  0.30118000  0.31940000  0.09817000  1.0
  H  H28  1  0.37578000  0.11938000  0.54035000  1.0
  H  H29  1  0.11938000  0.37578000  0.04035000  1.0
  H  H30  1  0.27507000  0.12784000  0.68006000  1.0
  H  H31  1  0.12785000  0.27507000  0.18006000  1.0
  H  H32  1  0.04998000  0.67633000  0.90985000  1.0
  H  H33  1  0.67634000  0.04999000  0.40984000  1.0
  C  C34  1  0.19239000  0.80188000  0.39117000  1.0
  C  C35  1  0.80188000  0.19239000  0.89117000  1.0
  C  C36  1  0.29307000  0.86272000  0.30205000  1.0
  C  C37  1  0.86273000  0.29307000  0.80205000  1.0
  C  C38  1  0.39201000  0.76514000  0.23484000  1.0
  C  C39  1  0.76514000  0.39200000  0.73483000  1.0
  C  C40  1  0.38857000  0.60470000  0.25458000  1.0
  C  C41  1  0.60470000  0.38857000  0.75457000  1.0
  C  C42  1  0.28798000  0.54274000  0.34266000  1.0
  C  C43  1  0.54274000  0.28798000  0.84266000  1.0
  C  C44  1  0.19123000  0.64062000  0.41150000  1.0
  C  C45  1  0.64062000  0.19123000  0.91150000  1.0
  C  C46  1  0.82305000  0.87416000  0.54510000  1.0
  C  C47  1  0.87416000  0.82306000  0.04511000  1.0
  C  C48  1  0.73321000  0.93558000  0.64012000  1.0
  C  C49  1  0.93557000  0.73321000  0.14013000  1.0
  C  C50  1  0.58518000  0.88186000  0.66786000  1.0
  C  C51  1  0.88186000  0.58518000  0.16786000  1.0
  C  C52  1  0.52544000  0.76758000  0.60080000  1.0
  C  C53  1  0.76758000  0.52544000  0.10080000  1.0
  C  C54  1  0.61410000  0.70619000  0.50601000  1.0
  C  C55  1  0.70619000  0.61410000  0.00602000  1.0
  C  C56  1  0.76242000  0.75893000  0.47831000  1.0
  C  C57  1  0.75893000  0.76243000  0.97831000  1.0
  C  C58  1  0.12783000  0.18181000  0.52993000  1.0
  C  C59  1  0.18181000  0.12783000  0.02993000  1.0
  C  C60  1  0.28251000  0.18185000  0.59018000  1.0
  C  C61  1  0.18186000  0.28251000  0.09018000  1.0
  C  C62  1  0.11469000  0.83851000  0.76520000  1.0
  C  C63  1  0.83851000  0.11471000  0.26519000  1.0
  C  C64  1  0.15060000  0.69703000  0.84964000  1.0
  C  C65  1  0.69703000  0.15061000  0.34963000  1.0
  Cl  Cl66  1  0.19414000  0.52453000  0.77300000  1.0
  Cl  Cl67  1  0.52452000  0.19414000  0.27299000  1.0
  Cl  Cl68  1  0.30588000  0.74038000  0.94061000  1.0
  Cl  Cl69  1  0.74038000  0.30589000  0.44060000  1.0
  O  O70  1  0.14641000  0.82170000  0.65562000  1.0
  O  O71  1  0.82171000  0.14643000  0.15561000  1.0
  O  O72  1  0.05657000  0.95978000  0.81058000  1.0
  O  O73  1  0.95978000  0.05658000  0.31058000  1.0
