# generated using pymatgen
data_HgH15C22I2(NCl)4
_symmetry_space_group_name_H-M   'P 1'
_cell_length_a   10.03590000
_cell_length_b   11.90910000
_cell_length_c   12.90980000
_cell_angle_alpha   98.83980000
_cell_angle_beta   101.86500000
_cell_angle_gamma   113.55500000
_symmetry_Int_Tables_number   1
_chemical_formula_structural   HgH15C22I2(NCl)4
_chemical_formula_sum   'Hg2 H30 C44 I4 N8 Cl8'
_cell_volume   1335.48902942
_cell_formula_units_Z   2
loop_
 _symmetry_equiv_pos_site_id
 _symmetry_equiv_pos_as_xyz
  1  'x, y, z'
loop_
 _atom_site_type_symbol
 _atom_site_label
 _atom_site_symmetry_multiplicity
 _atom_site_fract_x
 _atom_site_fract_y
 _atom_site_fract_z
 _atom_site_occupancy
  Hg  Hg0  1  0.81963000  0.93187000  0.31993000  1.0
  Hg  Hg1  1  0.18037000  0.06813000  0.68007000  1.0
  H  H2  1  0.29223000  0.75883000  0.20168000  1.0
  H  H3  1  0.70777000  0.24117000  0.79832000  1.0
  H  H4  1  0.40688000  0.81482000  0.05495000  1.0
  H  H5  1  0.59311000  0.18518000  0.94505000  1.0
  H  H6  1  0.40569000  0.48883000  0.43317000  1.0
  H  H7  1  0.59431000  0.51116000  0.56683000  1.0
  H  H8  1  0.76777000  0.23242000  0.34837000  1.0
  H  H9  1  0.23223000  0.76758000  0.65163000  1.0
  H  H10  1  0.56403000  0.22163000  0.17141000  1.0
  H  H11  1  0.43597000  0.77837000  0.82860000  1.0
  H  H12  1  0.14484000  0.38887000  0.09930000  1.0
  H  H13  1  0.85516000  0.61114000  0.90070000  1.0
  H  H14  1  0.05578000  0.53222000  0.22119000  1.0
  H  H15  1  0.94422000  0.46778000  0.77881000  1.0
  H  H16  1  0.14930000  0.12887000  0.10933000  1.0
  H  H17  1  0.85070000  0.87113000  0.89067000  1.0
  H  H18  1  0.07932000  0.03058000  0.90611000  1.0
  H  H19  1  0.92068000  0.96942000  0.09389000  1.0
  H  H20  1  0.44550000  0.33041000  0.87264000  1.0
  H  H21  1  0.55450000  0.66959000  0.12736000  1.0
  H  H22  1  0.53108000  0.44089000  0.07346000  1.0
  H  H23  1  0.46892000  0.55911000  0.92654000  1.0
  H  H24  1  0.08617000  0.48296000  0.61971000  1.0
  H  H25  1  0.91383000  0.51704000  0.38029000  1.0
  H  H26  1  0.23076000  0.35801000  0.66085000  1.0
  H  H27  1  0.76924000  0.64199000  0.33915000  1.0
  H  H28  1  0.83339000  0.02469000  0.58753000  1.0
  H  H29  1  0.16661000  0.97531000  0.41247000  1.0
  H  H30  1  0.67217000  0.13281000  0.53310000  1.0
  H  H31  1  0.32783000  0.86719000  0.46690000  1.0
  C  C32  1  0.24512000  0.80183000  0.14379000  1.0
  C  C33  1  0.75488000  0.19817000  0.85621000  1.0
  C  C34  1  0.28277000  0.77377000  0.03658000  1.0
  C  C35  1  0.71723000  0.22623000  0.96341000  1.0
  C  C36  1  0.67848000  0.35331000  0.43922000  1.0
  C  C37  1  0.32152000  0.64669000  0.56078000  1.0
  C  C38  1  0.69010000  0.27529000  0.34581000  1.0
  C  C39  1  0.30991000  0.72471000  0.65419000  1.0
  C  C40  1  0.58777000  0.27097000  0.25591000  1.0
  C  C41  1  0.41222000  0.72903000  0.74408000  1.0
  C  C42  1  0.51304000  0.34432000  0.29554000  1.0
  C  C43  1  0.48695000  0.65568000  0.70447000  1.0
  C  C44  1  0.39223000  0.35462000  0.22686000  1.0
  C  C45  1  0.60777000  0.64538000  0.77314000  1.0
  C  C46  1  0.30773000  0.41568000  0.25894000  1.0
  C  C47  1  0.69228000  0.58432000  0.74106000  1.0
  C  C48  1  0.18889000  0.42974000  0.18722000  1.0
  C  C49  1  0.81111000  0.57026000  0.81278000  1.0
  C  C50  1  0.14269000  0.50271000  0.24966000  1.0
  C  C51  1  0.85732000  0.49729000  0.75034000  1.0
  C  C52  1  0.23053000  0.53440000  0.36182000  1.0
  C  C53  1  0.76947000  0.46560000  0.63818000  1.0
  C  C54  1  0.77037000  0.38417000  0.54770000  1.0
  C  C55  1  0.22964000  0.61583000  0.45230000  1.0
  C  C56  1  0.34597000  0.29298000  0.10723000  1.0
  C  C57  1  0.65403000  0.70702000  0.89277000  1.0
  C  C58  1  0.21726000  0.17617000  0.05917000  1.0
  C  C59  1  0.78274000  0.82383000  0.94084000  1.0
  C  C60  1  0.17840000  0.12182000  0.94723000  1.0
  C  C61  1  0.82159000  0.87818000  0.05277000  1.0
  C  C62  1  0.38265000  0.28948000  0.92823000  1.0
  C  C63  1  0.61735000  0.71053000  0.07177000  1.0
  C  C64  1  0.42969000  0.35027000  0.03952000  1.0
  C  C65  1  0.57031000  0.64973000  0.96048000  1.0
  C  C66  1  0.86615000  0.31760000  0.57212000  1.0
  C  C67  1  0.13385000  0.68240000  0.42788000  1.0
  C  C68  1  0.02545000  0.38122000  0.61010000  1.0
  C  C69  1  0.97455000  0.61878000  0.38990000  1.0
  C  C70  1  0.10645000  0.31249000  0.63507000  1.0
  C  C71  1  0.89355000  0.68751000  0.36494000  1.0
  C  C72  1  0.88502000  0.12594000  0.59150000  1.0
  C  C73  1  0.11498000  0.87406000  0.40850000  1.0
  C  C74  1  0.79573000  0.18648000  0.56139000  1.0
  C  C75  1  0.20427000  0.81351000  0.43861000  1.0
  I  I76  1  0.56411000  0.79777000  0.36776000  1.0
  I  I77  1  0.43590000  0.20224000  0.63224000  1.0
  I  I78  1  0.04110000  0.15511000  0.32501000  1.0
  I  I79  1  0.95891000  0.84489000  0.67499000  1.0
  N  N80  1  0.57147000  0.39493000  0.40683000  1.0
  N  N81  1  0.42853000  0.60507000  0.59317000  1.0
  N  N82  1  0.32612000  0.47761000  0.36373000  1.0
  N  N83  1  0.67388000  0.52239000  0.63627000  1.0
  N  N84  1  0.25934000  0.17706000  0.88295000  1.0
  N  N85  1  0.74066000  0.82294000  0.11705000  1.0
  N  N86  1  0.03737000  0.18780000  0.62765000  1.0
  N  N87  1  0.96263000  0.81220000  0.37235000  1.0
  Cl  Cl88  1  0.33712000  0.96796000  0.20447000  1.0
  Cl  Cl89  1  0.66288000  0.03204000  0.79553000  1.0
  Cl  Cl90  1  0.04629000  0.73753000  0.12561000  1.0
  Cl  Cl91  1  0.95371000  0.26248000  0.87440000  1.0
  Cl  Cl92  1  0.21465000  0.83854000  0.93530000  1.0
  Cl  Cl93  1  0.78535000  0.16145000  0.06470000  1.0
  Cl  Cl94  1  0.21077000  0.60624000  0.98546000  1.0
  Cl  Cl95  1  0.78923000  0.39376000  0.01454000  1.0
