# generated using pymatgen
data_AgH12C16(NO)3
_symmetry_space_group_name_H-M   'P 1'
_cell_length_a   9.34297000
_cell_length_b   10.93130000
_cell_length_c   14.21950000
_cell_angle_alpha   90.00000000
_cell_angle_beta   100.33200000
_cell_angle_gamma   89.99990000
_symmetry_Int_Tables_number   1
_chemical_formula_structural   AgH12C16(NO)3
_chemical_formula_sum   'Ag4 H48 C64 N12 O12'
_cell_volume   1428.70083854
_cell_formula_units_Z   4
loop_
 _symmetry_equiv_pos_site_id
 _symmetry_equiv_pos_as_xyz
  1  'x, y, z'
loop_
 _atom_site_type_symbol
 _atom_site_label
 _atom_site_symmetry_multiplicity
 _atom_site_fract_x
 _atom_site_fract_y
 _atom_site_fract_z
 _atom_site_occupancy
  Ag  Ag0  1  0.08124000  0.35059000  0.99533000  1.0
  Ag  Ag1  1  0.41876000  0.85059000  0.50467000  1.0
  Ag  Ag2  1  0.91876000  0.64941000  0.00467000  1.0
  Ag  Ag3  1  0.58124000  0.14941000  0.49533000  1.0
  H  H4  1  0.20279000  0.67860000  0.38693000  1.0
  H  H5  1  0.29722000  0.17860000  0.11307000  1.0
  H  H6  1  0.79721000  0.32140000  0.61307000  1.0
  H  H7  1  0.70278000  0.82140000  0.88693000  1.0
  H  H8  1  0.05429000  0.86595000  0.38711000  1.0
  H  H9  1  0.44571000  0.36595000  0.11288000  1.0
  H  H10  1  0.94571000  0.13405000  0.61289000  1.0
  H  H11  1  0.55429000  0.63405000  0.88711000  1.0
  H  H12  1  0.94761000  0.91904000  0.53214000  1.0
  H  H13  1  0.55239000  0.41904000  0.96786000  1.0
  H  H14  1  0.05239000  0.08096000  0.46786000  1.0
  H  H15  1  0.44761000  0.58096000  0.03214000  1.0
  H  H16  1  0.99673000  0.78753000  0.67458000  1.0
  H  H17  1  0.50326000  0.28753000  0.82542000  1.0
  H  H18  1  0.00326000  0.21247000  0.32542000  1.0
  H  H19  1  0.49674000  0.71247000  0.17458000  1.0
  H  H20  1  0.06705000  0.29645000  0.77525000  1.0
  H  H21  1  0.43294000  0.79645000  0.72475000  1.0
  H  H22  1  0.93294000  0.70355000  0.22475000  1.0
  H  H23  1  0.56706000  0.20355000  0.27525000  1.0
  H  H24  1  0.07113000  0.41250000  0.62572000  1.0
  H  H25  1  0.42887000  0.91250000  0.87428000  1.0
  H  H26  1  0.92887000  0.58750000  0.37428000  1.0
  H  H27  1  0.57113000  0.08750000  0.12572000  1.0
  H  H28  1  0.21714000  0.72698000  0.80063000  1.0
  H  H29  1  0.28286000  0.22698000  0.69937000  1.0
  H  H30  1  0.78287000  0.27302000  0.19937000  1.0
  H  H31  1  0.71713000  0.77302000  0.30063000  1.0
  H  H32  1  0.21601000  0.59538000  0.94345000  1.0
  H  H33  1  0.28399000  0.09539000  0.55655000  1.0
  H  H34  1  0.78399000  0.40461000  0.05655000  1.0
  H  H35  1  0.71601000  0.90461000  0.44345000  1.0
  H  H36  1  0.55707000  0.34837000  0.64928000  1.0
  H  H37  1  0.94293000  0.84837000  0.85072000  1.0
  H  H38  1  0.44293000  0.65163000  0.35072000  1.0
  H  H39  1  0.05707000  0.15163000  0.14928000  1.0
  H  H40  1  0.41829000  0.53704000  0.66462000  1.0
  H  H41  1  0.08171000  0.03704000  0.83538000  1.0
  H  H42  1  0.58171000  0.46296000  0.33538000  1.0
  H  H43  1  0.91829000  0.96296000  0.16462000  1.0
  H  H44  1  0.16444000  0.45899000  0.38524000  1.0
  H  H45  1  0.33556000  0.95899000  0.11476000  1.0
  H  H46  1  0.83556000  0.54101000  0.61476000  1.0
  H  H47  1  0.66444000  0.04101000  0.88524000  1.0
  H  H48  1  0.30679000  0.26953000  0.38336000  1.0
  H  H49  1  0.19322000  0.76953000  0.11664000  1.0
  H  H50  1  0.69322000  0.73047000  0.61664000  1.0
  H  H51  1  0.80678000  0.23047000  0.88336000  1.0
  C  C52  1  0.12995000  0.65873000  0.61387000  1.0
  C  C53  1  0.37005000  0.15872000  0.88613000  1.0
  C  C54  1  0.87005000  0.34127000  0.38613000  1.0
  C  C55  1  0.62995000  0.84127000  0.11387000  1.0
  C  C56  1  0.18688000  0.62603000  0.53148000  1.0
  C  C57  1  0.31312000  0.12603000  0.96852000  1.0
  C  C58  1  0.81312000  0.37397000  0.46852000  1.0
  C  C59  1  0.68688000  0.87397000  0.03148000  1.0
  C  C60  1  0.15949000  0.70312000  0.45080000  1.0
  C  C61  1  0.34051000  0.20311000  0.04920000  1.0
  C  C62  1  0.84051000  0.29689000  0.54920000  1.0
  C  C63  1  0.65949000  0.79689000  0.95080000  1.0
  C  C64  1  0.07434000  0.80831000  0.45065000  1.0
  C  C65  1  0.42567000  0.30831000  0.04935000  1.0
  C  C66  1  0.92567000  0.19169000  0.54935000  1.0
  C  C67  1  0.57433000  0.69169000  0.95065000  1.0
  C  C68  1  0.01676000  0.83899000  0.53153000  1.0
  C  C69  1  0.48324000  0.33899000  0.96847000  1.0
  C  C70  1  0.98325000  0.16101000  0.46847000  1.0
  C  C71  1  0.51675000  0.66101000  0.03153000  1.0
  C  C72  1  0.04587000  0.76542000  0.61261000  1.0
  C  C73  1  0.45413000  0.26542000  0.88739000  1.0
  C  C74  1  0.95413000  0.23458000  0.38739000  1.0
  C  C75  1  0.54587000  0.73458000  0.11261000  1.0
  C  C76  1  0.10329000  0.39147000  0.77805000  1.0
  C  C77  1  0.39671000  0.89147000  0.72195000  1.0
  C  C78  1  0.89671000  0.60853000  0.22195000  1.0
  C  C79  1  0.60329000  0.10853000  0.27805000  1.0
  C  C80  1  0.10512000  0.45681000  0.69462000  1.0
  C  C81  1  0.39488000  0.95681000  0.80538000  1.0
  C  C82  1  0.89488000  0.54319000  0.30538000  1.0
  C  C83  1  0.60512000  0.04319000  0.19462000  1.0
  C  C84  1  0.14408000  0.58092000  0.70018000  1.0
  C  C85  1  0.35592000  0.08092000  0.79982000  1.0
  C  C86  1  0.85592000  0.41908000  0.29982000  1.0
  C  C87  1  0.64408000  0.91908000  0.20018000  1.0
  C  C88  1  0.18579000  0.63113000  0.79156000  1.0
  C  C89  1  0.31421000  0.13113000  0.70844000  1.0
  C  C90  1  0.81421000  0.36886000  0.20844000  1.0
  C  C91  1  0.68579000  0.86887000  0.29156000  1.0
  C  C92  1  0.18465000  0.55850000  0.87162000  1.0
  C  C93  1  0.31535000  0.05850000  0.62838000  1.0
  C  C94  1  0.81535000  0.44150000  0.12838000  1.0
  C  C95  1  0.68465000  0.94150000  0.37162000  1.0
  C  C96  1  0.46705000  0.37434000  0.59299000  1.0
  C  C97  1  0.03295000  0.87434000  0.90701000  1.0
  C  C98  1  0.53295000  0.62566000  0.40701000  1.0
  C  C99  1  0.96705000  0.12566000  0.09299000  1.0
  C  C100  1  0.38837000  0.48034000  0.60116000  1.0
  C  C101  1  0.11164000  0.98034000  0.89884000  1.0
  C  C102  1  0.61164000  0.51966000  0.39884000  1.0
  C  C103  1  0.88837000  0.01966000  0.10116000  1.0
  C  C104  1  0.27461000  0.51405000  0.52716000  1.0
  C  C105  1  0.22539000  0.01405000  0.97284000  1.0
  C  C106  1  0.72539000  0.48595000  0.47284000  1.0
  C  C107  1  0.77461000  0.98595000  0.02716000  1.0
  C  C108  1  0.24765000  0.43739000  0.44682000  1.0
  C  C109  1  0.25235000  0.93739000  0.05318000  1.0
  C  C110  1  0.75235000  0.56261000  0.55318000  1.0
  C  C111  1  0.74765000  0.06261000  0.94682000  1.0
  C  C112  1  0.32912000  0.33157000  0.44432000  1.0
  C  C113  1  0.17088000  0.83157000  0.05568000  1.0
  C  C114  1  0.67088000  0.66843000  0.55568000  1.0
  C  C115  1  0.82913000  0.16843000  0.94432000  1.0
  N  N116  1  0.14211000  0.44072000  0.86577000  1.0
  N  N117  1  0.35789000  0.94072000  0.63423000  1.0
  N  N118  1  0.85789000  0.55928000  0.13423000  1.0
  N  N119  1  0.64211000  0.05928000  0.36577000  1.0
  N  N120  1  0.43776000  0.29990000  0.51622000  1.0
  N  N121  1  0.06224000  0.79990000  0.98378000  1.0
  N  N122  1  0.56224000  0.70010000  0.48378000  1.0
  N  N123  1  0.93776000  0.20010000  0.01622000  1.0
  N  N124  1  0.21434000  0.49954000  0.17740000  1.0
  N  N125  1  0.28566000  0.99954000  0.32260000  1.0
  N  N126  1  0.78566000  0.50046000  0.82260000  1.0
  N  N127  1  0.71434000  0.00046000  0.67740000  1.0
  O  O128  1  0.19253000  0.52341000  0.08687000  1.0
  O  O129  1  0.30747000  0.02341000  0.41313000  1.0
  O  O130  1  0.80747000  0.47659000  0.91313000  1.0
  O  O131  1  0.69253000  0.97658000  0.58687000  1.0
  O  O132  1  0.18580000  0.39434000  0.20524000  1.0
  O  O133  1  0.31421000  0.89434000  0.29476000  1.0
  O  O134  1  0.81421000  0.60566000  0.79476000  1.0
  O  O135  1  0.68579000  0.10566000  0.70524000  1.0
  O  O136  1  0.26373000  0.58334000  0.23513000  1.0
  O  O137  1  0.23627000  0.08334000  0.26487000  1.0
  O  O138  1  0.73627000  0.41666000  0.76487000  1.0
  O  O139  1  0.76373000  0.91666000  0.73513000  1.0
