# generated using pymatgen
data_TlH3C4S(NO)2
_symmetry_space_group_name_H-M   'P 1'
_cell_length_a   4.18411000
_cell_length_b   11.20410000
_cell_length_c   14.75160000
_cell_angle_alpha   78.61400000
_cell_angle_beta   89.99990000
_cell_angle_gamma   89.99990000
_symmetry_Int_Tables_number   1
_chemical_formula_structural   TlH3C4S(NO)2
_chemical_formula_sum   'Tl4 H12 C16 S4 N8 O8'
_cell_volume   677.93306049
_cell_formula_units_Z   4
loop_
 _symmetry_equiv_pos_site_id
 _symmetry_equiv_pos_as_xyz
  1  'x, y, z'
loop_
 _atom_site_type_symbol
 _atom_site_label
 _atom_site_symmetry_multiplicity
 _atom_site_fract_x
 _atom_site_fract_y
 _atom_site_fract_z
 _atom_site_occupancy
  Tl  Tl0  1  0.94875000  0.50000000  0.25000000  1.0
  Tl  Tl1  1  0.05126000  0.50000000  0.75000000  1.0
  Tl  Tl2  1  0.42427000  0.00000000  0.25000000  1.0
  Tl  Tl3  1  0.57573000  0.00000000  0.75000000  1.0
  H  H4  1  0.01829000  0.07634000  0.54900000  1.0
  H  H5  1  0.01829000  0.92366000  0.95100000  1.0
  H  H6  1  0.98171000  0.92366000  0.45100000  1.0
  H  H7  1  0.98171000  0.07634000  0.04900000  1.0
  H  H8  1  0.66349000  0.42023000  0.55131000  1.0
  H  H9  1  0.66349000  0.57977000  0.94869000  1.0
  H  H10  1  0.33651000  0.57977000  0.44869000  1.0
  H  H11  1  0.33651000  0.42023000  0.05131000  1.0
  H  H12  1  0.45948000  0.25566000  0.32334000  1.0
  H  H13  1  0.45949000  0.74434000  0.17666000  1.0
  H  H14  1  0.54052000  0.74434000  0.67666000  1.0
  H  H15  1  0.54052000  0.25566000  0.82334000  1.0
  C  C16  1  0.86506000  0.24860000  0.56197000  1.0
  C  C17  1  0.86506000  0.75140000  0.93803000  1.0
  C  C18  1  0.13494000  0.75140000  0.43803000  1.0
  C  C19  1  0.13494000  0.24860000  0.06197000  1.0
  C  C20  1  0.54181000  0.35353000  0.43349000  1.0
  C  C21  1  0.54181000  0.64647000  0.06651000  1.0
  C  C22  1  0.45819000  0.64647000  0.56651000  1.0
  C  C23  1  0.45819000  0.35353000  0.93349000  1.0
  C  C24  1  0.57786000  0.25423000  0.38924000  1.0
  C  C25  1  0.57787000  0.74577000  0.11076000  1.0
  C  C26  1  0.42213000  0.74577000  0.61075000  1.0
  C  C27  1  0.42213000  0.25423000  0.88925000  1.0
  C  C28  1  0.75430000  0.15112000  0.43114000  1.0
  C  C29  1  0.75431000  0.84887000  0.06886000  1.0
  C  C30  1  0.24570000  0.84888000  0.56886000  1.0
  C  C31  1  0.24570000  0.15113000  0.93114000  1.0
  S  S32  1  0.03747000  0.24278000  0.66656000  1.0
  S  S33  1  0.03747000  0.75722000  0.83344000  1.0
  S  S34  1  0.96253000  0.75722000  0.33344000  1.0
  S  S35  1  0.96252000  0.24278000  0.16656000  1.0
  N  N36  1  0.89060000  0.15412000  0.51747000  1.0
  N  N37  1  0.89061000  0.84588000  0.98253000  1.0
  N  N38  1  0.10939000  0.84588000  0.48253000  1.0
  N  N39  1  0.10939000  0.15412000  0.01747000  1.0
  N  N40  1  0.69317000  0.34579000  0.51909000  1.0
  N  N41  1  0.69317000  0.65421000  0.98091000  1.0
  N  N42  1  0.30683000  0.65421000  0.48091000  1.0
  N  N43  1  0.30682000  0.34579000  0.01909000  1.0
  O  O44  1  0.38833000  0.45122000  0.40152000  1.0
  O  O45  1  0.38833000  0.54878000  0.09848000  1.0
  O  O46  1  0.61167000  0.54878000  0.59848000  1.0
  O  O47  1  0.61167000  0.45122000  0.90152000  1.0
  O  O48  1  0.80111000  0.05593000  0.39825000  1.0
  O  O49  1  0.80111000  0.94407000  0.10176000  1.0
  O  O50  1  0.19889000  0.94407000  0.60175000  1.0
  O  O51  1  0.19889000  0.05593000  0.89825000  1.0
