# generated using pymatgen
data_MnH6C6(NO3)2
_symmetry_space_group_name_H-M   'P 1'
_cell_length_a   6.86768000
_cell_length_b   10.85230000
_cell_length_c   11.37870000
_cell_angle_alpha   103.71300000
_cell_angle_beta   107.50100000
_cell_angle_gamma   90.03630000
_symmetry_Int_Tables_number   1
_chemical_formula_structural   MnH6C6(NO3)2
_chemical_formula_sum   'Mn4 H24 C24 N8 O24'
_cell_volume   783.37533451
_cell_formula_units_Z   4
loop_
 _symmetry_equiv_pos_site_id
 _symmetry_equiv_pos_as_xyz
  1  'x, y, z'
loop_
 _atom_site_type_symbol
 _atom_site_label
 _atom_site_symmetry_multiplicity
 _atom_site_fract_x
 _atom_site_fract_y
 _atom_site_fract_z
 _atom_site_occupancy
  Mn  Mn0  1  0.52516000  0.27335000  0.74036000  1.0
  Mn  Mn1  1  0.78526000  0.22647000  0.25954000  1.0
  Mn  Mn2  1  0.47484000  0.72665000  0.25965000  1.0
  Mn  Mn3  1  0.21475000  0.77353000  0.74046000  1.0
  H  H4  1  0.15077000  0.33880000  0.66041000  1.0
  H  H5  1  0.49029000  0.16133000  0.33960000  1.0
  H  H6  1  0.84922000  0.66121000  0.33959000  1.0
  H  H7  1  0.50971000  0.83868000  0.66040000  1.0
  H  H8  1  0.21501000  0.39119000  0.81691000  1.0
  H  H9  1  0.39817000  0.10917000  0.18306000  1.0
  H  H10  1  0.78498000  0.60882000  0.18309000  1.0
  H  H11  1  0.60183000  0.89083000  0.81693000  1.0
  H  H12  1  0.45534000  0.05649000  0.79324000  1.0
  H  H13  1  0.66206000  0.44321000  0.20689000  1.0
  H  H14  1  0.54465000  0.94351000  0.20676000  1.0
  H  H15  1  0.33795000  0.55680000  0.79311000  1.0
  H  H16  1  0.57101000  0.13398000  0.93312000  1.0
  H  H17  1  0.63769000  0.36586000  0.06686000  1.0
  H  H18  1  0.42898000  0.86602000  0.06688000  1.0
  H  H19  1  0.36232000  0.63414000  0.93315000  1.0
  H  H20  1  0.34927000  0.92625000  0.47125000  1.0
  H  H21  1  0.87810000  0.57375000  0.52855000  1.0
  H  H22  1  0.65074000  0.07376000  0.52875000  1.0
  H  H23  1  0.12191000  0.42625000  0.47145000  1.0
  H  H24  1  0.04300000  0.78709000  0.08654000  1.0
  H  H25  1  0.95529000  0.71308000  0.91324000  1.0
  H  H26  1  0.95698000  0.21291000  0.91347000  1.0
  H  H27  1  0.04472000  0.28691000  0.08677000  1.0
  C  C28  1  0.15757000  0.14566000  0.51028000  1.0
  C  C29  1  0.64773000  0.35408000  0.48978000  1.0
  C  C30  1  0.84242000  0.85435000  0.48971000  1.0
  C  C31  1  0.35226000  0.64592000  0.51022000  1.0
  C  C32  1  0.12074000  0.04446000  0.38810000  1.0
  C  C33  1  0.73306000  0.45526000  0.61188000  1.0
  C  C34  1  0.87927000  0.95554000  0.61190000  1.0
  C  C35  1  0.26694000  0.54474000  0.38812000  1.0
  C  C36  1  0.23494000  0.93795000  0.38575000  1.0
  C  C37  1  0.84925000  0.56194000  0.61410000  1.0
  C  C38  1  0.76506000  0.06206000  0.61425000  1.0
  C  C39  1  0.15076000  0.43805000  0.38590000  1.0
  C  C40  1  0.06735000  0.86202000  0.17287000  1.0
  C  C41  1  0.89402000  0.63798000  0.82699000  1.0
  C  C42  1  0.93264000  0.13798000  0.82713000  1.0
  C  C43  1  0.10600000  0.36201000  0.17301000  1.0
  C  C44  1  0.95638000  0.96977000  0.17373000  1.0
  C  C45  1  0.78242000  0.53010000  0.82626000  1.0
  C  C46  1  0.04361000  0.03023000  0.82627000  1.0
  C  C47  1  0.21759000  0.46990000  0.17374000  1.0
  C  C48  1  0.81084000  0.99278000  0.05343000  1.0
  C  C49  1  0.75696000  0.50700000  0.94663000  1.0
  C  C50  1  0.18916000  0.00722000  0.94657000  1.0
  C  C51  1  0.24304000  0.49300000  0.05338000  1.0
  N  N52  1  0.98189000  0.06014000  0.28180000  1.0
  N  N53  1  0.70033000  0.43954000  0.71828000  1.0
  N  N54  1  0.01811000  0.93986000  0.71820000  1.0
  N  N55  1  0.29967000  0.56045000  0.28172000  1.0
  N  N56  1  0.20821000  0.84657000  0.27838000  1.0
  N  N57  1  0.92952000  0.65343000  0.72143000  1.0
  N  N58  1  0.79179000  0.15343000  0.72162000  1.0
  N  N59  1  0.07049000  0.34657000  0.27857000  1.0
  O  O60  1  0.03914000  0.23478000  0.51238000  1.0
  O  O61  1  0.52691000  0.26502000  0.48779000  1.0
  O  O62  1  0.96086000  0.76522000  0.48761000  1.0
  O  O63  1  0.47308000  0.73498000  0.51221000  1.0
  O  O64  1  0.30916000  0.13144000  0.60214000  1.0
  O  O65  1  0.70766000  0.36817000  0.39783000  1.0
  O  O66  1  0.69083000  0.86857000  0.39785000  1.0
  O  O67  1  0.29234000  0.63184000  0.60217000  1.0
  O  O68  1  0.73196000  0.10057000  0.06593000  1.0
  O  O69  1  0.66479000  0.39940000  0.93406000  1.0
  O  O70  1  0.26803000  0.89942000  0.93407000  1.0
  O  O71  1  0.33522000  0.60060000  0.06594000  1.0
  O  O72  1  0.78347000  0.90816000  0.95205000  1.0
  O  O73  1  0.83169000  0.59137000  0.04808000  1.0
  O  O74  1  0.21652000  0.09184000  0.04795000  1.0
  O  O75  1  0.16832000  0.40863000  0.95192000  1.0
  O  O76  1  0.25814000  0.38828000  0.73886000  1.0
  O  O77  1  0.51915000  0.11182000  0.26103000  1.0
  O  O78  1  0.74185000  0.61172000  0.26114000  1.0
  O  O79  1  0.48086000  0.88818000  0.73897000  1.0
  O  O80  1  0.47559000  0.14312000  0.85027000  1.0
  O  O81  1  0.62556000  0.35658000  0.14984000  1.0
  O  O82  1  0.52440000  0.85688000  0.14973000  1.0
  O  O83  1  0.37445000  0.64342000  0.85016000  1.0
