# generated using pymatgen
data_BaH4C6N2O5
_symmetry_space_group_name_H-M   'P 1'
_cell_length_a   5.65157000
_cell_length_b   8.06148000
_cell_length_c   9.82792000
_cell_angle_alpha   93.98960000
_cell_angle_beta   105.49500000
_cell_angle_gamma   96.82970000
_symmetry_Int_Tables_number   1
_chemical_formula_structural   BaH4C6N2O5
_chemical_formula_sum   'Ba2 H8 C12 N4 O10'
_cell_volume   426.01400680
_cell_formula_units_Z   2
loop_
 _symmetry_equiv_pos_site_id
 _symmetry_equiv_pos_as_xyz
  1  'x, y, z'
loop_
 _atom_site_type_symbol
 _atom_site_label
 _atom_site_symmetry_multiplicity
 _atom_site_fract_x
 _atom_site_fract_y
 _atom_site_fract_z
 _atom_site_occupancy
  Ba  Ba0  1  0.31659000  0.21654000  0.05285000  1.0
  Ba  Ba1  1  0.68341000  0.78346000  0.94715000  1.0
  H  H2  1  0.32515000  0.30112000  0.66296000  1.0
  H  H3  1  0.67485000  0.69888000  0.33704000  1.0
  H  H4  1  0.82483000  0.14732000  0.34694000  1.0
  H  H5  1  0.17516000  0.85268000  0.65305000  1.0
  H  H6  1  0.94967000  0.08043000  0.60083000  1.0
  H  H7  1  0.05032000  0.91957000  0.39916000  1.0
  H  H8  1  0.23255000  0.36754000  0.41016000  1.0
  H  H9  1  0.76745000  0.63247000  0.58985000  1.0
  C  C10  1  0.69112000  0.11775000  0.79335000  1.0
  C  C11  1  0.30888000  0.88226000  0.20665000  1.0
  C  C12  1  0.64196000  0.18106000  0.64928000  1.0
  C  C13  1  0.35803000  0.81894000  0.35072000  1.0
  C  C14  1  0.44015000  0.26564000  0.59590000  1.0
  C  C15  1  0.55984000  0.73436000  0.40411000  1.0
  C  C16  1  0.72107000  0.18207000  0.42101000  1.0
  C  C17  1  0.27893000  0.81792000  0.57899000  1.0
  C  C18  1  0.78916000  0.14363000  0.56089000  1.0
  C  C19  1  0.21083000  0.85637000  0.43911000  1.0
  C  C20  1  0.38891000  0.30203000  0.45550000  1.0
  C  C21  1  0.61109000  0.69798000  0.54450000  1.0
  N  N22  1  0.52177000  0.25773000  0.36704000  1.0
  N  N23  1  0.47823000  0.74228000  0.63295000  1.0
  N  N24  1  0.90041000  0.43305000  0.14033000  1.0
  N  N25  1  0.09959000  0.56696000  0.85967000  1.0
  O  O26  1  0.51261000  0.09978000  0.84984000  1.0
  O  O27  1  0.48738000  0.90022000  0.15016000  1.0
  O  O28  1  0.90159000  0.07199000  0.84597000  1.0
  O  O29  1  0.09842000  0.92801000  0.15403000  1.0
  O  O30  1  0.71753000  0.51379000  0.13036000  1.0
  O  O31  1  0.28248000  0.48621000  0.86964000  1.0
  O  O32  1  0.86509000  0.27361000  0.13776000  1.0
  O  O33  1  0.13492000  0.72639000  0.86225000  1.0
  O  O34  1  0.11448000  0.50790000  0.15107000  1.0
  O  O35  1  0.88552000  0.49210000  0.84892000  1.0
