# generated using pymatgen
data_ZnH10C12(IN2)2
_symmetry_space_group_name_H-M   'P 1'
_cell_length_a   8.33683000
_cell_length_b   11.72280000
_cell_length_c   15.04990000
_cell_angle_alpha   89.99940000
_cell_angle_beta   90.00090000
_cell_angle_gamma   89.99970000
_symmetry_Int_Tables_number   1
_chemical_formula_structural   ZnH10C12(IN2)2
_chemical_formula_sum   'Zn4 H40 C48 I8 N16'
_cell_volume   1470.84163701
_cell_formula_units_Z   4
loop_
 _symmetry_equiv_pos_site_id
 _symmetry_equiv_pos_as_xyz
  1  'x, y, z'
loop_
 _atom_site_type_symbol
 _atom_site_label
 _atom_site_symmetry_multiplicity
 _atom_site_fract_x
 _atom_site_fract_y
 _atom_site_fract_z
 _atom_site_occupancy
  Zn  Zn0  1  0.27525000  0.99343000  0.25000000  1.0
  Zn  Zn1  1  0.22474000  0.49342000  0.75000000  1.0
  Zn  Zn2  1  0.77523000  0.50659000  0.25000000  1.0
  Zn  Zn3  1  0.72475000  0.00657000  0.75000000  1.0
  H  H4  1  0.59358000  0.05969000  0.17376000  1.0
  H  H5  1  0.90642000  0.55968000  0.82625000  1.0
  H  H6  1  0.09355000  0.44032000  0.32624000  1.0
  H  H7  1  0.40645000  0.94031000  0.67375000  1.0
  H  H8  1  0.40645000  0.94030000  0.82624000  1.0
  H  H9  1  0.09355000  0.44031000  0.17376000  1.0
  H  H10  1  0.90644000  0.55969000  0.67376000  1.0
  H  H11  1  0.59355000  0.05969000  0.32624000  1.0
  H  H12  1  0.69775000  0.83182000  0.95592000  1.0
  H  H13  1  0.80226000  0.33181000  0.04408000  1.0
  H  H14  1  0.19776000  0.66818000  0.54407000  1.0
  H  H15  1  0.30225000  0.16819000  0.45593000  1.0
  H  H16  1  0.30226000  0.16817000  0.04407000  1.0
  H  H17  1  0.19776000  0.66817000  0.95593000  1.0
  H  H18  1  0.80225000  0.33183000  0.45593000  1.0
  H  H19  1  0.69775000  0.83183000  0.54408000  1.0
  H  H20  1  0.43691000  0.73431000  0.98645000  1.0
  H  H21  1  0.06311000  0.23431000  0.01355000  1.0
  H  H22  1  0.93692000  0.76569000  0.51355000  1.0
  H  H23  1  0.56308000  0.26570000  0.48645000  1.0
  H  H24  1  0.56309000  0.26568000  0.01355000  1.0
  H  H25  1  0.93692000  0.76568000  0.98644000  1.0
  H  H26  1  0.06309000  0.23432000  0.48644000  1.0
  H  H27  1  0.43691000  0.73432000  0.51356000  1.0
  H  H28  1  0.26339000  0.80781000  0.11177000  1.0
  H  H29  1  0.23661000  0.30780000  0.88822000  1.0
  H  H30  1  0.76340000  0.69221000  0.38823000  1.0
  H  H31  1  0.73660000  0.19221000  0.61177000  1.0
  H  H32  1  0.73661000  0.19220000  0.88823000  1.0
  H  H33  1  0.76340000  0.69220000  0.11176000  1.0
  H  H34  1  0.23660000  0.30780000  0.61177000  1.0
  H  H35  1  0.26339000  0.80780000  0.38823000  1.0
  H  H36  1  0.85572000  0.07547000  0.10298000  1.0
  H  H37  1  0.64428000  0.57546000  0.89702000  1.0
  H  H38  1  0.35571000  0.42452000  0.39700000  1.0
  H  H39  1  0.14430000  0.92452000  0.60299000  1.0
  H  H40  1  0.14431000  0.92451000  0.89700000  1.0
  H  H41  1  0.35570000  0.42451000  0.10301000  1.0
  H  H42  1  0.64430000  0.57548000  0.60300000  1.0
  H  H43  1  0.85569000  0.07548000  0.39701000  1.0
  C  C44  1  0.56503000  0.98568000  0.13249000  1.0
  C  C45  1  0.93498000  0.48568000  0.86751000  1.0
  C  C46  1  0.06501000  0.51432000  0.36750000  1.0
  C  C47  1  0.43499000  0.01432000  0.63249000  1.0
  C  C48  1  0.43500000  0.01431000  0.86751000  1.0
  C  C49  1  0.06500000  0.51431000  0.13250000  1.0
  C  C50  1  0.93499000  0.48568000  0.63249000  1.0
  C  C51  1  0.56500000  0.98569000  0.36751000  1.0
  C  C52  1  0.67190000  0.94860000  0.06674000  1.0
  C  C53  1  0.82811000  0.44859000  0.93327000  1.0
  C  C54  1  0.17189000  0.55140000  0.43325000  1.0
  C  C55  1  0.32812000  0.05141000  0.56674000  1.0
  C  C56  1  0.32812000  0.05140000  0.93325000  1.0
  C  C57  1  0.17189000  0.55140000  0.06675000  1.0
  C  C58  1  0.82811000  0.44860000  0.56674000  1.0
  C  C59  1  0.67188000  0.94861000  0.43326000  1.0
  C  C60  1  0.62221000  0.85870000  0.01127000  1.0
  C  C61  1  0.87781000  0.35869000  0.98873000  1.0
  C  C62  1  0.12220000  0.64130000  0.48872000  1.0
  C  C63  1  0.37779000  0.14131000  0.51127000  1.0
  C  C64  1  0.37780000  0.14129000  0.98872000  1.0
  C  C65  1  0.12222000  0.64129000  0.01128000  1.0
  C  C66  1  0.87779000  0.35870000  0.51127000  1.0
  C  C67  1  0.62220000  0.85871000  0.48873000  1.0
  C  C68  1  0.47546000  0.80651000  0.02682000  1.0
  C  C69  1  0.02455000  0.30650000  0.97318000  1.0
  C  C70  1  0.97546000  0.69350000  0.47318000  1.0
  C  C71  1  0.52455000  0.19351000  0.52682000  1.0
  C  C72  1  0.52455000  0.19349000  0.97318000  1.0
  C  C73  1  0.97547000  0.69349000  0.02682000  1.0
  C  C74  1  0.02454000  0.30651000  0.52682000  1.0
  C  C75  1  0.47545000  0.80651000  0.47318000  1.0
  C  C76  1  0.37927000  0.84605000  0.09603000  1.0
  C  C77  1  0.12074000  0.34605000  0.90396000  1.0
  C  C78  1  0.87926000  0.65396000  0.40396000  1.0
  C  C79  1  0.62073000  0.15396000  0.59603000  1.0
  C  C80  1  0.62074000  0.15395000  0.90397000  1.0
  C  C81  1  0.87927000  0.65395000  0.09603000  1.0
  C  C82  1  0.12074000  0.34605000  0.59603000  1.0
  C  C83  1  0.37926000  0.84605000  0.40397000  1.0
  C  C84  1  0.82704000  0.00444000  0.05800000  1.0
  C  C85  1  0.67296000  0.50444000  0.94201000  1.0
  C  C86  1  0.32705000  0.49556000  0.44200000  1.0
  C  C87  1  0.17296000  0.99556000  0.55799000  1.0
  C  C88  1  0.17296000  0.99555000  0.94200000  1.0
  C  C89  1  0.32704000  0.49554000  0.05801000  1.0
  C  C90  1  0.67295000  0.50445000  0.55800000  1.0
  C  C91  1  0.82703000  0.00445000  0.44200000  1.0
  I  I92  1  0.28751000  0.21218000  0.25000000  1.0
  I  I93  1  0.21246000  0.71218000  0.75000000  1.0
  I  I94  1  0.78751000  0.28783000  0.25000000  1.0
  I  I95  1  0.71244000  0.78782000  0.74999000  1.0
  I  I96  1  0.01470000  0.87825000  0.24999000  1.0
  I  I97  1  0.48530000  0.37826000  0.75000000  1.0
  I  I98  1  0.51467000  0.62176000  0.25000000  1.0
  I  I99  1  0.98531000  0.12174000  0.75000000  1.0
  N  N100  1  0.42211000  0.93589000  0.14652000  1.0
  N  N101  1  0.07789000  0.43588000  0.85348000  1.0
  N  N102  1  0.92210000  0.56412000  0.35348000  1.0
  N  N103  1  0.57791000  0.06412000  0.64652000  1.0
  N  N104  1  0.57791000  0.06411000  0.85348000  1.0
  N  N105  1  0.92209000  0.56412000  0.14652000  1.0
  N  N106  1  0.07790000  0.43588000  0.64652000  1.0
  N  N107  1  0.42209000  0.93589000  0.35348000  1.0
  N  N108  1  0.92894000  0.96957000  0.99894000  1.0
  N  N109  1  0.57107000  0.46956000  0.00106000  1.0
  N  N110  1  0.42893000  0.53043000  0.50105000  1.0
  N  N111  1  0.07107000  0.03043000  0.49895000  1.0
  N  N112  1  0.07108000  0.03041000  0.00104000  1.0
  N  N113  1  0.42893000  0.53041000  0.99896000  1.0
  N  N114  1  0.57107000  0.46958000  0.49895000  1.0
  N  N115  1  0.92893000  0.96958000  0.50105000  1.0
