# generated using pymatgen
data_ZnH24C21(NO)4
_symmetry_space_group_name_H-M   'P 1'
_cell_length_a   9.99295000
_cell_length_b   11.24460000
_cell_length_c   11.72740000
_cell_angle_alpha   117.87200000
_cell_angle_beta   92.97040000
_cell_angle_gamma   102.77200000
_symmetry_Int_Tables_number   1
_chemical_formula_structural   ZnH24C21(NO)4
_chemical_formula_sum   'Zn2 H48 C42 N8 O8'
_cell_volume   1117.52478967
_cell_formula_units_Z   2
loop_
 _symmetry_equiv_pos_site_id
 _symmetry_equiv_pos_as_xyz
  1  'x, y, z'
loop_
 _atom_site_type_symbol
 _atom_site_label
 _atom_site_symmetry_multiplicity
 _atom_site_fract_x
 _atom_site_fract_y
 _atom_site_fract_z
 _atom_site_occupancy
  Zn  Zn0  1  0.26320000  0.35041000  0.16984000  1.0
  Zn  Zn1  1  0.73680000  0.64959000  0.83016000  1.0
  H  H2  1  0.10279000  0.72214000  0.41569000  1.0
  H  H3  1  0.89720000  0.27786000  0.58431000  1.0
  H  H4  1  0.93002000  0.61554000  0.38031000  1.0
  H  H5  1  0.06998000  0.38446000  0.61969000  1.0
  H  H6  1  0.95414000  0.75974000  0.26825000  1.0
  H  H7  1  0.04586000  0.24026000  0.73175000  1.0
  H  H8  1  0.08938000  0.69120000  0.19470000  1.0
  H  H9  1  0.91062000  0.30880000  0.80530000  1.0
  H  H10  1  0.87257000  0.57406000  0.03237000  1.0
  H  H11  1  0.12743000  0.42594000  0.96763000  1.0
  H  H12  1  0.92425000  0.45269000  0.06623000  1.0
  H  H13  1  0.07575000  0.54731000  0.93377000  1.0
  H  H14  1  0.69892000  0.59605000  0.18444000  1.0
  H  H15  1  0.30108000  0.40395000  0.81556000  1.0
  H  H16  1  0.75206000  0.47325000  0.21733000  1.0
  H  H17  1  0.24794000  0.52675000  0.78267000  1.0
  H  H18  1  0.61174000  0.42111000  0.95325000  1.0
  H  H19  1  0.38826000  0.57889000  0.04676000  1.0
  H  H20  1  0.68176000  0.29647000  0.97132000  1.0
  H  H21  1  0.31824000  0.70353000  0.02868000  1.0
  H  H22  1  0.92916000  0.21764000  0.07467000  1.0
  H  H23  1  0.07084000  0.78237000  0.92533000  1.0
  H  H24  1  0.82243000  0.98492000  0.82477000  1.0
  H  H25  1  0.17756000  0.01507000  0.17524000  1.0
  H  H26  1  0.26523000  0.09592000  0.89275000  1.0
  H  H27  1  0.73477000  0.90407000  0.10725000  1.0
  H  H28  1  0.95546000  0.80624000  0.66357000  1.0
  H  H29  1  0.04455000  0.19376000  0.33643000  1.0
  H  H30  1  0.13739000  0.87254000  0.68436000  1.0
  H  H31  1  0.86261000  0.12746000  0.31565000  1.0
  H  H32  1  0.23939000  0.02118000  0.59152000  1.0
  H  H33  1  0.76062000  0.97882000  0.40849000  1.0
  H  H34  1  0.79373000  0.89000000  0.56145000  1.0
  H  H35  1  0.20628000  0.11000000  0.43855000  1.0
  H  H36  1  0.21440000  0.42923000  0.46897000  1.0
  H  H37  1  0.78560000  0.57077000  0.53103000  1.0
  H  H38  1  0.40877000  0.40095000  0.62958000  1.0
  H  H39  1  0.59123000  0.59905000  0.37041000  1.0
  H  H40  1  0.48682000  0.22252000  0.23915000  1.0
  H  H41  1  0.51318000  0.77747000  0.76085000  1.0
  H  H42  1  0.65125000  0.34318000  0.58326000  1.0
  H  H43  1  0.34874000  0.65682000  0.41674000  1.0
  H  H44  1  0.66526000  0.24596000  0.41613000  1.0
  H  H45  1  0.33474000  0.75405000  0.58387000  1.0
  H  H46  1  0.61861000  0.22567000  0.70145000  1.0
  H  H47  1  0.38139000  0.77433000  0.29855000  1.0
  H  H48  1  0.46183000  0.99185000  0.28479000  1.0
  H  H49  1  0.53817000  0.00815000  0.71521000  1.0
  C  C50  1  0.07797000  0.50467000  0.29045000  1.0
  C  C51  1  0.92203000  0.49533000  0.70955000  1.0
  C  C52  1  0.02246000  0.63196000  0.33725000  1.0
  C  C53  1  0.97753000  0.36804000  0.66275000  1.0
  C  C54  1  0.99122000  0.66537000  0.22731000  1.0
  C  C55  1  0.00878000  0.33463000  0.77268000  1.0
  C  C56  1  0.88416000  0.54542000  0.10944000  1.0
  C  C57  1  0.11584000  0.45459000  0.89056000  1.0
  C  C58  1  0.74127000  0.50488000  0.14211000  1.0
  C  C59  1  0.25873000  0.49512000  0.85789000  1.0
  C  C60  1  0.63671000  0.38442000  0.02188000  1.0
  C  C61  1  0.36329000  0.61558000  0.97813000  1.0
  C  C62  1  0.50290000  0.33182000  0.05996000  1.0
  C  C63  1  0.49710000  0.66818000  0.94004000  1.0
  C  C64  1  0.98157000  0.15832000  0.99763000  1.0
  C  C65  1  0.01843000  0.84169000  0.00237000  1.0
  C  C66  1  0.92846000  0.04451000  0.87517000  1.0
  C  C67  1  0.07154000  0.95549000  0.12483000  1.0
  C  C68  1  0.15920000  0.09918000  0.90668000  1.0
  C  C69  1  0.84079000  0.90082000  0.09333000  1.0
  C  C70  1  0.03845000  0.89977000  0.68515000  1.0
  C  C71  1  0.96155000  0.10022000  0.31486000  1.0
  C  C72  1  0.01864000  0.94969000  0.58778000  1.0
  C  C73  1  0.98136000  0.05031000  0.41222000  1.0
  C  C74  1  0.13388000  0.01162000  0.55177000  1.0
  C  C75  1  0.86613000  0.98837000  0.44823000  1.0
  C  C76  1  0.88468000  0.93865000  0.53513000  1.0
  C  C77  1  0.11533000  0.06135000  0.46488000  1.0
  C  C78  1  0.29965000  0.38150000  0.44606000  1.0
  C  C79  1  0.70035000  0.61850000  0.55393000  1.0
  C  C80  1  0.39350000  0.36718000  0.52554000  1.0
  C  C81  1  0.60650000  0.63281000  0.47445000  1.0
  C  C82  1  0.43717000  0.27239000  0.32287000  1.0
  C  C83  1  0.56283000  0.72761000  0.67713000  1.0
  C  C84  1  0.59424000  0.25717000  0.48677000  1.0
  C  C85  1  0.40576000  0.74284000  0.51323000  1.0
  C  C86  1  0.54477000  0.12349000  0.49285000  1.0
  C  C87  1  0.45523000  0.87651000  0.50714000  1.0
  C  C88  1  0.56622000  0.12659000  0.61338000  1.0
  C  C89  1  0.43378000  0.87341000  0.38662000  1.0
  C  C90  1  0.47836000  0.99614000  0.37966000  1.0
  C  C91  1  0.52164000  0.00385000  0.62034000  1.0
  N  N92  1  0.12564000  0.19101000  0.01588000  1.0
  N  N93  1  0.87436000  0.80899000  0.98412000  1.0
  N  N94  1  0.04209000  0.00852000  0.81946000  1.0
  N  N95  1  0.95791000  0.99148000  0.18054000  1.0
  N  N96  1  0.32813000  0.32199000  0.32006000  1.0
  N  N97  1  0.67187000  0.67801000  0.67994000  1.0
  N  N98  1  0.47942000  0.29814000  0.44585000  1.0
  N  N99  1  0.52058000  0.70185000  0.55414000  1.0
  O  O100  1  0.19287000  0.51733000  0.24366000  1.0
  O  O101  1  0.80713000  0.48267000  0.75634000  1.0
  O  O102  1  0.01757000  0.39878000  0.29736000  1.0
  O  O103  1  0.98243000  0.60123000  0.70264000  1.0
  O  O104  1  0.43952000  0.42609000  0.12512000  1.0
  O  O105  1  0.56048000  0.57391000  0.87488000  1.0
  O  O106  1  0.45985000  0.20584000  0.03180000  1.0
  O  O107  1  0.54015000  0.79417000  0.96820000  1.0
