# generated using pymatgen
data_Mn3H16C8(N3O8)2
_symmetry_space_group_name_H-M   'P 1'
_cell_length_a   7.12464000
_cell_length_b   7.49114000
_cell_length_c   9.62727000
_cell_angle_alpha   80.02930000
_cell_angle_beta   87.87710000
_cell_angle_gamma   75.80710000
_symmetry_Int_Tables_number   1
_chemical_formula_structural   Mn3H16C8(N3O8)2
_chemical_formula_sum   'Mn3 H16 C8 N6 O16'
_cell_volume   490.60788847
_cell_formula_units_Z   1
loop_
 _symmetry_equiv_pos_site_id
 _symmetry_equiv_pos_as_xyz
  1  'x, y, z'
loop_
 _atom_site_type_symbol
 _atom_site_label
 _atom_site_symmetry_multiplicity
 _atom_site_fract_x
 _atom_site_fract_y
 _atom_site_fract_z
 _atom_site_occupancy
  Mn  Mn0  1  0.99981000  0.00018000  0.49977000  1.0
  Mn  Mn1  1  0.27634000  0.64243000  0.90573000  1.0
  Mn  Mn2  1  0.72311000  0.35808000  0.09432000  1.0
  H  H3  1  0.02594000  0.66842000  0.39639000  1.0
  H  H4  1  0.97299000  0.33114000  0.60400000  1.0
  H  H5  1  0.81434000  0.71593000  0.46907000  1.0
  H  H6  1  0.18476000  0.28487000  0.53114000  1.0
  H  H7  1  0.30688000  0.29727000  0.80763000  1.0
  H  H8  1  0.69338000  0.70210000  0.19197000  1.0
  H  H9  1  0.08065000  0.40936000  0.80598000  1.0
  H  H10  1  0.91959000  0.58986000  0.19304000  1.0
  H  H11  1  0.38338000  0.88913000  0.05522000  1.0
  H  H12  1  0.61954000  0.11050000  0.94570000  1.0
  H  H13  1  0.40477000  0.96543000  0.89102000  1.0
  H  H14  1  0.59829000  0.03357000  0.10966000  1.0
  H  H15  1  0.89795000  0.84515000  0.83540000  1.0
  H  H16  1  0.10183000  0.15517000  0.16358000  1.0
  H  H17  1  0.88988000  0.71847000  0.98933000  1.0
  H  H18  1  0.10979000  0.28285000  0.01005000  1.0
  C  C19  1  0.36929000  0.90005000  0.32169000  1.0
  C  C20  1  0.63089000  0.10031000  0.67836000  1.0
  C  C21  1  0.42185000  0.80143000  0.46774000  1.0
  C  C22  1  0.57818000  0.19960000  0.53250000  1.0
  C  C23  1  0.55530000  0.63786000  0.65462000  1.0
  C  C24  1  0.44405000  0.36270000  0.34565000  1.0
  C  C25  1  0.69176000  0.51775000  0.76529000  1.0
  C  C26  1  0.30671000  0.48147000  0.23499000  1.0
  N  N27  1  0.28691000  0.82232000  0.57004000  1.0
  N  N28  1  0.71296000  0.17897000  0.42999000  1.0
  N  N29  1  0.37155000  0.71755000  0.68912000  1.0
  N  N30  1  0.62787000  0.28349000  0.31097000  1.0
  N  N31  1  0.59217000  0.68668000  0.51672000  1.0
  N  N32  1  0.40756000  0.31383000  0.48364000  1.0
  O  O33  1  0.20028000  0.00840000  0.30667000  1.0
  O  O34  1  0.79972000  0.99159000  0.69274000  1.0
  O  O35  1  0.48968000  0.87148000  0.22171000  1.0
  O  O36  1  0.51103000  0.12852000  0.77869000  1.0
  O  O37  1  0.61820000  0.50339000  0.88954000  1.0
  O  O38  1  0.37962000  0.49563000  0.11053000  1.0
  O  O39  1  0.86170000  0.44122000  0.73401000  1.0
  O  O40  1  0.13655000  0.55669000  0.26678000  1.0
  O  O41  1  0.93889000  0.75598000  0.45038000  1.0
  O  O42  1  0.06050000  0.24433000  0.54965000  1.0
  O  O43  1  0.20756000  0.38374000  0.85588000  1.0
  O  O44  1  0.79245000  0.61629000  0.14306000  1.0
  O  O45  1  0.33405000  0.89232000  0.95951000  1.0
  O  O46  1  0.66989000  0.10590000  0.04129000  1.0
  O  O47  1  0.97288000  0.74141000  0.90640000  1.0
  O  O48  1  0.02677000  0.25920000  0.09288000  1.0
