# generated using pymatgen
data_ZnB4H10C3N2O7
_symmetry_space_group_name_H-M   'P 1'
_cell_length_a   8.60357000
_cell_length_b   8.60352000
_cell_length_c   12.64250000
_cell_angle_alpha   90.00000000
_cell_angle_beta   89.99990000
_cell_angle_gamma   89.99990000
_symmetry_Int_Tables_number   1
_chemical_formula_structural   ZnB4H10C3N2O7
_chemical_formula_sum   'Zn4 B16 H40 C12 N8 O28'
_cell_volume   935.81032266
_cell_formula_units_Z   4
loop_
 _symmetry_equiv_pos_site_id
 _symmetry_equiv_pos_as_xyz
  1  'x, y, z'
loop_
 _atom_site_type_symbol
 _atom_site_label
 _atom_site_symmetry_multiplicity
 _atom_site_fract_x
 _atom_site_fract_y
 _atom_site_fract_z
 _atom_site_occupancy
  Zn  Zn0  1  0.42750000  0.57250000  0.00000000  1.0
  Zn  Zn1  1  0.57250000  0.42750000  0.50000000  1.0
  Zn  Zn2  1  0.07250000  0.07250000  0.25000000  1.0
  Zn  Zn3  1  0.92750000  0.92750000  0.75000000  1.0
  B  B4  1  0.45883000  0.75040000  0.78959000  1.0
  B  B5  1  0.54116000  0.24961000  0.28959000  1.0
  B  B6  1  0.25040000  0.04117000  0.03959000  1.0
  B  B7  1  0.74961000  0.95884000  0.53959000  1.0
  B  B8  1  0.04117000  0.25040000  0.46041000  1.0
  B  B9  1  0.95884000  0.74961000  0.96041000  1.0
  B  B10  1  0.24960000  0.54116000  0.21041000  1.0
  B  B11  1  0.75040000  0.45883000  0.71041000  1.0
  B  B12  1  0.22389000  0.83038000  0.90653000  1.0
  B  B13  1  0.77611000  0.16962000  0.40653000  1.0
  B  B14  1  0.33038000  0.27611000  0.15653000  1.0
  B  B15  1  0.66962000  0.72389000  0.65653000  1.0
  B  B16  1  0.27611000  0.33038000  0.34347000  1.0
  B  B17  1  0.72389000  0.66962000  0.84347000  1.0
  B  B18  1  0.16962000  0.77611000  0.09347000  1.0
  B  B19  1  0.83038000  0.22389000  0.59347000  1.0
  H  H20  1  0.39754000  0.29244000  0.94711000  1.0
  H  H21  1  0.60245000  0.70756000  0.44711000  1.0
  H  H22  1  0.79243000  0.10246000  0.19712000  1.0
  H  H23  1  0.20758000  0.89754000  0.69712000  1.0
  H  H24  1  0.10246000  0.79243000  0.30289000  1.0
  H  H25  1  0.89754000  0.20757000  0.80289000  1.0
  H  H26  1  0.70757000  0.60246000  0.05288000  1.0
  H  H27  1  0.29243000  0.39754000  0.55288000  1.0
  H  H28  1  0.50881000  0.38658000  0.85780000  1.0
  H  H29  1  0.49119000  0.61342000  0.35780000  1.0
  H  H30  1  0.88658000  0.99120000  0.10781000  1.0
  H  H31  1  0.11342000  0.00879000  0.60781000  1.0
  H  H32  1  0.99120000  0.88658000  0.39220000  1.0
  H  H33  1  0.00881000  0.11342000  0.89220000  1.0
  H  H34  1  0.61342000  0.49120000  0.14219000  1.0
  H  H35  1  0.38658000  0.50880000  0.64219000  1.0
  H  H36  1  0.15336000  0.26934000  0.70686000  1.0
  H  H37  1  0.84664000  0.73066000  0.20686000  1.0
  H  H38  1  0.76934000  0.34664000  0.95686000  1.0
  H  H39  1  0.23066000  0.65336000  0.45686000  1.0
  H  H40  1  0.34664000  0.76934000  0.54314000  1.0
  H  H41  1  0.65336000  0.23066000  0.04314000  1.0
  H  H42  1  0.73066000  0.84664000  0.29314000  1.0
  H  H43  1  0.26934000  0.15336000  0.79314000  1.0
  H  H44  1  0.26440000  0.51102000  0.79223000  1.0
  H  H45  1  0.73560000  0.48898000  0.29223000  1.0
  H  H46  1  0.01102000  0.23560000  0.04223000  1.0
  H  H47  1  0.98898000  0.76440000  0.54223000  1.0
  H  H48  1  0.23560000  0.01102000  0.45777000  1.0
  H  H49  1  0.76440000  0.98898000  0.95777000  1.0
  H  H50  1  0.48898000  0.73559000  0.20777000  1.0
  H  H51  1  0.51103000  0.26441000  0.70777000  1.0
  H  H52  1  0.16650000  0.39133000  0.88218000  1.0
  H  H53  1  0.83350000  0.60867000  0.38218000  1.0
  H  H54  1  0.89132000  0.33350000  0.13218000  1.0
  H  H55  1  0.10868000  0.66650000  0.63218000  1.0
  H  H56  1  0.33350000  0.89132000  0.36782000  1.0
  H  H57  1  0.66650000  0.10868000  0.86782000  1.0
  H  H58  1  0.60867000  0.83350000  0.11782000  1.0
  H  H59  1  0.39133000  0.16650000  0.61782000  1.0
  C  C60  1  0.26439000  0.26439000  0.75000000  1.0
  C  C61  1  0.73561000  0.73561000  0.25000000  1.0
  C  C62  1  0.76438000  0.23562000  0.00000000  1.0
  C  C63  1  0.23562000  0.76438000  0.50000000  1.0
  C  C64  1  0.26906000  0.39626000  0.83043000  1.0
  C  C65  1  0.73094000  0.60374000  0.33043000  1.0
  C  C66  1  0.89626000  0.23094000  0.08043000  1.0
  C  C67  1  0.10375000  0.76906000  0.58043000  1.0
  C  C68  1  0.23094000  0.89626000  0.41957000  1.0
  C  C69  1  0.76906000  0.10374000  0.91957000  1.0
  C  C70  1  0.60374000  0.73094000  0.16957000  1.0
  C  C71  1  0.39626000  0.26906000  0.66957000  1.0
  N  N72  1  0.40739000  0.39058000  0.90042000  1.0
  N  N73  1  0.59262000  0.60942000  0.40042000  1.0
  N  N74  1  0.89059000  0.09260000  0.15041000  1.0
  N  N75  1  0.10941000  0.90740000  0.65041000  1.0
  N  N76  1  0.09261000  0.89058000  0.34958000  1.0
  N  N77  1  0.90739000  0.10942000  0.84958000  1.0
  N  N78  1  0.60941000  0.59261000  0.09959000  1.0
  N  N79  1  0.39059000  0.40740000  0.59959000  1.0
  O  O80  1  0.55657000  0.70361000  0.87051000  1.0
  O  O81  1  0.44344000  0.29639000  0.37051000  1.0
  O  O82  1  0.20361000  0.94343000  0.12051000  1.0
  O  O83  1  0.79639000  0.05656000  0.62051000  1.0
  O  O84  1  0.94343000  0.20361000  0.37949000  1.0
  O  O85  1  0.05656000  0.79639000  0.87949000  1.0
  O  O86  1  0.29639000  0.44344000  0.12949000  1.0
  O  O87  1  0.70361000  0.55657000  0.62949000  1.0
  O  O88  1  0.26655000  0.73345000  1.00000000  1.0
  O  O89  1  0.73345000  0.26655000  0.50000000  1.0
  O  O90  1  0.23345000  0.23345000  0.25000000  1.0
  O  O91  1  0.76655000  0.76655000  0.75000000  1.0
  O  O92  1  0.50400000  0.74252000  0.68540000  1.0
  O  O93  1  0.49600000  0.25748000  0.18540000  1.0
  O  O94  1  0.24252000  0.99600000  0.93540000  1.0
  O  O95  1  0.75748000  0.00400000  0.43540000  1.0
  O  O96  1  0.99600000  0.24252000  0.56460000  1.0
  O  O97  1  0.00400000  0.75748000  0.06460000  1.0
  O  O98  1  0.25748000  0.49600000  0.31460000  1.0
  O  O99  1  0.74252000  0.50400000  0.81460000  1.0
  O  O100  1  0.31032000  0.79743000  0.81064000  1.0
  O  O101  1  0.68969000  0.20257000  0.31064000  1.0
  O  O102  1  0.29743000  0.18969000  0.06064000  1.0
  O  O103  1  0.70257000  0.81031000  0.56064000  1.0
  O  O104  1  0.18968000  0.29743000  0.43936000  1.0
  O  O105  1  0.81031000  0.70257000  0.93936000  1.0
  O  O106  1  0.20257000  0.68969000  0.18936000  1.0
  O  O107  1  0.79743000  0.31032000  0.68936000  1.0
