# generated using pymatgen
data_FeH20C16(SN7)2
_symmetry_space_group_name_H-M   'P 1'
_cell_length_a   7.69979000
_cell_length_b   8.45920000
_cell_length_c   9.54646000
_cell_angle_alpha   77.21170000
_cell_angle_beta   72.96810000
_cell_angle_gamma   66.96580000
_symmetry_Int_Tables_number   1
_chemical_formula_structural   FeH20C16(SN7)2
_chemical_formula_sum   'Fe1 H20 C16 S2 N14'
_cell_volume   543.08711973
_cell_formula_units_Z   1
loop_
 _symmetry_equiv_pos_site_id
 _symmetry_equiv_pos_as_xyz
  1  'x, y, z'
loop_
 _atom_site_type_symbol
 _atom_site_label
 _atom_site_symmetry_multiplicity
 _atom_site_fract_x
 _atom_site_fract_y
 _atom_site_fract_z
 _atom_site_occupancy
  Fe  Fe0  1  0.47921000  0.51336000  0.50575000  1.0
  H  H1  1  0.74593000  0.15708000  0.29089000  1.0
  H  H2  1  0.26616000  0.83872000  0.70569000  1.0
  H  H3  1  0.97785000  0.36211000  0.52585000  1.0
  H  H4  1  0.03393000  0.62807000  0.47427000  1.0
  H  H5  1  0.04404000  0.90292000  0.21246000  1.0
  H  H6  1  0.96395000  0.08991000  0.78691000  1.0
  H  H7  1  0.23744000  0.84499000  0.30048000  1.0
  H  H8  1  0.77372000  0.14636000  0.69597000  1.0
  H  H9  1  0.32818000  0.42107000  0.86073000  1.0
  H  H10  1  0.65157000  0.58969000  0.14555000  1.0
  H  H11  1  0.11760000  0.27719000  0.05808000  1.0
  H  H12  1  0.88144000  0.71617000  0.94569000  1.0
  H  H13  1  0.02343000  0.15113000  0.99560000  1.0
  H  H14  1  0.97927000  0.84162000  0.00521000  1.0
  H  H15  1  0.34329000  0.89174000  0.02553000  1.0
  H  H16  1  0.66241000  0.10403000  0.97012000  1.0
  H  H17  1  0.39006000  0.02948000  0.11552000  1.0
  H  H18  1  0.61606000  0.96594000  0.88043000  1.0
  H  H19  1  0.38704000  0.15828000  0.51244000  1.0
  H  H20  1  0.60429000  0.85907000  0.48554000  1.0
  C  C21  1  0.84183000  0.18428000  0.33831000  1.0
  C  C22  1  0.17012000  0.81018000  0.65961000  1.0
  C  C23  1  0.96538000  0.28449000  0.45534000  1.0
  C  C24  1  0.04633000  0.70662000  0.54376000  1.0
  C  C25  1  0.14787000  0.94914000  0.23325000  1.0
  C  C26  1  0.86145000  0.04292000  0.76505000  1.0
  C  C27  1  0.32560000  0.33195000  0.79578000  1.0
  C  C28  1  0.65836000  0.67903000  0.20813000  1.0
  C  C29  1  0.32241000  0.48881000  0.25323000  1.0
  C  C30  1  0.66348000  0.51893000  0.74906000  1.0
  C  C31  1  0.15772000  0.16238000  0.00330000  1.0
  C  C32  1  0.84388000  0.83259000  0.99757000  1.0
  C  C33  1  0.27537000  0.00233000  0.08994000  1.0
  C  C34  1  0.73058000  0.99197000  0.90740000  1.0
  C  C35  1  0.35829000  0.19286000  0.62198000  1.0
  C  C36  1  0.63266000  0.82111000  0.37737000  1.0
  S  S37  1  0.21685000  0.51998000  0.12046000  1.0
  S  S38  1  0.78254000  0.47606000  0.87584000  1.0
  N  N39  1  0.26082000  0.19971000  0.85271000  1.0
  N  N40  1  0.73750000  0.80188000  0.14859000  1.0
  N  N41  1  0.28077000  0.10942000  0.74381000  1.0
  N  N42  1  0.72232000  0.89392000  0.25466000  1.0
  N  N43  1  0.38897000  0.33115000  0.64893000  1.0
  N  N44  1  0.58953000  0.68846000  0.35374000  1.0
  N  N45  1  0.03295000  0.09224000  0.32075000  1.0
  N  N46  1  0.97847000  0.89889000  0.67858000  1.0
  N  N47  1  0.11468000  0.15443000  0.39474000  1.0
  N  N48  1  0.89742000  0.83503000  0.60570000  1.0
  N  N49  1  0.79483000  0.30658000  0.42407000  1.0
  N  N50  1  0.21884000  0.68688000  0.57289000  1.0
  N  N51  1  0.39502000  0.47258000  0.35209000  1.0
  N  N52  1  0.58029000  0.54428000  0.65465000  1.0
