# generated using pymatgen
data_TbH10C14NO7
_symmetry_space_group_name_H-M   'P 1'
_cell_length_a   9.45475000
_cell_length_b   12.26900000
_cell_length_c   14.76050000
_cell_angle_alpha   90.00010000
_cell_angle_beta   90.00030000
_cell_angle_gamma   90.00000000
_symmetry_Int_Tables_number   1
_chemical_formula_structural   TbH10C14NO7
_chemical_formula_sum   'Tb4 H40 C56 N4 O28'
_cell_volume   1712.22283773
_cell_formula_units_Z   4
loop_
 _symmetry_equiv_pos_site_id
 _symmetry_equiv_pos_as_xyz
  1  'x, y, z'
loop_
 _atom_site_type_symbol
 _atom_site_label
 _atom_site_symmetry_multiplicity
 _atom_site_fract_x
 _atom_site_fract_y
 _atom_site_fract_z
 _atom_site_occupancy
  Tb  Tb0  1  0.49318000  0.77933000  0.54738000  1.0
  Tb  Tb1  1  0.00683000  0.22066000  0.04738000  1.0
  Tb  Tb2  1  0.99318000  0.72066000  0.45262000  1.0
  Tb  Tb3  1  0.50682000  0.27934000  0.95262000  1.0
  H  H4  1  0.81565000  0.97339000  0.22753000  1.0
  H  H5  1  0.68435000  0.02662000  0.72752000  1.0
  H  H6  1  0.31565000  0.52663000  0.77248000  1.0
  H  H7  1  0.18435000  0.47340000  0.27247000  1.0
  H  H8  1  0.41411000  0.05754000  0.10995000  1.0
  H  H9  1  0.08589000  0.94246000  0.60995000  1.0
  H  H10  1  0.91411000  0.44246000  0.89005000  1.0
  H  H11  1  0.58588000  0.55754000  0.39005000  1.0
  H  H12  1  0.43772000  0.81354000  0.32030000  1.0
  H  H13  1  0.06228000  0.18645000  0.82030000  1.0
  H  H14  1  0.93772000  0.68646000  0.67970000  1.0
  H  H15  1  0.56228000  0.31354000  0.17971000  1.0
  H  H16  1  0.20020000  0.94299000  0.15047000  1.0
  H  H17  1  0.29980000  0.05700000  0.65047000  1.0
  H  H18  1  0.70020000  0.55701000  0.84953000  1.0
  H  H19  1  0.79980000  0.44298000  0.34953000  1.0
  H  H20  1  0.21150000  0.84812000  0.24270000  1.0
  H  H21  1  0.28851000  0.15187000  0.74271000  1.0
  H  H22  1  0.71149000  0.65188000  0.75729000  1.0
  H  H23  1  0.78850000  0.34812000  0.25729000  1.0
  H  H24  1  0.35144000  0.06129000  0.37113000  1.0
  H  H25  1  0.14857000  0.93870000  0.87113000  1.0
  H  H26  1  0.85142000  0.43870000  0.62888000  1.0
  H  H27  1  0.64856000  0.56128000  0.12888000  1.0
  H  H28  1  0.04382000  0.06126000  0.43540000  1.0
  H  H29  1  0.45618000  0.93874000  0.93541000  1.0
  H  H30  1  0.54381000  0.43875000  0.56460000  1.0
  H  H31  1  0.95618000  0.56126000  0.06460000  1.0
  H  H32  1  0.17854000  0.15710000  0.46406000  1.0
  H  H33  1  0.32147000  0.84290000  0.96406000  1.0
  H  H34  1  0.67852000  0.34290000  0.53594000  1.0
  H  H35  1  0.82145000  0.65710000  0.03594000  1.0
  H  H36  1  0.97762000  0.19832000  0.32549000  1.0
  H  H37  1  0.52241000  0.80167000  0.82549000  1.0
  H  H38  1  0.47758000  0.30169000  0.67451000  1.0
  H  H39  1  0.02238000  0.69833000  0.17452000  1.0
  H  H40  1  0.15223000  0.24874000  0.31585000  1.0
  H  H41  1  0.34778000  0.75125000  0.81585000  1.0
  H  H42  1  0.65220000  0.25125000  0.68415000  1.0
  H  H43  1  0.84776000  0.74874000  0.18416000  1.0
  C  C44  1  0.71218000  0.83143000  0.35790000  1.0
  C  C45  1  0.78782000  0.16856000  0.85790000  1.0
  C  C46  1  0.21218000  0.66857000  0.64210000  1.0
  C  C47  1  0.28782000  0.33143000  0.14210000  1.0
  C  C48  1  0.63440000  0.88796000  0.28225000  1.0
  C  C49  1  0.86560000  0.11204000  0.78225000  1.0
  C  C50  1  0.13440000  0.61204000  0.71775000  1.0
  C  C51  1  0.36560000  0.38797000  0.21775000  1.0
  C  C52  1  0.70181000  0.96051000  0.22312000  1.0
  C  C53  1  0.79819000  0.03949000  0.72312000  1.0
  C  C54  1  0.20181000  0.53950000  0.77688000  1.0
  C  C55  1  0.29819000  0.46052000  0.27687000  1.0
  C  C56  1  0.62209000  0.01968000  0.15980000  1.0
  C  C57  1  0.87791000  0.98033000  0.65979000  1.0
  C  C58  1  0.12209000  0.48033000  0.84020000  1.0
  C  C59  1  0.37792000  0.51968000  0.34020000  1.0
  C  C60  1  0.69044000  0.10226000  0.09853000  1.0
  C  C61  1  0.80956000  0.89775000  0.59853000  1.0
  C  C62  1  0.19044000  0.39776000  0.90148000  1.0
  C  C63  1  0.30956000  0.60226000  0.40147000  1.0
  C  C64  1  0.47514000  0.00660000  0.15631000  1.0
  C  C65  1  0.02486000  0.99340000  0.65631000  1.0
  C  C66  1  0.97514000  0.49341000  0.84369000  1.0
  C  C67  1  0.52486000  0.50660000  0.34369000  1.0
  C  C68  1  0.40763000  0.93184000  0.21316000  1.0
  C  C69  1  0.09237000  0.06816000  0.71316000  1.0
  C  C70  1  0.90763000  0.56816000  0.78684000  1.0
  C  C71  1  0.59237000  0.43184000  0.28685000  1.0
  C  C72  1  0.48813000  0.87181000  0.27479000  1.0
  C  C73  1  0.01188000  0.12819000  0.77479000  1.0
  C  C74  1  0.98812000  0.62820000  0.72521000  1.0
  C  C75  1  0.51187000  0.37181000  0.22521000  1.0
  C  C76  1  0.24827000  0.92726000  0.21692000  1.0
  C  C77  1  0.25173000  0.07273000  0.71692000  1.0
  C  C78  1  0.74827000  0.57274000  0.78308000  1.0
  C  C79  1  0.75173000  0.42726000  0.28308000  1.0
  C  C80  1  0.24390000  0.02664000  0.37067000  1.0
  C  C81  1  0.25611000  0.97335000  0.87068000  1.0
  C  C82  1  0.74389000  0.47335000  0.62932000  1.0
  C  C83  1  0.75610000  0.52664000  0.12933000  1.0
  C  C84  1  0.24686000  0.91976000  0.42368000  1.0
  C  C85  1  0.25314000  0.08023000  0.92369000  1.0
  C  C86  1  0.74687000  0.58024000  0.57631000  1.0
  C  C87  1  0.75314000  0.41976000  0.07632000  1.0
  C  C88  1  0.13417000  0.10789000  0.40904000  1.0
  C  C89  1  0.36584000  0.89211000  0.90905000  1.0
  C  C90  1  0.63416000  0.39212000  0.59096000  1.0
  C  C91  1  0.86583000  0.60789000  0.09096000  1.0
  C  C92  1  0.08936000  0.17420000  0.32571000  1.0
  C  C93  1  0.41066000  0.82579000  0.82572000  1.0
  C  C94  1  0.58933000  0.32580000  0.67428000  1.0
  C  C95  1  0.91064000  0.67421000  0.17429000  1.0
  C  C96  1  0.11923000  0.09827000  0.24731000  1.0
  C  C97  1  0.38079000  0.90172000  0.74732000  1.0
  C  C98  1  0.61921000  0.40173000  0.75269000  1.0
  C  C99  1  0.88077000  0.59827000  0.25269000  1.0
  N  N100  1  0.19511000  0.01254000  0.27728000  1.0
  N  N101  1  0.30490000  0.98745000  0.77728000  1.0
  N  N102  1  0.69510000  0.48745000  0.72272000  1.0
  N  N103  1  0.80490000  0.51254000  0.22273000  1.0
  O  O104  1  0.63722000  0.79013000  0.42079000  1.0
  O  O105  1  0.86277000  0.20987000  0.92079000  1.0
  O  O106  1  0.13723000  0.70987000  0.57921000  1.0
  O  O107  1  0.36278000  0.29013000  0.07921000  1.0
  O  O108  1  0.84649000  0.82768000  0.35483000  1.0
  O  O109  1  0.65351000  0.17232000  0.85482000  1.0
  O  O110  1  0.34649000  0.67233000  0.64518000  1.0
  O  O111  1  0.15351000  0.32768000  0.14517000  1.0
  O  O112  1  0.82421000  0.10946000  0.10024000  1.0
  O  O113  1  0.67580000  0.89055000  0.60022000  1.0
  O  O114  1  0.32421000  0.39055000  0.89977000  1.0
  O  O115  1  0.17579000  0.60947000  0.39975000  1.0
  O  O116  1  0.60867000  0.16046000  0.05048000  1.0
  O  O117  1  0.89133000  0.83954000  0.55047000  1.0
  O  O118  1  0.10867000  0.33954000  0.94953000  1.0
  O  O119  1  0.39133000  0.66046000  0.44953000  1.0
  O  O120  1  0.34749000  0.90714000  0.47920000  1.0
  O  O121  1  0.15250000  0.09286000  0.97919000  1.0
  O  O122  1  0.84751000  0.59285000  0.52081000  1.0
  O  O123  1  0.65252000  0.40714000  0.02080000  1.0
  O  O124  1  0.14686000  0.85383000  0.40857000  1.0
  O  O125  1  0.35314000  0.14617000  0.90857000  1.0
  O  O126  1  0.64687000  0.64618000  0.59143000  1.0
  O  O127  1  0.85314000  0.35382000  0.09143000  1.0
  O  O128  1  0.08384000  0.11034000  0.16668000  1.0
  O  O129  1  0.41619000  0.88966000  0.66666667  1.0
  O  O130  1  0.58382000  0.38966000  0.83333000  1.0
  O  O131  1  0.91616000  0.61033000  0.33333333  1.0
