# generated using pymatgen
data_Cu2H5C5NCl2
_symmetry_space_group_name_H-M   'P 1'
_cell_length_a   6.53406000
_cell_length_b   6.99900000
_cell_length_c   8.72729000
_cell_angle_alpha   80.66910000
_cell_angle_beta   83.36140000
_cell_angle_gamma   75.36880000
_symmetry_Int_Tables_number   1
_chemical_formula_structural   Cu2H5C5NCl2
_chemical_formula_sum   'Cu4 H10 C10 N2 Cl4'
_cell_volume   379.89657327
_cell_formula_units_Z   2
loop_
 _symmetry_equiv_pos_site_id
 _symmetry_equiv_pos_as_xyz
  1  'x, y, z'
loop_
 _atom_site_type_symbol
 _atom_site_label
 _atom_site_symmetry_multiplicity
 _atom_site_fract_x
 _atom_site_fract_y
 _atom_site_fract_z
 _atom_site_occupancy
  Cu  Cu0  1  0.99705000  0.27885000  0.92768000  1.0
  Cu  Cu1  1  0.00295000  0.72116000  0.07230000  1.0
  Cu  Cu2  1  0.41685000  0.40845000  0.17577000  1.0
  Cu  Cu3  1  0.58315000  0.59152000  0.82424000  1.0
  H  H4  1  0.37734000  0.10948000  0.83599000  1.0
  H  H5  1  0.62267000  0.89052000  0.16401000  1.0
  H  H6  1  0.27850000  0.35069000  0.71282000  1.0
  H  H7  1  0.72152000  0.64929000  0.28717000  1.0
  H  H8  1  0.08186000  0.98045000  0.77627000  1.0
  H  H9  1  0.91817000  0.01954000  0.22373000  1.0
  H  H10  1  0.94895000  0.38670000  0.56325000  1.0
  H  H11  1  0.05106000  0.61330000  0.43676000  1.0
  H  H12  1  0.76638000  0.01143000  0.63740000  1.0
  H  H13  1  0.23360000  0.98859000  0.36260000  1.0
  C  C14  1  0.25001000  0.20846000  0.77094000  1.0
  C  C15  1  0.75001000  0.79154000  0.22906000  1.0
  C  C16  1  0.08626000  0.13487000  0.73220000  1.0
  C  C17  1  0.91375000  0.86511000  0.26780000  1.0
  C  C18  1  0.93668000  0.23859000  0.61959000  1.0
  C  C19  1  0.06333000  0.76141000  0.38041000  1.0
  C  C20  1  0.78350000  0.15839000  0.58059000  1.0
  C  C21  1  0.21650000  0.84162000  0.41941000  1.0
  C  C22  1  0.64641000  0.25503000  0.46529000  1.0
  C  C23  1  0.35357000  0.74499000  0.53473000  1.0
  N  N24  1  0.53454000  0.33166000  0.36546000  1.0
  N  N25  1  0.46543000  0.66837000  0.63456000  1.0
  Cl  Cl26  1  0.09746000  0.32110000  0.15919000  1.0
  Cl  Cl27  1  0.90253000  0.67891000  0.84079000  1.0
  Cl  Cl28  1  0.64949000  0.26257000  0.97143000  1.0
  Cl  Cl29  1  0.35051000  0.73741000  0.02858000  1.0
