# generated using pymatgen
data_NaH13C15SO12
_symmetry_space_group_name_H-M   'P 1'
_cell_length_a   7.53540000
_cell_length_b   10.05230000
_cell_length_c   11.81350000
_cell_angle_alpha   75.87740000
_cell_angle_beta   82.65250000
_cell_angle_gamma   78.74280000
_symmetry_Int_Tables_number   1
_chemical_formula_structural   NaH13C15SO12
_chemical_formula_sum   'Na2 H26 C30 S2 O24'
_cell_volume   848.07286946
_cell_formula_units_Z   2
loop_
 _symmetry_equiv_pos_site_id
 _symmetry_equiv_pos_as_xyz
  1  'x, y, z'
loop_
 _atom_site_type_symbol
 _atom_site_label
 _atom_site_symmetry_multiplicity
 _atom_site_fract_x
 _atom_site_fract_y
 _atom_site_fract_z
 _atom_site_occupancy
  Na  Na0  1  0.47981000  0.22434000  0.09860000  1.0
  Na  Na1  1  0.52019000  0.77566000  0.90140000  1.0
  H  H2  1  0.60309000  0.52089000  0.10351000  1.0
  H  H3  1  0.39692000  0.47911000  0.89649000  1.0
  H  H4  1  0.55622000  0.72679000  0.67421000  1.0
  H  H5  1  0.44377000  0.27320000  0.32579000  1.0
  H  H6  1  0.21946000  0.03193000  0.80152000  1.0
  H  H7  1  0.78055000  0.96807000  0.19848000  1.0
  H  H8  1  0.28307000  0.97605000  0.04187000  1.0
  H  H9  1  0.71694000  0.02395000  0.95813000  1.0
  H  H10  1  0.87224000  0.46650000  0.38665000  1.0
  H  H11  1  0.12777000  0.53351000  0.61335000  1.0
  H  H12  1  0.27162000  0.98905000  0.23195000  1.0
  H  H13  1  0.72838000  0.01094000  0.76805000  1.0
  H  H14  1  0.54521000  0.62934000  0.46655000  1.0
  H  H15  1  0.45479000  0.37065000  0.53345000  1.0
  H  H16  1  0.61294000  0.50623000  0.30529000  1.0
  H  H17  1  0.38706000  0.49376000  0.69472000  1.0
  H  H18  1  0.91039000  0.34822000  0.68749000  1.0
  H  H19  1  0.08962000  0.65178000  0.31251000  1.0
  H  H20  1  0.76299000  0.37185000  0.01216000  1.0
  H  H21  1  0.23700000  0.62816000  0.98784000  1.0
  H  H22  1  0.81412000  0.31577000  0.14342000  1.0
  H  H23  1  0.18588000  0.68423000  0.85657000  1.0
  H  H24  1  0.15754000  0.17809000  0.95024000  1.0
  H  H25  1  0.84245000  0.82191000  0.04976000  1.0
  H  H26  1  0.11552000  0.17120000  0.08778000  1.0
  H  H27  1  0.88448000  0.82880000  0.91222000  1.0
  C  C28  1  0.35161000  0.88494000  0.24760000  1.0
  C  C29  1  0.64839000  0.11505000  0.75240000  1.0
  C  C30  1  0.10101000  0.16067000  0.67826000  1.0
  C  C31  1  0.89899000  0.83934000  0.32174000  1.0
  C  C32  1  0.50266000  0.68278000  0.38051000  1.0
  C  C33  1  0.49734000  0.31722000  0.61949000  1.0
  C  C34  1  0.48967000  0.67842000  0.17751000  1.0
  C  C35  1  0.51034000  0.32158000  0.82250000  1.0
  C  C36  1  0.54266000  0.61368000  0.28942000  1.0
  C  C37  1  0.45734000  0.38631000  0.71059000  1.0
  C  C38  1  0.39256000  0.81635000  0.15682000  1.0
  C  C39  1  0.60745000  0.18365000  0.84318000  1.0
  C  C40  1  0.96751000  0.32152000  0.51059000  1.0
  C  C41  1  0.03249000  0.67848000  0.48941000  1.0
  C  C42  1  0.98566000  0.28092000  0.63188000  1.0
  C  C43  1  0.01435000  0.71908000  0.36812000  1.0
  C  C44  1  0.19304000  0.07115000  0.60402000  1.0
  C  C45  1  0.80696000  0.92885000  0.39598000  1.0
  C  C46  1  0.16901000  0.11102000  0.48406000  1.0
  C  C47  1  0.83099000  0.88898000  0.51594000  1.0
  C  C48  1  0.40517000  0.82005000  0.36105000  1.0
  C  C49  1  0.59483000  0.17995000  0.63896000  1.0
  C  C50  1  0.38365000  0.85427000  0.57025000  1.0
  C  C51  1  0.61635000  0.14573000  0.42975000  1.0
  C  C52  1  0.34946000  0.89603000  0.45324000  1.0
  C  C53  1  0.65053000  0.10397000  0.54677000  1.0
  C  C54  1  0.31080000  0.94383000  0.64936000  1.0
  C  C55  1  0.68920000  0.05617000  0.35064000  1.0
  C  C56  1  0.06543000  0.23936000  0.43291000  1.0
  C  C57  1  0.93457000  0.76064000  0.56709000  1.0
  S  S58  1  0.07827000  0.30347000  0.27881000  1.0
  S  S59  1  0.92173000  0.69653000  0.72118000  1.0
  O  O60  1  0.52412000  0.61561000  0.08540000  1.0
  O  O61  1  0.47588000  0.38439000  0.91460000  1.0
  O  O62  1  0.27303000  0.29783000  0.23866000  1.0
  O  O63  1  0.72698000  0.70216000  0.76134000  1.0
  O  O64  1  0.97686000  0.44657000  0.25938000  1.0
  O  O65  1  0.02314000  0.55344000  0.74062000  1.0
  O  O66  1  0.48026000  0.72651000  0.61118000  1.0
  O  O67  1  0.51973000  0.27349000  0.38883000  1.0
  O  O68  1  0.12636000  0.12277000  0.79374000  1.0
  O  O69  1  0.87364000  0.87724000  0.20626000  1.0
  O  O70  1  0.34054000  0.87603000  0.04613000  1.0
  O  O71  1  0.65947000  0.12397000  0.95387000  1.0
  O  O72  1  0.99763000  0.21498000  0.22248000  1.0
  O  O73  1  0.00236000  0.78502000  0.77752000  1.0
  O  O74  1  0.85338000  0.44016000  0.47409000  1.0
  O  O75  1  0.14662000  0.55984000  0.52590000  1.0
  O  O76  1  0.34816000  0.91093000  0.75658000  1.0
  O  O77  1  0.65183000  0.08907000  0.24343000  1.0
  O  O78  1  0.24837000  0.02507000  0.41273000  1.0
  O  O79  1  0.75163000  0.97493000  0.58727000  1.0
  O  O80  1  0.71521000  0.36747000  0.09329000  1.0
  O  O81  1  0.28479000  0.63254000  0.90671000  1.0
  O  O82  1  0.20973000  0.14684000  0.02613000  1.0
  O  O83  1  0.79027000  0.85315000  0.97388000  1.0
