# generated using pymatgen
data_CoH6C6(N2O)4
_symmetry_space_group_name_H-M   'P 1'
_cell_length_a   8.29832000
_cell_length_b   8.29828000
_cell_length_c   9.52743000
_cell_angle_alpha   65.57280000
_cell_angle_beta   65.57290000
_cell_angle_gamma   60.29310000
_symmetry_Int_Tables_number   1
_chemical_formula_structural   CoH6C6(N2O)4
_chemical_formula_sum   'Co2 H12 C12 N16 O8'
_cell_volume   500.46485957
_cell_formula_units_Z   2
loop_
 _symmetry_equiv_pos_site_id
 _symmetry_equiv_pos_as_xyz
  1  'x, y, z'
loop_
 _atom_site_type_symbol
 _atom_site_label
 _atom_site_symmetry_multiplicity
 _atom_site_fract_x
 _atom_site_fract_y
 _atom_site_fract_z
 _atom_site_occupancy
  Co  Co0  1  0.53829000  0.46171000  0.25000000  1.0
  Co  Co1  1  0.46171000  0.53829000  0.75000000  1.0
  H  H2  1  0.87798000  0.48052000  0.34739000  1.0
  H  H3  1  0.51948000  0.12202000  0.15261000  1.0
  H  H4  1  0.12202000  0.51948000  0.65260000  1.0
  H  H5  1  0.48052000  0.87798000  0.84740000  1.0
  H  H6  1  0.08131000  0.67217000  0.29308000  1.0
  H  H7  1  0.32782000  0.91869000  0.20692000  1.0
  H  H8  1  0.91869000  0.32783000  0.70692000  1.0
  H  H9  1  0.67217000  0.08131000  0.79308000  1.0
  H  H10  1  0.01491000  0.90745000  0.16130000  1.0
  H  H11  1  0.09255000  0.98509000  0.33870000  1.0
  H  H12  1  0.98509000  0.09255000  0.83869000  1.0
  H  H13  1  0.90745000  0.01491000  0.66131000  1.0
  C  C14  1  0.83772000  0.59189000  0.24244000  1.0
  C  C15  1  0.40810000  0.16228000  0.25756000  1.0
  C  C16  1  0.16229000  0.40810000  0.75756000  1.0
  C  C17  1  0.59190000  0.83772000  0.74244000  1.0
  C  C18  1  0.05981000  0.75445000  0.17354000  1.0
  C  C19  1  0.24554000  0.94019000  0.32646000  1.0
  C  C20  1  0.94019000  0.24555000  0.82645000  1.0
  C  C21  1  0.75445000  0.05981000  0.67354000  1.0
  C  C22  1  0.24959000  0.69181000  0.04584000  1.0
  C  C23  1  0.30819000  0.75040000  0.45417000  1.0
  C  C24  1  0.75041000  0.30820000  0.95416000  1.0
  C  C25  1  0.69181000  0.24960000  0.54584000  1.0
  N  N26  1  0.90649000  0.73073000  0.15851000  1.0
  N  N27  1  0.26926000  0.09351000  0.34149000  1.0
  N  N28  1  0.09352000  0.26926000  0.84148000  1.0
  N  N29  1  0.73073000  0.90648000  0.65851000  1.0
  N  N30  1  0.81502000  0.85089000  0.04223000  1.0
  N  N31  1  0.14911000  0.18498000  0.45777000  1.0
  N  N32  1  0.18498000  0.14911000  0.95776000  1.0
  N  N33  1  0.85089000  0.81502000  0.54224000  1.0
  N  N34  1  0.69392000  0.78582000  0.05578000  1.0
  N  N35  1  0.21418000  0.30608000  0.44422000  1.0
  N  N36  1  0.30608000  0.21418000  0.94422000  1.0
  N  N37  1  0.78582000  0.69392000  0.55578000  1.0
  N  N38  1  0.70449000  0.62434000  0.17994000  1.0
  N  N39  1  0.37566000  0.29551000  0.32006000  1.0
  N  N40  1  0.29551000  0.37566000  0.82006000  1.0
  N  N41  1  0.62434000  0.70450000  0.67994000  1.0
  O  O42  1  0.39933000  0.65851000  0.07743000  1.0
  O  O43  1  0.34149000  0.60067000  0.42257000  1.0
  O  O44  1  0.60067000  0.34149000  0.92257000  1.0
  O  O45  1  0.65851000  0.39933000  0.57743000  1.0
  O  O46  1  0.24175000  0.68743000  0.91793000  1.0
  O  O47  1  0.31257000  0.75824000  0.58207000  1.0
  O  O48  1  0.75825000  0.31256000  0.08207000  1.0
  O  O49  1  0.68744000  0.24175000  0.41792000  1.0
