# generated using pymatgen
data_ZnH12C24(N2O3)4
_symmetry_space_group_name_H-M   'P 1'
_cell_length_a   8.93490000
_cell_length_b   12.46190000
_cell_length_c   13.18210000
_cell_angle_alpha   101.43900000
_cell_angle_beta   92.68480000
_cell_angle_gamma   102.05500000
_symmetry_Int_Tables_number   1
_chemical_formula_structural   ZnH12C24(N2O3)4
_chemical_formula_sum   'Zn2 H24 C48 N16 O24'
_cell_volume   1400.91450375
_cell_formula_units_Z   2
loop_
 _symmetry_equiv_pos_site_id
 _symmetry_equiv_pos_as_xyz
  1  'x, y, z'
loop_
 _atom_site_type_symbol
 _atom_site_label
 _atom_site_symmetry_multiplicity
 _atom_site_fract_x
 _atom_site_fract_y
 _atom_site_fract_z
 _atom_site_occupancy
  Zn  Zn0  1  0.39887000  0.65168000  0.55747000  1.0
  Zn  Zn1  1  0.60113000  0.34832000  0.44253000  1.0
  H  H2  1  0.14203000  0.76628000  0.52392000  1.0
  H  H3  1  0.85796000  0.23371000  0.47608000  1.0
  H  H4  1  0.53954000  0.84412000  0.72942000  1.0
  H  H5  1  0.46046000  0.15588000  0.27058000  1.0
  H  H6  1  0.11592000  0.50511000  0.59016000  1.0
  H  H7  1  0.88408000  0.49489000  0.40984000  1.0
  H  H8  1  0.56093000  0.57941000  0.73973000  1.0
  H  H9  1  0.43908000  0.42059000  0.26026000  1.0
  H  H10  1  0.09259000  0.30068000  0.26582000  1.0
  H  H11  1  0.90742000  0.69931000  0.73418000  1.0
  H  H12  1  0.67613000  0.17486000  0.08037000  1.0
  H  H13  1  0.32387000  0.82513000  0.91963000  1.0
  H  H14  1  0.09167000  0.14365000  0.57377000  1.0
  H  H15  1  0.90833000  0.85635000  0.42623000  1.0
  H  H16  1  0.87858000  0.29441000  0.83527000  1.0
  H  H17  1  0.12141000  0.70560000  0.16472000  1.0
  H  H18  1  0.89208000  0.94254000  0.78625000  1.0
  H  H19  1  0.10792000  0.05746000  0.21375000  1.0
  H  H20  1  0.33668000  0.06293000  0.01029000  1.0
  H  H21  1  0.66331000  0.93707000  0.98971000  1.0
  H  H22  1  0.35551000  0.41320000  0.01611000  1.0
  H  H23  1  0.64449000  0.58681000  0.98388000  1.0
  H  H24  1  0.54621000  0.21692000  0.76848000  1.0
  H  H25  1  0.45379000  0.78308000  0.23152000  1.0
  C  C26  1  0.17135000  0.91878000  0.64572000  1.0
  C  C27  1  0.82864000  0.08122000  0.35429000  1.0
  C  C28  1  0.21295000  0.82252000  0.59050000  1.0
  C  C29  1  0.78705000  0.17748000  0.40950000  1.0
  C  C30  1  0.43399000  0.86615000  0.70521000  1.0
  C  C31  1  0.56602000  0.13385000  0.29479000  1.0
  C  C32  1  0.38742000  0.96179000  0.75608000  1.0
  C  C33  1  0.61258000  0.03821000  0.24393000  1.0
  C  C34  1  0.15967000  0.39565000  0.69278000  1.0
  C  C35  1  0.84033000  0.60435000  0.30722000  1.0
  C  C36  1  0.19754000  0.48696000  0.64449000  1.0
  C  C37  1  0.80246000  0.51304000  0.35551000  1.0
  C  C38  1  0.44459000  0.52802000  0.72800000  1.0
  C  C39  1  0.55542000  0.47198000  0.27200000  1.0
  C  C40  1  0.39796000  0.43821000  0.77715000  1.0
  C  C41  1  0.60204000  0.56179000  0.22285000  1.0
  C  C42  1  0.88319000  0.16215000  0.00260000  1.0
  C  C43  1  0.11681000  0.83785000  0.99740000  1.0
  C  C44  1  0.10856000  0.23036000  0.10245000  1.0
  C  C45  1  0.89145000  0.76965000  0.89754000  1.0
  C  C46  1  0.03065000  0.26025000  0.19039000  1.0
  C  C47  1  0.96935000  0.73975000  0.80962000  1.0
  C  C48  1  0.80136000  0.19070000  0.08810000  1.0
  C  C49  1  0.19863000  0.80930000  0.91190000  1.0
  C  C50  1  0.99458000  0.03463000  0.67448000  1.0
  C  C51  1  0.00542000  0.96537000  0.32552000  1.0
  C  C52  1  0.03096000  0.13578000  0.64246000  1.0
  C  C53  1  0.96903000  0.86422000  0.35754000  1.0
  C  C54  1  0.98765000  0.22762000  0.70216000  1.0
  C  C55  1  0.01235000  0.77238000  0.29785000  1.0
  C  C56  1  0.91143000  0.22093000  0.79076000  1.0
  C  C57  1  0.08856000  0.77907000  0.20924000  1.0
  C  C58  1  0.87917000  0.11762000  0.82009000  1.0
  C  C59  1  0.12083000  0.88238000  0.17991000  1.0
  C  C60  1  0.91752000  0.02262000  0.76235000  1.0
  C  C61  1  0.08248000  0.97739000  0.23765000  1.0
  C  C62  1  0.44395000  0.12997000  0.88516000  1.0
  C  C63  1  0.55605000  0.87003000  0.11484000  1.0
  C  C64  1  0.37099000  0.13625000  0.97649000  1.0
  C  C65  1  0.62901000  0.86375000  0.02352000  1.0
  C  C66  1  0.33946000  0.23917000  0.02159000  1.0
  C  C67  1  0.66054000  0.76083000  0.97841000  1.0
  C  C68  1  0.38155000  0.33379000  0.97949000  1.0
  C  C69  1  0.61845000  0.66621000  0.02051000  1.0
  C  C70  1  0.45517000  0.32301000  0.88854000  1.0
  C  C71  1  0.54483000  0.67699000  0.11146000  1.0
  C  C72  1  0.48847000  0.22215000  0.83975000  1.0
  C  C73  1  0.51153000  0.77785000  0.16025000  1.0
  N  N74  1  0.25842000  0.98822000  0.72647000  1.0
  N  N75  1  0.74158000  0.01178000  0.27354000  1.0
  N  N76  1  0.34489000  0.79904000  0.62238000  1.0
  N  N77  1  0.65511000  0.20096000  0.37763000  1.0
  N  N78  1  0.34139000  0.54942000  0.66147000  1.0
  N  N79  1  0.65861000  0.45057000  0.33853000  1.0
  N  N80  1  0.25815000  0.37189000  0.75866000  1.0
  N  N81  1  0.74185000  0.62811000  0.24135000  1.0
  N  N82  1  0.87712000  0.23957000  0.18140000  1.0
  N  N83  1  0.12288000  0.76042000  0.81860000  1.0
  N  N84  1  0.03567000  0.18212000  0.00938000  1.0
  N  N85  1  0.96433000  0.81788000  0.99062000  1.0
  N  N86  1  0.70775000  0.69644000  0.56412000  1.0
  N  N87  1  0.29225000  0.30356000  0.43587000  1.0
  N  N88  1  0.26254000  0.59444000  0.35477000  1.0
  N  N89  1  0.73746000  0.40555000  0.64522000  1.0
  O  O90  1  0.03630000  0.94074000  0.61445000  1.0
  O  O91  1  0.96370000  0.05926000  0.38555000  1.0
  O  O92  1  0.47933000  0.02732000  0.84002000  1.0
  O  O93  1  0.52066000  0.97268000  0.15998000  1.0
  O  O94  1  0.26595000  0.25033000  0.11363000  1.0
  O  O95  1  0.73405000  0.74967000  0.88637000  1.0
  O  O96  1  0.80209000  0.10862000  0.90905000  1.0
  O  O97  1  0.19790000  0.89138000  0.09095000  1.0
  O  O98  1  0.50157000  0.41831000  0.84616000  1.0
  O  O99  1  0.49844000  0.58169000  0.15384000  1.0
  O  O100  1  0.01676000  0.32924000  0.66857000  1.0
  O  O101  1  0.98324000  0.67076000  0.33143000  1.0
  O  O102  1  0.84225000  0.70892000  0.54254000  1.0
  O  O103  1  0.15775000  0.29109000  0.45746000  1.0
  O  O104  1  0.59595000  0.65392000  0.48959000  1.0
  O  O105  1  0.40405000  0.34608000  0.51041000  1.0
  O  O106  1  0.66954000  0.72277000  0.65537000  1.0
  O  O107  1  0.33045000  0.27723000  0.34462000  1.0
  O  O108  1  0.20478000  0.53259000  0.27080000  1.0
  O  O109  1  0.79523000  0.46740000  0.72920000  1.0
  O  O110  1  0.33117000  0.69537000  0.36590000  1.0
  O  O111  1  0.66883000  0.30463000  0.63410000  1.0
  O  O112  1  0.25146000  0.55156000  0.43939000  1.0
  O  O113  1  0.74854000  0.44844000  0.56061000  1.0
