# generated using pymatgen
data_Zn2H12C41N2O14F9
_symmetry_space_group_name_H-M   'P 1'
_cell_length_a   13.27570000
_cell_length_b   13.79580000
_cell_length_c   28.42970000
_cell_angle_alpha   90.32500000
_cell_angle_beta   89.79920000
_cell_angle_gamma   89.89460000
_symmetry_Int_Tables_number   1
_chemical_formula_structural   Zn2H12C41N2O14F9
_chemical_formula_sum   'Zn4 H24 C82 N4 O28 F18'
_cell_volume   5206.74359750
_cell_formula_units_Z   2
loop_
 _symmetry_equiv_pos_site_id
 _symmetry_equiv_pos_as_xyz
  1  'x, y, z'
loop_
 _atom_site_type_symbol
 _atom_site_label
 _atom_site_symmetry_multiplicity
 _atom_site_fract_x
 _atom_site_fract_y
 _atom_site_fract_z
 _atom_site_occupancy
  Zn  Zn0  1  0.50887000  0.40311000  0.49796000  1.0
  Zn  Zn1  1  0.48820000  0.60480000  0.50217000  1.0
  Zn  Zn2  1  0.50954000  0.59721000  0.03585000  1.0
  Zn  Zn3  1  0.48924000  0.39556000  0.03157000  1.0
  H  H4  1  0.39561000  0.26143000  0.54633000  1.0
  H  H5  1  0.62146000  0.24743000  0.44754000  1.0
  H  H6  1  0.60191000  0.74689000  0.45352000  1.0
  H  H7  1  0.37211000  0.76098000  0.55021000  1.0
  H  H8  1  0.50801000  0.65124000  0.64584000  1.0
  H  H9  1  0.49701000  0.34409000  0.64632000  1.0
  H  H10  1  0.50724000  0.34893000  0.88795000  1.0
  H  H11  1  0.49847000  0.65614000  0.88752000  1.0
  H  H12  1  0.39607000  0.73925000  0.98788000  1.0
  H  H13  1  0.62244000  0.75236000  0.08565000  1.0
  H  H14  1  0.60315000  0.25301000  0.07977000  1.0
  H  H15  1  0.37319000  0.23975000  0.98391000  1.0
  H  H16  1  0.28551000  0.85270000  0.58322000  1.0
  H  H17  1  0.28729000  0.18069000  0.57308000  1.0
  H  H18  1  0.68610000  0.82619000  0.41471000  1.0
  H  H19  1  0.69700000  0.15619000  0.40921000  1.0
  H  H20  1  0.50954000  0.75874000  0.84657000  1.0
  H  H21  1  0.51340000  0.75487000  0.68628000  1.0
  H  H22  1  0.51199000  0.24526000  0.84751000  1.0
  H  H23  1  0.50699000  0.24120000  0.68727000  1.0
  H  H24  1  0.28700000  0.14856000  0.95101000  1.0
  H  H25  1  0.28801000  0.82048000  0.96128000  1.0
  H  H26  1  0.68932000  0.17332000  0.11741000  1.0
  H  H27  1  0.69853000  0.84321000  0.12343000  1.0
  C  C28  1  0.50221000  0.49802000  0.59052000  1.0
  C  C29  1  0.30464000  0.49071000  0.50334000  1.0
  C  C30  1  0.50013000  0.50920000  0.40978000  1.0
  C  C31  1  0.69248000  0.51812000  0.49618000  1.0
  C  C32  1  0.50280000  0.50210000  0.94327000  1.0
  C  C33  1  0.30559000  0.51091000  0.03129000  1.0
  C  C34  1  0.50099000  0.49029000  0.12395000  1.0
  C  C35  1  0.69346000  0.48264000  0.03752000  1.0
  C  C36  1  0.44107000  0.21215000  0.52490000  1.0
  C  C37  1  0.43157000  0.11117000  0.52666000  1.0
  C  C38  1  0.35875000  0.06357000  0.55583000  1.0
  C  C39  1  0.57031000  0.20411000  0.46896000  1.0
  C  C40  1  0.56902000  0.10242000  0.46794000  1.0
  C  C41  1  0.63474000  0.04562000  0.43860000  1.0
  C  C42  1  0.55340000  0.79635000  0.47332000  1.0
  C  C43  1  0.56054000  0.89743000  0.47037000  1.0
  C  C44  1  0.63085000  0.94507000  0.43990000  1.0
  C  C45  1  0.42337000  0.80435000  0.52885000  1.0
  C  C46  1  0.42342000  0.90606000  0.52929000  1.0
  C  C47  1  0.35560000  0.96308000  0.55759000  1.0
  C  C48  1  0.49816000  0.05505000  0.49791000  1.0
  C  C49  1  0.49400000  0.95351000  0.49918000  1.0
  C  C50  1  0.50694000  0.55686000  0.20732000  1.0
  C  C51  1  0.51523000  0.38520000  0.19708000  1.0
  C  C52  1  0.51355000  0.37172000  0.24509000  1.0
  C  C53  1  0.50916000  0.45151000  0.27670000  1.0
  C  C54  1  0.50567000  0.44227000  0.32639000  1.0
  C  C55  1  0.51565000  0.61383000  0.33659000  1.0
  C  C56  1  0.51472000  0.62728000  0.28860000  1.0
  C  C57  1  0.50982000  0.54752000  0.25701000  1.0
  C  C58  1  0.50871000  0.47842000  0.17653000  1.0
  C  C59  1  0.50800000  0.52073000  0.35716000  1.0
  C  C60  1  0.50509000  0.58602000  0.66737000  1.0
  C  C61  1  0.50404000  0.58894000  0.71667000  1.0
  C  C62  1  0.50557000  0.67879000  0.74233000  1.0
  C  C63  1  0.49979000  0.41027000  0.66753000  1.0
  C  C64  1  0.50144000  0.40920000  0.71690000  1.0
  C  C65  1  0.50291000  0.32034000  0.74293000  1.0
  C  C66  1  0.50491000  0.41416000  0.86641000  1.0
  C  C67  1  0.50373000  0.41125000  0.81713000  1.0
  C  C68  1  0.50449000  0.32139000  0.79147000  1.0
  C  C69  1  0.50082000  0.58994000  0.86628000  1.0
  C  C70  1  0.50230000  0.59101000  0.81691000  1.0
  C  C71  1  0.50428000  0.67986000  0.79089000  1.0
  C  C72  1  0.50232000  0.49778000  0.64307000  1.0
  C  C73  1  0.50257000  0.49956000  0.74207000  1.0
  C  C74  1  0.50282000  0.50242000  0.89072000  1.0
  C  C75  1  0.50272000  0.50065000  0.79174000  1.0
  C  C76  1  0.87012000  0.44904000  0.49842000  1.0
  C  C77  1  0.85260000  0.62092000  0.49347000  1.0
  C  C78  1  0.95580000  0.63192000  0.49294000  1.0
  C  C79  1  0.02135000  0.55121000  0.49650000  1.0
  C  C80  1  0.12797000  0.55858000  0.49704000  1.0
  C  C81  1  0.14487000  0.38879000  0.51029000  1.0
  C  C82  1  0.04202000  0.37656000  0.50783000  1.0
  C  C83  1  0.97665000  0.45663000  0.50059000  1.0
  C  C84  1  0.80565000  0.52861000  0.49582000  1.0
  C  C85  1  0.19157000  0.48004000  0.50394000  1.0
  C  C86  1  0.44170000  0.78838000  0.00908000  1.0
  C  C87  1  0.43235000  0.88940000  0.00730000  1.0
  C  C88  1  0.35956000  0.93731000  0.97836000  1.0
  C  C89  1  0.57123000  0.79590000  0.06446000  1.0
  C  C90  1  0.57007000  0.89759000  0.06545000  1.0
  C  C91  1  0.63612000  0.95411000  0.09442000  1.0
  C  C92  1  0.55475000  0.20372000  0.06007000  1.0
  C  C93  1  0.56194000  0.10261000  0.06295000  1.0
  C  C94  1  0.63244000  0.05468000  0.09308000  1.0
  C  C95  1  0.42455000  0.19622000  0.00505000  1.0
  C  C96  1  0.42455000  0.09452000  0.00461000  1.0
  C  C97  1  0.35660000  0.03783000  0.97659000  1.0
  C  C98  1  0.49914000  0.94524000  0.03576000  1.0
  C  C99  1  0.49521000  0.04679000  0.03445000  1.0
  C  C100  1  0.87074000  0.55232000  0.03528000  1.0
  C  C101  1  0.85434000  0.38081000  0.04272000  1.0
  C  C102  1  0.95757000  0.37024000  0.04387000  1.0
  C  C103  1  0.02265000  0.45088000  0.03932000  1.0
  C  C104  1  0.12927000  0.44369000  0.03896000  1.0
  C  C105  1  0.14552000  0.61272000  0.02363000  1.0
  C  C106  1  0.04253000  0.62490000  0.02580000  1.0
  C  C107  1  0.97744000  0.54503000  0.03377000  1.0
  C  C108  1  0.80672000  0.47270000  0.03869000  1.0
  C  C109  1  0.19251000  0.52187000  0.03099000  1.0
  N  N110  1  0.50846000  0.25577000  0.49684000  1.0
  N  N111  1  0.48675000  0.75254000  0.50164000  1.0
  N  N112  1  0.50917000  0.74451000  0.03686000  1.0
  N  N113  1  0.48799000  0.24779000  0.03202000  1.0
  O  O114  1  0.48286000  0.41855000  0.56931000  1.0
  O  O115  1  0.52156000  0.57857000  0.57052000  1.0
  O  O116  1  0.34013000  0.57046000  0.51820000  1.0
  O  O117  1  0.35417000  0.41872000  0.48761000  1.0
  O  O118  1  0.45873000  0.57892000  0.43190000  1.0
  O  O119  1  0.53507000  0.43193000  0.42745000  1.0
  O  O120  1  0.65735000  0.43748000  0.50965000  1.0
  O  O121  1  0.64111000  0.59105000  0.48329000  1.0
  O  O122  1  0.48342000  0.58157000  0.96460000  1.0
  O  O123  1  0.52223000  0.42142000  0.96313000  1.0
  O  O124  1  0.34106000  0.43110000  0.01625000  1.0
  O  O125  1  0.35499000  0.58275000  0.04692000  1.0
  O  O126  1  0.45954000  0.42087000  0.10189000  1.0
  O  O127  1  0.53593000  0.56752000  0.10626000  1.0
  O  O128  1  0.65821000  0.56319000  0.02392000  1.0
  O  O129  1  0.64213000  0.40944000  0.04998000  1.0
  O  O130  1  0.28584000  0.92291000  0.58666000  1.0
  O  O131  1  0.29180000  0.11337000  0.58310000  1.0
  O  O132  1  0.69546000  0.89580000  0.41134000  1.0
  O  O133  1  0.70297000  0.08587000  0.40879000  1.0
  O  O134  1  0.50569000  0.76834000  0.81273000  1.0
  O  O135  1  0.50840000  0.76629000  0.72003000  1.0
  O  O136  1  0.50664000  0.23389000  0.81379000  1.0
  O  O137  1  0.50342000  0.23179000  0.72113000  1.0
  O  O138  1  0.28684000  0.07831000  0.94776000  1.0
  O  O139  1  0.29249000  0.88785000  0.95133000  1.0
  O  O140  1  0.69739000  0.10364000  0.12130000  1.0
  O  O141  1  0.70453000  0.91351000  0.12389000  1.0
  F  F142  1  0.52676000  0.69370000  0.36387000  1.0
  F  F143  1  0.52196000  0.71899000  0.27247000  1.0
  F  F144  1  0.49930000  0.64733000  0.18981000  1.0
  F  F145  1  0.52592000  0.30521000  0.16980000  1.0
  F  F146  1  0.51958000  0.27989000  0.26117000  1.0
  F  F147  1  0.49694000  0.35191000  0.34395000  1.0
  F  F148  1  0.20114000  0.30941000  0.52025000  1.0
  F  F149  1  0.00524000  0.28633000  0.51426000  1.0
  F  F150  1  0.83164000  0.35863000  0.49837000  1.0
  F  F151  1  0.79745000  0.70325000  0.49202000  1.0
  F  F152  1  0.99253000  0.72304000  0.49031000  1.0
  F  F153  1  0.16817000  0.64695000  0.48946000  1.0
  F  F154  1  0.20170000  0.69169000  0.01298000  1.0
  F  F155  1  0.00545000  0.71479000  0.01845000  1.0
  F  F156  1  0.83169000  0.64254000  0.03368000  1.0
  F  F157  1  0.79992000  0.29830000  0.04527000  1.0
  F  F158  1  0.99488000  0.27951000  0.04808000  1.0
  F  F159  1  0.17002000  0.35595000  0.04773000  1.0
