# generated using pymatgen
data_CuH23C25(N2O3)2
_symmetry_space_group_name_H-M   'P 1'
_cell_length_a   9.76479000
_cell_length_b   14.19670000
_cell_length_c   20.05770000
_cell_angle_alpha   89.99990000
_cell_angle_beta   89.99990000
_cell_angle_gamma   97.11920000
_symmetry_Int_Tables_number   1
_chemical_formula_structural   CuH23C25(N2O3)2
_chemical_formula_sum   'Cu4 H92 C100 N16 O24'
_cell_volume   2759.11791795
_cell_formula_units_Z   4
loop_
 _symmetry_equiv_pos_site_id
 _symmetry_equiv_pos_as_xyz
  1  'x, y, z'
loop_
 _atom_site_type_symbol
 _atom_site_label
 _atom_site_symmetry_multiplicity
 _atom_site_fract_x
 _atom_site_fract_y
 _atom_site_fract_z
 _atom_site_occupancy
  Cu  Cu0  1  0.69336000  0.19149000  0.73336000  1.0
  Cu  Cu1  1  0.80666000  0.80852000  0.23336000  1.0
  Cu  Cu2  1  0.30666000  0.80852000  0.26663000  1.0
  Cu  Cu3  1  0.19335000  0.19149000  0.76665000  1.0
  H  H4  1  0.48835000  0.00720000  0.82509000  1.0
  H  H5  1  0.60818000  0.88564000  0.88443000  1.0
  H  H6  1  0.21506000  0.72953000  0.93255000  1.0
  H  H7  1  0.09666000  0.85117000  0.87416000  1.0
  H  H8  1  0.55950000  0.20459000  0.87650000  1.0
  H  H9  1  0.64060000  0.09048000  0.97939000  1.0
  H  H10  1  0.87158000  0.04825000  0.80571000  1.0
  H  H11  1  0.77616000  0.93625000  0.96830000  1.0
  H  H12  1  0.89295000  0.93832000  0.89993000  1.0
  H  H13  1  0.91949000  0.08452000  0.01311000  1.0
  H  H14  1  0.03755000  0.07733000  0.94690000  1.0
  H  H15  1  0.49055000  0.31228000  0.66783000  1.0
  H  H16  1  0.82373000  0.18521000  0.58506000  1.0
  H  H17  1  0.64466000  0.46748000  0.49493000  1.0
  H  H18  1  0.57134000  0.50680000  0.56857000  1.0
  H  H19  1  0.38472000  0.37163000  0.56526000  1.0
  H  H20  1  0.44407000  0.33608000  0.48601000  1.0
  H  H21  1  0.77587000  0.50422000  0.87924000  1.0
  H  H22  1  0.64753000  0.61299000  0.94478000  1.0
  H  H23  1  0.26361000  0.46544000  0.87076000  1.0
  H  H24  1  0.39529000  0.35896000  0.80429000  1.0
  H  H25  1  0.34314000  0.69458000  0.01933000  1.0
  H  H26  1  0.50624000  0.64646000  0.02162000  1.0
  H  H27  1  0.01164000  0.99281000  0.32505000  1.0
  H  H28  1  0.89181000  0.11437000  0.38440000  1.0
  H  H29  1  0.28491000  0.27048000  0.43254000  1.0
  H  H30  1  0.40332000  0.14884000  0.37415000  1.0
  H  H31  1  0.94053000  0.79544000  0.37650000  1.0
  H  H32  1  0.85939000  0.90952000  0.47939000  1.0
  H  H33  1  0.62839000  0.95175000  0.30572000  1.0
  H  H34  1  0.72382000  0.06374000  0.46831000  1.0
  H  H35  1  0.60704000  0.06168000  0.39994000  1.0
  H  H36  1  0.58048000  0.91547000  0.51311000  1.0
  H  H37  1  0.46244000  0.92266000  0.44690000  1.0
  H  H38  1  0.00947000  0.68772000  0.16783000  1.0
  H  H39  1  0.67627000  0.81478000  0.08506000  1.0
  H  H40  1  0.85534000  0.53251000  0.99494000  1.0
  H  H41  1  0.92863000  0.49318000  0.06858000  1.0
  H  H42  1  0.11525000  0.62833000  0.06530000  1.0
  H  H43  1  0.05599000  0.66389000  0.98604000  1.0
  H  H44  1  0.72415000  0.49581000  0.37923000  1.0
  H  H45  1  0.85246000  0.38701000  0.44476000  1.0
  H  H46  1  0.23642000  0.53453000  0.37075000  1.0
  H  H47  1  0.10475000  0.64102000  0.30427000  1.0
  H  H48  1  0.15684000  0.30541000  0.51932000  1.0
  H  H49  1  0.99375000  0.35354000  0.52162000  1.0
  H  H50  1  0.51164000  0.99282000  0.17495000  1.0
  H  H51  1  0.39181000  0.11437000  0.11560000  1.0
  H  H52  1  0.78492000  0.27049000  0.06746000  1.0
  H  H53  1  0.90332000  0.14884000  0.12584000  1.0
  H  H54  1  0.44054000  0.79544000  0.12350000  1.0
  H  H55  1  0.35939000  0.90952000  0.02061000  1.0
  H  H56  1  0.12839000  0.95175000  0.19428000  1.0
  H  H57  1  0.22381000  0.06374000  0.03169000  1.0
  H  H58  1  0.10703000  0.06168000  0.10006000  1.0
  H  H59  1  0.08048000  0.91546000  0.98689000  1.0
  H  H60  1  0.96244000  0.92266000  0.05310000  1.0
  H  H61  1  0.50947000  0.68772000  0.33217000  1.0
  H  H62  1  0.17628000  0.81478000  0.41494000  1.0
  H  H63  1  0.35535000  0.53251000  0.50507000  1.0
  H  H64  1  0.42863000  0.49317000  0.43142000  1.0
  H  H65  1  0.61525000  0.62832000  0.43469000  1.0
  H  H66  1  0.55600000  0.66389000  0.51396000  1.0
  H  H67  1  0.22414000  0.49580000  0.12077000  1.0
  H  H68  1  0.35247000  0.38701000  0.05524000  1.0
  H  H69  1  0.73641000  0.53453000  0.12925000  1.0
  H  H70  1  0.60474000  0.64102000  0.19573000  1.0
  H  H71  1  0.65684000  0.30541000  0.98067000  1.0
  H  H72  1  0.49376000  0.35355000  0.97838000  1.0
  H  H73  1  0.98836000  0.00721000  0.67491000  1.0
  H  H74  1  0.10818000  0.88565000  0.61557000  1.0
  H  H75  1  0.71507000  0.72953000  0.56745000  1.0
  H  H76  1  0.59666000  0.85117000  0.62584000  1.0
  H  H77  1  0.05949000  0.20459000  0.62350000  1.0
  H  H78  1  0.14061000  0.09049000  0.52062000  1.0
  H  H79  1  0.37159000  0.04825000  0.69429000  1.0
  H  H80  1  0.27616000  0.93626000  0.53171000  1.0
  H  H81  1  0.39295000  0.93832000  0.60007000  1.0
  H  H82  1  0.41950000  0.08452000  0.48689000  1.0
  H  H83  1  0.53755000  0.07733000  0.55310000  1.0
  H  H84  1  0.99055000  0.31228000  0.83218000  1.0
  H  H85  1  0.32373000  0.18522000  0.91494000  1.0
  H  H86  1  0.14466000  0.46749000  0.00507000  1.0
  H  H87  1  0.07134000  0.50680000  0.93143000  1.0
  H  H88  1  0.88472000  0.37164000  0.93474000  1.0
  H  H89  1  0.94406000  0.33608000  0.01399000  1.0
  H  H90  1  0.27587000  0.50420000  0.62076000  1.0
  H  H91  1  0.14753000  0.61298000  0.55522000  1.0
  H  H92  1  0.76360000  0.46544000  0.62923000  1.0
  H  H93  1  0.89528000  0.35896000  0.69571000  1.0
  H  H94  1  0.84315000  0.69459000  0.48067000  1.0
  H  H95  1  0.00624000  0.64646000  0.47838000  1.0
  C  C96  1  0.20997000  0.01636000  0.81974000  1.0
  C  C97  1  0.28422000  0.94001000  0.84919000  1.0
  C  C98  1  0.42902000  0.94775000  0.85025000  1.0
  C  C99  1  0.49608000  0.88050000  0.88301000  1.0
  C  C100  1  0.41961000  0.80439000  0.91591000  1.0
  C  C101  1  0.27518000  0.79172000  0.91107000  1.0
  C  C102  1  0.20895000  0.85971000  0.87794000  1.0
  C  C103  1  0.63704000  0.15639000  0.87775000  1.0
  C  C104  1  0.67533000  0.10001000  0.92829000  1.0
  C  C105  1  0.79501000  0.07488000  0.83742000  1.0
  C  C106  1  0.84957000  0.98243000  0.93749000  1.0
  C  C107  1  0.96374000  0.03473000  0.97972000  1.0
  C  C108  1  0.56492000  0.29139000  0.63217000  1.0
  C  C109  1  0.73769000  0.22638000  0.58638000  1.0
  C  C110  1  0.67600000  0.27278000  0.53664000  1.0
  C  C111  1  0.54585000  0.47126000  0.52054000  1.0
  C  C112  1  0.47612000  0.37076000  0.53340000  1.0
  C  C113  1  0.67450000  0.35549000  0.80333000  1.0
  C  C114  1  0.59405000  0.42254000  0.83953000  1.0
  C  C115  1  0.66331000  0.49535000  0.87859000  1.0
  C  C116  1  0.59096000  0.55624000  0.91545000  1.0
  C  C117  1  0.44618000  0.54362000  0.91306000  1.0
  C  C118  1  0.37587000  0.47280000  0.87287000  1.0
  C  C119  1  0.44943000  0.41293000  0.83642000  1.0
  C  C120  1  0.42695000  0.67116000  0.98941000  1.0
  C  C121  1  0.29002000  0.98364000  0.31972000  1.0
  C  C122  1  0.21576000  0.05999000  0.34917000  1.0
  C  C123  1  0.07096000  0.05226000  0.35022000  1.0
  C  C124  1  0.00389000  0.11950000  0.38299000  1.0
  C  C125  1  0.08036000  0.19561000  0.41590000  1.0
  C  C126  1  0.22479000  0.20829000  0.41106000  1.0
  C  C127  1  0.29102000  0.14030000  0.37793000  1.0
  C  C128  1  0.86296000  0.84363000  0.37775000  1.0
  C  C129  1  0.82468000  0.89999000  0.42828000  1.0
  C  C130  1  0.70497000  0.92512000  0.33742000  1.0
  C  C131  1  0.65040000  0.01755000  0.43750000  1.0
  C  C132  1  0.53624000  0.96526000  0.47972000  1.0
  C  C133  1  0.93508000  0.70862000  0.13217000  1.0
  C  C134  1  0.76231000  0.77361000  0.08639000  1.0
  C  C135  1  0.82399000  0.72721000  0.03665000  1.0
  C  C136  1  0.95413000  0.52872000  0.02056000  1.0
  C  C137  1  0.02388000  0.62922000  0.03343000  1.0
  C  C138  1  0.82555000  0.64453000  0.30332000  1.0
  C  C139  1  0.90598000  0.57746000  0.33952000  1.0
  C  C140  1  0.83672000  0.50467000  0.37858000  1.0
  C  C141  1  0.90905000  0.44376000  0.41543000  1.0
  C  C142  1  0.05383000  0.45637000  0.41304000  1.0
  C  C143  1  0.12415000  0.52717000  0.37285000  1.0
  C  C144  1  0.05061000  0.58706000  0.33641000  1.0
  C  C145  1  0.07303000  0.32883000  0.48941000  1.0
  C  C146  1  0.79002000  0.98365000  0.18028000  1.0
  C  C147  1  0.71576000  0.06000000  0.15082000  1.0
  C  C148  1  0.57097000  0.05227000  0.14978000  1.0
  C  C149  1  0.50390000  0.11951000  0.11700000  1.0
  C  C150  1  0.58037000  0.19562000  0.08410000  1.0
  C  C151  1  0.72480000  0.20830000  0.08894000  1.0
  C  C152  1  0.79102000  0.14030000  0.12207000  1.0
  C  C153  1  0.36296000  0.84363000  0.12225000  1.0
  C  C154  1  0.32468000  0.89999000  0.07172000  1.0
  C  C155  1  0.20498000  0.92512000  0.16257000  1.0
  C  C156  1  0.15040000  0.01755000  0.06250000  1.0
  C  C157  1  0.03624000  0.96525000  0.02029000  1.0
  C  C158  1  0.43509000  0.70861000  0.36782000  1.0
  C  C159  1  0.26232000  0.77361000  0.41360000  1.0
  C  C160  1  0.32400000  0.72720000  0.46334000  1.0
  C  C161  1  0.45414000  0.52872000  0.47944000  1.0
  C  C162  1  0.52389000  0.62921000  0.46657000  1.0
  C  C163  1  0.32554000  0.64453000  0.19667000  1.0
  C  C164  1  0.40597000  0.57746000  0.16048000  1.0
  C  C165  1  0.33671000  0.50466000  0.12142000  1.0
  C  C166  1  0.40905000  0.44376000  0.08457000  1.0
  C  C167  1  0.55383000  0.45637000  0.08696000  1.0
  C  C168  1  0.62414000  0.52717000  0.12716000  1.0
  C  C169  1  0.55060000  0.58706000  0.16360000  1.0
  C  C170  1  0.57303000  0.32884000  0.01059000  1.0
  C  C171  1  0.70997000  0.01637000  0.68027000  1.0
  C  C172  1  0.78423000  0.94001000  0.65081000  1.0
  C  C173  1  0.92902000  0.94775000  0.64975000  1.0
  C  C174  1  0.99609000  0.88051000  0.61699000  1.0
  C  C175  1  0.91962000  0.80439000  0.58409000  1.0
  C  C176  1  0.77518000  0.79172000  0.58893000  1.0
  C  C177  1  0.70896000  0.85971000  0.62206000  1.0
  C  C178  1  0.13705000  0.15640000  0.62225000  1.0
  C  C179  1  0.17534000  0.10002000  0.57172000  1.0
  C  C180  1  0.29502000  0.07489000  0.66258000  1.0
  C  C181  1  0.34958000  0.98244000  0.56251000  1.0
  C  C182  1  0.46375000  0.03473000  0.52028000  1.0
  C  C183  1  0.06491000  0.29139000  0.86783000  1.0
  C  C184  1  0.23768000  0.22639000  0.91362000  1.0
  C  C185  1  0.17600000  0.27278000  0.96336000  1.0
  C  C186  1  0.04585000  0.47127000  0.97946000  1.0
  C  C187  1  0.97611000  0.37076000  0.96660000  1.0
  C  C188  1  0.17448000  0.35548000  0.69667000  1.0
  C  C189  1  0.09404000  0.42254000  0.66047000  1.0
  C  C190  1  0.16330000  0.49534000  0.62140000  1.0
  C  C191  1  0.09096000  0.55623000  0.58455000  1.0
  C  C192  1  0.94618000  0.54361000  0.58694000  1.0
  C  C193  1  0.87587000  0.47280000  0.62713000  1.0
  C  C194  1  0.94942000  0.41293000  0.66358000  1.0
  C  C195  1  0.92696000  0.67116000  0.51059000  1.0
  N  N196  1  0.71221000  0.13957000  0.82156000  1.0
  N  N197  1  0.77402000  0.04903000  0.90176000  1.0
  N  N198  1  0.66745000  0.23919000  0.64540000  1.0
  N  N199  1  0.56771000  0.31204000  0.56663000  1.0
  N  N200  1  0.78779000  0.86044000  0.32155000  1.0
  N  N201  1  0.72598000  0.95097000  0.40176000  1.0
  N  N202  1  0.83257000  0.76082000  0.14541000  1.0
  N  N203  1  0.93228000  0.68795000  0.06664000  1.0
  N  N204  1  0.28780000  0.86044000  0.17844000  1.0
  N  N205  1  0.22598000  0.95097000  0.09824000  1.0
  N  N206  1  0.33257000  0.76081000  0.35459000  1.0
  N  N207  1  0.43229000  0.68794000  0.43336000  1.0
  N  N208  1  0.21221000  0.13957000  0.67845000  1.0
  N  N209  1  0.27403000  0.04904000  0.59824000  1.0
  N  N210  1  0.16744000  0.23919000  0.85460000  1.0
  N  N211  1  0.06771000  0.31205000  0.93338000  1.0
  O  O212  1  0.29105000  0.09393000  0.80395000  1.0
  O  O213  1  0.08200000  0.00598000  0.81280000  1.0
  O  O214  1  0.49654000  0.74780000  0.95227000  1.0
  O  O215  1  0.80278000  0.36245000  0.80681000  1.0
  O  O216  1  0.59728000  0.28879000  0.77021000  1.0
  O  O217  1  0.36298000  0.59765000  0.94825000  1.0
  O  O218  1  0.20895000  0.90607000  0.30394000  1.0
  O  O219  1  0.41799000  0.99402000  0.31279000  1.0
  O  O220  1  0.00343000  0.25220000  0.45225000  1.0
  O  O221  1  0.69728000  0.63759000  0.30680000  1.0
  O  O222  1  0.90278000  0.71124000  0.27021000  1.0
  O  O223  1  0.13702000  0.40233000  0.44824000  1.0
  O  O224  1  0.70895000  0.90608000  0.19606000  1.0
  O  O225  1  0.91799000  0.99403000  0.18721000  1.0
  O  O226  1  0.50344000  0.25221000  0.04774000  1.0
  O  O227  1  0.19728000  0.63760000  0.19319000  1.0
  O  O228  1  0.40277000  0.71124000  0.22978000  1.0
  O  O229  1  0.63702000  0.40234000  0.05176000  1.0
  O  O230  1  0.79106000  0.09393000  0.69606000  1.0
  O  O231  1  0.58200000  0.00599000  0.68720000  1.0
  O  O232  1  0.99655000  0.74780000  0.54774000  1.0
  O  O233  1  0.30276000  0.36244000  0.69319000  1.0
  O  O234  1  0.09726000  0.28878000  0.72979000  1.0
  O  O235  1  0.86298000  0.59765000  0.55175000  1.0
