# generated using pymatgen
data_NaEuH14C14(NO6)2
_symmetry_space_group_name_H-M   'P 1'
_cell_length_a   10.63660000
_cell_length_b   11.17270000
_cell_length_c   17.65150000
_cell_angle_alpha   89.99620000
_cell_angle_beta   89.99760000
_cell_angle_gamma   97.07310000
_symmetry_Int_Tables_number   1
_chemical_formula_structural   NaEuH14C14(NO6)2
_chemical_formula_sum   'Na4 Eu4 H56 C56 N8 O48'
_cell_volume   2081.73238324
_cell_formula_units_Z   4
loop_
 _symmetry_equiv_pos_site_id
 _symmetry_equiv_pos_as_xyz
  1  'x, y, z'
loop_
 _atom_site_type_symbol
 _atom_site_label
 _atom_site_symmetry_multiplicity
 _atom_site_fract_x
 _atom_site_fract_y
 _atom_site_fract_z
 _atom_site_occupancy
  Na  Na0  1  0.93408000  0.38944000  0.63410000  1.0
  Na  Na1  1  0.06594000  0.11054000  0.13410000  1.0
  Na  Na2  1  0.06592000  0.61056000  0.36590000  1.0
  Na  Na3  1  0.93406000  0.88946000  0.86590000  1.0
  Eu  Eu4  1  0.90418000  0.21756000  0.81657000  1.0
  Eu  Eu5  1  0.09582000  0.28245000  0.31656000  1.0
  Eu  Eu6  1  0.09582000  0.78244000  0.18343000  1.0
  Eu  Eu7  1  0.90418000  0.71755000  0.68344000  1.0
  H  H8  1  0.44458000  0.39596000  0.84410000  1.0
  H  H9  1  0.55542000  0.10405000  0.34409000  1.0
  H  H10  1  0.55542000  0.60404000  0.15590000  1.0
  H  H11  1  0.44459000  0.89595000  0.65590000  1.0
  H  H12  1  0.30456000  0.19558000  0.84246000  1.0
  H  H13  1  0.69543000  0.30442000  0.34246000  1.0
  H  H14  1  0.69543000  0.80442000  0.15754000  1.0
  H  H15  1  0.30457000  0.69558000  0.65753000  1.0
  H  H16  1  0.40819000  0.00517000  0.83990000  1.0
  H  H17  1  0.59180000  0.49483000  0.33990000  1.0
  H  H18  1  0.59181000  0.99483000  0.16010000  1.0
  H  H19  1  0.40819000  0.50517000  0.66010000  1.0
  H  H20  1  0.31532000  0.56396000  0.86227000  1.0
  H  H21  1  0.68466000  0.93604000  0.36229000  1.0
  H  H22  1  0.68467000  0.43604000  0.13773000  1.0
  H  H23  1  0.31535000  0.06395000  0.63771000  1.0
  H  H24  1  0.32058000  0.55467000  0.00560000  1.0
  H  H25  1  0.67943000  0.94532000  0.50563000  1.0
  H  H26  1  0.67942000  0.44533000  0.99440000  1.0
  H  H27  1  0.32058000  0.05467000  0.49437000  1.0
  H  H28  1  0.15479000  0.41434000  0.07238000  1.0
  H  H29  1  0.84522000  0.08565000  0.57239000  1.0
  H  H30  1  0.84521000  0.58566000  0.92762000  1.0
  H  H31  1  0.15478000  0.91435000  0.42762000  1.0
  H  H32  1  0.12815000  0.05486000  0.82866000  1.0
  H  H33  1  0.87185000  0.44514000  0.32865000  1.0
  H  H34  1  0.87185000  0.94514000  0.17135000  1.0
  H  H35  1  0.12815000  0.55486000  0.67135000  1.0
  H  H36  1  0.09863000  0.08104000  0.91583000  1.0
  H  H37  1  0.90136000  0.41897000  0.41582000  1.0
  H  H38  1  0.90137000  0.91896000  0.08417000  1.0
  H  H39  1  0.09864000  0.58103000  0.58418000  1.0
  H  H40  1  0.74231000  0.16044000  0.67833000  1.0
  H  H41  1  0.25771000  0.33956000  0.17831000  1.0
  H  H42  1  0.25769000  0.83956000  0.32167000  1.0
  H  H43  1  0.74229000  0.66045000  0.82169000  1.0
  H  H44  1  0.71091000  0.29555000  0.68643000  1.0
  H  H45  1  0.28909000  0.20443000  0.18642000  1.0
  H  H46  1  0.28909000  0.70445000  0.31357000  1.0
  H  H47  1  0.71091000  0.79556000  0.81358000  1.0
  H  H48  1  0.00543000  0.15407000  0.66285000  1.0
  H  H49  1  0.99460000  0.34591000  0.16287000  1.0
  H  H50  1  0.99457000  0.84593000  0.33714000  1.0
  H  H51  1  0.00540000  0.65409000  0.83712000  1.0
  H  H52  1  0.92015000  0.03450000  0.69136000  1.0
  H  H53  1  0.07986000  0.46550000  0.19136000  1.0
  H  H54  1  0.07985000  0.96550000  0.30864000  1.0
  H  H55  1  0.92014000  0.53450000  0.80864000  1.0
  H  H56  1  0.85290000  0.54519000  0.51555000  1.0
  H  H57  1  0.14711000  0.95479000  0.01554000  1.0
  H  H58  1  0.14709000  0.45481000  0.48445000  1.0
  H  H59  1  0.85289000  0.04521000  0.98446000  1.0
  H  H60  1  0.75366000  0.42910000  0.51133000  1.0
  H  H61  1  0.24634000  0.07090000  0.01131000  1.0
  H  H62  1  0.24634000  0.57090000  0.48866000  1.0
  H  H63  1  0.75366000  0.92910000  0.98869000  1.0
  C  C64  1  0.70561000  0.42578000  0.84016000  1.0
  C  C65  1  0.29439000  0.07423000  0.34015000  1.0
  C  C66  1  0.29440000  0.57422000  0.15984000  1.0
  C  C67  1  0.70561000  0.92577000  0.65985000  1.0
  C  C68  1  0.61490000  0.31125000  0.84445000  1.0
  C  C69  1  0.38509000  0.18876000  0.34444000  1.0
  C  C70  1  0.38510000  0.68876000  0.15555000  1.0
  C  C71  1  0.61491000  0.81124000  0.65556000  1.0
  C  C72  1  0.48360000  0.31047000  0.84514000  1.0
  C  C73  1  0.51639000  0.18954000  0.34513000  1.0
  C  C74  1  0.51640000  0.68953000  0.15486000  1.0
  C  C75  1  0.48361000  0.81046000  0.65487000  1.0
  C  C76  1  0.40735000  0.19962000  0.84433000  1.0
  C  C77  1  0.59264000  0.30038000  0.34432000  1.0
  C  C78  1  0.59264000  0.80037000  0.15567000  1.0
  C  C79  1  0.40736000  0.69962000  0.65568000  1.0
  C  C80  1  0.46406000  0.09335000  0.84307000  1.0
  C  C81  1  0.53593000  0.40665000  0.34306000  1.0
  C  C82  1  0.53593000  0.90665000  0.15693000  1.0
  C  C83  1  0.46407000  0.59335000  0.65694000  1.0
  C  C84  1  0.59607000  0.10242000  0.84215000  1.0
  C  C85  1  0.40393000  0.39759000  0.34214000  1.0
  C  C86  1  0.40393000  0.89758000  0.15785000  1.0
  C  C87  1  0.59608000  0.60241000  0.65786000  1.0
  C  C88  1  0.66828000  0.99491000  0.83539000  1.0
  C  C89  1  0.33171000  0.50509000  0.33537000  1.0
  C  C90  1  0.33172000  0.00509000  0.16461000  1.0
  C  C91  1  0.66829000  0.49490000  0.66463000  1.0
  C  C92  1  0.14185000  0.42674000  0.77081000  1.0
  C  C93  1  0.85815000  0.07327000  0.27080000  1.0
  C  C94  1  0.85815000  0.57326000  0.22920000  1.0
  C  C95  1  0.14185000  0.92673000  0.72920000  1.0
  C  C96  1  0.15492000  0.42697000  0.85594000  1.0
  C  C97  1  0.84507000  0.07304000  0.35594000  1.0
  C  C98  1  0.84508000  0.57303000  0.14406000  1.0
  C  C99  1  0.15493000  0.92696000  0.64406000  1.0
  C  C100  1  0.24753000  0.50308000  0.89456000  1.0
  C  C101  1  0.75246000  0.99693000  0.39457000  1.0
  C  C102  1  0.75247000  0.49692000  0.10544000  1.0
  C  C103  1  0.24754000  0.00307000  0.60543000  1.0
  C  C104  1  0.24856000  0.49827000  0.97343000  1.0
  C  C105  1  0.75144000  0.00173000  0.47345000  1.0
  C  C106  1  0.75144000  0.50173000  0.02657000  1.0
  C  C107  1  0.24857000  0.99827000  0.52655000  1.0
  C  C108  1  0.15630000  0.42039000  0.01101000  1.0
  C  C109  1  0.84370000  0.07961000  0.51101000  1.0
  C  C110  1  0.84370000  0.57961000  0.98899000  1.0
  C  C111  1  0.15630000  0.92039000  0.48899000  1.0
  C  C112  1  0.06554000  0.34907000  0.96823000  1.0
  C  C113  1  0.93445000  0.15094000  0.46822000  1.0
  C  C114  1  0.93446000  0.65093000  0.03177000  1.0
  C  C115  1  0.06555000  0.84906000  0.53178000  1.0
  C  C116  1  0.96295000  0.26013000  0.00332000  1.0
  C  C117  1  0.03704000  0.23987000  0.50331000  1.0
  C  C118  1  0.03705000  0.73987000  0.99668000  1.0
  C  C119  1  0.96296000  0.76013000  0.49669000  1.0
  N  N120  1  0.66906000  0.20923000  0.84313000  1.0
  N  N121  1  0.33094000  0.29078000  0.34311000  1.0
  N  N122  1  0.33094000  0.79077000  0.15687000  1.0
  N  N123  1  0.66907000  0.70922000  0.65689000  1.0
  N  N124  1  0.06685000  0.35214000  0.89231000  1.0
  N  N125  1  0.93314000  0.14788000  0.39231000  1.0
  N  N126  1  0.93315000  0.64786000  0.10769000  1.0
  N  N127  1  0.06686000  0.85212000  0.60769000  1.0
  O  O128  1  0.66252000  0.52523000  0.84277000  1.0
  O  O129  1  0.33748000  0.97478000  0.34276000  1.0
  O  O130  1  0.33748000  0.47477000  0.15723000  1.0
  O  O131  1  0.66252000  0.02522000  0.65724000  1.0
  O  O132  1  0.82367000  0.41112000  0.83368000  1.0
  O  O133  1  0.17632000  0.08889000  0.33369000  1.0
  O  O134  1  0.17633000  0.58888000  0.16632000  1.0
  O  O135  1  0.82368000  0.91111000  0.66631000  1.0
  O  O136  1  0.60961000  0.89030000  0.83777000  1.0
  O  O137  1  0.39039000  0.60971000  0.33776000  1.0
  O  O138  1  0.39039000  0.10970000  0.16223000  1.0
  O  O139  1  0.60961000  0.39029000  0.66225000  1.0
  O  O140  1  0.78902000  0.01995000  0.82701000  1.0
  O  O141  1  0.21097000  0.48006000  0.32699000  1.0
  O  O142  1  0.21098000  0.98005000  0.17299000  1.0
  O  O143  1  0.78903000  0.51994000  0.67301000  1.0
  O  O144  1  0.05009000  0.35343000  0.74403000  1.0
  O  O145  1  0.94992000  0.14659000  0.24403000  1.0
  O  O146  1  0.94991000  0.64657000  0.25597000  1.0
  O  O147  1  0.05008000  0.85341000  0.75597000  1.0
  O  O148  1  0.21670000  0.49907000  0.73289000  1.0
  O  O149  1  0.78331000  0.00094000  0.23289000  1.0
  O  O150  1  0.78330000  0.50093000  0.26711000  1.0
  O  O151  1  0.21669000  0.99906000  0.76711000  1.0
  O  O152  1  0.89083000  0.19552000  0.95635000  1.0
  O  O153  1  0.10916000  0.30450000  0.45634000  1.0
  O  O154  1  0.10917000  0.80448000  0.04365000  1.0
  O  O155  1  0.89084000  0.69550000  0.54366000  1.0
  O  O156  1  0.95676000  0.25134000  0.07419000  1.0
  O  O157  1  0.04324000  0.24865000  0.57417000  1.0
  O  O158  1  0.04324000  0.74866000  0.92581000  1.0
  O  O159  1  0.95676000  0.75135000  0.42583000  1.0
  O  O160  1  0.06494000  0.08722000  0.86370000  1.0
  O  O161  1  0.93507000  0.41281000  0.36370000  1.0
  O  O162  1  0.93506000  0.91278000  0.13630000  1.0
  O  O163  1  0.06493000  0.58719000  0.63630000  1.0
  O  O164  1  0.78037000  0.24296000  0.69479000  1.0
  O  O165  1  0.21963000  0.25703000  0.19478000  1.0
  O  O166  1  0.21963000  0.75704000  0.30521000  1.0
  O  O167  1  0.78037000  0.74297000  0.80522000  1.0
  O  O168  1  0.97850000  0.10687000  0.70855000  1.0
  O  O169  1  0.02150000  0.39313000  0.20856000  1.0
  O  O170  1  0.02150000  0.89313000  0.29145000  1.0
  O  O171  1  0.97850000  0.60687000  0.79144000  1.0
  O  O172  1  0.84403000  0.45563000  0.50700000  1.0
  O  O173  1  0.15597000  0.04435000  0.00699000  1.0
  O  O174  1  0.15597000  0.54437000  0.49300000  1.0
  O  O175  1  0.84403000  0.95565000  0.99301000  1.0
