# generated using pymatgen
data_NiH15C17O8
_symmetry_space_group_name_H-M   'P 1'
_cell_length_a   10.76340000
_cell_length_b   15.58890000
_cell_length_c   16.62810000
_cell_angle_alpha   68.89180000
_cell_angle_beta   87.40090000
_cell_angle_gamma   87.36970000
_symmetry_Int_Tables_number   1
_chemical_formula_structural   NiH15C17O8
_chemical_formula_sum   'Ni4 H60 C68 O32'
_cell_volume   2598.83093000
_cell_formula_units_Z   4
loop_
 _symmetry_equiv_pos_site_id
 _symmetry_equiv_pos_as_xyz
  1  'x, y, z'
loop_
 _atom_site_type_symbol
 _atom_site_label
 _atom_site_symmetry_multiplicity
 _atom_site_fract_x
 _atom_site_fract_y
 _atom_site_fract_z
 _atom_site_occupancy
  Ni  Ni0  1  0.35932000  0.49126000  0.99473000  1.0
  Ni  Ni1  1  0.64063000  0.50874000  0.00526000  1.0
  Ni  Ni2  1  0.48097000  0.50467000  0.18097000  1.0
  Ni  Ni3  1  0.51901000  0.49533000  0.81902000  1.0
  H  H4  1  0.27976000  0.33604000  0.07745000  1.0
  H  H5  1  0.72020000  0.66394000  0.92255000  1.0
  H  H6  1  0.34486000  0.37207000  0.14208000  1.0
  H  H7  1  0.65512000  0.62793000  0.85790000  1.0
  H  H8  1  0.78972000  0.54395000  0.31184000  1.0
  H  H9  1  0.21026000  0.45606000  0.68815000  1.0
  H  H10  1  0.48859000  0.40168000  0.34159000  1.0
  H  H11  1  0.51136000  0.59832000  0.65841000  1.0
  H  H12  1  0.58039000  0.48214000  0.31345000  1.0
  H  H13  1  0.41959000  0.51785000  0.68656000  1.0
  H  H14  1  0.54678000  0.22771000  0.32460000  1.0
  H  H15  1  0.45326000  0.77229000  0.67542000  1.0
  H  H16  1  0.92412000  0.33430000  0.70203000  1.0
  H  H17  1  0.07586000  0.66571000  0.29796000  1.0
  H  H18  1  0.88983000  0.35846000  0.39688000  1.0
  H  H19  1  0.11015000  0.64156000  0.60311000  1.0
  H  H20  1  0.68763000  0.22163000  0.08128000  1.0
  H  H21  1  0.31234000  0.77837000  0.91872000  1.0
  H  H22  1  0.61121000  0.96757000  0.29136000  1.0
  H  H23  1  0.38883000  0.03243000  0.70866000  1.0
  H  H24  1  0.22332000  0.98809000  0.62318000  1.0
  H  H25  1  0.77671000  0.01191000  0.37684000  1.0
  H  H26  1  0.35084000  0.15420000  0.31692000  1.0
  H  H27  1  0.64920000  0.84579000  0.68310000  1.0
  H  H28  1  0.07007000  0.29049000  0.25209000  1.0
  H  H29  1  0.92995000  0.70949000  0.74791000  1.0
  H  H30  1  0.18289000  0.20811000  0.23765000  1.0
  H  H31  1  0.81715000  0.79187000  0.76236000  1.0
  H  H32  1  0.22778000  0.29135000  0.28210000  1.0
  H  H33  1  0.77224000  0.70864000  0.71789000  1.0
  H  H34  1  0.74605000  0.04018000  0.01673000  1.0
  H  H35  1  0.25392000  0.95983000  0.98326000  1.0
  H  H36  1  0.73897000  0.26772000  0.39094000  1.0
  H  H37  1  0.26103000  0.73229000  0.60905000  1.0
  H  H38  1  0.74860000  0.14424000  0.43672000  1.0
  H  H39  1  0.25142000  0.85576000  0.56328000  1.0
  H  H40  1  0.88861000  0.20780000  0.40398000  1.0
  H  H41  1  0.11141000  0.79221000  0.59601000  1.0
  H  H42  1  0.90440000  0.06013000  0.61035000  1.0
  H  H43  1  0.09563000  0.93987000  0.38965000  1.0
  H  H44  1  0.05351000  0.05871000  0.65480000  1.0
  H  H45  1  0.94651000  0.94129000  0.34520000  1.0
  H  H46  1  0.01487000  0.96661000  0.61969000  1.0
  H  H47  1  0.98516000  0.03339000  0.38032000  1.0
  H  H48  1  0.78946000  0.22721000  0.78675000  1.0
  H  H49  1  0.21055000  0.77278000  0.21324000  1.0
  H  H50  1  0.94244000  0.17996000  0.77702000  1.0
  H  H51  1  0.05756000  0.82004000  0.22297000  1.0
  H  H52  1  0.81022000  0.10726000  0.80316000  1.0
  H  H53  1  0.18980000  0.89273000  0.19681000  1.0
  H  H54  1  0.18338000  0.48224000  0.31164000  1.0
  H  H55  1  0.81660000  0.51778000  0.68835000  1.0
  H  H56  1  0.97940000  0.53589000  0.08086000  1.0
  H  H57  1  0.02058000  0.46409000  0.91914000  1.0
  H  H58  1  0.46758000  0.61088000  0.02721000  1.0
  H  H59  1  0.53239000  0.38912000  0.97278000  1.0
  H  H60  1  0.37583000  0.62065000  0.24405000  1.0
  H  H61  1  0.62414000  0.37934000  0.75594000  1.0
  H  H62  1  0.49294000  0.66107000  0.18769000  1.0
  H  H63  1  0.50702000  0.33894000  0.81230000  1.0
  C  C64  1  0.87525000  0.53388000  0.27823000  1.0
  C  C65  1  0.12473000  0.46613000  0.72176000  1.0
  C  C66  1  0.94703000  0.42818000  0.48017000  1.0
  C  C67  1  0.05295000  0.57183000  0.51983000  1.0
  C  C68  1  0.99204000  0.50649000  0.41326000  1.0
  C  C69  1  0.00794000  0.49352000  0.58673000  1.0
  C  C70  1  0.95560000  0.42162000  0.56835000  1.0
  C  C71  1  0.04438000  0.57840000  0.43164000  1.0
  C  C72  1  0.60875000  0.33766000  0.16315000  1.0
  C  C73  1  0.39121000  0.66233000  0.83686000  1.0
  C  C74  1  0.61630000  0.23455000  0.19951000  1.0
  C  C75  1  0.38369000  0.76545000  0.80050000  1.0
  C  C76  1  0.41425000  0.06013000  0.44083000  1.0
  C  C77  1  0.58579000  0.93987000  0.55920000  1.0
  C  C78  1  0.57699000  0.18787000  0.28488000  1.0
  C  C79  1  0.42303000  0.81213000  0.71513000  1.0
  C  C80  1  0.53568000  0.04456000  0.41167000  1.0
  C  C81  1  0.46437000  0.95544000  0.58835000  1.0
  C  C82  1  0.98704000  0.51357000  0.32205000  1.0
  C  C83  1  0.01295000  0.48645000  0.67793000  1.0
  C  C84  1  0.91332000  0.34043000  0.63546000  1.0
  C  C85  1  0.08666000  0.65959000  0.36453000  1.0
  C  C86  1  0.89432000  0.35415000  0.46340000  1.0
  C  C87  1  0.10567000  0.64587000  0.53659000  1.0
  C  C88  1  0.37805000  0.01419000  0.53019000  1.0
  C  C89  1  0.62200000  0.98581000  0.46984000  1.0
  C  C90  1  0.57515000  0.09165000  0.32007000  1.0
  C  C91  1  0.42490000  0.90834000  0.67994000  1.0
  C  C92  1  0.65628000  0.18488000  0.14749000  1.0
  C  C93  1  0.34371000  0.81511000  0.85252000  1.0
  C  C94  1  0.85096000  0.27788000  0.52906000  1.0
  C  C95  1  0.14904000  0.72214000  0.47093000  1.0
  C  C96  1  0.61292000  0.04248000  0.26685000  1.0
  C  C97  1  0.38712000  0.95750000  0.73318000  1.0
  C  C98  1  0.86263000  0.27027000  0.61744000  1.0
  C  C99  1  0.13737000  0.72974000  0.38254000  1.0
  C  C100  1  0.25238000  0.02575000  0.55681000  1.0
  C  C101  1  0.74768000  0.97425000  0.44321000  1.0
  C  C102  1  0.32409000  0.11896000  0.38429000  1.0
  C  C103  1  0.67595000  0.88104000  0.61572000  1.0
  C  C104  1  0.69278000  0.03229000  0.12853000  1.0
  C  C105  1  0.30722000  0.96771000  0.87148000  1.0
  C  C106  1  0.20498000  0.13125000  0.41275000  1.0
  C  C107  1  0.79506000  0.86874000  0.58727000  1.0
  C  C108  1  0.16688000  0.08131000  0.50079000  1.0
  C  C109  1  0.83317000  0.91868000  0.49922000  1.0
  C  C110  1  0.15236000  0.24739000  0.27890000  1.0
  C  C111  1  0.84767000  0.75260000  0.72111000  1.0
  C  C112  1  0.79374000  0.20744000  0.43170000  1.0
  C  C113  1  0.20628000  0.79257000  0.56829000  1.0
  C  C114  1  0.00289000  0.04080000  0.60716000  1.0
  C  C115  1  0.99714000  0.95919000  0.39286000  1.0
  C  C116  1  0.65378000  0.08862000  0.18125000  1.0
  C  C117  1  0.34624000  0.91137000  0.81877000  1.0
  C  C118  1  0.84287000  0.17632000  0.76597000  1.0
  C  C119  1  0.15714000  0.82367000  0.23402000  1.0
  C  C120  1  0.09586000  0.50032000  0.27808000  1.0
  C  C121  1  0.90413000  0.49970000  0.72192000  1.0
  C  C122  1  0.09378000  0.50958000  0.19122000  1.0
  C  C123  1  0.90621000  0.49042000  0.80878000  1.0
  C  C124  1  0.98166000  0.53039000  0.14792000  1.0
  C  C125  1  0.01832000  0.46961000  0.85207000  1.0
  C  C126  1  0.87165000  0.54123000  0.19181000  1.0
  C  C127  1  0.12833000  0.45877000  0.80818000  1.0
  C  C128  1  0.21087000  0.49413000  0.14594000  1.0
  C  C129  1  0.78911000  0.50587000  0.85406000  1.0
  C  C130  1  0.75039000  0.55439000  0.14743000  1.0
  C  C131  1  0.24958000  0.44561000  0.85256000  1.0
  O  O132  1  0.65764000  0.37726000  0.08891000  1.0
  O  O133  1  0.34228000  0.62273000  0.91109000  1.0
  O  O134  1  0.36009000  0.35225000  0.09178000  1.0
  O  O135  1  0.63988000  0.64775000  0.90821000  1.0
  O  O136  1  0.49156000  0.46843000  0.32362000  1.0
  O  O137  1  0.50841000  0.53157000  0.67638000  1.0
  O  O138  1  0.11477000  0.18755000  0.36327000  1.0
  O  O139  1  0.88528000  0.81244000  0.63675000  1.0
  O  O140  1  0.79724000  0.20577000  0.51819000  1.0
  O  O141  1  0.20276000  0.79424000  0.48180000  1.0
  O  O142  1  0.04539000  0.09336000  0.52116000  1.0
  O  O143  1  0.95465000  0.90665000  0.47884000  1.0
  O  O144  1  0.65069000  0.55421000  0.19349000  1.0
  O  O145  1  0.34928000  0.44578000  0.80651000  1.0
  O  O146  1  0.82265000  0.18996000  0.67789000  1.0
  O  O147  1  0.17736000  0.81004000  0.32210000  1.0
  O  O148  1  0.72269000  0.08441000  0.04466000  1.0
  O  O149  1  0.27731000  0.91559000  0.95534000  1.0
  O  O150  1  0.69866000  0.94807000  0.15478000  1.0
  O  O151  1  0.30134000  0.05192000  0.84522000  1.0
  O  O152  1  0.55003000  0.37615000  0.21048000  1.0
  O  O153  1  0.44995000  0.62385000  0.78953000  1.0
  O  O154  1  0.48105000  0.54457000  0.05507000  1.0
  O  O155  1  0.51892000  0.45543000  0.94491000  1.0
  O  O156  1  0.75482000  0.56203000  0.06890000  1.0
  O  O157  1  0.24515000  0.43796000  0.93109000  1.0
  O  O158  1  0.21052000  0.51738000  0.06478000  1.0
  O  O159  1  0.78945000  0.48261000  0.93521000  1.0
  O  O160  1  0.30335000  0.45400000  0.19442000  1.0
  O  O161  1  0.69665000  0.54600000  0.80557000  1.0
  O  O162  1  0.41072000  0.63792000  0.18533000  1.0
  O  O163  1  0.58925000  0.36207000  0.81466000  1.0
