# generated using pymatgen
data_CdH22C20(NO)4
_symmetry_space_group_name_H-M   'P 1'
_cell_length_a   8.66702000
_cell_length_b   8.68401000
_cell_length_c   13.41060000
_cell_angle_alpha   94.44130000
_cell_angle_beta   94.45010000
_cell_angle_gamma   95.81710000
_symmetry_Int_Tables_number   1
_chemical_formula_structural   CdH22C20(NO)4
_chemical_formula_sum   'Cd2 H44 C40 N8 O8'
_cell_volume   997.40791253
_cell_formula_units_Z   2
loop_
 _symmetry_equiv_pos_site_id
 _symmetry_equiv_pos_as_xyz
  1  'x, y, z'
loop_
 _atom_site_type_symbol
 _atom_site_label
 _atom_site_symmetry_multiplicity
 _atom_site_fract_x
 _atom_site_fract_y
 _atom_site_fract_z
 _atom_site_occupancy
  Cd  Cd0  1  0.76691000  0.23312000  0.74986000  1.0
  Cd  Cd1  1  0.23309000  0.76688000  0.25014000  1.0
  H  H2  1  0.36007000  0.02564000  0.94285000  1.0
  H  H3  1  0.97419000  0.63986000  0.55710000  1.0
  H  H4  1  0.63993000  0.97436000  0.05715000  1.0
  H  H5  1  0.02581000  0.36014000  0.44291000  1.0
  H  H6  1  0.24944000  0.11091000  0.84744000  1.0
  H  H7  1  0.88846000  0.75015000  0.65242000  1.0
  H  H8  1  0.75056000  0.88909000  0.15256000  1.0
  H  H9  1  0.11154000  0.24985000  0.34758000  1.0
  H  H10  1  0.52546000  0.79981000  0.84598000  1.0
  H  H11  1  0.20027000  0.47508000  0.65420000  1.0
  H  H12  1  0.47454000  0.20019000  0.15402000  1.0
  H  H13  1  0.79973000  0.52492000  0.34580000  1.0
  H  H14  1  0.46004000  0.54044000  0.75013000  1.0
  H  H15  1  0.53996000  0.45956000  0.24987000  1.0
  H  H16  1  0.07364000  0.92603000  0.74989000  1.0
  H  H17  1  0.92636000  0.07397000  0.25011000  1.0
  H  H18  1  0.90720000  0.12632000  0.52277000  1.0
  H  H19  1  0.87366000  0.09276000  0.97709000  1.0
  H  H20  1  0.09280000  0.87368000  0.47723000  1.0
  H  H21  1  0.12634000  0.90724000  0.02291000  1.0
  H  H22  1  0.74895000  0.88444000  0.39047000  1.0
  H  H23  1  0.11557000  0.25117000  0.10952000  1.0
  H  H24  1  0.25105000  0.11556000  0.60953000  1.0
  H  H25  1  0.88443000  0.74883000  0.89048000  1.0
  H  H26  1  0.54664000  0.89577000  0.66732000  1.0
  H  H27  1  0.10409000  0.45322000  0.83274000  1.0
  H  H28  1  0.45336000  0.10423000  0.33268000  1.0
  H  H29  1  0.89591000  0.54678000  0.16726000  1.0
  H  H30  1  0.49670000  0.71508000  0.39913000  1.0
  H  H31  1  0.28485000  0.50334000  0.10093000  1.0
  H  H32  1  0.50330000  0.28492000  0.60087000  1.0
  H  H33  1  0.71515000  0.49666000  0.89907000  1.0
  H  H34  1  0.39378000  0.73816000  0.50800000  1.0
  H  H35  1  0.26155000  0.60598000  0.99200000  1.0
  H  H36  1  0.60622000  0.26184000  0.49200000  1.0
  H  H37  1  0.73845000  0.39402000  0.00800000  1.0
  H  H38  1  0.58092000  0.58033000  0.59938000  1.0
  H  H39  1  0.41958000  0.41916000  0.90064000  1.0
  H  H40  1  0.41908000  0.41967000  0.40062000  1.0
  H  H41  1  0.58042000  0.58084000  0.09936000  1.0
  H  H42  1  0.67233000  0.54869000  0.48744000  1.0
  H  H43  1  0.45140000  0.32801000  0.01259000  1.0
  H  H44  1  0.32768000  0.45131000  0.51256000  1.0
  H  H45  1  0.54859000  0.67199000  0.98741000  1.0
  C  C46  1  0.49567000  0.11627000  0.82913000  1.0
  C  C47  1  0.88351000  0.50437000  0.67085000  1.0
  C  C48  1  0.50433000  0.88373000  0.17087000  1.0
  C  C49  1  0.11649000  0.49563000  0.32915000  1.0
  C  C50  1  0.34390000  0.03835000  0.86171000  1.0
  C  C51  1  0.96133000  0.65598000  0.63822000  1.0
  C  C52  1  0.65610000  0.96165000  0.13829000  1.0
  C  C53  1  0.03867000  0.34402000  0.36178000  1.0
  C  C54  1  0.30371000  0.87972000  0.80478000  1.0
  C  C55  1  0.12019000  0.69638000  0.69520000  1.0
  C  C56  1  0.69629000  0.12027000  0.19522000  1.0
  C  C57  1  0.87981000  0.30362000  0.30479000  1.0
  C  C58  1  0.41159000  0.76955000  0.80470000  1.0
  C  C59  1  0.23059000  0.58876000  0.69544000  1.0
  C  C60  1  0.58841000  0.23045000  0.19530000  1.0
  C  C61  1  0.76941000  0.41124000  0.30456000  1.0
  C  C62  1  0.37520000  0.62516000  0.75009000  1.0
  C  C63  1  0.62480000  0.37484000  0.24991000  1.0
  C  C64  1  0.15870000  0.84121000  0.74994000  1.0
  C  C65  1  0.84130000  0.15879000  0.25006000  1.0
  C  C66  1  0.81086000  0.04123000  0.53332000  1.0
  C  C67  1  0.95873000  0.18902000  0.96657000  1.0
  C  C68  1  0.18914000  0.95877000  0.46668000  1.0
  C  C69  1  0.04127000  0.81098000  0.03343000  1.0
  C  C70  1  0.73451000  0.92339000  0.46765000  1.0
  C  C71  1  0.07654000  0.26558000  0.03237000  1.0
  C  C72  1  0.26549000  0.07661000  0.53235000  1.0
  C  C73  1  0.92346000  0.73442000  0.96763000  1.0
  C  C74  1  0.62560000  0.92737000  0.61154000  1.0
  C  C75  1  0.07246000  0.37432000  0.88847000  1.0
  C  C76  1  0.37440000  0.07263000  0.38846000  1.0
  C  C77  1  0.92754000  0.62568000  0.11153000  1.0
  C  C78  1  0.50749000  0.71853000  0.48133000  1.0
  C  C79  1  0.28125000  0.49251000  0.01873000  1.0
  C  C80  1  0.49251000  0.28147000  0.51867000  1.0
  C  C81  1  0.71875000  0.50749000  0.98127000  1.0
  C  C82  1  0.56040000  0.56867000  0.51705000  1.0
  C  C83  1  0.43128000  0.43969000  0.98296000  1.0
  C  C84  1  0.43960000  0.43133000  0.48295000  1.0
  C  C85  1  0.56872000  0.56031000  0.01704000  1.0
  N  N86  1  0.74173000  0.04209000  0.62291000  1.0
  N  N87  1  0.95786000  0.25811000  0.87700000  1.0
  N  N88  1  0.25827000  0.95792000  0.37709000  1.0
  N  N89  1  0.04214000  0.74189000  0.12300000  1.0
  N  N90  1  0.61731000  0.85338000  0.51839000  1.0
  N  N91  1  0.14634000  0.38279000  0.98169000  1.0
  N  N92  1  0.38269000  0.14662000  0.48161000  1.0
  N  N93  1  0.85366000  0.61721000  0.01831000  1.0
  O  O94  1  0.62326000  0.07489000  0.86583000  1.0
  O  O95  1  0.92501000  0.37706000  0.63409000  1.0
  O  O96  1  0.37674000  0.92511000  0.13417000  1.0
  O  O97  1  0.07499000  0.62294000  0.36592000  1.0
  O  O98  1  0.48915000  0.21500000  0.76315000  1.0
  O  O99  1  0.78478000  0.51073000  0.73692000  1.0
  O  O100  1  0.51085000  0.78500000  0.23685000  1.0
  O  O101  1  0.21522000  0.48928000  0.26308000  1.0
