# generated using pymatgen
data_Zn4H6C24S4N2O21
_symmetry_space_group_name_H-M   'P 1'
_cell_length_a   19.62310000
_cell_length_b   19.73310000
_cell_length_c   33.28660000
_cell_angle_alpha   79.09560000
_cell_angle_beta   79.40210000
_cell_angle_gamma   64.07540000
_symmetry_Int_Tables_number   1
_chemical_formula_structural   Zn4H6C24S4N2O21
_chemical_formula_sum   'Zn16 H24 C96 S16 N8 O84'
_cell_volume   11308.02147660
_cell_formula_units_Z   4
loop_
 _symmetry_equiv_pos_site_id
 _symmetry_equiv_pos_as_xyz
  1  'x, y, z'
loop_
 _atom_site_type_symbol
 _atom_site_label
 _atom_site_symmetry_multiplicity
 _atom_site_fract_x
 _atom_site_fract_y
 _atom_site_fract_z
 _atom_site_occupancy
  Zn  Zn0  1  0.05773000  0.40085000  0.47825000  1.0
  Zn  Zn1  1  0.98323000  0.48305000  0.56032000  1.0
  Zn  Zn2  1  0.06063000  0.55984000  0.48184000  1.0
  Zn  Zn3  1  0.89969000  0.55463000  0.48002000  1.0
  Zn  Zn4  1  0.69315000  0.35029000  0.27045000  1.0
  Zn  Zn5  1  0.69204000  0.18737000  0.26755000  1.0
  Zn  Zn6  1  0.76668000  0.26942000  0.18964000  1.0
  Zn  Zn7  1  0.84777000  0.19329000  0.27265000  1.0
  Zn  Zn8  1  0.26563000  0.76792000  0.68957000  1.0
  Zn  Zn9  1  0.34984000  0.69455000  0.77116000  1.0
  Zn  Zn10  1  0.19303000  0.84972000  0.77030000  1.0
  Zn  Zn11  1  0.19241000  0.68721000  0.76810000  1.0
  Zn  Zn12  1  0.56024000  0.06059000  0.98243000  1.0
  Zn  Zn13  1  0.40002000  0.05508000  0.97855000  1.0
  Zn  Zn14  1  0.55863000  0.90200000  0.97830000  1.0
  Zn  Zn15  1  0.47867000  0.98522000  0.06029000  1.0
  H  H16  1  0.74800000  0.45241000  0.35023000  1.0
  H  H17  1  0.00112000  0.29782000  0.40008000  1.0
  H  H18  1  0.20064000  0.70059000  0.59945000  1.0
  H  H19  1  0.04987000  0.54865000  0.65055000  1.0
  H  H20  1  0.65049000  0.15129000  0.04925000  1.0
  H  H21  1  0.59968000  0.09862000  0.20081000  1.0
  H  H22  1  0.29879000  0.99977000  0.90024000  1.0
  H  H23  1  0.45182000  0.74906000  0.84986000  1.0
  H  H24  1  0.32788000  0.53966000  0.39838000  1.0
  H  H25  1  0.42400000  0.20867000  0.35143000  1.0
  H  H26  1  0.75429000  0.54217000  0.68520000  1.0
  H  H27  1  0.49418000  0.70744000  0.56554000  1.0
  H  H28  1  0.04295000  0.25501000  0.68369000  1.0
  H  H29  1  0.20783000  0.99628000  0.56525000  1.0
  H  H30  1  0.74526000  0.81199000  0.38636000  1.0
  H  H31  1  0.00449000  0.93327000  0.36448000  1.0
  H  H32  1  0.70612000  0.49723000  0.06573000  1.0
  H  H33  1  0.54233000  0.75817000  0.18353000  1.0
  H  H34  1  0.14612000  0.08126000  0.22084000  1.0
  H  H35  1  0.09770000  0.17306000  0.03064000  1.0
  H  H36  1  0.50838000  0.43151000  0.86361000  1.0
  H  H37  1  0.24486000  0.31667000  0.88671000  1.0
  H  H38  1  0.92253000  0.71025000  0.85021000  1.0
  H  H39  1  0.83102000  0.04005000  0.89752000  1.0
  C  C40  1  0.06292000  0.31690000  0.56161000  1.0
  C  C41  1  0.07019000  0.56842000  0.56847000  1.0
  C  C42  1  0.18453000  0.43927000  0.43743000  1.0
  C  C43  1  0.93632000  0.68280000  0.43962000  1.0
  C  C44  1  0.93111000  0.42946000  0.43196000  1.0
  C  C45  1  0.81634000  0.56027000  0.56308000  1.0
  C  C46  1  0.56696000  0.30953000  0.31089000  1.0
  C  C47  1  0.68117000  0.18122000  0.18114000  1.0
  C  C48  1  0.68872000  0.43597000  0.18779000  1.0
  C  C49  1  0.93273000  0.18934000  0.18997000  1.0
  C  C50  1  0.81686000  0.31952000  0.31958000  1.0
  C  C51  1  0.81299000  0.06367000  0.31175000  1.0
  C  C52  1  0.43238000  0.68971000  0.68768000  1.0
  C  C53  1  0.31921000  0.81979000  0.81817000  1.0
  C  C54  1  0.18789000  0.93413000  0.68731000  1.0
  C  C55  1  0.06748000  0.80892000  0.81101000  1.0
  C  C56  1  0.18151000  0.67969000  0.68152000  1.0
  C  C57  1  0.31567000  0.56521000  0.81192000  1.0
  C  C58  1  0.43738000  0.18309000  0.93835000  1.0
  C  C59  1  0.43236000  0.93014000  0.93092000  1.0
  C  C60  1  0.68593000  0.94131000  0.93845000  1.0
  C  C61  1  0.55982000  0.81867000  0.06145000  1.0
  C  C62  1  0.56704000  0.07061000  0.06893000  1.0
  C  C63  1  0.31215000  0.06292000  0.06054000  1.0
  C  C64  1  0.90169000  0.40341000  0.40199000  1.0
  C  C65  1  0.84849000  0.34788000  0.34728000  1.0
  C  C66  1  0.83076000  0.44632000  0.38704000  1.0
  C  C67  1  0.92023000  0.30576000  0.36144000  1.0
  C  C68  1  0.80392000  0.41893000  0.36084000  1.0
  C  C69  1  0.94594000  0.33205000  0.38875000  1.0
  C  C70  1  0.09780000  0.59927000  0.59692000  1.0
  C  C71  1  0.15068000  0.65197000  0.65310000  1.0
  C  C72  1  0.13977000  0.64301000  0.58327000  1.0
  C  C73  1  0.10727000  0.60966000  0.66675000  1.0
  C  C74  1  0.16690000  0.66787000  0.61058000  1.0
  C  C75  1  0.08231000  0.58266000  0.63943000  1.0
  C  C76  1  0.30557000  0.45385000  0.40004000  1.0
  C  C77  1  0.44616000  0.29477000  0.34872000  1.0
  C  C78  1  0.25902000  0.41497000  0.41295000  1.0
  C  C79  1  0.49276000  0.33356000  0.33575000  1.0
  C  C80  1  0.37813000  0.33866000  0.37247000  1.0
  C  C81  1  0.37418000  0.40951000  0.37681000  1.0
  C  C82  1  0.72519000  0.57669000  0.63068000  1.0
  C  C83  1  0.52346000  0.67351000  0.62005000  1.0
  C  C84  1  0.74224000  0.58535000  0.58793000  1.0
  C  C85  1  0.50643000  0.66525000  0.66283000  1.0
  C  C86  1  0.60351000  0.64164000  0.60840000  1.0
  C  C87  1  0.64520000  0.60955000  0.64230000  1.0
  C  C88  1  0.07756000  0.22593000  0.62938000  1.0
  C  C89  1  0.17309000  0.02510000  0.61958000  1.0
  C  C90  1  0.08659000  0.24297000  0.58660000  1.0
  C  C91  1  0.16372000  0.00809000  0.66234000  1.0
  C  C92  1  0.14099000  0.10476000  0.60765000  1.0
  C  C93  1  0.10874000  0.14623000  0.64132000  1.0
  C  C94  1  0.84271000  0.79917000  0.39757000  1.0
  C  C95  1  0.90641000  0.94705000  0.35378000  1.0
  C  C96  1  0.91098000  0.75708000  0.41499000  1.0
  C  C97  1  0.83794000  0.98954000  0.33658000  1.0
  C  C98  1  0.90774000  0.87773000  0.37623000  1.0
  C  C99  1  0.84110000  0.86877000  0.37539000  1.0
  C  C100  1  0.65457000  0.15124000  0.15169000  1.0
  C  C101  1  0.59769000  0.09655000  0.09837000  1.0
  C  C102  1  0.66888000  0.16451000  0.10874000  1.0
  C  C103  1  0.58497000  0.08170000  0.14131000  1.0
  C  C104  1  0.64012000  0.13906000  0.08253000  1.0
  C  C105  1  0.61151000  0.10938000  0.16753000  1.0
  C  C106  1  0.67312000  0.52693000  0.11998000  1.0
  C  C107  1  0.57514000  0.72802000  0.12935000  1.0
  C  C108  1  0.66414000  0.50999000  0.16280000  1.0
  C  C109  1  0.58392000  0.74475000  0.08652000  1.0
  C  C110  1  0.60751000  0.64833000  0.14146000  1.0
  C  C111  1  0.64027000  0.60662000  0.10790000  1.0
  C  C112  1  0.07972000  0.12560000  0.17845000  1.0
  C  C113  1  0.16509000  0.12611000  0.07236000  1.0
  C  C114  1  0.00709000  0.16367000  0.16539000  1.0
  C  C115  1  0.23783000  0.08775000  0.08520000  1.0
  C  C116  1  0.10756000  0.13930000  0.10650000  1.0
  C  C117  1  0.13743000  0.11149000  0.14434000  1.0
  C  C118  1  0.34608000  0.84841000  0.84813000  1.0
  C  C119  1  0.40348000  0.89935000  0.90301000  1.0
  C  C120  1  0.30358000  0.91863000  0.86320000  1.0
  C  C121  1  0.44519000  0.82835000  0.88872000  1.0
  C  C122  1  0.33186000  0.94439000  0.88949000  1.0
  C  C123  1  0.41801000  0.80369000  0.86134000  1.0
  C  C124  1  0.40928000  0.44761000  0.85350000  1.0
  C  C125  1  0.34405000  0.30064000  0.89669000  1.0
  C  C126  1  0.34069000  0.49095000  0.83662000  1.0
  C  C127  1  0.41247000  0.25747000  0.91378000  1.0
  C  C128  1  0.34286000  0.37035000  0.87494000  1.0
  C  C129  1  0.41005000  0.37837000  0.87569000  1.0
  C  C130  1  0.94614000  0.79519000  0.84887000  1.0
  C  C131  1  0.80754000  0.95471000  0.90055000  1.0
  C  C132  1  0.99348000  0.83326000  0.83598000  1.0
  C  C133  1  0.76026000  0.91669000  0.91370000  1.0
  C  C134  1  0.87558000  0.90992000  0.87713000  1.0
  C  C135  1  0.87841000  0.83953000  0.87272000  1.0
  S  S136  1  0.29903000  0.32486000  0.39688000  1.0
  S  S137  1  0.45343000  0.42312000  0.35247000  1.0
  S  S138  1  0.66102000  0.63311000  0.56215000  1.0
  S  S139  1  0.58777000  0.61876000  0.68859000  1.0
  S  S140  1  0.13288000  0.16206000  0.56120000  1.0
  S  S141  1  0.11623000  0.08891000  0.68774000  1.0
  S  S142  1  0.97257000  0.80233000  0.40438000  1.0
  S  S143  1  0.77583000  0.94481000  0.34777000  1.0
  S  S144  1  0.61571000  0.59112000  0.18798000  1.0
  S  S145  1  0.63141000  0.66364000  0.06132000  1.0
  S  S146  1  0.00936000  0.18178000  0.11186000  1.0
  S  S147  1  0.23568000  0.06818000  0.13876000  1.0
  S  S148  1  0.27774000  0.44724000  0.84774000  1.0
  S  S149  1  0.47486000  0.30182000  0.90327000  1.0
  S  S150  1  0.95542000  0.92255000  0.85292000  1.0
  S  S151  1  0.79888000  0.82678000  0.89741000  1.0
  N  N152  1  0.78086000  0.52444000  0.39697000  1.0
  N  N153  1  0.97453000  0.23191000  0.34729000  1.0
  N  N154  1  0.15562000  0.66798000  0.53905000  1.0
  N  N155  1  0.08274000  0.59326000  0.71096000  1.0
  N  N156  1  0.71755000  0.20417000  0.08842000  1.0
  N  N157  1  0.54465000  0.03371000  0.16169000  1.0
  N  N158  1  0.22515000  0.96909000  0.85309000  1.0
  N  N159  1  0.51968000  0.77391000  0.90273000  1.0
  O  O160  1  0.00072000  0.49903000  0.49989000  1.0
  O  O161  1  0.07434000  0.31584000  0.52239000  1.0
  O  O162  1  0.02427000  0.53882000  0.58529000  1.0
  O  O163  1  0.15403000  0.50680000  0.44691000  1.0
  O  O164  1  0.03349000  0.37549000  0.58061000  1.0
  O  O165  1  0.15629000  0.38975000  0.44713000  1.0
  O  O166  1  0.09575000  0.57397000  0.53066000  1.0
  O  O167  1  0.00101000  0.65904000  0.45342000  1.0
  O  O168  1  0.88384000  0.48822000  0.44827000  1.0
  O  O169  1  0.89300000  0.64806000  0.44521000  1.0
  O  O170  1  0.00026000  0.38955000  0.43847000  1.0
  O  O171  1  0.87543000  0.52199000  0.58188000  1.0
  O  O172  1  0.81489000  0.57928000  0.52405000  1.0
  O  O173  1  0.74912000  0.25077000  0.25017000  1.0
  O  O174  1  0.59862000  0.35607000  0.30488000  1.0
  O  O175  1  0.67292000  0.15600000  0.21897000  1.0
  O  O176  1  0.72729000  0.37745000  0.16910000  1.0
  O  O177  1  0.59343000  0.24538000  0.29740000  1.0
  O  O178  1  0.66912000  0.43658000  0.22685000  1.0
  O  O179  1  0.70825000  0.22943000  0.16556000  1.0
  O  O180  1  0.87460000  0.21941000  0.16958000  1.0
  O  O181  1  0.85353000  0.25013000  0.31409000  1.0
  O  O182  1  0.93175000  0.18023000  0.22904000  1.0
  O  O183  1  0.75593000  0.36745000  0.30480000  1.0
  O  O184  1  0.74494000  0.09164000  0.30153000  1.0
  O  O185  1  0.86013000  0.09422000  0.30228000  1.0
  O  O186  1  0.25018000  0.75008000  0.75001000  1.0
  O  O187  1  0.37318000  0.71864000  0.66868000  1.0
  O  O188  1  0.36043000  0.75174000  0.81088000  1.0
  O  O189  1  0.16831000  0.93501000  0.72627000  1.0
  O  O190  1  0.43398000  0.67939000  0.72687000  1.0
  O  O191  1  0.22603000  0.87563000  0.66853000  1.0
  O  O192  1  0.25864000  0.86630000  0.80274000  1.0
  O  O193  1  0.09948000  0.85521000  0.80497000  1.0
  O  O194  1  0.17717000  0.65326000  0.71930000  1.0
  O  O195  1  0.09372000  0.74488000  0.79738000  1.0
  O  O196  1  0.20988000  0.72654000  0.66473000  1.0
  O  O197  1  0.36291000  0.59570000  0.80195000  1.0
  O  O198  1  0.24726000  0.59311000  0.80241000  1.0
  O  O199  1  0.49982000  0.00044000  0.99981000  1.0
  O  O200  1  0.50193000  0.15908000  0.95231000  1.0
  O  O201  1  0.38425000  0.99104000  0.94510000  1.0
  O  O202  1  0.65701000  0.89240000  0.94761000  1.0
  O  O203  1  0.39386000  0.14866000  0.94367000  1.0
  O  O204  1  0.65621000  0.00832000  0.94878000  1.0
  O  O205  1  0.50183000  0.89323000  0.93720000  1.0
  O  O206  1  0.57415000  0.81737000  0.02224000  1.0
  O  O207  1  0.51970000  0.04231000  0.08456000  1.0
  O  O208  1  0.52724000  0.87745000  0.08034000  1.0
  O  O209  1  0.59105000  0.08032000  0.03105000  1.0
  O  O210  1  0.31355000  0.07984000  0.02150000  1.0
  O  O211  1  0.37018000  0.02585000  0.08073000  1.0
  O  O212  1  0.80003000  0.57515000  0.37891000  1.0
  O  O213  1  0.72208000  0.53274000  0.42060000  1.0
  O  O214  1  0.00809000  0.23435000  0.31221000  1.0
  O  O215  1  0.98496000  0.17482000  0.37263000  1.0
  O  O216  1  0.10194000  0.72028000  0.52258000  1.0
  O  O217  1  0.22209000  0.63742000  0.52312000  1.0
  O  O218  1  0.03025000  0.64631000  0.72740000  1.0
  O  O219  1  0.11387000  0.52693000  0.72691000  1.0
  O  O220  1  0.78695000  0.16784000  0.08937000  1.0
  O  O221  1  0.68497000  0.26842000  0.07027000  1.0
  O  O222  1  0.58109000  0.96450000  0.16169000  1.0
  O  O223  1  0.47974000  0.06670000  0.17900000  1.0
  O  O224  1  0.17373000  0.95124000  0.87165000  1.0
  O  O225  1  0.21741000  0.02693000  0.82877000  1.0
  O  O226  1  0.51796000  0.73978000  0.93777000  1.0
  O  O227  1  0.57661000  0.76412000  0.87734000  1.0
  O  O228  1  0.28627000  0.52446000  0.40906000  1.0
  O  O229  1  0.46490000  0.22431000  0.33950000  1.0
  O  O230  1  0.77910000  0.54137000  0.65698000  1.0
  O  O231  1  0.46949000  0.70803000  0.59378000  1.0
  O  O232  1  0.04304000  0.27961000  0.65539000  1.0
  O  O233  1  0.20820000  0.97151000  0.59352000  1.0
  O  O234  1  0.78641000  0.77535000  0.40206000  1.0
  O  O235  1  0.96304000  0.97044000  0.34913000  1.0
  O  O236  1  0.70870000  0.47312000  0.09415000  1.0
  O  O237  1  0.53981000  0.78203000  0.15508000  1.0
  O  O238  1  0.09153000  0.10530000  0.21860000  1.0
  O  O239  1  0.15248000  0.14732000  0.03227000  1.0
  O  O240  1  0.46668000  0.47009000  0.84893000  1.0
  O  O241  1  0.28707000  0.27773000  0.90092000  1.0
  O  O242  1  0.96438000  0.72507000  0.83946000  1.0
  O  O243  1  0.78958000  0.02522000  0.90945000  1.0
