# generated using pymatgen
data_CuH9C12INO
_symmetry_space_group_name_H-M   'P 1'
_cell_length_a   3.99030000
_cell_length_b   8.13965857
_cell_length_c   18.01410000
_cell_angle_alpha   92.18176750
_cell_angle_beta   90.03550000
_cell_angle_gamma   103.87070720
_symmetry_Int_Tables_number   1
_chemical_formula_structural   CuH9C12INO
_chemical_formula_sum   'Cu2 H18 C24 I2 N2 O2'
_cell_volume   567.59000380
_cell_formula_units_Z   2
loop_
 _symmetry_equiv_pos_site_id
 _symmetry_equiv_pos_as_xyz
  1  'x, y, z'
loop_
 _atom_site_type_symbol
 _atom_site_label
 _atom_site_symmetry_multiplicity
 _atom_site_fract_x
 _atom_site_fract_y
 _atom_site_fract_z
 _atom_site_occupancy
  Cu  Cu0  1  0.48703000  0.52294000  0.45452000  1.0
  Cu  Cu1  1  0.96534000  0.47724000  0.54487000  1.0
  H  H2  1  0.38960000  0.51510000  0.29456000  1.0
  H  H3  1  0.85980000  0.48402000  0.70413000  1.0
  H  H4  1  0.97950000  0.86461000  0.44421000  1.0
  H  H5  1  0.12071000  0.13466000  0.55637000  1.0
  H  H6  1  0.31520000  0.51754000  0.04196000  1.0
  H  H7  1  0.79751000  0.48733000  0.95872000  1.0
  H  H8  1  0.29377000  0.03693000  0.34231000  1.0
  H  H9  1  0.26043000  0.96324000  0.65926000  1.0
  H  H10  1  0.14147000  0.93667000  0.20907000  1.0
  H  H11  1  0.19745000  0.06426000  0.79209000  1.0
  H  H12  1  0.82887000  0.39716000  0.23602000  1.0
  H  H13  1  0.41930000  0.59890000  0.76293000  1.0
  H  H14  1  0.72125000  0.09915000  0.18988000  1.0
  H  H15  1  0.62500000  0.89633000  0.80910000  1.0
  H  H16  1  0.40806000  0.00635000  0.07203000  1.0
  H  H17  1  0.42149000  0.99223000  0.92828000  1.0
  H  H18  1  0.19408000  0.21619000  0.99696000  1.0
  H  H19  1  0.99337000  0.78777000  0.00383000  1.0
  C  C20  1  0.59425000  0.63061000  0.30210000  1.0
  C  C21  1  0.95299000  0.36881000  0.69727000  1.0
  C  C22  1  0.65621000  0.66030000  0.16309000  1.0
  C  C23  1  0.97929000  0.34079000  0.83648000  1.0
  C  C24  1  0.57683000  0.47753000  0.14154000  1.0
  C  C25  1  0.09223000  0.52307000  0.85827000  1.0
  C  C26  1  0.92017000  0.82745000  0.38593000  1.0
  C  C27  1  0.09309000  0.17193000  0.61445000  1.0
  C  C28  1  0.75769000  0.71700000  0.24154000  1.0
  C  C29  1  0.02845000  0.28297000  0.75834000  1.0
  C  C30  1  0.40046000  0.42402000  0.07399000  1.0
  C  C31  1  0.97734000  0.57873000  0.92635000  1.0
  C  C32  1  0.09435000  0.92240000  0.32875000  1.0
  C  C33  1  0.17095000  0.07742000  0.67219000  1.0
  C  C34  1  0.01123000  0.86730000  0.25560000  1.0
  C  C35  1  0.13704000  0.13295000  0.74512000  1.0
  C  C36  1  0.68670000  0.35842000  0.18406000  1.0
  C  C37  1  0.32277000  0.63955000  0.81537000  1.0
  C  C38  1  0.62529000  0.19023000  0.15839000  1.0
  C  C39  1  0.43835000  0.80720000  0.84108000  1.0
  C  C40  1  0.45027000  0.13840000  0.09114000  1.0
  C  C41  1  0.32351000  0.86098000  0.90896000  1.0
  C  C42  1  0.33494000  0.25548000  0.04908000  1.0
  C  C43  1  0.08975000  0.74665000  0.95139000  1.0
  I  I44  1  0.59002000  0.69357000  0.58083000  1.0
  I  I45  1  0.90176000  0.30598000  0.41881000  1.0
  N  N46  1  0.67201000  0.68441000  0.37304000  1.0
  N  N47  1  0.98386000  0.31495000  0.62657000  1.0
  O  O48  1  0.64391000  0.76914000  0.11746000  1.0
  O  O49  1  0.84881000  0.23316000  0.88172000  1.0
