# generated using pymatgen
data_CuH32C27IN4
_symmetry_space_group_name_H-M   'P 1'
_cell_length_a   9.95204000
_cell_length_b   12.12370000
_cell_length_c   12.95139348
_cell_angle_alpha   116.86964050
_cell_angle_beta   95.55577784
_cell_angle_gamma   109.07500000
_symmetry_Int_Tables_number   1
_chemical_formula_structural   CuH32C27IN4
_chemical_formula_sum   'Cu2 H64 C54 I2 N8'
_cell_volume   1260.78037944
_cell_formula_units_Z   2
loop_
 _symmetry_equiv_pos_site_id
 _symmetry_equiv_pos_as_xyz
  1  'x, y, z'
loop_
 _atom_site_type_symbol
 _atom_site_label
 _atom_site_symmetry_multiplicity
 _atom_site_fract_x
 _atom_site_fract_y
 _atom_site_fract_z
 _atom_site_occupancy
  Cu  Cu0  1  0.43085000  0.44369000  0.55957000  1.0
  Cu  Cu1  1  0.56915000  0.55631000  0.44043000  1.0
  H  H2  1  0.36925000  0.15082000  0.43638000  1.0
  H  H3  1  0.63075000  0.84918000  0.56362000  1.0
  H  H4  1  0.14863000  0.92916000  0.34563000  1.0
  H  H5  1  0.85138000  0.07085000  0.65438000  1.0
  H  H6  1  0.87579000  0.15305000  0.42435000  1.0
  H  H7  1  0.12421000  0.84695000  0.57565000  1.0
  H  H8  1  0.10818000  0.36565000  0.51347000  1.0
  H  H9  1  0.89182000  0.63435000  0.48653000  1.0
  H  H10  1  0.76875000  0.90623000  0.36107000  1.0
  H  H11  1  0.23126000  0.09378000  0.63894000  1.0
  H  H12  1  0.88206000  0.81555000  0.33295000  1.0
  H  H13  1  0.11795000  0.18445000  0.66705000  1.0
  H  H14  1  0.77685000  0.90583000  0.16549000  1.0
  H  H15  1  0.22315000  0.09417000  0.83451000  1.0
  H  H16  1  0.88528000  0.81132000  0.13977000  1.0
  H  H17  1  0.11472000  0.18868000  0.86023000  1.0
  H  H18  1  0.68302000  0.62684000  0.14442000  1.0
  H  H19  1  0.31698000  0.37316000  0.85558000  1.0
  H  H20  1  0.57085000  0.71836000  0.16728000  1.0
  H  H21  1  0.42914000  0.28163000  0.83271000  1.0
  H  H22  1  0.75258000  0.53856000  0.94512000  1.0
  H  H23  1  0.24742000  0.46144000  0.05488000  1.0
  H  H24  1  0.66148000  0.44649000  0.72525000  1.0
  H  H25  1  0.33852000  0.55351000  0.27475000  1.0
  H  H26  1  0.35392000  0.61367000  0.77256000  1.0
  H  H27  1  0.64608000  0.38633000  0.22744000  1.0
  H  H28  1  0.43128000  0.71225000  0.99552000  1.0
  H  H29  1  0.56872000  0.28775000  0.00448000  1.0
  H  H30  1  0.12699000  0.60414000  0.62608000  1.0
  H  H31  1  0.87301000  0.39586000  0.37392000  1.0
  H  H32  1  0.95152000  0.55815000  0.63800000  1.0
  H  H33  1  0.04848000  0.44184000  0.36200000  1.0
  H  H34  1  0.36699000  0.12947000  0.19079000  1.0
  H  H35  1  0.63301000  0.87053000  0.80921000  1.0
  H  H36  1  0.17929000  0.09770000  0.18921000  1.0
  H  H37  1  0.82071000  0.90230000  0.81079000  1.0
  H  H38  1  0.27102000  0.19325000  0.12672000  1.0
  H  H39  1  0.72898000  0.80675000  0.87328000  1.0
  H  H40  1  0.41342000  0.02916000  0.97391000  1.0
  H  H41  1  0.58658000  0.97084000  0.02609000  1.0
  H  H42  1  0.32964000  0.81502000  0.77699000  1.0
  H  H43  1  0.67036000  0.18498000  0.22301000  1.0
  H  H44  1  0.89857000  0.67739000  0.82897000  1.0
  H  H45  1  0.10143000  0.32261000  0.17103000  1.0
  H  H46  1  0.98366000  0.89149000  0.02555000  1.0
  H  H47  1  0.01634000  0.10851000  0.97445000  1.0
  H  H48  1  0.07764000  0.49251000  0.76390000  1.0
  H  H49  1  0.92237000  0.50749000  0.23610000  1.0
  H  H50  1  0.13414000  0.51233000  0.90179000  1.0
  H  H51  1  0.86587000  0.48767000  0.09821000  1.0
  H  H52  1  0.41663000  0.02392000  0.64664000  1.0
  H  H53  1  0.58337000  0.97609000  0.35336000  1.0
  H  H54  1  0.45468000  0.07078000  0.80119000  1.0
  H  H55  1  0.54532000  0.92922000  0.19881000  1.0
  H  H56  1  0.50855000  0.94862000  0.69925000  1.0
  H  H57  1  0.49145000  0.05138000  0.30075000  1.0
  H  H58  1  0.74049000  0.18902000  0.92517000  1.0
  H  H59  1  0.25952000  0.81100000  0.07484000  1.0
  H  H60  1  0.98475000  0.36107000  0.96510000  1.0
  H  H61  1  0.01525000  0.63893000  0.03490000  1.0
  H  H62  1  0.83850000  0.32253000  0.62075000  1.0
  H  H63  1  0.16150000  0.67747000  0.37925000  1.0
  H  H64  1  0.59346000  0.15188000  0.58234000  1.0
  H  H65  1  0.40654000  0.84812000  0.41766000  1.0
  C  C66  1  0.25746000  0.14649000  0.43218000  1.0
  C  C67  1  0.74253000  0.85350000  0.56781000  1.0
  C  C68  1  0.13397000  0.02349000  0.38118000  1.0
  C  C69  1  0.86603000  0.97651000  0.61882000  1.0
  C  C70  1  0.99208000  0.02164000  0.37667000  1.0
  C  C71  1  0.00792000  0.97836000  0.62333000  1.0
  C  C72  1  0.98304000  0.14737000  0.42482000  1.0
  C  C73  1  0.01696000  0.85263000  0.57518000  1.0
  C  C74  1  0.11187000  0.26628000  0.47471000  1.0
  C  C75  1  0.88813000  0.73371000  0.52529000  1.0
  C  C76  1  0.85645000  0.89020000  0.31866000  1.0
  C  C77  1  0.14355000  0.10980000  0.68134000  1.0
  C  C78  1  0.79863000  0.83106000  0.18232000  1.0
  C  C79  1  0.20137000  0.16894000  0.81768000  1.0
  C  C80  1  0.65747000  0.69845000  0.12501000  1.0
  C  C81  1  0.34253000  0.30155000  0.87499000  1.0
  C  C82  1  0.60137000  0.63633000  0.99118000  1.0
  C  C83  1  0.39862000  0.36367000  0.00882000  1.0
  C  C84  1  0.66449000  0.55943000  0.91171000  1.0
  C  C85  1  0.33550000  0.44056000  0.08829000  1.0
  C  C86  1  0.61389000  0.50690000  0.78838000  1.0
  C  C87  1  0.38611000  0.49310000  0.21162000  1.0
  C  C88  1  0.44191000  0.59927000  0.81475000  1.0
  C  C89  1  0.55809000  0.40073000  0.18525000  1.0
  C  C90  1  0.48666000  0.65486000  0.93913000  1.0
  C  C91  1  0.51334000  0.34514000  0.06087000  1.0
  C  C92  1  0.25819000  0.10531000  0.13669000  1.0
  C  C93  1  0.74181000  0.89469000  0.86331000  1.0
  C  C94  1  0.20570000  0.97643000  0.01597000  1.0
  C  C95  1  0.79430000  0.02357000  0.98403000  1.0
  C  C96  1  0.30011000  0.95186000  0.94291000  1.0
  C  C97  1  0.69989000  0.04814000  0.05709000  1.0
  C  C98  1  0.25369000  0.83122000  0.83202000  1.0
  C  C99  1  0.74632000  0.16879000  0.16799000  1.0
  C  C100  1  0.10841000  0.72983000  0.78968000  1.0
  C  C101  1  0.89159000  0.27017000  0.21032000  1.0
  C  C102  1  0.01216000  0.75432000  0.86101000  1.0
  C  C103  1  0.98784000  0.24568000  0.13899000  1.0
  C  C104  1  0.06057000  0.87520000  0.97167000  1.0
  C  C105  1  0.93943000  0.12480000  0.02833000  1.0
  C  C106  1  0.49945000  0.04491000  0.72331000  1.0
  C  C107  1  0.50055000  0.95509000  0.27669000  1.0
  C  C108  1  0.64635000  0.15588000  0.75029000  1.0
  C  C109  1  0.35365000  0.84412000  0.24971000  1.0
  C  C110  1  0.75952000  0.21914000  0.85826000  1.0
  C  C111  1  0.24048000  0.78086000  0.14174000  1.0
  C  C112  1  0.89895000  0.31664000  0.88112000  1.0
  C  C113  1  0.10105000  0.68336000  0.11888000  1.0
  C  C114  1  0.93191000  0.35545000  0.79577000  1.0
  C  C115  1  0.06809000  0.64455000  0.20423000  1.0
  C  C116  1  0.81808000  0.29352000  0.68805000  1.0
  C  C117  1  0.18192000  0.70648000  0.31195000  1.0
  C  C118  1  0.67890000  0.19665000  0.66677000  1.0
  C  C119  1  0.32110000  0.80336000  0.33323000  1.0
  I  I120  1  0.35282000  0.61649000  0.52646000  1.0
  I  I121  1  0.64718000  0.38351000  0.47354000  1.0
  N  N122  1  0.24852000  0.26761000  0.47875000  1.0
  N  N123  1  0.75148000  0.73238000  0.52125000  1.0
  N  N124  1  0.50433000  0.52639000  0.73900000  1.0
  N  N125  1  0.49566000  0.47361000  0.26100000  1.0
  N  N126  1  0.06239000  0.60378000  0.68285000  1.0
  N  N127  1  0.93761000  0.39622000  0.31715000  1.0
  N  N128  1  0.07250000  0.44629000  0.81400000  1.0
  N  N129  1  0.92750000  0.55371000  0.18600000  1.0
