# generated using pymatgen
data_Er2Cd3H36(C2O3)12
_symmetry_space_group_name_H-M   'P 1'
_cell_length_a   18.45580000
_cell_length_b   18.45574421
_cell_length_c   18.45580000
_cell_angle_alpha   59.99980000
_cell_angle_beta   90.00008660
_cell_angle_gamma   119.99990000
_symmetry_Int_Tables_number   1
_chemical_formula_structural   Er2Cd3H36(C2O3)12
_chemical_formula_sum   'Er8 Cd12 H144 C96 O144'
_cell_volume   4445.10461734
_cell_formula_units_Z   4
loop_
 _symmetry_equiv_pos_site_id
 _symmetry_equiv_pos_as_xyz
  1  'x, y, z'
loop_
 _atom_site_type_symbol
 _atom_site_label
 _atom_site_symmetry_multiplicity
 _atom_site_fract_x
 _atom_site_fract_y
 _atom_site_fract_z
 _atom_site_occupancy
  Er  Er0  1  0.24998000  0.99998000  0.75000000  1.0
  Er  Er1  1  0.74998000  0.49998000  0.75001000  1.0
  Er  Er2  1  0.74999000  0.99999000  0.75000000  1.0
  Er  Er3  1  0.75001000  0.49999000  0.25000000  1.0
  Er  Er4  1  0.74999000  0.99997000  0.25002000  1.0
  Er  Er5  1  0.25001000  0.50000000  0.24999000  1.0
  Er  Er6  1  0.25000000  0.00003000  0.24999000  1.0
  Er  Er7  1  0.24998000  0.49997000  0.75001000  1.0
  Cd  Cd8  1  0.50000000  0.00000000  0.50000000  1.0
  Cd  Cd9  1  0.00000000  0.50000000  1.00000000  1.0
  Cd  Cd10  1  0.49999000  0.00000000  1.00000000  1.0
  Cd  Cd11  1  0.50000000  0.50000000  0.00000000  1.0
  Cd  Cd12  1  0.50000000  0.50000000  0.50000000  1.0
  Cd  Cd13  1  0.00000000  0.00000000  0.50000000  1.0
  Cd  Cd14  1  0.00000000  0.50000000  0.50000000  1.0
  Cd  Cd15  1  0.00000000  0.00000000  0.00000000  1.0
  Cd  Cd16  1  0.87500000  0.75000000  0.87500000  1.0
  Cd  Cd17  1  0.62501000  0.25000000  0.62500000  1.0
  Cd  Cd18  1  0.12500000  0.25000000  0.12500000  1.0
  Cd  Cd19  1  0.37500000  0.75000000  0.37500000  1.0
  H  H20  1  0.27748000  0.85291000  0.65132000  1.0
  H  H21  1  0.84869000  0.35292000  0.92455000  1.0
  H  H22  1  0.57544000  0.85291000  0.99577000  1.0
  H  H23  1  0.50423000  0.35291000  0.22253000  1.0
  H  H24  1  0.65133000  0.64710000  0.27747000  1.0
  H  H25  1  0.22254000  0.14709000  0.50423000  1.0
  H  H26  1  0.99576000  0.64708000  0.57544000  1.0
  H  H27  1  0.92456000  0.14708000  0.84868000  1.0
  H  H28  1  0.57546000  0.22677000  0.27747000  1.0
  H  H29  1  0.22252000  0.72675000  0.84868000  1.0
  H  H30  1  0.65132000  0.22675000  0.99577000  1.0
  H  H31  1  0.50424000  0.72676000  0.92456000  1.0
  H  H32  1  0.27747000  0.27323000  0.57545000  1.0
  H  H33  1  0.92455000  0.77324000  0.50423000  1.0
  H  H34  1  0.99578000  0.27325000  0.65131000  1.0
  H  H35  1  0.84870000  0.77326000  0.22252000  1.0
  H  H36  1  0.65132000  0.92879000  0.57544000  1.0
  H  H37  1  0.22253000  0.07121000  0.92456000  1.0
  H  H38  1  0.92456000  0.42879000  0.22253000  1.0
  H  H39  1  0.84869000  0.07121000  0.50423000  1.0
  H  H40  1  0.50422000  0.42878000  0.84869000  1.0
  H  H41  1  0.57543000  0.57120000  0.65132000  1.0
  H  H42  1  0.27748000  0.92879000  0.99577000  1.0
  H  H43  1  0.99577000  0.57121000  0.27748000  1.0
  H  H44  1  0.72252000  0.14709000  0.34868000  1.0
  H  H45  1  0.15132000  0.64709000  0.07543000  1.0
  H  H46  1  0.42455000  0.14709000  0.00423000  1.0
  H  H47  1  0.49576000  0.64708000  0.77747000  1.0
  H  H48  1  0.34867000  0.35290000  0.72253000  1.0
  H  H49  1  0.77749000  0.85293000  0.49576000  1.0
  H  H50  1  0.00423000  0.35292000  0.42455000  1.0
  H  H51  1  0.07545000  0.85292000  0.15132000  1.0
  H  H52  1  0.42456000  0.77324000  0.72252000  1.0
  H  H53  1  0.77748000  0.27325000  0.15132000  1.0
  H  H54  1  0.34869000  0.77325000  0.00423000  1.0
  H  H55  1  0.49577000  0.27325000  0.07544000  1.0
  H  H56  1  0.72253000  0.72676000  0.42456000  1.0
  H  H57  1  0.07545000  0.22676000  0.49577000  1.0
  H  H58  1  0.00423000  0.72676000  0.34868000  1.0
  H  H59  1  0.15132000  0.22675000  0.77748000  1.0
  H  H60  1  0.34868000  0.07121000  0.42457000  1.0
  H  H61  1  0.77747000  0.92878000  0.07545000  1.0
  H  H62  1  0.07545000  0.57121000  0.77747000  1.0
  H  H63  1  0.15131000  0.92879000  0.49577000  1.0
  H  H64  1  0.49576000  0.57120000  0.15132000  1.0
  H  H65  1  0.42456000  0.42879000  0.34868000  1.0
  H  H66  1  0.72252000  0.07120000  0.00423000  1.0
  H  H67  1  0.00422000  0.42879000  0.72252000  1.0
  H  H68  1  0.35622000  0.87063000  0.70819000  1.0
  H  H69  1  0.79183000  0.37064000  0.98559000  1.0
  H  H70  1  0.51442000  0.87064000  0.92118000  1.0
  H  H71  1  0.57883000  0.37065000  0.14377000  1.0
  H  H72  1  0.70819000  0.62938000  0.35623000  1.0
  H  H73  1  0.14375000  0.12935000  0.57882000  1.0
  H  H74  1  0.92118000  0.62936000  0.51440000  1.0
  H  H75  1  0.98560000  0.12936000  0.79183000  1.0
  H  H76  1  0.51442000  0.22259000  0.35623000  1.0
  H  H77  1  0.14376000  0.72256000  0.79183000  1.0
  H  H78  1  0.70817000  0.22258000  0.92118000  1.0
  H  H79  1  0.57882000  0.72258000  0.98559000  1.0
  H  H80  1  0.35622000  0.27740000  0.51442000  1.0
  H  H81  1  0.98559000  0.77742000  0.57881000  1.0
  H  H82  1  0.92119000  0.27741000  0.70818000  1.0
  H  H83  1  0.79183000  0.77743000  0.14376000  1.0
  H  H84  1  0.70817000  0.06440000  0.51441000  1.0
  H  H85  1  0.14377000  0.93559000  0.98560000  1.0
  H  H86  1  0.98560000  0.56441000  0.14377000  1.0
  H  H87  1  0.79183000  0.93559000  0.57881000  1.0
  H  H88  1  0.57882000  0.56441000  0.79182000  1.0
  H  H89  1  0.51440000  0.43558000  0.70818000  1.0
  H  H90  1  0.35623000  0.06441000  0.92118000  1.0
  H  H91  1  0.92118000  0.43559000  0.35624000  1.0
  H  H92  1  0.64377000  0.12937000  0.29182000  1.0
  H  H93  1  0.20817000  0.62936000  0.01440000  1.0
  H  H94  1  0.48559000  0.12937000  0.07882000  1.0
  H  H95  1  0.42118000  0.62935000  0.85624000  1.0
  H  H96  1  0.29182000  0.37063000  0.64377000  1.0
  H  H97  1  0.85623000  0.87065000  0.42118000  1.0
  H  H98  1  0.07882000  0.37064000  0.48558000  1.0
  H  H99  1  0.01440000  0.87065000  0.20816000  1.0
  H  H100  1  0.48558000  0.77740000  0.64377000  1.0
  H  H101  1  0.85624000  0.27742000  0.20818000  1.0
  H  H102  1  0.29182000  0.77741000  0.07882000  1.0
  H  H103  1  0.42118000  0.27743000  0.01441000  1.0
  H  H104  1  0.64377000  0.72259000  0.48559000  1.0
  H  H105  1  0.01440000  0.22257000  0.42119000  1.0
  H  H106  1  0.07883000  0.72261000  0.29181000  1.0
  H  H107  1  0.20817000  0.22257000  0.85624000  1.0
  H  H108  1  0.29181000  0.93559000  0.48559000  1.0
  H  H109  1  0.85623000  0.06440000  0.01441000  1.0
  H  H110  1  0.01440000  0.43559000  0.85624000  1.0
  H  H111  1  0.20816000  0.06441000  0.42120000  1.0
  H  H112  1  0.42119000  0.43559000  0.20817000  1.0
  H  H113  1  0.48559000  0.56441000  0.29182000  1.0
  H  H114  1  0.64376000  0.93558000  0.07882000  1.0
  H  H115  1  0.07882000  0.56441000  0.64377000  1.0
  H  H116  1  0.02434000  0.77098000  0.94502000  1.0
  H  H117  1  0.55497000  0.27097000  0.75336000  1.0
  H  H118  1  0.74665000  0.77099000  0.78399000  1.0
  H  H119  1  0.71601000  0.27099000  0.47566000  1.0
  H  H120  1  0.94502000  0.72901000  0.02434000  1.0
  H  H121  1  0.47566000  0.22900000  0.71601000  1.0
  H  H122  1  0.78399000  0.72901000  0.74665000  1.0
  H  H123  1  0.75336000  0.22902000  0.55498000  1.0
  H  H124  1  0.74665000  0.69167000  0.02434000  1.0
  H  H125  1  0.47567000  0.19167000  0.55498000  1.0
  H  H126  1  0.94503000  0.69168000  0.78399000  1.0
  H  H127  1  0.71601000  0.19167000  0.75336000  1.0
  H  H128  1  0.02434000  0.80834000  0.74665000  1.0
  H  H129  1  0.75335000  0.30833000  0.71601000  1.0
  H  H130  1  0.78400000  0.80833000  0.94502000  1.0
  H  H131  1  0.55499000  0.30834000  0.47566000  1.0
  H  H132  1  0.94502000  0.96936000  0.74665000  1.0
  H  H133  1  0.47566000  0.03063000  0.75336000  1.0
  H  H134  1  0.75336000  0.46936000  0.47567000  1.0
  H  H135  1  0.55499000  0.03064000  0.71600000  1.0
  H  H136  1  0.71600000  0.46935000  0.55499000  1.0
  H  H137  1  0.74665000  0.53064000  0.94502000  1.0
  H  H138  1  0.02433000  0.96935000  0.78400000  1.0
  H  H139  1  0.78401000  0.53065000  0.02433000  1.0
  H  H140  1  0.97568000  0.22903000  0.05497000  1.0
  H  H141  1  0.44502000  0.72901000  0.24665000  1.0
  H  H142  1  0.25335000  0.22901000  0.21601000  1.0
  H  H143  1  0.28400000  0.72901000  0.52434000  1.0
  H  H144  1  0.05499000  0.27099000  0.97566000  1.0
  H  H145  1  0.52434000  0.77098000  0.28400000  1.0
  H  H146  1  0.21601000  0.27099000  0.25335000  1.0
  H  H147  1  0.24664000  0.77097000  0.44503000  1.0
  H  H148  1  0.25335000  0.30833000  0.97566000  1.0
  H  H149  1  0.52433000  0.80833000  0.44502000  1.0
  H  H150  1  0.05499000  0.30834000  0.21600000  1.0
  H  H151  1  0.28400000  0.80834000  0.24664000  1.0
  H  H152  1  0.97568000  0.19168000  0.25335000  1.0
  H  H153  1  0.24664000  0.69166000  0.28400000  1.0
  H  H154  1  0.21601000  0.19167000  0.05498000  1.0
  H  H155  1  0.44503000  0.69167000  0.52433000  1.0
  H  H156  1  0.05500000  0.03065000  0.25335000  1.0
  H  H157  1  0.52434000  0.96936000  0.24664000  1.0
  H  H158  1  0.24664000  0.53064000  0.52434000  1.0
  H  H159  1  0.44502000  0.96936000  0.28400000  1.0
  H  H160  1  0.28400000  0.53064000  0.44502000  1.0
  H  H161  1  0.25336000  0.46936000  0.05498000  1.0
  H  H162  1  0.97567000  0.03064000  0.21600000  1.0
  H  H163  1  0.21600000  0.46935000  0.97566000  1.0
  C  C164  1  0.36823000  0.00890000  0.61123000  1.0
  C  C165  1  0.88877000  0.50890000  0.85932000  1.0
  C  C166  1  0.64069000  0.00891000  0.87987000  1.0
  C  C167  1  0.62015000  0.50892000  0.13177000  1.0
  C  C168  1  0.61123000  0.49110000  0.36823000  1.0
  C  C169  1  0.13176000  0.99109000  0.62013000  1.0
  C  C170  1  0.87986000  0.49109000  0.64068000  1.0
  C  C171  1  0.85933000  0.99109000  0.88877000  1.0
  C  C172  1  0.64068000  0.25191000  0.36823000  1.0
  C  C173  1  0.13176000  0.75189000  0.88878000  1.0
  C  C174  1  0.61122000  0.25190000  0.87987000  1.0
  C  C175  1  0.62014000  0.75191000  0.85932000  1.0
  C  C176  1  0.36823000  0.24809000  0.64068000  1.0
  C  C177  1  0.85931000  0.74809000  0.62013000  1.0
  C  C178  1  0.87987000  0.24809000  0.61123000  1.0
  C  C179  1  0.88879000  0.74811000  0.13177000  1.0
  C  C180  1  0.61123000  0.97945000  0.64068000  1.0
  C  C181  1  0.13177000  0.02054000  0.85933000  1.0
  C  C182  1  0.85933000  0.47946000  0.13178000  1.0
  C  C183  1  0.88878000  0.02055000  0.62012000  1.0
  C  C184  1  0.62012000  0.47945000  0.88877000  1.0
  C  C185  1  0.64068000  0.52055000  0.61122000  1.0
  C  C186  1  0.36822000  0.97944000  0.87987000  1.0
  C  C187  1  0.87988000  0.52056000  0.36823000  1.0
  C  C188  1  0.63177000  0.99110000  0.38877000  1.0
  C  C189  1  0.11122000  0.49109000  0.14067000  1.0
  C  C190  1  0.35931000  0.99110000  0.12013000  1.0
  C  C191  1  0.37987000  0.49109000  0.86823000  1.0
  C  C192  1  0.38877000  0.50890000  0.63177000  1.0
  C  C193  1  0.86823000  0.00891000  0.37986000  1.0
  C  C194  1  0.12013000  0.50890000  0.35932000  1.0
  C  C195  1  0.14068000  0.00892000  0.11122000  1.0
  C  C196  1  0.35932000  0.74809000  0.63177000  1.0
  C  C197  1  0.86823000  0.24810000  0.11122000  1.0
  C  C198  1  0.38876000  0.74809000  0.12013000  1.0
  C  C199  1  0.37987000  0.24811000  0.14068000  1.0
  C  C200  1  0.63177000  0.75191000  0.35932000  1.0
  C  C201  1  0.14067000  0.25189000  0.37987000  1.0
  C  C202  1  0.12013000  0.75192000  0.38877000  1.0
  C  C203  1  0.11122000  0.25189000  0.86823000  1.0
  C  C204  1  0.38878000  0.02056000  0.35932000  1.0
  C  C205  1  0.86823000  0.97946000  0.14068000  1.0
  C  C206  1  0.14067000  0.52054000  0.86823000  1.0
  C  C207  1  0.11121000  0.97945000  0.37988000  1.0
  C  C208  1  0.37988000  0.52055000  0.11122000  1.0
  C  C209  1  0.35932000  0.47945000  0.38877000  1.0
  C  C210  1  0.63178000  0.02055000  0.12013000  1.0
  C  C211  1  0.12013000  0.47945000  0.63178000  1.0
  C  C212  1  0.31193000  0.89330000  0.68162000  1.0
  C  C213  1  0.81838000  0.39331000  0.91862000  1.0
  C  C214  1  0.58138000  0.89330000  0.92508000  1.0
  C  C215  1  0.57493000  0.39331000  0.18807000  1.0
  C  C216  1  0.68163000  0.60671000  0.31193000  1.0
  C  C217  1  0.18806000  0.10669000  0.57493000  1.0
  C  C218  1  0.92507000  0.60670000  0.58137000  1.0
  C  C219  1  0.91863000  0.10669000  0.81838000  1.0
  C  C220  1  0.58138000  0.26300000  0.31193000  1.0
  C  C221  1  0.18807000  0.76299000  0.81838000  1.0
  C  C222  1  0.68163000  0.26300000  0.92507000  1.0
  C  C223  1  0.57493000  0.76299000  0.91863000  1.0
  C  C224  1  0.31193000  0.23700000  0.58138000  1.0
  C  C225  1  0.91862000  0.73701000  0.57492000  1.0
  C  C226  1  0.92508000  0.23700000  0.68162000  1.0
  C  C227  1  0.81838000  0.73701000  0.18807000  1.0
  C  C228  1  0.68161000  0.99354000  0.58138000  1.0
  C  C229  1  0.18806000  0.00644000  0.91863000  1.0
  C  C230  1  0.91864000  0.49356000  0.18807000  1.0
  C  C231  1  0.81839000  0.00645000  0.57492000  1.0
  C  C232  1  0.57492000  0.49355000  0.81838000  1.0
  C  C233  1  0.58136000  0.50644000  0.68162000  1.0
  C  C234  1  0.31192000  0.99354000  0.92508000  1.0
  C  C235  1  0.92507000  0.50645000  0.31194000  1.0
  C  C236  1  0.68807000  0.10670000  0.31838000  1.0
  C  C237  1  0.18162000  0.60670000  0.08136000  1.0
  C  C238  1  0.41863000  0.10671000  0.07492000  1.0
  C  C239  1  0.42507000  0.60669000  0.81193000  1.0
  C  C240  1  0.31838000  0.39330000  0.68807000  1.0
  C  C241  1  0.81194000  0.89332000  0.42507000  1.0
  C  C242  1  0.07493000  0.39331000  0.41862000  1.0
  C  C243  1  0.08137000  0.89331000  0.18162000  1.0
  C  C244  1  0.41862000  0.73700000  0.68807000  1.0
  C  C245  1  0.81193000  0.23701000  0.18162000  1.0
  C  C246  1  0.31838000  0.73701000  0.07492000  1.0
  C  C247  1  0.42507000  0.23702000  0.08137000  1.0
  C  C248  1  0.68807000  0.76300000  0.41862000  1.0
  C  C249  1  0.08137000  0.26299000  0.42507000  1.0
  C  C250  1  0.07493000  0.76301000  0.31838000  1.0
  C  C251  1  0.18161000  0.26298000  0.81194000  1.0
  C  C252  1  0.31837000  0.00645000  0.41863000  1.0
  C  C253  1  0.81193000  0.99355000  0.08137000  1.0
  C  C254  1  0.08137000  0.50644000  0.81194000  1.0
  C  C255  1  0.18161000  0.99356000  0.42508000  1.0
  C  C256  1  0.42507000  0.50644000  0.18162000  1.0
  C  C257  1  0.41863000  0.49355000  0.31838000  1.0
  C  C258  1  0.68807000  0.00645000  0.07492000  1.0
  C  C259  1  0.07493000  0.49355000  0.68807000  1.0
  O  O260  1  0.42255000  0.04658000  0.54061000  1.0
  O  O261  1  0.95941000  0.54660000  0.87596000  1.0
  O  O262  1  0.62403000  0.04659000  0.91281000  1.0
  O  O263  1  0.58720000  0.54660000  0.07743000  1.0
  O  O264  1  0.54060000  0.45341000  0.42256000  1.0
  O  O265  1  0.07743000  0.95340000  0.58720000  1.0
  O  O266  1  0.91281000  0.45341000  0.62403000  1.0
  O  O267  1  0.87596000  0.95340000  0.95941000  1.0
  O  O268  1  0.62403000  0.16463000  0.42257000  1.0
  O  O269  1  0.07743000  0.66461000  0.95941000  1.0
  O  O270  1  0.54060000  0.16463000  0.91281000  1.0
  O  O271  1  0.58720000  0.66464000  0.87596000  1.0
  O  O272  1  0.42256000  0.33536000  0.62403000  1.0
  O  O273  1  0.87596000  0.83537000  0.58719000  1.0
  O  O274  1  0.91281000  0.33537000  0.54060000  1.0
  O  O275  1  0.95941000  0.83537000  0.07744000  1.0
  O  O276  1  0.54060000  0.96316000  0.62403000  1.0
  O  O277  1  0.07743000  0.03683000  0.87597000  1.0
  O  O278  1  0.87596000  0.46316000  0.07744000  1.0
  O  O279  1  0.95942000  0.03686000  0.58718000  1.0
  O  O280  1  0.58720000  0.46316000  0.95940000  1.0
  O  O281  1  0.62403000  0.53685000  0.54059000  1.0
  O  O282  1  0.42257000  0.96316000  0.91281000  1.0
  O  O283  1  0.91282000  0.53685000  0.42256000  1.0
  O  O284  1  0.57744000  0.95341000  0.45940000  1.0
  O  O285  1  0.04060000  0.45341000  0.12403000  1.0
  O  O286  1  0.37596000  0.95341000  0.08719000  1.0
  O  O287  1  0.41282000  0.45341000  0.92256000  1.0
  O  O288  1  0.45939000  0.54658000  0.57744000  1.0
  O  O289  1  0.92256000  0.04660000  0.41280000  1.0
  O  O290  1  0.08719000  0.54659000  0.37597000  1.0
  O  O291  1  0.12404000  0.04660000  0.04059000  1.0
  O  O292  1  0.37596000  0.83536000  0.57744000  1.0
  O  O293  1  0.92256000  0.33538000  0.04059000  1.0
  O  O294  1  0.45939000  0.83536000  0.08720000  1.0
  O  O295  1  0.41281000  0.33538000  0.12404000  1.0
  O  O296  1  0.57744000  0.66463000  0.37597000  1.0
  O  O297  1  0.12404000  0.16463000  0.41281000  1.0
  O  O298  1  0.08719000  0.66463000  0.45940000  1.0
  O  O299  1  0.04060000  0.16463000  0.92256000  1.0
  O  O300  1  0.45940000  0.03684000  0.37597000  1.0
  O  O301  1  0.92255000  0.96315000  0.12404000  1.0
  O  O302  1  0.12403000  0.53684000  0.92256000  1.0
  O  O303  1  0.04059000  0.96315000  0.41282000  1.0
  O  O304  1  0.41282000  0.53685000  0.04059000  1.0
  O  O305  1  0.37596000  0.46315000  0.45940000  1.0
  O  O306  1  0.57744000  0.03684000  0.08719000  1.0
  O  O307  1  0.08720000  0.46317000  0.57743000  1.0
  O  O308  1  0.35678000  0.06294000  0.62702000  1.0
  O  O309  1  0.87299000  0.56296000  0.79383000  1.0
  O  O310  1  0.70617000  0.06294000  0.81004000  1.0
  O  O311  1  0.68997000  0.56295000  0.14322000  1.0
  O  O312  1  0.62703000  0.43707000  0.35678000  1.0
  O  O313  1  0.14321000  0.93705000  0.68997000  1.0
  O  O314  1  0.81003000  0.43705000  0.70616000  1.0
  O  O315  1  0.79385000  0.93705000  0.87297000  1.0
  O  O316  1  0.70617000  0.33319000  0.35679000  1.0
  O  O317  1  0.14322000  0.83318000  0.87298000  1.0
  O  O318  1  0.62702000  0.33319000  0.81003000  1.0
  O  O319  1  0.68998000  0.83318000  0.79384000  1.0
  O  O320  1  0.35678000  0.16681000  0.70617000  1.0
  O  O321  1  0.79384000  0.66683000  0.68996000  1.0
  O  O322  1  0.81004000  0.16682000  0.62702000  1.0
  O  O323  1  0.87298000  0.66682000  0.14322000  1.0
  O  O324  1  0.62702000  0.98380000  0.70616000  1.0
  O  O325  1  0.14321000  0.01618000  0.79385000  1.0
  O  O326  1  0.79384000  0.48381000  0.14322000  1.0
  O  O327  1  0.87298000  0.01619000  0.68997000  1.0
  O  O328  1  0.68997000  0.48381000  0.87298000  1.0
  O  O329  1  0.70616000  0.51620000  0.62702000  1.0
  O  O330  1  0.35678000  0.98379000  0.81004000  1.0
  O  O331  1  0.81004000  0.51621000  0.35678000  1.0
  O  O332  1  0.64322000  0.93706000  0.37298000  1.0
  O  O333  1  0.12703000  0.43706000  0.20615000  1.0
  O  O334  1  0.29383000  0.93706000  0.18997000  1.0
  O  O335  1  0.31003000  0.43704000  0.85679000  1.0
  O  O336  1  0.37298000  0.56294000  0.64322000  1.0
  O  O337  1  0.85678000  0.06295000  0.31003000  1.0
  O  O338  1  0.18997000  0.56295000  0.29383000  1.0
  O  O339  1  0.20616000  0.06296000  0.12702000  1.0
  O  O340  1  0.29383000  0.66681000  0.64322000  1.0
  O  O341  1  0.85678000  0.16682000  0.12702000  1.0
  O  O342  1  0.37299000  0.66682000  0.18996000  1.0
  O  O343  1  0.31003000  0.16683000  0.20616000  1.0
  O  O344  1  0.64322000  0.83319000  0.29384000  1.0
  O  O345  1  0.20616000  0.33318000  0.31003000  1.0
  O  O346  1  0.18996000  0.83319000  0.37299000  1.0
  O  O347  1  0.12702000  0.33317000  0.85679000  1.0
  O  O348  1  0.37297000  0.01620000  0.29384000  1.0
  O  O349  1  0.85679000  0.98381000  0.20616000  1.0
  O  O350  1  0.20615000  0.51618000  0.85679000  1.0
  O  O351  1  0.12702000  0.98382000  0.31003000  1.0
  O  O352  1  0.31004000  0.51620000  0.12701000  1.0
  O  O353  1  0.29383000  0.48379000  0.37298000  1.0
  O  O354  1  0.64321000  0.01620000  0.18996000  1.0
  O  O355  1  0.18997000  0.48380000  0.64322000  1.0
  O  O356  1  0.24999000  0.86929000  0.74999000  1.0
  O  O357  1  0.75000000  0.36930000  0.88070000  1.0
  O  O358  1  0.61930000  0.86929000  0.88071000  1.0
  O  O359  1  0.61930000  0.36930000  0.25000000  1.0
  O  O360  1  0.75000000  0.63071000  0.25000000  1.0
  O  O361  1  0.24999000  0.13070000  0.61930000  1.0
  O  O362  1  0.88070000  0.63071000  0.61929000  1.0
  O  O363  1  0.88071000  0.13070000  0.74999000  1.0
  O  O364  1  0.75000000  0.99999000  0.61930000  1.0
  O  O365  1  0.24999000  0.99999000  0.88071000  1.0
  O  O366  1  0.88071000  0.50001000  0.25000000  1.0
  O  O367  1  0.61929000  0.50000000  0.75000000  1.0
  O  O368  1  0.75000000  0.13071000  0.25000000  1.0
  O  O369  1  0.25000000  0.63070000  0.11929000  1.0
  O  O370  1  0.38070000  0.13072000  0.11929000  1.0
  O  O371  1  0.38070000  0.63070000  0.75000000  1.0
  O  O372  1  0.24999000  0.36928000  0.75001000  1.0
  O  O373  1  0.75001000  0.86931000  0.38070000  1.0
  O  O374  1  0.11930000  0.36930000  0.38069000  1.0
  O  O375  1  0.11928000  0.86931000  0.25001000  1.0
  O  O376  1  0.25000000  0.00002000  0.38070000  1.0
  O  O377  1  0.75000000  0.00000000  0.11930000  1.0
  O  O378  1  0.11929000  0.49998000  0.75001000  1.0
  O  O379  1  0.38070000  0.49999000  0.25000000  1.0
  O  O380  1  0.96328000  0.75000000  0.96328000  1.0
  O  O381  1  0.53672000  0.25001000  0.71327000  1.0
  O  O382  1  0.78673000  0.75001000  0.78671000  1.0
  O  O383  1  0.71331000  0.25003000  0.53671000  1.0
  O  O384  1  0.78673000  0.75000000  0.96329000  1.0
  O  O385  1  0.53672000  0.24999000  0.53672000  1.0
  O  O386  1  0.96329000  0.75000000  0.78673000  1.0
  O  O387  1  0.71329000  0.25000000  0.71328000  1.0
  O  O388  1  0.96328000  0.92656000  0.78672000  1.0
  O  O389  1  0.53673000  0.07344000  0.71328000  1.0
  O  O390  1  0.71327000  0.42656000  0.53672000  1.0
  O  O391  1  0.78671000  0.57344000  0.96328000  1.0
  O  O392  1  0.03672000  0.24999000  0.03672000  1.0
  O  O393  1  0.46328000  0.75000000  0.28672000  1.0
  O  O394  1  0.21327000  0.24998000  0.21329000  1.0
  O  O395  1  0.28671000  0.74999000  0.46328000  1.0
  O  O396  1  0.21328000  0.25000000  0.03672000  1.0
  O  O397  1  0.46329000  0.75000000  0.46327000  1.0
  O  O398  1  0.03673000  0.25000000  0.21329000  1.0
  O  O399  1  0.28672000  0.75000000  0.28671000  1.0
  O  O400  1  0.03673000  0.07344000  0.21327000  1.0
  O  O401  1  0.46328000  0.92656000  0.28673000  1.0
  O  O402  1  0.28673000  0.57344000  0.46329000  1.0
  O  O403  1  0.21328000  0.42657000  0.03672000  1.0
