# generated using pymatgen
data_Al6H56C89N5Cl3O28
_symmetry_space_group_name_H-M   'P 1'
_cell_length_a   12.94710000
_cell_length_b   12.97577311
_cell_length_c   27.66070000
_cell_angle_alpha   89.41193277
_cell_angle_beta   88.52990000
_cell_angle_gamma   60.86575433
_symmetry_Int_Tables_number   1
_chemical_formula_structural   Al6H56C89N5Cl3O28
_chemical_formula_sum   'Al6 H56 C89 N5 Cl3 O28'
_cell_volume   4057.68361716
_cell_formula_units_Z   1
loop_
 _symmetry_equiv_pos_site_id
 _symmetry_equiv_pos_as_xyz
  1  'x, y, z'
loop_
 _atom_site_type_symbol
 _atom_site_label
 _atom_site_symmetry_multiplicity
 _atom_site_fract_x
 _atom_site_fract_y
 _atom_site_fract_z
 _atom_site_occupancy
  Al  Al0  1  0.58609000  0.58627000  0.49518000  1.0
  Al  Al1  1  0.34699000  0.57095000  0.49991000  1.0
  Al  Al2  1  0.57810000  0.34407000  0.49990000  1.0
  Al  Al3  1  0.09164000  0.05680000  0.98454000  1.0
  Al  Al4  1  0.08731000  0.30720000  0.98452000  1.0
  Al  Al5  1  0.32237000  0.09179000  0.98357000  1.0
  H  H6  1  0.12110000  0.45425000  0.22586000  1.0
  H  H7  1  0.20497000  0.26709000  0.29432000  1.0
  H  H8  1  0.50398000  0.18871000  0.78576000  1.0
  H  H9  1  0.46675000  0.16947000  0.87196000  1.0
  H  H10  1  0.20999000  0.54215000  0.71644000  1.0
  H  H11  1  0.17103000  0.51310000  0.78221000  1.0
  H  H12  1  0.49593000  0.18266000  0.71456000  1.0
  H  H13  1  0.52168000  0.19682000  0.62660000  1.0
  H  H14  1  0.82890000  0.17961000  0.61449000  1.0
  H  H15  1  0.01957000  0.37659000  0.84565000  1.0
  H  H16  1  0.27354000  0.52962000  0.26354000  1.0
  H  H17  1  0.76627000  0.50848000  0.27250000  1.0
  H  H18  1  0.89510000  0.15431000  0.70001000  1.0
  H  H19  1  0.77011000  0.21696000  0.78250000  1.0
  H  H20  1  0.84050000  0.17374000  0.86755000  1.0
  H  H21  1  0.66948000  0.55510000  0.63155000  1.0
  H  H22  1  0.51538000  0.77736000  0.60775000  1.0
  H  H23  1  0.35275000  0.03863000  0.75286000  1.0
  H  H24  1  0.35347000  0.06782000  0.84064000  1.0
  H  H25  1  0.28769000  0.74695000  0.77907000  1.0
  H  H26  1  0.45402000  0.37918000  0.19590000  1.0
  H  H27  1  0.27184000  0.78787000  0.86735000  1.0
  H  H28  1  0.99197000  0.40153000  0.22615000  1.0
  H  H29  1  0.17724000  0.79348000  0.62325000  1.0
  H  H30  1  0.53645000  0.19642000  0.26535000  1.0
  H  H31  1  0.38614000  0.11900000  0.22694000  1.0
  H  H32  1  0.99424000  0.09468000  0.21864000  1.0
  H  H33  1  0.06314000  0.20533000  0.28945000  1.0
  H  H34  1  0.68289000  0.43352000  0.16191000  1.0
  H  H35  1  0.49104000  0.53299000  0.19588000  1.0
  H  H36  1  0.57873000  0.56203000  0.23663000  1.0
  H  H37  1  0.54172000  0.44967000  0.25017000  1.0
  H  H38  1  0.07594000  0.59212000  0.84759000  1.0
  H  H39  1  0.50723000  0.74690000  0.21027000  1.0
  H  H40  1  0.09292000  0.67452000  0.91687000  1.0
  H  H41  1  0.20697000  0.53569000  0.93695000  1.0
  H  H42  1  0.05678000  0.57081000  0.94450000  1.0
  H  H43  1  0.65499000  0.63006000  0.70345000  1.0
  H  H44  1  0.60830000  0.66710000  0.78116000  1.0
  H  H45  1  0.72347000  0.52802000  0.79981000  1.0
  H  H46  1  0.59155000  0.53904000  0.77623000  1.0
  H  H47  1  0.59721000  0.79637000  0.67998000  1.0
  H  H48  1  0.57951000  0.98330000  0.69643000  1.0
  H  H49  1  0.51296000  0.98255000  0.64038000  1.0
  H  H50  1  0.37113000  0.65702000  0.25951000  1.0
  H  H51  1  0.42312000  0.04626000  0.69274000  1.0
  H  H52  1  0.70136000  0.19170000  0.23419000  1.0
  H  H53  1  0.72552000  0.05644000  0.29780000  1.0
  H  H54  1  0.81329000  0.10345000  0.32893000  1.0
  H  H55  1  0.87107000  0.01592000  0.27525000  1.0
  H  H56  1  0.17020000  0.81513000  0.20607000  1.0
  H  H57  1  0.10927000  0.98521000  0.28122000  1.0
  H  H58  1  0.24225000  0.07513000  0.23214000  1.0
  H  H59  1  0.23258000  0.55199000  0.62830000  1.0
  H  H60  1  0.70212000  0.66705000  0.46470000  1.0
  H  H61  1  0.96956000  0.98244000  0.96007000  1.0
  C  C62  1  0.37988000  0.70754000  0.42901000  1.0
  C  C63  1  0.35886000  0.34730000  0.34350000  1.0
  C  C64  1  0.98117000  0.24769000  0.26928000  1.0
  C  C65  1  0.39239000  0.38786000  0.43373000  1.0
  C  C66  1  0.94220000  0.18562000  0.23147000  1.0
  C  C67  1  0.92019000  0.29048000  0.10214000  1.0
  C  C68  1  0.78749000  0.33264000  0.38621000  1.0
  C  C69  1  0.94074000  0.35746000  0.23548000  1.0
  C  C70  1  0.90087000  0.29557000  0.19696000  1.0
  C  C71  1  0.81510000  0.41705000  0.25990000  1.0
  C  C72  1  0.85414000  0.30710000  0.29461000  1.0
  C  C73  1  0.36984000  0.36028000  0.38636000  1.0
  C  C74  1  0.77374000  0.35512000  0.22194000  1.0
  C  C75  1  0.81318000  0.24528000  0.25571000  1.0
  C  C76  1  0.91458000  0.29328000  0.14621000  1.0
  C  C77  1  0.72337000  0.36823000  0.43160000  1.0
  C  C78  1  0.82387000  0.31739000  0.34439000  1.0
  C  C79  1  0.38343000  0.89356000  0.26656000  1.0
  C  C80  1  0.41854000  0.79843000  0.22623000  1.0
  C  C81  1  0.31296000  0.91758000  0.10244000  1.0
  C  C82  1  0.33970000  0.77113000  0.38437000  1.0
  C  C83  1  0.27128000  0.98185000  0.23831000  1.0
  C  C84  1  0.35997000  0.21049000  0.23544000  1.0
  C  C85  1  0.30706000  0.88651000  0.19653000  1.0
  C  C86  1  0.19715000  0.93179000  0.26481000  1.0
  C  C87  1  0.30851000  0.84343000  0.29435000  1.0
  C  C88  1  0.23114000  0.83723000  0.22402000  1.0
  C  C89  1  0.37455000  0.71610000  0.56352000  1.0
  C  C90  1  0.34303000  0.74964000  0.25227000  1.0
  C  C91  1  0.30981000  0.90551000  0.14614000  1.0
  C  C92  1  0.31860000  0.81048000  0.34347000  1.0
  C  C93  1  0.37711000  0.37451000  0.62155000  1.0
  C  C94  1  0.28881000  0.47077000  0.64758000  1.0
  C  C95  1  0.31245000  0.31387000  0.19687000  1.0
  C  C96  1  0.27669000  0.46406000  0.69738000  1.0
  C  C97  1  0.35014000  0.36039000  0.72309000  1.0
  C  C98  1  0.43757000  0.26445000  0.69623000  1.0
  C  C99  1  0.45187000  0.27111000  0.64654000  1.0
  C  C100  1  0.42324000  0.25621000  0.80319000  1.0
  C  C101  1  0.39827000  0.38835000  0.56956000  1.0
  C  C102  1  0.40413000  0.24655000  0.85192000  1.0
  C  C103  1  0.22119000  0.43468000  0.85209000  1.0
  C  C104  1  0.23882000  0.43757000  0.80144000  1.0
  C  C105  1  0.33680000  0.35149000  0.77618000  1.0
  C  C106  1  0.44427000  0.25268000  0.25585000  1.0
  C  C107  1  0.30187000  0.33067000  0.87748000  1.0
  C  C108  1  0.74743000  0.37004000  0.61808000  1.0
  C  C109  1  0.80796000  0.25565000  0.63720000  1.0
  C  C110  1  0.84243000  0.24250000  0.68504000  1.0
  C  C111  1  0.81480000  0.33980000  0.71519000  1.0
  C  C112  1  0.74627000  0.45564000  0.69661000  1.0
  C  C113  1  0.70244000  0.39380000  0.56802000  1.0
  C  C114  1  0.71888000  0.46735000  0.64736000  1.0
  C  C115  1  0.93224000  0.35800000  0.78348000  1.0
  C  C116  1  0.96526000  0.34118000  0.83168000  1.0
  C  C117  1  0.34504000  0.33498000  0.29366000  1.0
  C  C118  1  0.86447000  0.22664000  0.84383000  1.0
  C  C119  1  0.82705000  0.24949000  0.79639000  1.0
  C  C120  1  0.85819000  0.31682000  0.76517000  1.0
  C  C121  1  0.93107000  0.27554000  0.86199000  1.0
  C  C122  1  0.35070000  0.77569000  0.61136000  1.0
  C  C123  1  0.43741000  0.79711000  0.63029000  1.0
  C  C124  1  0.42622000  0.84133000  0.67702000  1.0
  C  C125  1  0.25965000  0.29242000  0.27188000  1.0
  C  C126  1  0.32615000  0.86396000  0.70683000  1.0
  C  C127  1  0.23595000  0.84994000  0.68500000  1.0
  C  C128  1  0.39835000  0.35573000  0.21850000  1.0
  C  C129  1  0.24744000  0.80545000  0.63842000  1.0
  C  C130  1  0.33962000  0.97988000  0.77740000  1.0
  C  C131  1  0.33858000  0.99774000  0.82700000  1.0
  C  C132  1  0.29300000  0.84000000  0.84191000  1.0
  C  C133  1  0.29976000  0.81897000  0.79247000  1.0
  C  C134  1  0.32107000  0.88988000  0.75921000  1.0
  C  C135  1  0.31344000  0.92916000  0.85954000  1.0
  C  C136  1  0.95653000  0.26669000  0.05218000  1.0
  C  C137  1  0.21353000  0.39622000  0.23479000  1.0
  C  C138  1  0.26294000  0.26624000  0.05625000  1.0
  C  C139  1  0.29841000  0.43822000  0.25496000  1.0
  C  C140  1  0.29056000  0.95169000  0.05239000  1.0
  C  C141  1  0.97279000  0.25311000  0.91253000  1.0
  C  C142  1  0.27346000  0.29348000  0.92398000  1.0
  C  C143  1  0.29629000  0.96078000  0.91181000  1.0
  C  C144  1  0.28393000  0.29141000  0.10432000  1.0
  C  C145  1  0.56545000  0.49195000  0.22056000  1.0
  C  C146  1  0.12006000  0.58028000  0.92025000  1.0
  C  C147  1  0.65520000  0.57245000  0.77280000  1.0
  C  C148  1  0.50821000  0.97370000  0.68006000  1.0
  C  C149  1  0.79044000  0.08727000  0.29289000  1.0
  C  C150  1  0.29729000  0.30237000  0.14712000  1.0
  N  N151  1  0.66986000  0.40334000  0.19446000  1.0
  N  N152  1  0.12666000  0.53159000  0.87238000  1.0
  N  N153  1  0.70534000  0.55829000  0.72382000  1.0
  N  N154  1  0.51904000  0.85947000  0.69488000  1.0
  N  N155  1  0.73793000  0.19761000  0.26560000  1.0
  Cl  Cl156  1  0.48181000  0.92788000  0.29469000  1.0
  Cl  Cl157  1  0.98677000  0.42917000  0.74595000  1.0
  Cl  Cl158  1  0.10273000  0.88977000  0.71594000  1.0
  O  O159  1  0.69793000  0.46881000  0.44780000  1.0
  O  O160  1  0.34388000  0.17136000  0.03649000  1.0
  O  O161  1  0.36786000  0.96766000  0.02796000  1.0
  O  O162  1  0.48681000  0.67098000  0.43884000  1.0
  O  O163  1  0.21096000  0.95910000  0.93421000  1.0
  O  O164  1  0.99161000  0.15709000  0.93215000  1.0
  O  O165  1  0.99023000  0.33273000  0.93208000  1.0
  O  O166  1  0.16892000  0.35616000  0.94255000  1.0
  O  O167  1  0.34964000  0.19450000  0.94226000  1.0
  O  O168  1  0.36673000  0.99385000  0.92988000  1.0
  O  O169  1  0.16742000  0.15208000  0.98447000  1.0
  O  O170  1  0.32101000  0.48030000  0.54783000  1.0
  O  O171  1  0.30424000  0.69037000  0.45415000  1.0
  O  O172  1  0.31626000  0.48818000  0.45152000  1.0
  O  O173  1  0.48852000  0.31381000  0.45359000  1.0
  O  O174  1  0.69268000  0.29586000  0.45093000  1.0
  O  O175  1  0.67215000  0.49487000  0.55071000  1.0
  O  O176  1  0.46786000  0.69754000  0.54093000  1.0
  O  O177  1  0.30084000  0.68297000  0.54941000  1.0
  O  O178  1  0.49630000  0.31107000  0.54991000  1.0
  O  O179  1  0.69248000  0.31156000  0.54613000  1.0
  O  O180  1  0.50252000  0.49931000  0.49791000  1.0
  O  O181  1  0.19276000  0.96749000  0.03731000  1.0
  O  O182  1  0.98436000  0.16567000  0.03630000  1.0
  O  O183  1  0.96337000  0.34976000  0.02829000  1.0
  O  O184  1  0.16377000  0.33693000  0.03759000  1.0
  O  O185  1  0.65860000  0.67072000  0.49413000  1.0
  O  O186  1  0.02345000  0.96832000  0.98601000  1.0
