# generated using pymatgen
data_Tb2H46C48N7O19
_symmetry_space_group_name_H-M   'P 1'
_cell_length_a   19.10290000
_cell_length_b   21.18650000
_cell_length_c   21.30900000
_cell_angle_alpha   119.81000000
_cell_angle_beta   89.77840000
_cell_angle_gamma   89.99990000
_symmetry_Int_Tables_number   1
_chemical_formula_structural   Tb2H46C48N7O19
_chemical_formula_sum   'Tb8 H184 C192 N28 O76'
_cell_volume   7483.00800633
_cell_formula_units_Z   4
loop_
 _symmetry_equiv_pos_site_id
 _symmetry_equiv_pos_as_xyz
  1  'x, y, z'
loop_
 _atom_site_type_symbol
 _atom_site_label
 _atom_site_symmetry_multiplicity
 _atom_site_fract_x
 _atom_site_fract_y
 _atom_site_fract_z
 _atom_site_occupancy
  Tb  Tb0  1  0.43605000  0.40177000  0.45666000  1.0
  Tb  Tb1  1  0.47169000  0.86361000  0.38917000  1.0
  Tb  Tb2  1  0.06395000  0.94511000  0.54334000  1.0
  Tb  Tb3  1  0.02831000  0.47445000  0.61083000  1.0
  Tb  Tb4  1  0.56395000  0.59823000  0.54334000  1.0
  Tb  Tb5  1  0.52831000  0.13638000  0.61084000  1.0
  Tb  Tb6  1  0.93605000  0.05489000  0.45666000  1.0
  Tb  Tb7  1  0.97169000  0.52555000  0.38916000  1.0
  H  H8  1  0.33545000  0.76034000  0.00347000  1.0
  H  H9  1  0.37007000  0.86614000  0.11872000  1.0
  H  H10  1  0.34873000  0.00406000  0.02445000  1.0
  H  H11  1  0.31435000  0.89646000  0.90764000  1.0
  H  H12  1  0.45951000  0.96568000  0.29285000  1.0
  H  H13  1  0.50429000  0.18272000  0.46376000  1.0
  H  H14  1  0.41432000  0.15040000  0.26485000  1.0
  H  H15  1  0.39731000  0.69637000  0.70479000  1.0
  H  H16  1  0.26669000  0.51654000  0.56450000  1.0
  H  H17  1  0.19136000  0.67316000  0.77627000  1.0
  H  H18  1  0.73070000  0.71549000  0.93487000  1.0
  H  H19  1  0.73040000  0.51333000  0.93749000  1.0
  H  H20  1  0.61557000  0.56126000  0.73720000  1.0
  H  H21  1  0.52184000  0.35723000  0.58584000  1.0
  H  H22  1  0.63172000  0.37532000  0.76977000  1.0
  H  H23  1  0.47869000  0.74916000  0.08915000  1.0
  H  H24  1  0.50381000  0.65681000  0.05659000  1.0
  H  H25  1  0.56376000  0.71846000  0.05084000  1.0
  H  H26  1  0.59087000  0.64743000  0.16629000  1.0
  H  H27  1  0.64046000  0.72962000  0.20766000  1.0
  H  H28  1  0.64052000  0.67335000  0.11126000  1.0
  H  H29  1  0.47139000  0.81098000  0.20780000  1.0
  H  H30  1  0.77495000  0.85573000  0.36781000  1.0
  H  H31  1  0.80220000  0.81470000  0.41931000  1.0
  H  H32  1  0.80757000  0.91133000  0.45701000  1.0
  H  H33  1  0.64720000  0.90700000  0.54542000  1.0
  H  H34  1  0.73991000  0.90182000  0.55444000  1.0
  H  H35  1  0.68780000  0.82080000  0.51431000  1.0
  H  H36  1  0.66424000  0.86192000  0.35735000  1.0
  H  H37  1  0.38821000  0.29137000  0.64712000  1.0
  H  H38  1  0.29678000  0.28256000  0.66089000  1.0
  H  H39  1  0.34226000  0.36350000  0.72196000  1.0
  H  H40  1  0.24748000  0.40912000  0.59440000  1.0
  H  H41  1  0.24742000  0.43239000  0.68732000  1.0
  H  H42  1  0.21093000  0.34819000  0.62121000  1.0
  H  H43  1  0.41595000  0.32095000  0.56757000  1.0
  H  H44  1  0.20689000  0.38802000  0.44891000  1.0
  H  H45  1  0.14677000  0.31885000  0.39043000  1.0
  H  H46  1  0.13894000  0.40886000  0.40478000  1.0
  H  H47  1  0.23343000  0.31075000  0.22764000  1.0
  H  H48  1  0.15221000  0.35427000  0.26700000  1.0
  H  H49  1  0.16842000  0.26467000  0.25143000  1.0
  H  H50  1  0.32445000  0.34026000  0.29994000  1.0
  H  H51  1  0.34154000  0.79193000  0.81736000  1.0
  H  H52  1  0.42027000  0.94853000  0.18661000  1.0
  H  H53  1  0.65798000  0.49617000  0.86338000  1.0
  H  H54  1  0.16456000  0.75687000  0.99653000  1.0
  H  H55  1  0.12993000  0.74742000  0.88128000  1.0
  H  H56  1  0.15126000  0.97961000  0.97555000  1.0
  H  H57  1  0.18565000  0.98882000  0.09236000  1.0
  H  H58  1  0.04050000  0.67282000  0.70715000  1.0
  H  H59  1  0.99572000  0.71896000  0.53624000  1.0
  H  H60  1  0.08568000  0.88555000  0.73515000  1.0
  H  H61  1  0.10269000  0.99157000  0.29520000  1.0
  H  H62  1  0.23331000  0.95204000  0.43550000  1.0
  H  H63  1  0.30864000  0.89689000  0.22373000  1.0
  H  H64  1  0.76930000  0.78061000  0.06512000  1.0
  H  H65  1  0.76961000  0.57584000  0.06251000  1.0
  H  H66  1  0.88443000  0.82406000  0.26280000  1.0
  H  H67  1  0.97816000  0.77139000  0.41416000  1.0
  H  H68  1  0.86828000  0.60555000  0.23023000  1.0
  H  H69  1  0.02131000  0.66001000  0.91085000  1.0
  H  H70  1  0.99619000  0.60022000  0.94341000  1.0
  H  H71  1  0.93624000  0.66762000  0.94916000  1.0
  H  H72  1  0.90913000  0.48114000  0.83371000  1.0
  H  H73  1  0.85954000  0.52195000  0.79234000  1.0
  H  H74  1  0.85948000  0.56209000  0.88875000  1.0
  H  H75  1  0.02862000  0.60318000  0.79220000  1.0
  H  H76  1  0.72505000  0.48792000  0.63219000  1.0
  H  H77  1  0.69780000  0.39540000  0.58069000  1.0
  H  H78  1  0.69243000  0.45432000  0.54300000  1.0
  H  H79  1  0.85280000  0.36158000  0.45458000  1.0
  H  H80  1  0.76009000  0.34738000  0.44556000  1.0
  H  H81  1  0.81220000  0.30649000  0.48569000  1.0
  H  H82  1  0.83576000  0.50457000  0.64265000  1.0
  H  H83  1  0.11179000  0.64425000  0.35287000  1.0
  H  H84  1  0.20322000  0.62168000  0.33911000  1.0
  H  H85  1  0.15774000  0.64153000  0.27804000  1.0
  H  H86  1  0.25252000  0.81471000  0.40559000  1.0
  H  H87  1  0.25258000  0.74507000  0.31268000  1.0
  H  H88  1  0.28907000  0.72698000  0.37879000  1.0
  H  H89  1  0.08405000  0.75338000  0.43243000  1.0
  H  H90  1  0.29311000  0.93911000  0.55110000  1.0
  H  H91  1  0.35323000  0.92842000  0.60957000  1.0
  H  H92  1  0.36106000  0.00408000  0.59522000  1.0
  H  H93  1  0.26657000  0.08311000  0.77236000  1.0
  H  H94  1  0.34779000  0.08726000  0.73300000  1.0
  H  H95  1  0.33158000  0.01324000  0.74857000  1.0
  H  H96  1  0.17555000  0.04032000  0.70006000  1.0
  H  H97  1  0.15846000  0.97457000  0.18264000  1.0
  H  H98  1  0.07973000  0.76192000  0.81339000  1.0
  H  H99  1  0.84202000  0.63279000  0.13663000  1.0
  H  H100  1  0.66456000  0.23966000  0.99653000  1.0
  H  H101  1  0.62993000  0.13387000  0.88128000  1.0
  H  H102  1  0.65127000  0.99594000  0.97555000  1.0
  H  H103  1  0.68565000  0.10354000  0.09236000  1.0
  H  H104  1  0.54050000  0.03433000  0.70714000  1.0
  H  H105  1  0.49572000  0.81728000  0.53623000  1.0
  H  H106  1  0.58568000  0.84960000  0.73515000  1.0
  H  H107  1  0.60269000  0.30363000  0.29521000  1.0
  H  H108  1  0.73331000  0.48347000  0.43550000  1.0
  H  H109  1  0.80864000  0.32684000  0.22373000  1.0
  H  H110  1  0.26930000  0.28451000  0.06512000  1.0
  H  H111  1  0.26961000  0.48667000  0.06251000  1.0
  H  H112  1  0.38443000  0.43874000  0.26280000  1.0
  H  H113  1  0.47816000  0.64277000  0.41416000  1.0
  H  H114  1  0.36828000  0.62468000  0.23023000  1.0
  H  H115  1  0.52131000  0.25084000  0.91085000  1.0
  H  H116  1  0.49619000  0.34319000  0.94341000  1.0
  H  H117  1  0.43623000  0.28154000  0.94916000  1.0
  H  H118  1  0.40913000  0.35257000  0.83371000  1.0
  H  H119  1  0.35954000  0.27038000  0.79233000  1.0
  H  H120  1  0.35948000  0.32665000  0.88874000  1.0
  H  H121  1  0.52861000  0.18902000  0.79220000  1.0
  H  H122  1  0.22505000  0.14426000  0.63219000  1.0
  H  H123  1  0.19780000  0.18530000  0.58069000  1.0
  H  H124  1  0.19243000  0.08867000  0.54299000  1.0
  H  H125  1  0.35280000  0.09300000  0.45458000  1.0
  H  H126  1  0.26009000  0.09818000  0.44556000  1.0
  H  H127  1  0.31220000  0.17920000  0.48569000  1.0
  H  H128  1  0.33576000  0.13808000  0.64265000  1.0
  H  H129  1  0.61179000  0.70863000  0.35288000  1.0
  H  H130  1  0.70322000  0.71744000  0.33912000  1.0
  H  H131  1  0.65774000  0.63650000  0.27804000  1.0
  H  H132  1  0.75252000  0.59088000  0.40560000  1.0
  H  H133  1  0.75258000  0.56761000  0.31268000  1.0
  H  H134  1  0.78907000  0.65181000  0.37879000  1.0
  H  H135  1  0.58405000  0.67905000  0.43243000  1.0
  H  H136  1  0.79310000  0.61198000  0.55110000  1.0
  H  H137  1  0.85322000  0.68115000  0.60957000  1.0
  H  H138  1  0.86106000  0.59114000  0.59522000  1.0
  H  H139  1  0.76657000  0.68926000  0.77236000  1.0
  H  H140  1  0.84779000  0.64574000  0.73300000  1.0
  H  H141  1  0.83158000  0.73533000  0.74857000  1.0
  H  H142  1  0.67555000  0.65974000  0.70007000  1.0
  H  H143  1  0.65846000  0.20807000  0.18264000  1.0
  H  H144  1  0.57973000  0.05147000  0.81339000  1.0
  H  H145  1  0.34202000  0.50384000  0.13663000  1.0
  H  H146  1  0.83544000  0.24313000  0.00347000  1.0
  H  H147  1  0.87007000  0.25259000  0.11872000  1.0
  H  H148  1  0.84873000  0.02039000  0.02445000  1.0
  H  H149  1  0.81435000  0.01118000  0.90764000  1.0
  H  H150  1  0.95950000  0.32718000  0.29285000  1.0
  H  H151  1  0.00428000  0.28104000  0.46376000  1.0
  H  H152  1  0.91432000  0.11445000  0.26485000  1.0
  H  H153  1  0.89731000  0.00842000  0.70479000  1.0
  H  H154  1  0.76669000  0.04796000  0.56450000  1.0
  H  H155  1  0.69136000  0.10311000  0.77627000  1.0
  H  H156  1  0.23070000  0.21938000  0.93487000  1.0
  H  H157  1  0.23040000  0.42416000  0.93749000  1.0
  H  H158  1  0.11557000  0.17594000  0.73720000  1.0
  H  H159  1  0.02184000  0.22861000  0.58584000  1.0
  H  H160  1  0.13172000  0.39445000  0.76977000  1.0
  H  H161  1  0.97869000  0.33999000  0.08916000  1.0
  H  H162  1  0.00380000  0.39978000  0.05659000  1.0
  H  H163  1  0.06376000  0.33239000  0.05084000  1.0
  H  H164  1  0.09087000  0.51886000  0.16629000  1.0
  H  H165  1  0.14046000  0.47805000  0.20766000  1.0
  H  H166  1  0.14052000  0.43791000  0.11125000  1.0
  H  H167  1  0.97138000  0.39683000  0.20780000  1.0
  H  H168  1  0.27495000  0.51208000  0.36781000  1.0
  H  H169  1  0.30220000  0.60461000  0.41931000  1.0
  H  H170  1  0.30757000  0.54568000  0.45701000  1.0
  H  H171  1  0.14720000  0.63842000  0.54543000  1.0
  H  H172  1  0.23991000  0.65262000  0.55445000  1.0
  H  H173  1  0.18781000  0.69351000  0.51431000  1.0
  H  H174  1  0.16423000  0.49543000  0.35736000  1.0
  H  H175  1  0.88821000  0.35575000  0.64712000  1.0
  H  H176  1  0.79678000  0.37832000  0.66088000  1.0
  H  H177  1  0.84226000  0.35846000  0.72196000  1.0
  H  H178  1  0.74748000  0.18529000  0.59441000  1.0
  H  H179  1  0.74742000  0.25493000  0.68732000  1.0
  H  H180  1  0.71093000  0.27302000  0.62121000  1.0
  H  H181  1  0.91595000  0.24661000  0.56756000  1.0
  H  H182  1  0.70690000  0.06088000  0.44890000  1.0
  H  H183  1  0.64677000  0.07158000  0.39043000  1.0
  H  H184  1  0.63894000  0.99592000  0.40478000  1.0
  H  H185  1  0.73342000  0.91689000  0.22764000  1.0
  H  H186  1  0.65221000  0.91274000  0.26700000  1.0
  H  H187  1  0.66842000  0.98676000  0.25143000  1.0
  H  H188  1  0.82445000  0.95968000  0.29993000  1.0
  H  H189  1  0.84154000  0.02543000  0.81736000  1.0
  H  H190  1  0.92027000  0.23808000  0.18661000  1.0
  H  H191  1  0.15798000  0.36721000  0.86337000  1.0
  C  C192  1  0.32612000  0.82023000  0.94717000  1.0
  C  C193  1  0.34194000  0.81333000  0.00759000  1.0
  C  C194  1  0.36143000  0.87377000  0.07232000  1.0
  C  C195  1  0.36440000  0.94296000  0.07870000  1.0
  C  C196  1  0.34810000  0.94977000  0.01820000  1.0
  C  C197  1  0.32957000  0.88910000  0.95293000  1.0
  C  C198  1  0.38096000  0.01177000  0.14785000  1.0
  C  C199  1  0.30178000  0.75308000  0.88096000  1.0
  C  C200  1  0.43562000  0.05202000  0.26932000  1.0
  C  C201  1  0.46113000  0.02399000  0.31218000  1.0
  C  C202  1  0.48619000  0.07055000  0.38178000  1.0
  C  C203  1  0.48587000  0.14580000  0.40920000  1.0
  C  C204  1  0.46000000  0.17344000  0.36645000  1.0
  C  C205  1  0.43471000  0.12737000  0.29665000  1.0
  C  C206  1  0.51146000  0.03944000  0.42727000  1.0
  C  C207  1  0.45705000  0.25395000  0.39636000  1.0
  C  C208  1  0.29542000  0.69230000  0.74870000  1.0
  C  C209  1  0.34723000  0.66828000  0.69531000  1.0
  C  C210  1  0.33669000  0.60501000  0.62902000  1.0
  C  C211  1  0.27405000  0.56649000  0.61576000  1.0
  C  C212  1  0.22125000  0.59194000  0.66842000  1.0
  C  C213  1  0.23211000  0.65465000  0.73517000  1.0
  C  C214  1  0.15320000  0.55219000  0.65266000  1.0
  C  C215  1  0.39476000  0.57627000  0.57410000  1.0
  C  C216  1  0.72640000  0.61103000  0.92795000  1.0
  C  C217  1  0.73896000  0.68618000  0.96421000  1.0
  C  C218  1  0.73800000  0.57215000  0.96446000  1.0
  C  C219  1  0.70213000  0.57673000  0.85085000  1.0
  C  C220  1  0.62777000  0.47383000  0.76172000  1.0
  C  C221  1  0.60411000  0.50501000  0.72115000  1.0
  C  C222  1  0.56518000  0.46295000  0.65848000  1.0
  C  C223  1  0.55018000  0.39017000  0.63602000  1.0
  C  C224  1  0.57381000  0.35935000  0.67687000  1.0
  C  C225  1  0.61298000  0.40100000  0.73943000  1.0
  C  C226  1  0.54074000  0.49655000  0.61441000  1.0
  C  C227  1  0.55755000  0.28195000  0.65482000  1.0
  C  C228  1  0.52245000  0.71345000  0.08422000  1.0
  C  C229  1  0.60879000  0.69369000  0.16049000  1.0
  C  C230  1  0.51850000  0.78588000  0.21609000  1.0
  C  C231  1  0.77653000  0.86264000  0.42231000  1.0
  C  C232  1  0.69453000  0.87509000  0.52020000  1.0
  C  C233  1  0.65049000  0.86674000  0.41002000  1.0
  C  C234  1  0.33811000  0.32053000  0.66479000  1.0
  C  C235  1  0.25290000  0.38756000  0.63131000  1.0
  C  C236  1  0.36757000  0.35158000  0.57246000  1.0
  C  C237  1  0.17632000  0.36711000  0.39926000  1.0
  C  C238  1  0.19294000  0.31751000  0.26711000  1.0
  C  C239  1  0.29283000  0.35731000  0.34931000  1.0
  C  C240  1  0.17388000  0.87306000  0.05283000  1.0
  C  C241  1  0.15806000  0.80574000  0.99241000  1.0
  C  C242  1  0.13857000  0.80146000  0.92768000  1.0
  C  C243  1  0.13560000  0.86426000  0.92130000  1.0
  C  C244  1  0.15190000  0.93157000  0.98180000  1.0
  C  C245  1  0.17043000  0.93617000  0.04707000  1.0
  C  C246  1  0.11904000  0.86391000  0.85215000  1.0
  C  C247  1  0.19822000  0.87212000  0.11904000  1.0
  C  C248  1  0.06438000  0.78270000  0.73068000  1.0
  C  C249  1  0.03887000  0.71181000  0.68782000  1.0
  C  C250  1  0.01381000  0.68878000  0.61822000  1.0
  C  C251  1  0.01413000  0.73660000  0.59080000  1.0
  C  C252  1  0.04000000  0.80699000  0.63355000  1.0
  C  C253  1  0.06529000  0.83072000  0.70335000  1.0
  C  C254  1  0.98854000  0.61217000  0.57273000  1.0
  C  C255  1  0.04296000  0.85759000  0.60364000  1.0
  C  C256  1  0.20458000  0.94360000  0.25130000  1.0
  C  C257  1  0.15277000  0.97297000  0.30469000  1.0
  C  C258  1  0.16331000  0.97599000  0.37098000  1.0
  C  C259  1  0.22595000  0.95073000  0.38424000  1.0
  C  C260  1  0.27875000  0.92352000  0.33158000  1.0
  C  C261  1  0.26789000  0.91948000  0.26482000  1.0
  C  C262  1  0.34680000  0.89953000  0.34734000  1.0
  C  C263  1  0.10524000  0.00217000  0.42590000  1.0
  C  C264  1  0.77360000  0.68308000  0.07205000  1.0
  C  C265  1  0.76104000  0.72197000  0.03578000  1.0
  C  C266  1  0.76200000  0.60769000  0.03554000  1.0
  C  C267  1  0.79787000  0.72589000  0.14915000  1.0
  C  C268  1  0.87223000  0.71211000  0.23828000  1.0
  C  C269  1  0.89588000  0.78386000  0.27885000  1.0
  C  C270  1  0.93482000  0.80448000  0.34152000  1.0
  C  C271  1  0.94982000  0.75415000  0.36398000  1.0
  C  C272  1  0.92619000  0.68247000  0.32313000  1.0
  C  C273  1  0.88701000  0.66158000  0.26057000  1.0
  C  C274  1  0.95926000  0.88214000  0.38559000  1.0
  C  C275  1  0.94245000  0.62714000  0.34518000  1.0
  C  C276  1  0.97755000  0.62923000  0.91578000  1.0
  C  C277  1  0.89121000  0.53321000  0.83951000  1.0
  C  C278  1  0.98150000  0.56979000  0.78391000  1.0
  C  C279  1  0.72347000  0.44034000  0.57769000  1.0
  C  C280  1  0.80547000  0.35490000  0.47980000  1.0
  C  C281  1  0.84951000  0.45672000  0.58998000  1.0
  C  C282  1  0.16189000  0.65574000  0.33521000  1.0
  C  C283  1  0.24710000  0.75625000  0.36869000  1.0
  C  C284  1  0.13244000  0.77912000  0.42754000  1.0
  C  C285  1  0.32368000  0.96785000  0.60074000  1.0
  C  C286  1  0.30706000  0.05041000  0.73290000  1.0
  C  C287  1  0.20717000  0.00800000  0.65069000  1.0
  C  C288  1  0.67388000  0.17978000  0.05283000  1.0
  C  C289  1  0.65807000  0.18667000  0.99241000  1.0
  C  C290  1  0.63857000  0.12623000  0.92768000  1.0
  C  C291  1  0.63561000  0.05704000  0.92129000  1.0
  C  C292  1  0.65190000  0.05023000  0.98180000  1.0
  C  C293  1  0.67043000  0.11090000  0.04707000  1.0
  C  C294  1  0.61904000  0.98823000  0.85215000  1.0
  C  C295  1  0.69822000  0.24692000  0.11904000  1.0
  C  C296  1  0.56438000  0.94798000  0.73068000  1.0
  C  C297  1  0.53887000  0.97601000  0.68781000  1.0
  C  C298  1  0.51381000  0.92945000  0.61822000  1.0
  C  C299  1  0.51413000  0.85420000  0.59080000  1.0
  C  C300  1  0.54000000  0.82657000  0.63355000  1.0
  C  C301  1  0.56529000  0.87263000  0.70335000  1.0
  C  C302  1  0.48854000  0.96056000  0.57273000  1.0
  C  C303  1  0.54295000  0.74605000  0.60364000  1.0
  C  C304  1  0.70458000  0.30770000  0.25130000  1.0
  C  C305  1  0.65278000  0.33172000  0.30469000  1.0
  C  C306  1  0.66331000  0.39499000  0.37098000  1.0
  C  C307  1  0.72595000  0.43351000  0.38424000  1.0
  C  C308  1  0.77875000  0.40806000  0.33158000  1.0
  C  C309  1  0.76789000  0.34535000  0.26483000  1.0
  C  C310  1  0.84680000  0.44781000  0.34734000  1.0
  C  C311  1  0.60524000  0.42373000  0.42590000  1.0
  C  C312  1  0.27360000  0.38897000  0.07205000  1.0
  C  C313  1  0.26104000  0.31381000  0.03578000  1.0
  C  C314  1  0.26200000  0.42785000  0.03554000  1.0
  C  C315  1  0.29787000  0.42327000  0.14915000  1.0
  C  C316  1  0.37223000  0.52617000  0.23828000  1.0
  C  C317  1  0.39589000  0.49499000  0.27885000  1.0
  C  C318  1  0.43482000  0.53705000  0.34152000  1.0
  C  C319  1  0.44982000  0.60983000  0.36398000  1.0
  C  C320  1  0.42620000  0.64065000  0.32312000  1.0
  C  C321  1  0.38702000  0.59899000  0.26057000  1.0
  C  C322  1  0.45926000  0.50345000  0.38559000  1.0
  C  C323  1  0.44245000  0.71805000  0.34518000  1.0
  C  C324  1  0.47755000  0.28655000  0.91578000  1.0
  C  C325  1  0.39121000  0.30631000  0.83951000  1.0
  C  C326  1  0.48150000  0.21412000  0.78391000  1.0
  C  C327  1  0.22347000  0.13735000  0.57769000  1.0
  C  C328  1  0.30547000  0.12490000  0.47980000  1.0
  C  C329  1  0.34951000  0.13326000  0.58998000  1.0
  C  C330  1  0.66189000  0.67947000  0.33521000  1.0
  C  C331  1  0.74710000  0.61244000  0.36869000  1.0
  C  C332  1  0.63244000  0.64841000  0.42754000  1.0
  C  C333  1  0.82367000  0.63289000  0.60074000  1.0
  C  C334  1  0.80706000  0.68249000  0.73290000  1.0
  C  C335  1  0.70717000  0.64269000  0.65070000  1.0
  C  C336  1  0.82612000  0.12694000  0.94717000  1.0
  C  C337  1  0.84193000  0.19426000  0.00759000  1.0
  C  C338  1  0.86143000  0.19854000  0.07232000  1.0
  C  C339  1  0.86440000  0.13575000  0.07871000  1.0
  C  C340  1  0.84810000  0.06843000  0.01820000  1.0
  C  C341  1  0.82957000  0.06383000  0.95293000  1.0
  C  C342  1  0.88096000  0.13609000  0.14786000  1.0
  C  C343  1  0.80178000  0.12788000  0.88096000  1.0
  C  C344  1  0.93561000  0.21730000  0.26932000  1.0
  C  C345  1  0.96113000  0.28819000  0.31219000  1.0
  C  C346  1  0.98619000  0.31122000  0.38178000  1.0
  C  C347  1  0.98587000  0.26340000  0.40920000  1.0
  C  C348  1  0.96000000  0.19301000  0.36645000  1.0
  C  C349  1  0.93471000  0.16928000  0.29665000  1.0
  C  C350  1  0.01146000  0.38783000  0.42727000  1.0
  C  C351  1  0.95704000  0.14241000  0.39636000  1.0
  C  C352  1  0.79542000  0.05640000  0.74870000  1.0
  C  C353  1  0.84722000  0.02702000  0.69531000  1.0
  C  C354  1  0.83669000  0.02400000  0.62902000  1.0
  C  C355  1  0.77405000  0.04927000  0.61576000  1.0
  C  C356  1  0.72125000  0.07648000  0.66842000  1.0
  C  C357  1  0.73210000  0.08052000  0.73517000  1.0
  C  C358  1  0.65320000  0.10046000  0.65266000  1.0
  C  C359  1  0.89476000  0.99782000  0.57410000  1.0
  C  C360  1  0.22640000  0.31692000  0.92795000  1.0
  C  C361  1  0.23896000  0.27803000  0.96422000  1.0
  C  C362  1  0.23800000  0.39231000  0.96446000  1.0
  C  C363  1  0.20213000  0.27411000  0.85085000  1.0
  C  C364  1  0.12777000  0.28789000  0.76172000  1.0
  C  C365  1  0.10411000  0.21614000  0.72115000  1.0
  C  C366  1  0.06518000  0.19552000  0.65848000  1.0
  C  C367  1  0.05018000  0.24585000  0.63602000  1.0
  C  C368  1  0.07381000  0.31753000  0.67687000  1.0
  C  C369  1  0.11299000  0.33842000  0.73943000  1.0
  C  C370  1  0.04074000  0.11786000  0.61441000  1.0
  C  C371  1  0.05755000  0.37287000  0.65481000  1.0
  C  C372  1  0.02245000  0.37078000  0.08422000  1.0
  C  C373  1  0.10879000  0.46679000  0.16049000  1.0
  C  C374  1  0.01850000  0.43021000  0.21609000  1.0
  C  C375  1  0.27653000  0.55966000  0.42231000  1.0
  C  C376  1  0.19453000  0.64511000  0.52021000  1.0
  C  C377  1  0.15049000  0.54329000  0.41002000  1.0
  C  C378  1  0.83811000  0.34425000  0.66479000  1.0
  C  C379  1  0.75290000  0.24374000  0.63131000  1.0
  C  C380  1  0.86756000  0.22087000  0.57246000  1.0
  C  C381  1  0.67632000  0.03215000  0.39926000  1.0
  C  C382  1  0.69293000  0.94959000  0.26710000  1.0
  C  C383  1  0.79283000  0.99200000  0.34930000  1.0
  N  N384  1  0.30880000  0.75401000  0.81707000  1.0
  N  N385  1  0.41243000  0.00102000  0.19965000  1.0
  N  N386  1  0.66376000  0.51458000  0.82788000  1.0
  N  N387  1  0.70542000  0.86972000  0.44986000  1.0
  N  N388  1  0.32076000  0.35226000  0.62009000  1.0
  N  N389  1  0.22348000  0.34825000  0.33860000  1.0
  N  N390  1  0.54938000  0.73415000  0.15561000  1.0
  N  N391  1  0.19120000  0.93694000  0.18293000  1.0
  N  N392  1  0.08757000  0.80137000  0.80035000  1.0
  N  N393  1  0.83623000  0.68670000  0.17212000  1.0
  N  N394  1  0.79458000  0.41986000  0.55014000  1.0
  N  N395  1  0.17924000  0.73217000  0.37991000  1.0
  N  N396  1  0.27652000  0.00965000  0.66140000  1.0
  N  N397  1  0.95063000  0.57853000  0.84439000  1.0
  N  N398  1  0.69120000  0.24599000  0.18293000  1.0
  N  N399  1  0.58758000  0.99898000  0.80035000  1.0
  N  N400  1  0.33623000  0.48542000  0.17212000  1.0
  N  N401  1  0.29458000  0.13028000  0.55014000  1.0
  N  N402  1  0.67924000  0.64774000  0.37991000  1.0
  N  N403  1  0.77652000  0.65175000  0.66141000  1.0
  N  N404  1  0.45062000  0.26586000  0.84439000  1.0
  N  N405  1  0.80880000  0.06306000  0.81707000  1.0
  N  N406  1  0.91242000  0.19864000  0.19965000  1.0
  N  N407  1  0.16377000  0.31330000  0.82788000  1.0
  N  N408  1  0.20542000  0.58014000  0.44986000  1.0
  N  N409  1  0.82076000  0.26783000  0.62009000  1.0
  N  N410  1  0.72348000  0.99035000  0.33860000  1.0
  N  N411  1  0.04937000  0.42147000  0.15561000  1.0
  O  O412  1  0.50740000  0.97089000  0.40079000  1.0
  O  O413  1  0.53706000  0.08246000  0.48882000  1.0
  O  O414  1  0.47944000  0.29600000  0.46037000  1.0
  O  O415  1  0.43043000  0.27891000  0.35809000  1.0
  O  O416  1  0.10359000  0.57607000  0.69933000  1.0
  O  O417  1  0.14545000  0.49465000  0.59094000  1.0
  O  O418  1  0.38400000  0.51562000  0.51711000  1.0
  O  O419  1  0.45004000  0.61369000  0.58848000  1.0
  O  O420  1  0.27691000  0.70087000  0.88421000  1.0
  O  O421  1  0.36719000  0.07230000  0.15559000  1.0
  O  O422  1  0.51188000  0.24742000  0.60568000  1.0
  O  O423  1  0.58930000  0.25200000  0.68593000  1.0
  O  O424  1  0.49771000  0.46034000  0.56389000  1.0
  O  O425  1  0.56578000  0.55813000  0.63030000  1.0
  O  O426  1  0.71567000  0.60463000  0.81314000  1.0
  O  O427  1  0.54055000  0.80462000  0.27815000  1.0
  O  O428  1  0.58836000  0.86860000  0.42938000  1.0
  O  O429  1  0.35755000  0.38167000  0.53555000  1.0
  O  O430  1  0.31967000  0.38344000  0.41040000  1.0
  O  O431  1  0.99260000  0.57009000  0.59920000  1.0
  O  O432  1  0.96294000  0.59364000  0.51118000  1.0
  O  O433  1  0.02057000  0.83563000  0.53964000  1.0
  O  O434  1  0.06957000  0.92081000  0.64191000  1.0
  O  O435  1  0.39641000  0.87674000  0.30067000  1.0
  O  O436  1  0.35455000  0.90370000  0.40906000  1.0
  O  O437  1  0.11601000  0.99850000  0.48289000  1.0
  O  O438  1  0.04996000  0.02522000  0.41152000  1.0
  O  O439  1  0.22310000  0.81667000  0.11579000  1.0
  O  O440  1  0.13281000  0.91671000  0.84441000  1.0
  O  O441  1  0.98812000  0.64174000  0.39431000  1.0
  O  O442  1  0.91071000  0.56607000  0.31407000  1.0
  O  O443  1  0.00229000  0.89644000  0.43611000  1.0
  O  O444  1  0.93422000  0.92784000  0.36970000  1.0
  O  O445  1  0.78433000  0.79149000  0.18686000  1.0
  O  O446  1  0.95945000  0.52647000  0.72185000  1.0
  O  O447  1  0.91164000  0.43921000  0.57062000  1.0
  O  O448  1  0.14245000  0.84612000  0.46445000  1.0
  O  O449  1  0.18033000  0.97304000  0.58960000  1.0
  O  O450  1  0.49260000  0.02911000  0.59920000  1.0
  O  O451  1  0.46294000  0.91754000  0.51118000  1.0
  O  O452  1  0.52056000  0.70400000  0.53963000  1.0
  O  O453  1  0.56956000  0.72109000  0.64191000  1.0
  O  O454  1  0.89641000  0.42393000  0.30067000  1.0
  O  O455  1  0.85455000  0.50536000  0.40906000  1.0
  O  O456  1  0.61600000  0.48438000  0.48289000  1.0
  O  O457  1  0.54996000  0.38631000  0.41153000  1.0
  O  O458  1  0.72310000  0.29912000  0.11580000  1.0
  O  O459  1  0.63281000  0.92770000  0.84441000  1.0
  O  O460  1  0.48812000  0.75258000  0.39431000  1.0
  O  O461  1  0.41070000  0.74801000  0.31407000  1.0
  O  O462  1  0.50229000  0.53966000  0.43611000  1.0
  O  O463  1  0.43421000  0.44187000  0.36970000  1.0
  O  O464  1  0.28433000  0.39537000  0.18686000  1.0
  O  O465  1  0.45945000  0.19538000  0.72185000  1.0
  O  O466  1  0.41164000  0.13140000  0.57061000  1.0
  O  O467  1  0.64245000  0.61833000  0.46445000  1.0
  O  O468  1  0.68033000  0.61656000  0.58960000  1.0
  O  O469  1  0.00741000  0.42991000  0.40080000  1.0
  O  O470  1  0.03707000  0.40636000  0.48882000  1.0
  O  O471  1  0.97943000  0.16437000  0.46037000  1.0
  O  O472  1  0.93044000  0.07919000  0.35809000  1.0
  O  O473  1  0.60359000  0.12326000  0.69933000  1.0
  O  O474  1  0.64545000  0.09630000  0.59094000  1.0
  O  O475  1  0.88400000  0.00148000  0.51711000  1.0
  O  O476  1  0.95004000  0.97478000  0.58847000  1.0
  O  O477  1  0.77690000  0.18333000  0.88421000  1.0
  O  O478  1  0.86719000  0.08329000  0.15560000  1.0
  O  O479  1  0.01189000  0.35826000  0.60568000  1.0
  O  O480  1  0.08930000  0.43393000  0.68592000  1.0
  O  O481  1  0.99772000  0.10356000  0.56389000  1.0
  O  O482  1  0.06579000  0.07216000  0.63030000  1.0
  O  O483  1  0.21567000  0.20851000  0.81314000  1.0
  O  O484  1  0.04055000  0.47353000  0.27815000  1.0
  O  O485  1  0.08836000  0.56079000  0.42939000  1.0
  O  O486  1  0.85755000  0.15387000  0.53555000  1.0
  O  O487  1  0.81967000  0.02696000  0.41040000  1.0
