# generated using pymatgen
data_SmH13(C9O7)2
_symmetry_space_group_name_H-M   'P 1'
_cell_length_a   9.30204000
_cell_length_b   10.48490000
_cell_length_c   11.11220000
_cell_angle_alpha   101.06660000
_cell_angle_beta   108.75620000
_cell_angle_gamma   93.55660000
_symmetry_Int_Tables_number   1
_chemical_formula_structural   SmH13(C9O7)2
_chemical_formula_sum   'Sm2 H26 C36 O28'
_cell_volume   998.17592678
_cell_formula_units_Z   2
loop_
 _symmetry_equiv_pos_site_id
 _symmetry_equiv_pos_as_xyz
  1  'x, y, z'
loop_
 _atom_site_type_symbol
 _atom_site_label
 _atom_site_symmetry_multiplicity
 _atom_site_fract_x
 _atom_site_fract_y
 _atom_site_fract_z
 _atom_site_occupancy
  Sm  Sm0  1  0.23168000  0.96973000  0.50035000  1.0
  Sm  Sm1  1  0.76831000  0.03027000  0.49964000  1.0
  H  H2  1  0.98700000  0.37274000  0.31969000  1.0
  H  H3  1  0.01300000  0.62727000  0.68030000  1.0
  H  H4  1  0.06113000  0.46687000  0.15836000  1.0
  H  H5  1  0.93887000  0.53313000  0.84164000  1.0
  H  H6  1  0.32926000  0.65698000  0.17224000  1.0
  H  H7  1  0.67075000  0.34302000  0.82777000  1.0
  H  H8  1  0.63805000  0.45871000  0.02969000  1.0
  H  H9  1  0.36196000  0.54128000  0.97033000  1.0
  H  H10  1  0.70739000  0.25923000  0.29465000  1.0
  H  H11  1  0.29263000  0.74077000  0.70536000  1.0
  H  H12  1  0.25957000  0.25738000  0.41417000  1.0
  H  H13  1  0.74043000  0.74262000  0.58583000  1.0
  H  H14  1  0.31809000  0.15125000  0.32879000  1.0
  H  H15  1  0.68191000  0.84875000  0.67121000  1.0
  H  H16  1  0.32331000  0.24215000  0.70919000  1.0
  H  H17  1  0.67669000  0.75785000  0.29081000  1.0
  H  H18  1  0.20969000  0.15862000  0.75050000  1.0
  H  H19  1  0.79031000  0.84138000  0.24950000  1.0
  H  H20  1  0.06229000  0.71830000  0.30655000  1.0
  H  H21  1  0.93771000  0.28171000  0.69345000  1.0
  H  H22  1  0.95369000  0.77227000  0.38401000  1.0
  H  H23  1  0.04631000  0.22773000  0.61599000  1.0
  H  H24  1  0.48276000  0.79002000  0.51074000  1.0
  H  H25  1  0.51725000  0.20997000  0.48927000  1.0
  H  H26  1  0.35280000  0.71052000  0.53749000  1.0
  H  H27  1  0.64721000  0.28949000  0.46252000  1.0
  C  C28  1  0.91420000  0.11392000  0.31333000  1.0
  C  C29  1  0.08581000  0.88608000  0.68667000  1.0
  C  C30  1  0.96845000  0.17065000  0.21871000  1.0
  C  C31  1  0.03155000  0.82935000  0.78128000  1.0
  C  C32  1  0.00033000  0.30687000  0.23612000  1.0
  C  C33  1  0.99965000  0.69313000  0.76386000  1.0
  C  C34  1  0.04338000  0.36030000  0.14489000  1.0
  C  C35  1  0.95659000  0.63970000  0.85510000  1.0
  C  C36  1  0.05772000  0.27955000  0.03410000  1.0
  C  C37  1  0.94225000  0.72045000  0.96588000  1.0
  C  C38  1  0.03415000  0.14268000  0.02021000  1.0
  C  C39  1  0.96582000  0.85732000  0.97978000  1.0
  C  C40  1  0.98473000  0.08891000  0.10951000  1.0
  C  C41  1  0.01526000  0.91109000  0.89048000  1.0
  C  C42  1  0.08013000  0.33648000  0.92439000  1.0
  C  C43  1  0.91986000  0.66353000  0.07560000  1.0
  C  C44  1  0.93797000  0.94707000  0.08589000  1.0
  C  C45  1  0.06202000  0.05294000  0.91409000  1.0
  C  C46  1  0.38631000  0.91450000  0.27920000  1.0
  C  C47  1  0.61368000  0.08551000  0.72081000  1.0
  C  C48  1  0.39557000  0.84981000  0.15017000  1.0
  C  C49  1  0.60445000  0.15019000  0.84984000  1.0
  C  C50  1  0.36874000  0.71300000  0.11329000  1.0
  C  C51  1  0.63129000  0.28701000  0.88673000  1.0
  C  C52  1  0.44412000  0.92255000  0.07337000  1.0
  C  C53  1  0.55589000  0.07744000  0.92663000  1.0
  C  C54  1  0.45986000  0.06754000  0.10951000  1.0
  C  C55  1  0.54014000  0.93246000  0.89049000  1.0
  C  C56  1  0.52906000  0.14400000  0.03920000  1.0
  C  C57  1  0.47094000  0.85600000  0.96081000  1.0
  C  C58  1  0.56002000  0.28197000  0.07771000  1.0
  C  C59  1  0.43998000  0.71802000  0.92230000  1.0
  C  C60  1  0.61033000  0.35219000  0.00036000  1.0
  C  C61  1  0.38968000  0.64779000  0.99966000  1.0
  C  C62  1  0.55577000  0.36329000  0.20412000  1.0
  C  C63  1  0.44424000  0.63670000  0.79589000  1.0
  O  O64  1  0.00320000  0.06418000  0.40060000  1.0
  O  O65  1  0.99679000  0.93583000  0.59940000  1.0
  O  O66  1  0.77805000  0.12667000  0.31269000  1.0
  O  O67  1  0.22195000  0.87332000  0.68730000  1.0
  O  O68  1  0.95176000  0.34041000  0.83708000  1.0
  O  O69  1  0.04822000  0.65959000  0.16291000  1.0
  O  O70  1  0.21140000  0.37210000  0.92627000  1.0
  O  O71  1  0.78861000  0.62791000  0.07373000  1.0
  O  O72  1  0.86613000  0.90816000  0.15202000  1.0
  O  O73  1  0.13386000  0.09185000  0.84797000  1.0
  O  O74  1  0.25616000  0.92305000  0.29088000  1.0
  O  O75  1  0.74385000  0.07695000  0.70911000  1.0
  O  O76  1  0.51311000  0.94892000  0.37312000  1.0
  O  O77  1  0.48690000  0.05109000  0.62691000  1.0
  O  O78  1  0.40791000  0.12429000  0.19269000  1.0
  O  O79  1  0.59209000  0.87571000  0.80733000  1.0
  O  O80  1  0.66090000  0.34235000  0.31329000  1.0
  O  O81  1  0.33911000  0.65765000  0.68673000  1.0
  O  O82  1  0.47904000  0.45254000  0.21072000  1.0
  O  O83  1  0.52095000  0.54746000  0.78928000  1.0
  O  O84  1  0.31469000  0.18138000  0.41760000  1.0
  O  O85  1  0.68532000  0.81863000  0.58240000  1.0
  O  O86  1  0.23447000  0.17456000  0.67346000  1.0
  O  O87  1  0.76554000  0.82544000  0.32654000  1.0
  O  O88  1  0.06261000  0.76712000  0.39628000  1.0
  O  O89  1  0.93739000  0.23288000  0.60372000  1.0
  O  O90  1  0.37056000  0.77596000  0.48954000  1.0
  O  O91  1  0.62945000  0.22404000  0.51047000  1.0
