# generated using pymatgen
data_Cu3H10C9I3N4
_symmetry_space_group_name_H-M   'P 1'
_cell_length_a   9.25822000
_cell_length_b   11.50920000
_cell_length_c   14.79860000
_cell_angle_alpha   89.99990000
_cell_angle_beta   95.15330000
_cell_angle_gamma   90.00000000
_symmetry_Int_Tables_number   1
_chemical_formula_structural   Cu3H10C9I3N4
_chemical_formula_sum   'Cu12 H40 C36 I12 N16'
_cell_volume   1570.48670138
_cell_formula_units_Z   4
loop_
 _symmetry_equiv_pos_site_id
 _symmetry_equiv_pos_as_xyz
  1  'x, y, z'
loop_
 _atom_site_type_symbol
 _atom_site_label
 _atom_site_symmetry_multiplicity
 _atom_site_fract_x
 _atom_site_fract_y
 _atom_site_fract_z
 _atom_site_occupancy
  Cu  Cu0  1  0.21683000  0.27992000  0.24588000  1.0
  Cu  Cu1  1  0.28317000  0.77992000  0.25412000  1.0
  Cu  Cu2  1  0.78316000  0.72008000  0.75412000  1.0
  Cu  Cu3  1  0.71683000  0.22008000  0.74588000  1.0
  Cu  Cu4  1  0.21227000  0.56622000  0.23483000  1.0
  Cu  Cu5  1  0.28773000  0.06622000  0.26517000  1.0
  Cu  Cu6  1  0.78773000  0.43378000  0.76517000  1.0
  Cu  Cu7  1  0.71227000  0.93378000  0.73483000  1.0
  Cu  Cu8  1  0.45807000  0.41905000  0.25638000  1.0
  Cu  Cu9  1  0.04194000  0.91905000  0.24362000  1.0
  Cu  Cu10  1  0.54193000  0.58095000  0.74362000  1.0
  Cu  Cu11  1  0.95807000  0.08095000  0.75638000  1.0
  H  H12  1  0.74546000  0.36448000  0.48883000  1.0
  H  H13  1  0.75454000  0.86448000  0.01117000  1.0
  H  H14  1  0.25454000  0.63552000  0.51117000  1.0
  H  H15  1  0.24546000  0.13552000  0.98883000  1.0
  H  H16  1  0.67730000  0.56558000  0.52823000  1.0
  H  H17  1  0.82270000  0.06559000  0.97177000  1.0
  H  H18  1  0.32270000  0.43441000  0.47177000  1.0
  H  H19  1  0.17729000  0.93442000  0.02823000  1.0
  H  H20  1  0.78830000  0.73566000  0.46262000  1.0
  H  H21  1  0.71169000  0.23566000  0.03738000  1.0
  H  H22  1  0.21169000  0.26434000  0.53738000  1.0
  H  H23  1  0.28830000  0.76434000  0.96262000  1.0
  H  H24  1  0.97663000  0.71413000  0.35105000  1.0
  H  H25  1  0.52337000  0.21413000  0.14895000  1.0
  H  H26  1  0.02337000  0.28587000  0.64895000  1.0
  H  H27  1  0.47662000  0.78587000  0.85105000  1.0
  H  H28  1  0.85285000  0.18006000  0.33364000  1.0
  H  H29  1  0.64715000  0.68006000  0.16636000  1.0
  H  H30  1  0.14715000  0.81994000  0.66635000  1.0
  H  H31  1  0.35285000  0.31994000  0.83365000  1.0
  H  H32  1  0.91687000  0.20199000  0.45065000  1.0
  H  H33  1  0.58313000  0.70199000  0.04935000  1.0
  H  H34  1  0.08313000  0.79801000  0.54935000  1.0
  H  H35  1  0.41687000  0.29801000  0.95065000  1.0
  H  H36  1  0.04147000  0.16310000  0.36947000  1.0
  H  H37  1  0.45853000  0.66310000  0.13053000  1.0
  H  H38  1  0.95853000  0.83691000  0.63053000  1.0
  H  H39  1  0.54147000  0.33691000  0.86947000  1.0
  H  H40  1  0.93635000  0.34789000  0.12435000  1.0
  H  H41  1  0.56366000  0.84789000  0.37565000  1.0
  H  H42  1  0.06365000  0.65211000  0.87565000  1.0
  H  H43  1  0.43634000  0.15211000  0.62435000  1.0
  H  H44  1  0.93157000  0.50319000  0.12450000  1.0
  H  H45  1  0.56843000  0.00319000  0.37550000  1.0
  H  H46  1  0.06842000  0.49682000  0.87550000  1.0
  H  H47  1  0.43157000  0.99681000  0.62450000  1.0
  H  H48  1  0.82816000  0.42445000  0.03718000  1.0
  H  H49  1  0.67184000  0.92446000  0.46282000  1.0
  H  H50  1  0.17184000  0.57554000  0.96282000  1.0
  H  H51  1  0.32816000  0.07554000  0.53718000  1.0
  C  C52  1  0.90068000  0.42825000  0.39706000  1.0
  C  C53  1  0.59933000  0.92825000  0.10294000  1.0
  C  C54  1  0.09932000  0.57175000  0.60294000  1.0
  C  C55  1  0.40067000  0.07175000  0.89706000  1.0
  C  C56  1  0.79480000  0.43913000  0.45835000  1.0
  C  C57  1  0.70520000  0.93913000  0.04165000  1.0
  C  C58  1  0.20520000  0.56087000  0.54165000  1.0
  C  C59  1  0.29480000  0.06087000  0.95835000  1.0
  C  C60  1  0.75762000  0.55181000  0.47972000  1.0
  C  C61  1  0.74238000  0.05180000  0.02028000  1.0
  C  C62  1  0.24238000  0.44820000  0.52028000  1.0
  C  C63  1  0.25762000  0.94820000  0.97972000  1.0
  C  C64  1  0.82197000  0.64985000  0.44155000  1.0
  C  C65  1  0.67803000  0.14985000  0.05845000  1.0
  C  C66  1  0.17803000  0.35015000  0.55845000  1.0
  C  C67  1  0.32197000  0.85015000  0.94155000  1.0
  C  C68  1  0.92577000  0.63929000  0.38019000  1.0
  C  C69  1  0.57423000  0.13929000  0.11980000  1.0
  C  C70  1  0.07423000  0.36070000  0.61980000  1.0
  C  C71  1  0.42577000  0.86071000  0.88019000  1.0
  C  C72  1  0.96505000  0.52560000  0.35838000  1.0
  C  C73  1  0.53495000  0.02560000  0.14161000  1.0
  C  C74  1  0.03495000  0.47441000  0.64161000  1.0
  C  C75  1  0.46505000  0.97441000  0.85839000  1.0
  C  C76  1  0.94305000  0.21227000  0.38022000  1.0
  C  C77  1  0.55695000  0.71227000  0.11978000  1.0
  C  C78  1  0.05695000  0.78772000  0.61978000  1.0
  C  C79  1  0.44305000  0.28773000  0.88022000  1.0
  C  C80  1  0.74500000  0.42171000  0.16385000  1.0
  C  C81  1  0.75500000  0.92172000  0.33615000  1.0
  C  C82  1  0.25500000  0.57829000  0.83615000  1.0
  C  C83  1  0.24499000  0.07829000  0.66385000  1.0
  C  C84  1  0.86661000  0.42424000  0.10974000  1.0
  C  C85  1  0.63340000  0.92424000  0.39026000  1.0
  C  C86  1  0.13339000  0.57576000  0.89026000  1.0
  C  C87  1  0.36661000  0.07576000  0.60974000  1.0
  I  I88  1  0.27821000  0.41495000  0.10533000  1.0
  I  I89  1  0.22180000  0.91495000  0.39467000  1.0
  I  I90  1  0.72179000  0.58505000  0.89467000  1.0
  I  I91  1  0.77821000  0.08505000  0.60533000  1.0
  I  I92  1  0.43683000  0.61513000  0.34668000  1.0
  I  I93  1  0.06317000  0.11514000  0.15332000  1.0
  I  I94  1  0.56317000  0.38487000  0.65333000  1.0
  I  I95  1  0.93683000  0.88487000  0.84668000  1.0
  I  I96  1  0.43757000  0.23416000  0.36255000  1.0
  I  I97  1  0.06244000  0.73416000  0.13745000  1.0
  I  I98  1  0.56243000  0.76584000  0.63745000  1.0
  I  I99  1  0.93757000  0.26584000  0.86255000  1.0
  N  N100  1  0.96850000  0.33431000  0.36358000  1.0
  N  N101  1  0.53151000  0.83431000  0.13642000  1.0
  N  N102  1  0.03150000  0.66569000  0.63642000  1.0
  N  N103  1  0.46850000  0.16569000  0.86359000  1.0
  N  N104  1  0.06793000  0.37021000  0.30803000  1.0
  N  N105  1  0.43207000  0.87021000  0.19197000  1.0
  N  N106  1  0.93207000  0.62979000  0.69197000  1.0
  N  N107  1  0.56793000  0.12978000  0.80803000  1.0
  N  N108  1  0.06649000  0.48480000  0.30410000  1.0
  N  N109  1  0.43351000  0.98480000  0.19590000  1.0
  N  N110  1  0.93351000  0.51520000  0.69590000  1.0
  N  N111  1  0.56649000  0.01520000  0.80410000  1.0
  N  N112  1  0.64512000  0.41934000  0.20646000  1.0
  N  N113  1  0.85490000  0.91935000  0.29354000  1.0
  N  N114  1  0.35488000  0.58065000  0.79354000  1.0
  N  N115  1  0.14511000  0.08066000  0.70646000  1.0
