# generated using pymatgen
data_HgH18C18S2(BrN)2
_symmetry_space_group_name_H-M   'P 1'
_cell_length_a   14.90740000
_cell_length_b   16.16430000
_cell_length_c   16.16440000
_cell_angle_alpha   69.25680000
_cell_angle_beta   74.69870000
_cell_angle_gamma   74.69920000
_symmetry_Int_Tables_number   1
_chemical_formula_structural   HgH18C18S2(BrN)2
_chemical_formula_sum   'Hg6 H108 C108 S12 Br12 N12'
_cell_volume   3450.20580012
_cell_formula_units_Z   6
loop_
 _symmetry_equiv_pos_site_id
 _symmetry_equiv_pos_as_xyz
  1  'x, y, z'
loop_
 _atom_site_type_symbol
 _atom_site_label
 _atom_site_symmetry_multiplicity
 _atom_site_fract_x
 _atom_site_fract_y
 _atom_site_fract_z
 _atom_site_occupancy
  Hg  Hg0  1  0.75000000  0.91247000  0.08753000  1.0
  Hg  Hg1  1  0.25000000  0.08753000  0.91247000  1.0
  Hg  Hg2  1  0.52996000  0.76713000  0.54759000  1.0
  Hg  Hg3  1  0.97004000  0.45240000  0.23287000  1.0
  Hg  Hg4  1  0.47004000  0.23287000  0.45240000  1.0
  Hg  Hg5  1  0.02996000  0.54759000  0.76713000  1.0
  H  H6  1  0.66246000  0.74154000  0.71951000  1.0
  H  H7  1  0.83754000  0.28049000  0.25846000  1.0
  H  H8  1  0.33754000  0.25846000  0.28048000  1.0
  H  H9  1  0.16246000  0.71951000  0.74154000  1.0
  H  H10  1  0.65350000  0.81402000  0.78352000  1.0
  H  H11  1  0.84650000  0.21648000  0.18598000  1.0
  H  H12  1  0.34650000  0.18598000  0.21648000  1.0
  H  H13  1  0.15350000  0.78352000  0.81402000  1.0
  H  H14  1  0.62239000  0.63732000  0.71978000  1.0
  H  H15  1  0.87761000  0.28022000  0.36268000  1.0
  H  H16  1  0.37761000  0.36268000  0.28022000  1.0
  H  H17  1  0.12239000  0.71978000  0.63732000  1.0
  H  H18  1  0.56390000  0.54663000  0.78390000  1.0
  H  H19  1  0.93610000  0.21610000  0.45337000  1.0
  H  H20  1  0.43610000  0.45337000  0.21610000  1.0
  H  H21  1  0.06390000  0.78390000  0.54663000  1.0
  H  H22  1  0.68885000  0.52949000  0.76263000  1.0
  H  H23  1  0.81115000  0.23737000  0.47050000  1.0
  H  H24  1  0.31114000  0.47050000  0.23737000  1.0
  H  H25  1  0.18885000  0.76263000  0.52950000  1.0
  H  H26  1  0.33770000  0.08878000  0.59246000  1.0
  H  H27  1  0.16230000  0.40754000  0.91122000  1.0
  H  H28  1  0.66230000  0.91122000  0.40754000  1.0
  H  H29  1  0.83770000  0.59246000  0.08878000  1.0
  H  H30  1  0.62972000  0.05546000  0.52632000  1.0
  H  H31  1  0.87028000  0.47368000  0.94454000  1.0
  H  H32  1  0.37028000  0.94454000  0.47368000  1.0
  H  H33  1  0.12972000  0.52632000  0.05546000  1.0
  H  H34  1  0.34405000  0.93817000  0.71004000  1.0
  H  H35  1  0.15594000  0.28996000  0.06183000  1.0
  H  H36  1  0.65594000  0.06183000  0.28996000  1.0
  H  H37  1  0.84405000  0.71004000  0.93817000  1.0
  H  H38  1  0.57959000  0.43343000  0.89660000  1.0
  H  H39  1  0.92042000  0.10340000  0.56657000  1.0
  H  H40  1  0.42042000  0.56657000  0.10340000  1.0
  H  H41  1  0.07959000  0.89660000  0.43343000  1.0
  H  H42  1  0.58818000  0.39176000  0.01239000  1.0
  H  H43  1  0.91182000  0.98761000  0.60824000  1.0
  H  H44  1  0.41182000  0.60824000  0.98761000  1.0
  H  H45  1  0.08818000  0.01239000  0.39176000  1.0
  H  H46  1  0.67282000  0.68221000  0.38968000  1.0
  H  H47  1  0.82718000  0.61031000  0.31779000  1.0
  H  H48  1  0.32718000  0.31779000  0.61032000  1.0
  H  H49  1  0.17283000  0.38968000  0.68221000  1.0
  H  H50  1  0.36733000  0.72346000  0.30459000  1.0
  H  H51  1  0.13267000  0.69542000  0.27654000  1.0
  H  H52  1  0.63268000  0.27654000  0.69541000  1.0
  H  H53  1  0.86732000  0.30459000  0.72346000  1.0
  H  H54  1  0.60062000  0.10184000  0.07707000  1.0
  H  H55  1  0.89938000  0.92293000  0.89816000  1.0
  H  H56  1  0.39938000  0.89816000  0.92293000  1.0
  H  H57  1  0.10062000  0.07707000  0.10184000  1.0
  H  H58  1  0.66888000  0.58070000  0.15551000  1.0
  H  H59  1  0.83112000  0.84449000  0.41930000  1.0
  H  H60  1  0.33112000  0.41930000  0.84449000  1.0
  H  H61  1  0.16887000  0.15551000  0.58070000  1.0
  H  H62  1  0.66372000  0.69746000  0.09756000  1.0
  H  H63  1  0.83628000  0.90244000  0.30254000  1.0
  H  H64  1  0.33628000  0.30254000  0.90244000  1.0
  H  H65  1  0.16372000  0.09756000  0.69746000  1.0
  H  H66  1  0.67408000  0.64813000  0.25109000  1.0
  H  H67  1  0.82592000  0.74891000  0.35187000  1.0
  H  H68  1  0.32592000  0.35187000  0.74891000  1.0
  H  H69  1  0.17408000  0.25109000  0.64813000  1.0
  H  H70  1  0.89317000  0.06076000  0.00273000  1.0
  H  H71  1  0.60683000  0.99727000  0.93924000  1.0
  H  H72  1  0.10683000  0.93924000  0.99727000  1.0
  H  H73  1  0.39317000  0.00273000  0.06076000  1.0
  H  H74  1  0.89145000  0.22496000  0.93268000  1.0
  H  H75  1  0.60855000  0.06732000  0.77504000  1.0
  H  H76  1  0.10855000  0.77504000  0.06732000  1.0
  H  H77  1  0.39145000  0.93268000  0.22495000  1.0
  H  H78  1  0.65027000  0.90434000  0.64031000  1.0
  H  H79  1  0.84973000  0.35969000  0.09567000  1.0
  H  H80  1  0.34972000  0.09567000  0.35969000  1.0
  H  H81  1  0.15027000  0.64031000  0.90434000  1.0
  H  H82  1  0.58451000  0.26706000  0.00805000  1.0
  H  H83  1  0.91550000  0.99195000  0.73295000  1.0
  H  H84  1  0.41550000  0.73294000  0.99195000  1.0
  H  H85  1  0.08451000  0.00805000  0.26706000  1.0
  H  H86  1  0.63543000  0.47180000  0.16840000  1.0
  H  H87  1  0.86457000  0.83160000  0.52821000  1.0
  H  H88  1  0.36457000  0.52820000  0.83160000  1.0
  H  H89  1  0.13543000  0.16840000  0.47180000  1.0
  H  H90  1  0.69252000  0.40385000  0.09770000  1.0
  H  H91  1  0.80748000  0.90230000  0.59615000  1.0
  H  H92  1  0.30748000  0.59615000  0.90230000  1.0
  H  H93  1  0.19252000  0.09770000  0.40385000  1.0
  H  H94  1  0.56836000  0.42493000  0.12779000  1.0
  H  H95  1  0.93164000  0.87221000  0.57508000  1.0
  H  H96  1  0.43164000  0.57507000  0.87221000  1.0
  H  H97  1  0.06836000  0.12779000  0.42492000  1.0
  H  H98  1  0.38064000  0.75017000  0.44336000  1.0
  H  H99  1  0.11937000  0.55664000  0.24983000  1.0
  H  H100  1  0.61937000  0.24983000  0.55663000  1.0
  H  H101  1  0.88064000  0.44337000  0.75017000  1.0
  H  H102  1  0.59927000  0.80024000  0.01213000  1.0
  H  H103  1  0.90073000  0.98787000  0.19976000  1.0
  H  H104  1  0.40073000  0.19976000  0.98787000  1.0
  H  H105  1  0.09927000  0.01213000  0.80024000  1.0
  H  H106  1  0.56655000  0.84057000  0.90581000  1.0
  H  H107  1  0.93345000  0.09419000  0.15943000  1.0
  H  H108  1  0.43345000  0.15943000  0.09419000  1.0
  H  H109  1  0.06655000  0.90581000  0.84057000  1.0
  H  H110  1  0.68745000  0.81309000  0.91296000  1.0
  H  H111  1  0.81255000  0.08704000  0.18691000  1.0
  H  H112  1  0.31255000  0.18691000  0.08704000  1.0
  H  H113  1  0.18745000  0.91296000  0.81309000  1.0
  C  C114  1  0.62323000  0.76094000  0.77963000  1.0
  C  C115  1  0.87677000  0.22037000  0.23906000  1.0
  C  C116  1  0.37677000  0.23906000  0.22037000  1.0
  C  C117  1  0.12323000  0.77963000  0.76094000  1.0
  C  C118  1  0.62386000  0.57709000  0.77837000  1.0
  C  C119  1  0.87614000  0.22163000  0.42291000  1.0
  C  C120  1  0.37614000  0.42291000  0.22163000  1.0
  C  C121  1  0.12386000  0.77837000  0.57709000  1.0
  C  C122  1  0.40530000  0.04547000  0.60644000  1.0
  C  C123  1  0.09470000  0.39356000  0.95454000  1.0
  C  C124  1  0.59469000  0.95454000  0.39356000  1.0
  C  C125  1  0.90530000  0.60644000  0.04546000  1.0
  C  C126  1  0.49830000  0.90892000  0.68722000  1.0
  C  C127  1  0.00170000  0.31278000  0.09108000  1.0
  C  C128  1  0.50169000  0.09108000  0.31278000  1.0
  C  C129  1  0.99830000  0.68722000  0.90892000  1.0
  C  C130  1  0.62177000  0.59580000  0.86387000  1.0
  C  C131  1  0.87823000  0.13613000  0.40420000  1.0
  C  C132  1  0.37823000  0.40420000  0.13613000  1.0
  C  C133  1  0.12177000  0.86387000  0.59580000  1.0
  C  C134  1  0.56824000  0.02725000  0.56947000  1.0
  C  C135  1  0.93176000  0.43053000  0.97275000  1.0
  C  C136  1  0.43175000  0.97275000  0.43053000  1.0
  C  C137  1  0.06824000  0.56947000  0.02725000  1.0
  C  C138  1  0.52005000  0.68313000  0.26534000  1.0
  C  C139  1  0.97995000  0.73466000  0.31687000  1.0
  C  C140  1  0.47995000  0.31687000  0.73466000  1.0
  C  C141  1  0.02006000  0.26534000  0.68313000  1.0
  C  C142  1  0.40915000  0.96220000  0.67181000  1.0
  C  C143  1  0.09085000  0.32820000  0.03781000  1.0
  C  C144  1  0.59085000  0.03780000  0.32820000  1.0
  C  C145  1  0.90915000  0.67180000  0.96220000  1.0
  C  C146  1  0.61929000  0.43170000  0.94555000  1.0
  C  C147  1  0.88071000  0.05445000  0.56830000  1.0
  C  C148  1  0.38071000  0.56830000  0.05445000  1.0
  C  C149  1  0.11929000  0.94555000  0.43170000  1.0
  C  C150  1  0.60671000  0.68973000  0.36821000  1.0
  C  C151  1  0.89329000  0.63179000  0.31027000  1.0
  C  C152  1  0.39329000  0.31027000  0.63180000  1.0
  C  C153  1  0.10671000  0.36820000  0.68973000  1.0
  C  C154  1  0.43673000  0.71230000  0.32125000  1.0
  C  C155  1  0.06328000  0.67875000  0.28770000  1.0
  C  C156  1  0.56328000  0.28770000  0.67875000  1.0
  C  C157  1  0.93672000  0.32125000  0.71230000  1.0
  C  C158  1  0.62250000  0.69740000  0.94583000  1.0
  C  C159  1  0.87750000  0.05417000  0.30260000  1.0
  C  C160  1  0.37750000  0.30260000  0.05417000  1.0
  C  C161  1  0.12250000  0.94583000  0.69740000  1.0
  C  C162  1  0.66329000  0.13227000  0.04415000  1.0
  C  C163  1  0.83671000  0.95585000  0.86774000  1.0
  C  C164  1  0.33671000  0.86774000  0.95585000  1.0
  C  C165  1  0.16330000  0.04415000  0.13226000  1.0
  C  C166  1  0.62319000  0.68227000  0.86484000  1.0
  C  C167  1  0.87681000  0.13516000  0.31773000  1.0
  C  C168  1  0.37681000  0.31773000  0.13516000  1.0
  C  C169  1  0.12318000  0.86484000  0.68227000  1.0
  C  C170  1  0.63034000  0.63991000  0.11107000  1.0
  C  C171  1  0.86966000  0.88893000  0.36009000  1.0
  C  C172  1  0.36967000  0.36009000  0.88893000  1.0
  C  C173  1  0.13033000  0.11107000  0.63991000  1.0
  C  C174  1  0.60696000  0.67143000  0.29041000  1.0
  C  C175  1  0.89304000  0.70959000  0.32857000  1.0
  C  C176  1  0.39304000  0.32857000  0.70959000  1.0
  C  C177  1  0.10696000  0.29041000  0.67143000  1.0
  C  C178  1  0.62139000  0.52431000  0.94519000  1.0
  C  C179  1  0.87861000  0.05481000  0.47569000  1.0
  C  C180  1  0.37861000  0.47569000  0.05481000  1.0
  C  C181  1  0.12139000  0.94519000  0.52431000  1.0
  C  C182  1  0.82631000  0.10915000  0.00279000  1.0
  C  C183  1  0.67368000  0.99721000  0.89085000  1.0
  C  C184  1  0.17369000  0.89085000  0.99721000  1.0
  C  C185  1  0.32632000  0.00279000  0.10915000  1.0
  C  C186  1  0.62633000  0.53681000  0.02580000  1.0
  C  C187  1  0.87367000  0.97420000  0.46319000  1.0
  C  C188  1  0.37367000  0.46319000  0.97420000  1.0
  C  C189  1  0.12633000  0.02580000  0.53681000  1.0
  C  C190  1  0.73745000  0.26110000  0.96504000  1.0
  C  C191  1  0.76255000  0.03496000  0.73890000  1.0
  C  C192  1  0.26256000  0.73890000  0.03496000  1.0
  C  C193  1  0.23745000  0.96504000  0.26110000  1.0
  C  C194  1  0.82504000  0.20061000  0.96346000  1.0
  C  C195  1  0.67497000  0.03654000  0.79939000  1.0
  C  C196  1  0.17496000  0.79939000  0.03654000  1.0
  C  C197  1  0.32504000  0.96346000  0.20061000  1.0
  C  C198  1  0.57934000  0.94297000  0.63384000  1.0
  C  C199  1  0.92066000  0.36616000  0.05703000  1.0
  C  C200  1  0.42066000  0.05703000  0.36616000  1.0
  C  C201  1  0.07934000  0.63383000  0.94298000  1.0
  C  C202  1  0.65477000  0.22502000  0.00566000  1.0
  C  C203  1  0.84524000  0.99434000  0.77499000  1.0
  C  C204  1  0.34524000  0.77499000  0.99434000  1.0
  C  C205  1  0.15476000  0.00566000  0.22502000  1.0
  C  C206  1  0.62716000  0.62405000  0.02554000  1.0
  C  C207  1  0.87284000  0.97446000  0.37595000  1.0
  C  C208  1  0.37284000  0.37595000  0.97446000  1.0
  C  C209  1  0.12716000  0.02554000  0.62405000  1.0
  C  C210  1  0.63079000  0.45636000  0.10928000  1.0
  C  C211  1  0.86921000  0.89072000  0.54364000  1.0
  C  C212  1  0.36921000  0.54364000  0.89073000  1.0
  C  C213  1  0.13079000  0.10928000  0.45636000  1.0
  C  C214  1  0.44365000  0.72796000  0.39809000  1.0
  C  C215  1  0.05635000  0.60191000  0.27203000  1.0
  C  C216  1  0.55635000  0.27203000  0.60191000  1.0
  C  C217  1  0.94365000  0.39809000  0.72797000  1.0
  C  C218  1  0.61874000  0.79192000  0.94493000  1.0
  C  C219  1  0.88126000  0.05507000  0.20808000  1.0
  C  C220  1  0.38126000  0.20808000  0.05507000  1.0
  C  C221  1  0.11874000  0.94493000  0.79191000  1.0
  S  S222  1  0.49923000  0.80502000  0.77020000  1.0
  S  S223  1  0.00077000  0.22980000  0.19498000  1.0
  S  S224  1  0.50077000  0.19498000  0.22980000  1.0
  S  S225  1  0.99923000  0.77020000  0.80502000  1.0
  S  S226  1  0.50842000  0.66501000  0.16900000  1.0
  S  S227  1  0.99158000  0.83100000  0.33499000  1.0
  S  S228  1  0.49158000  0.33499000  0.83100000  1.0
  S  S229  1  0.00842000  0.16900000  0.66501000  1.0
  S  S230  1  0.74129000  0.37512000  0.91740000  1.0
  S  S231  1  0.75871000  0.08260000  0.62488000  1.0
  S  S232  1  0.25871000  0.62488000  0.08260000  1.0
  S  S233  1  0.24129000  0.91740000  0.37512000  1.0
  Br  Br234  1  0.70830000  0.73136000  0.54152000  1.0
  Br  Br235  1  0.79170000  0.45848000  0.26864000  1.0
  Br  Br236  1  0.29170000  0.26865000  0.45848000  1.0
  Br  Br237  1  0.20830000  0.54152000  0.73136000  1.0
  Br  Br238  1  0.57703000  0.90938000  0.15040000  1.0
  Br  Br239  1  0.92297000  0.84960000  0.09062000  1.0
  Br  Br240  1  0.42297000  0.09062000  0.84960000  1.0
  Br  Br241  1  0.07703000  0.15040000  0.90938000  1.0
  Br  Br242  1  0.36093000  0.76183000  0.62931000  1.0
  Br  Br243  1  0.13906000  0.37069000  0.23817000  1.0
  Br  Br244  1  0.63907000  0.23817000  0.37069000  1.0
  Br  Br245  1  0.86093000  0.62931000  0.76184000  1.0
  N  N246  1  0.74687000  0.07508000  0.04366000  1.0
  N  N247  1  0.75314000  0.95634000  0.92492000  1.0
  N  N248  1  0.25313000  0.92492000  0.95634000  1.0
  N  N249  1  0.24686000  0.04366000  0.07508000  1.0
  N  N250  1  0.52718000  0.71732000  0.42134000  1.0
  N  N251  1  0.97282000  0.57866000  0.28268000  1.0
  N  N252  1  0.47282000  0.28268000  0.57866000  1.0
  N  N253  1  0.02718000  0.42134000  0.71732000  1.0
  N  N254  1  0.48323000  0.07811000  0.55592000  1.0
  N  N255  1  0.01677000  0.44408000  0.92189000  1.0
  N  N256  1  0.51677000  0.92189000  0.44408000  1.0
  N  N257  1  0.98323000  0.55592000  0.07811000  1.0
