# generated using pymatgen
data_CdH6C12Br2(NO2)2
_symmetry_space_group_name_H-M   'P 1'
_cell_length_a   7.90644000
_cell_length_b   7.90640000
_cell_length_c   9.03523000
_cell_angle_alpha   67.98560000
_cell_angle_beta   67.98510000
_cell_angle_gamma   80.66910000
_symmetry_Int_Tables_number   1
_chemical_formula_structural   CdH6C12Br2(NO2)2
_chemical_formula_sum   'Cd1 H6 C12 Br2 N2 O4'
_cell_volume   485.29228271
_cell_formula_units_Z   1
loop_
 _symmetry_equiv_pos_site_id
 _symmetry_equiv_pos_as_xyz
  1  'x, y, z'
loop_
 _atom_site_type_symbol
 _atom_site_label
 _atom_site_symmetry_multiplicity
 _atom_site_fract_x
 _atom_site_fract_y
 _atom_site_fract_z
 _atom_site_occupancy
  Cd  Cd0  1  0.46617000  0.53383000  0.00000000  1.0
  H  H1  1  0.46527000  0.13236000  0.00091000  1.0
  H  H2  1  0.86764000  0.53473000  0.99909000  1.0
  H  H3  1  0.50582000  0.31259000  0.36314000  1.0
  H  H4  1  0.68741000  0.49418000  0.63686000  1.0
  H  H5  1  0.51940000  0.73039000  0.46166000  1.0
  H  H6  1  0.26960000  0.48060000  0.53834000  1.0
  C  C7  1  0.49128000  0.76518000  0.15885000  1.0
  C  C8  1  0.23483000  0.50872000  0.84114000  1.0
  C  C9  1  0.49502000  0.91399000  0.22268000  1.0
  C  C10  1  0.08601000  0.50499000  0.77732000  1.0
  C  C11  1  0.48071000  0.09671000  0.12412000  1.0
  C  C12  1  0.90329000  0.51929000  0.87589000  1.0
  C  C13  1  0.50182000  0.19614000  0.32797000  1.0
  C  C14  1  0.80386000  0.49818000  0.67203000  1.0
  C  C15  1  0.51398000  0.01660000  0.43380000  1.0
  C  C16  1  0.98340000  0.48601000  0.56620000  1.0
  C  C17  1  0.51136000  0.87236000  0.38161000  1.0
  C  C18  1  0.12764000  0.48864000  0.61839000  1.0
  Br  Br19  1  0.52813000  0.97498000  0.64947000  1.0
  Br  Br20  1  0.02502000  0.47187000  0.35053000  1.0
  N  N21  1  0.48473000  0.23391000  0.17616000  1.0
  N  N22  1  0.76609000  0.51527000  0.82385000  1.0
  O  O23  1  0.50897000  0.60095000  0.24765000  1.0
  O  O24  1  0.39905000  0.49103000  0.75235000  1.0
  O  O25  1  0.46922000  0.81444000  0.01462000  1.0
  O  O26  1  0.18556000  0.53078000  0.98538000  1.0
