# generated using pymatgen
data_Co3H26C40(N2O5)2
_symmetry_space_group_name_H-M   'P 1'
_cell_length_a   8.07333000
_cell_length_b   10.38770000
_cell_length_c   10.98770000
_cell_angle_alpha   111.50400000
_cell_angle_beta   90.67030000
_cell_angle_gamma   91.63670000
_symmetry_Int_Tables_number   1
_chemical_formula_structural   Co3H26C40(N2O5)2
_chemical_formula_sum   'Co3 H26 C40 N4 O10'
_cell_volume   856.73048457
_cell_formula_units_Z   1
loop_
 _symmetry_equiv_pos_site_id
 _symmetry_equiv_pos_as_xyz
  1  'x, y, z'
loop_
 _atom_site_type_symbol
 _atom_site_label
 _atom_site_symmetry_multiplicity
 _atom_site_fract_x
 _atom_site_fract_y
 _atom_site_fract_z
 _atom_site_occupancy
  Co  Co0  1  0.49916000  0.99950000  0.50000000  1.0
  Co  Co1  1  0.73533000  0.75519000  0.50572000  1.0
  Co  Co2  1  0.26439000  0.24522000  0.49479000  1.0
  H  H3  1  0.73408000  0.89630000  0.38224000  1.0
  H  H4  1  0.26540000  0.10419000  0.61837000  1.0
  H  H5  1  0.90562000  0.04119000  0.64102000  1.0
  H  H6  1  0.09424000  0.95918000  0.35925000  1.0
  H  H7  1  0.09912000  0.13445000  0.83552000  1.0
  H  H8  1  0.90127000  0.86569000  0.16440000  1.0
  H  H9  1  0.18591000  0.97931000  0.95303000  1.0
  H  H10  1  0.81458000  0.02081000  0.04681000  1.0
  H  H11  1  0.16771000  0.73066000  0.95966000  1.0
  H  H12  1  0.83228000  0.26950000  0.04041000  1.0
  H  H13  1  0.05985000  0.48823000  0.85805000  1.0
  H  H14  1  0.93979000  0.51206000  0.14217000  1.0
  H  H15  1  0.89531000  0.30110000  0.66838000  1.0
  H  H16  1  0.10414000  0.69919000  0.33181000  1.0
  H  H17  1  0.70422000  0.25322000  0.47266000  1.0
  H  H18  1  0.29566000  0.74708000  0.52728000  1.0
  H  H19  1  0.63680000  0.44321000  0.39579000  1.0
  H  H20  1  0.36353000  0.55715000  0.60403000  1.0
  H  H21  1  0.48990000  0.17994000  0.90139000  1.0
  H  H22  1  0.51081000  0.81908000  0.09824000  1.0
  H  H23  1  0.53418000  0.75354000  0.85556000  1.0
  H  H24  1  0.46686000  0.24544000  0.14403000  1.0
  H  H25  1  0.77137000  0.62132000  0.00488000  1.0
  H  H26  1  0.22877000  0.37893000  0.99530000  1.0
  H  H27  1  0.37613000  0.51002000  0.20905000  1.0
  H  H28  1  0.62410000  0.49019000  0.79111000  1.0
  C  C29  1  0.94838000  0.97613000  0.69257000  1.0
  C  C30  1  0.05159000  0.02418000  0.30761000  1.0
  C  C31  1  0.05494000  0.02678000  0.80308000  1.0
  C  C32  1  0.94536000  0.97339000  0.19685000  1.0
  C  C33  1  0.10421000  0.94048000  0.86677000  1.0
  C  C34  1  0.89615000  0.05964000  0.13315000  1.0
  C  C35  1  0.04768000  0.80062000  0.81762000  1.0
  C  C36  1  0.95246000  0.19957000  0.18239000  1.0
  C  C37  1  0.08757000  0.69901000  0.87227000  1.0
  C  C38  1  0.91245000  0.30118000  0.12778000  1.0
  C  C39  1  0.02818000  0.56476000  0.81621000  1.0
  C  C40  1  0.97162000  0.43549000  0.18391000  1.0
  C  C41  1  0.92568000  0.51937000  0.69954000  1.0
  C  C42  1  0.07419000  0.48085000  0.30053000  1.0
  C  C43  1  0.86321000  0.38256000  0.63292000  1.0
  C  C44  1  0.13651000  0.61770000  0.36716000  1.0
  C  C45  1  0.76017000  0.35577000  0.52399000  1.0
  C  C46  1  0.23974000  0.64453000  0.47597000  1.0
  C  C47  1  0.72015000  0.46208000  0.47955000  1.0
  C  C48  1  0.28002000  0.53821000  0.52033000  1.0
  C  C49  1  0.94234000  0.75801000  0.70542000  1.0
  C  C50  1  0.05763000  0.24224000  0.29470000  1.0
  C  C51  1  0.88192000  0.61940000  0.64718000  1.0
  C  C52  1  0.11807000  0.38088000  0.35289000  1.0
  C  C53  1  0.49513000  0.10194000  0.94562000  1.0
  C  C54  1  0.50593000  0.89705000  0.05400000  1.0
  C  C55  1  0.51398000  0.96302000  0.86440000  1.0
  C  C56  1  0.48701000  0.03595000  0.13518000  1.0
  C  C57  1  0.52004000  0.86092000  0.91972000  1.0
  C  C58  1  0.48115000  0.13807000  0.07989000  1.0
  C  C59  1  0.52341000  0.92234000  0.71994000  1.0
  C  C60  1  0.47594000  0.07653000  0.27964000  1.0
  C  C61  1  0.65280000  0.56733000  0.00194000  1.0
  C  C62  1  0.34742000  0.43280000  0.99821000  1.0
  C  C63  1  0.58256000  0.57292000  0.11995000  1.0
  C  C64  1  0.41767000  0.42724000  0.88021000  1.0
  C  C65  1  0.42933000  0.50481000  0.11696000  1.0
  C  C66  1  0.57090000  0.49534000  0.88320000  1.0
  C  C67  1  0.67067000  0.65346000  0.24682000  1.0
  C  C68  1  0.32946000  0.34695000  0.75332000  1.0
  N  N69  1  0.89173000  0.84405000  0.64425000  1.0
  N  N70  1  0.10803000  0.15627000  0.35600000  1.0
  N  N71  1  0.78130000  0.59205000  0.53865000  1.0
  N  N72  1  0.21890000  0.40826000  0.46130000  1.0
  O  O73  1  0.50109000  0.02053000  0.67658000  1.0
  O  O74  1  0.49676000  0.97823000  0.32305000  1.0
  O  O75  1  0.55058000  0.79729000  0.65046000  1.0
  O  O76  1  0.44836000  0.20161000  0.34870000  1.0
  O  O77  1  0.60281000  0.65063000  0.35201000  1.0
  O  O78  1  0.39743000  0.34967000  0.64814000  1.0
  O  O79  1  0.80456000  0.71962000  0.24734000  1.0
  O  O80  1  0.19525000  0.28111000  0.75263000  1.0
  O  O81  1  0.70570000  0.92289000  0.47481000  1.0
  O  O82  1  0.29331000  0.07743000  0.52572000  1.0
