# generated using pymatgen
data_CuH7C12N3O4
_symmetry_space_group_name_H-M   'P 1'
_cell_length_a   4.80615000
_cell_length_b   10.63360000
_cell_length_c   31.76440000
_cell_angle_alpha   90.00130000
_cell_angle_beta   90.00020000
_cell_angle_gamma   84.88900000
_symmetry_Int_Tables_number   1
_chemical_formula_structural   CuH7C12N3O4
_chemical_formula_sum   'Cu4 H28 C48 N12 O16'
_cell_volume   1616.91835678
_cell_formula_units_Z   4
loop_
 _symmetry_equiv_pos_site_id
 _symmetry_equiv_pos_as_xyz
  1  'x, y, z'
loop_
 _atom_site_type_symbol
 _atom_site_label
 _atom_site_symmetry_multiplicity
 _atom_site_fract_x
 _atom_site_fract_y
 _atom_site_fract_z
 _atom_site_occupancy
  Cu  Cu0  1  0.49234000  0.39037000  0.19360000  1.0
  Cu  Cu1  1  0.50765000  0.10961000  0.69360000  1.0
  Cu  Cu2  1  0.50764000  0.60962000  0.80640000  1.0
  Cu  Cu3  1  0.49234000  0.89039000  0.30640000  1.0
  H  H4  1  0.34391000  0.47198000  0.28612000  1.0
  H  H5  1  0.65607000  0.02802000  0.78613000  1.0
  H  H6  1  0.65609000  0.52802000  0.71387000  1.0
  H  H7  1  0.34392000  0.97198000  0.21387000  1.0
  H  H8  1  0.55045000  0.38840000  0.35490000  1.0
  H  H9  1  0.44952000  0.11161000  0.85490000  1.0
  H  H10  1  0.44957000  0.61160000  0.64510000  1.0
  H  H11  1  0.55047000  0.88838000  0.14510000  1.0
  H  H12  1  0.21833000  0.59692000  0.99570000  1.0
  H  H13  1  0.78170000  0.90308000  0.49570000  1.0
  H  H14  1  0.78168000  0.40309000  0.00430000  1.0
  H  H15  1  0.21832000  0.09691000  0.50430000  1.0
  H  H16  1  0.61828000  0.58243000  0.13135000  1.0
  H  H17  1  0.38175000  0.91755000  0.63135000  1.0
  H  H18  1  0.38170000  0.41758000  0.86865000  1.0
  H  H19  1  0.61823000  0.08246000  0.36865000  1.0
  H  H20  1  0.46373000  0.64096000  0.05835000  1.0
  H  H21  1  0.53631000  0.85903000  0.55835000  1.0
  H  H22  1  0.53626000  0.35906000  0.94165000  1.0
  H  H23  1  0.46370000  0.14096000  0.44165000  1.0
  H  H24  1  0.16174000  0.26878000  0.13122000  1.0
  H  H25  1  0.83822000  0.23122000  0.63123000  1.0
  H  H26  1  0.83826000  0.73122000  0.86877000  1.0
  H  H27  1  0.16179000  0.76878000  0.36877000  1.0
  H  H28  1  0.98979000  0.31288000  0.05857000  1.0
  H  H29  1  0.01021000  0.18712000  0.55857000  1.0
  H  H30  1  0.01025000  0.68712000  0.94143000  1.0
  H  H31  1  0.98982000  0.81286000  0.44143000  1.0
  C  C32  1  0.10759000  0.52281000  0.01036000  1.0
  C  C33  1  0.89243000  0.97718000  0.51036000  1.0
  C  C34  1  0.89243000  0.47720000  0.98964000  1.0
  C  C35  1  0.10760000  0.02281000  0.48964000  1.0
  C  C36  1  0.79715000  0.16239000  0.20979000  1.0
  C  C37  1  0.20282000  0.33761000  0.70979000  1.0
  C  C38  1  0.20282000  0.83760000  0.79020000  1.0
  C  C39  1  0.79715000  0.66241000  0.29021000  1.0
  C  C40  1  0.74358000  0.22433000  0.25213000  1.0
  C  C41  1  0.25641000  0.27567000  0.75213000  1.0
  C  C42  1  0.25641000  0.77567000  0.74787000  1.0
  C  C43  1  0.74358000  0.72432000  0.24787000  1.0
  C  C44  1  0.49297000  0.38857000  0.28752000  1.0
  C  C45  1  0.50701000  0.11144000  0.78752000  1.0
  C  C46  1  0.50702000  0.61144000  0.71247000  1.0
  C  C47  1  0.49298000  0.88856000  0.21247000  1.0
  C  C48  1  0.60655000  0.34036000  0.32533000  1.0
  C  C49  1  0.39343000  0.15965000  0.82533000  1.0
  C  C50  1  0.39346000  0.65964000  0.67467000  1.0
  C  C51  1  0.60656000  0.84034000  0.17467000  1.0
  C  C52  1  0.85323000  0.17815000  0.29047000  1.0
  C  C53  1  0.14676000  0.32186000  0.79047000  1.0
  C  C54  1  0.14677000  0.82185000  0.70953000  1.0
  C  C55  1  0.85323000  0.67814000  0.20953000  1.0
  C  C56  1  0.03790000  0.05607000  0.29483000  1.0
  C  C57  1  0.96209000  0.44394000  0.79483000  1.0
  C  C58  1  0.96209000  0.94393000  0.70517000  1.0
  C  C59  1  0.03791000  0.55606000  0.20517000  1.0
  C  C60  1  0.22465000  0.34958000  0.11362000  1.0
  C  C61  1  0.77532000  0.15041000  0.61363000  1.0
  C  C62  1  0.77534000  0.65042000  0.88637000  1.0
  C  C63  1  0.22469000  0.84959000  0.38637000  1.0
  C  C64  1  0.48008000  0.52529000  0.11382000  1.0
  C  C65  1  0.51994000  0.97470000  0.61382000  1.0
  C  C66  1  0.51991000  0.47472000  0.88618000  1.0
  C  C67  1  0.48006000  0.02531000  0.38618000  1.0
  C  C68  1  0.39214000  0.55730000  0.07327000  1.0
  C  C69  1  0.60789000  0.94269000  0.57327000  1.0
  C  C70  1  0.60787000  0.44271000  0.92674000  1.0
  C  C71  1  0.39213000  0.05731000  0.42674000  1.0
  C  C72  1  0.12777000  0.37610000  0.07318000  1.0
  C  C73  1  0.87222000  0.12390000  0.57319000  1.0
  C  C74  1  0.87224000  0.62390000  0.92681000  1.0
  C  C75  1  0.12780000  0.87610000  0.42682000  1.0
  C  C76  1  0.20772000  0.48367000  0.05203000  1.0
  C  C77  1  0.79231000  0.01633000  0.55203000  1.0
  C  C78  1  0.79230000  0.51634000  0.94797000  1.0
  C  C79  1  0.20771000  0.98366000  0.44797000  1.0
  N  N80  1  0.56578000  0.32959000  0.25157000  1.0
  N  N81  1  0.43421000  0.17041000  0.75157000  1.0
  N  N82  1  0.43421000  0.67041000  0.74843000  1.0
  N  N83  1  0.56578000  0.82959000  0.24843000  1.0
  N  N84  1  0.78513000  0.23684000  0.32711000  1.0
  N  N85  1  0.21486000  0.26317000  0.82711000  1.0
  N  N86  1  0.21488000  0.76316000  0.67289000  1.0
  N  N87  1  0.78514000  0.73683000  0.17289000  1.0
  N  N88  1  0.39630000  0.42351000  0.13363000  1.0
  N  N89  1  0.60370000  0.07647000  0.63363000  1.0
  N  N90  1  0.60369000  0.57649000  0.86637000  1.0
  N  N91  1  0.39630000  0.92353000  0.36637000  1.0
  O  O92  1  0.66696000  0.21972000  0.17854000  1.0
  O  O93  1  0.33301000  0.28026000  0.67854000  1.0
  O  O94  1  0.33300000  0.78027000  0.82146000  1.0
  O  O95  1  0.66698000  0.71974000  0.32146000  1.0
  O  O96  1  0.95036000  0.06217000  0.20703000  1.0
  O  O97  1  0.04965000  0.43782000  0.70703000  1.0
  O  O98  1  0.04962000  0.93783000  0.79297000  1.0
  O  O99  1  0.95038000  0.56217000  0.29297000  1.0
  O  O100  1  0.30105000  0.06095000  0.28996000  1.0
  O  O101  1  0.69894000  0.43906000  0.78997000  1.0
  O  O102  1  0.69894000  0.93905000  0.71003000  1.0
  O  O103  1  0.30107000  0.56094000  0.21003000  1.0
  O  O104  1  0.92595000  0.95950000  0.30630000  1.0
  O  O105  1  0.07404000  0.54050000  0.80631000  1.0
  O  O106  1  0.07405000  0.04050000  0.69369000  1.0
  O  O107  1  0.92596000  0.45949000  0.19370000  1.0
