# generated using pymatgen
data_ZnH30C30NO7
_symmetry_space_group_name_H-M   'P 1'
_cell_length_a   13.90680000
_cell_length_b   14.91340000
_cell_length_c   15.21330000
_cell_angle_alpha   90.09090000
_cell_angle_beta   90.56660000
_cell_angle_gamma   90.51820000
_symmetry_Int_Tables_number   1
_chemical_formula_structural   ZnH30C30NO7
_chemical_formula_sum   'Zn2 H60 C60 N2 O14'
_cell_volume   3154.91524186
_cell_formula_units_Z   2
loop_
 _symmetry_equiv_pos_site_id
 _symmetry_equiv_pos_as_xyz
  1  'x, y, z'
loop_
 _atom_site_type_symbol
 _atom_site_label
 _atom_site_symmetry_multiplicity
 _atom_site_fract_x
 _atom_site_fract_y
 _atom_site_fract_z
 _atom_site_occupancy
  Zn  Zn0  1  0.40709000  0.49940000  0.49096000  1.0
  Zn  Zn1  1  0.60579000  0.50368000  0.48714000  1.0
  H  H2  1  0.38294000  0.57473000  0.75884000  1.0
  H  H3  1  0.61837000  0.25203000  0.62389000  1.0
  H  H4  1  0.93613000  0.36610000  0.44261000  1.0
  H  H5  1  0.07550000  0.56210000  0.61798000  1.0
  H  H6  1  0.94195000  0.64137000  0.53228000  1.0
  H  H7  1  0.07299000  0.44142000  0.35944000  1.0
  H  H8  1  0.75538000  0.37321000  0.44571000  1.0
  H  H9  1  0.25621000  0.55517000  0.61478000  1.0
  H  H10  1  0.76070000  0.63713000  0.52812000  1.0
  H  H11  1  0.25389000  0.44382000  0.36611000  1.0
  H  H12  1  0.75238000  0.43253000  0.82673000  1.0
  H  H13  1  0.59482000  0.40279000  0.21960000  1.0
  H  H14  1  0.71662000  0.48089000  0.72366000  1.0
  H  H15  1  0.78896000  0.28817000  0.74587000  1.0
  H  H16  1  0.76048000  0.34197000  0.64567000  1.0
  H  H17  1  0.89330000  0.45674000  0.67467000  1.0
  H  H18  1  0.94014000  0.34627000  0.67309000  1.0
  H  H19  1  0.92223000  0.40181000  0.77477000  1.0
  H  H20  1  0.35362000  0.75335000  0.24546000  1.0
  H  H21  1  0.40998000  0.74026000  0.14129000  1.0
  H  H22  1  0.50459000  0.69921000  0.32006000  1.0
  H  H23  1  0.55867000  0.68467000  0.21647000  1.0
  H  H24  1  0.66341000  0.32435000  0.92074000  1.0
  H  H25  1  0.53891000  0.85257000  0.18689000  1.0
  H  H26  1  0.61435000  0.82912000  0.27865000  1.0
  H  H27  1  0.49502000  0.86498000  0.29556000  1.0
  H  H28  1  0.41057000  0.06095000  0.34134000  1.0
  H  H29  1  0.29649000  0.09039000  0.38516000  1.0
  H  H30  1  0.35859000  0.89588000  0.35979000  1.0
  H  H31  1  0.24206000  0.93377000  0.38405000  1.0
  H  H32  1  0.23687000  0.01378000  0.23446000  1.0
  H  H33  1  0.25028000  0.89608000  0.22390000  1.0
  H  H34  1  0.35141000  0.96812000  0.21109000  1.0
  H  H35  1  0.30939000  0.64848000  0.05720000  1.0
  H  H36  1  0.58115000  0.99751000  0.39470000  1.0
  H  H37  1  0.68779000  0.93493000  0.37569000  1.0
  H  H38  1  0.67747000  0.13150000  0.43525000  1.0
  H  H39  1  0.78558000  0.07090000  0.42444000  1.0
  H  H40  1  0.75070000  0.04822000  0.26189000  1.0
  H  H41  1  0.75353000  0.16408000  0.28884000  1.0
  H  H42  1  0.64161000  0.10831000  0.27258000  1.0
  H  H43  1  0.34697000  0.96672000  0.79823000  1.0
  H  H44  1  0.42836000  0.87622000  0.78401000  1.0
  H  H45  1  0.21443000  0.86676000  0.73311000  1.0
  H  H46  1  0.65594000  0.32984000  0.08354000  1.0
  H  H47  1  0.29451000  0.77533000  0.73996000  1.0
  H  H48  1  0.31517000  0.80469000  0.90468000  1.0
  H  H49  1  0.19406000  0.77935000  0.87549000  1.0
  H  H50  1  0.22965000  0.89205000  0.89614000  1.0
  H  H51  1  0.63969000  0.01446000  0.79498000  1.0
  H  H52  1  0.51982000  0.02813000  0.75456000  1.0
  H  H53  1  0.64654000  0.17845000  0.83293000  1.0
  H  H54  1  0.52706000  0.19127000  0.79613000  1.0
  H  H55  1  0.47000000  0.08168000  0.91292000  1.0
  H  H56  1  0.53280000  0.17418000  0.96041000  1.0
  H  H57  1  0.31113000  0.63710000  0.89487000  1.0
  H  H58  1  0.59065000  0.06905000  0.94997000  1.0
  H  H59  1  0.39633000  0.19789000  0.43170000  1.0
  H  H60  1  0.64945000  0.79394000  0.48208000  1.0
  H  H61  1  0.38778000  0.76271000  0.62761000  1.0
  C  C62  1  0.51252000  0.32832000  0.49364000  1.0
  C  C63  1  0.59262000  0.82317000  0.52131000  1.0
  C  C64  1  0.44569000  0.80586000  0.60444000  1.0
  C  C65  1  0.56940000  0.20490000  0.59156000  1.0
  C  C66  1  0.50891000  0.23299000  0.52333000  1.0
  C  C67  1  0.51744000  0.76904000  0.55186000  1.0
  C  C68  1  0.50526000  0.05302000  0.57706000  1.0
  C  C69  1  0.51586000  0.95447000  0.58454000  1.0
  C  C70  1  0.90025000  0.42787000  0.46115000  1.0
  C  C71  1  0.11213000  0.53563000  0.56066000  1.0
  C  C72  1  0.90351000  0.58046000  0.51264000  1.0
  C  C73  1  0.51196000  0.67296000  0.52359000  1.0
  C  C74  1  0.11073000  0.46698000  0.41750000  1.0
  C  C75  1  0.80052000  0.43106000  0.46246000  1.0
  C  C76  1  0.21189000  0.53199000  0.55961000  1.0
  C  C77  1  0.80357000  0.57896000  0.51058000  1.0
  C  C78  1  0.21060000  0.46764000  0.42058000  1.0
  C  C79  1  0.95367000  0.50369000  0.48716000  1.0
  C  C80  1  0.05964000  0.50220000  0.48844000  1.0
  C  C81  1  0.49468000  0.51092000  0.31929000  1.0
  C  C82  1  0.50454000  0.48513000  0.65989000  1.0
  C  C83  1  0.43191000  0.53527000  0.79942000  1.0
  C  C84  1  0.61110000  0.37384000  0.04346000  1.0
  C  C85  1  0.54753000  0.44374000  0.17894000  1.0
  C  C86  1  0.50071000  0.48266000  0.75816000  1.0
  C  C87  1  0.48861000  0.50581000  0.22086000  1.0
  C  C88  1  0.56356000  0.42989000  0.80830000  1.0
  C  C89  1  0.42774000  0.56102000  0.17031000  1.0
  C  C90  1  0.55679000  0.42807000  0.90077000  1.0
  C  C91  1  0.42436000  0.55257000  0.07775000  1.0
  C  C92  1  0.48979000  0.48594000  0.94258000  1.0
  C  C93  1  0.48708000  0.49067000  0.03587000  1.0
  C  C94  1  0.42674000  0.54026000  0.89110000  1.0
  C  C95  1  0.36076000  0.59781000  0.93495000  1.0
  C  C96  1  0.54886000  0.43510000  0.08738000  1.0
  C  C97  1  0.61564000  0.37077000  0.95386000  1.0
  C  C98  1  0.36007000  0.60459000  0.02450000  1.0
  C  C99  1  0.72400000  0.41747000  0.76010000  1.0
  C  C100  1  0.78958000  0.35354000  0.71230000  1.0
  C  C101  1  0.89194000  0.39149000  0.70838000  1.0
  C  C102  1  0.40789000  0.71504000  0.20961000  1.0
  C  C103  1  0.50668000  0.72560000  0.25263000  1.0
  C  C104  1  0.54034000  0.82347000  0.25332000  1.0
  C  C105  1  0.35094000  0.03699000  0.38307000  1.0
  C  C106  1  0.44310000  0.08370000  0.50955000  1.0
  C  C107  1  0.30747000  0.95043000  0.34705000  1.0
  C  C108  1  0.28516000  0.95753000  0.24879000  1.0
  C  C109  1  0.65743000  0.99077000  0.41416000  1.0
  C  C110  1  0.71205000  0.07766000  0.39778000  1.0
  C  C111  1  0.71463000  0.10072000  0.29996000  1.0
  C  C112  1  0.36100000  0.90596000  0.75913000  1.0
  C  C113  1  0.27690000  0.84053000  0.76950000  1.0
  C  C114  1  0.25262000  0.82838000  0.86672000  1.0
  C  C115  1  0.58916000  0.06286000  0.76608000  1.0
  C  C116  1  0.57683000  0.14329000  0.82677000  1.0
  C  C117  1  0.59127000  0.91499000  0.53750000  1.0
  C  C118  1  0.54060000  0.11550000  0.91737000  1.0
  C  C119  1  0.44595000  0.89783000  0.62213000  1.0
  C  C120  1  0.56623000  0.11561000  0.61901000  1.0
  C  C121  1  0.44375000  0.17327000  0.48340000  1.0
  N  N122  1  0.75334000  0.50541000  0.48630000  1.0
  N  N123  1  0.25991000  0.49914000  0.49067000  1.0
  O  O124  1  0.43558000  0.36359000  0.46457000  1.0
  O  O125  1  0.37076000  0.62393000  0.21016000  1.0
  O  O126  1  0.38756000  0.01886000  0.46944000  1.0
  O  O127  1  0.66359000  0.97026000  0.50655000  1.0
  O  O128  1  0.37508000  0.93819000  0.67074000  1.0
  O  O129  1  0.63053000  0.08843000  0.68302000  1.0
  O  O130  1  0.58789000  0.63951000  0.49053000  1.0
  O  O131  1  0.43205000  0.63179000  0.53232000  1.0
  O  O132  1  0.59406000  0.36815000  0.50093000  1.0
  O  O133  1  0.41739000  0.52532000  0.36103000  1.0
  O  O134  1  0.58339000  0.50712000  0.62436000  1.0
  O  O135  1  0.42526000  0.46763000  0.62048000  1.0
  O  O136  1  0.57725000  0.49812000  0.35366000  1.0
  O  O137  1  0.62974000  0.37614000  0.76730000  1.0
