# generated using pymatgen
data_ZnH22C29NO4
_symmetry_space_group_name_H-M   'P 1'
_cell_length_a   13.40970000
_cell_length_b   18.32610000
_cell_length_c   19.52830000
_cell_angle_alpha   87.74150000
_cell_angle_beta   87.81500000
_cell_angle_gamma   69.43210000
_symmetry_Int_Tables_number   1
_chemical_formula_structural   ZnH22C29NO4
_chemical_formula_sum   'Zn2 H44 C58 N2 O8'
_cell_volume   4488.12124179
_cell_formula_units_Z   2
loop_
 _symmetry_equiv_pos_site_id
 _symmetry_equiv_pos_as_xyz
  1  'x, y, z'
loop_
 _atom_site_type_symbol
 _atom_site_label
 _atom_site_symmetry_multiplicity
 _atom_site_fract_x
 _atom_site_fract_y
 _atom_site_fract_z
 _atom_site_occupancy
  Zn  Zn0  1  0.48921000  0.58074000  0.50002000  1.0
  Zn  Zn1  1  0.50686000  0.42127000  0.50036000  1.0
  H  H2  1  0.84728000  0.32782000  0.41955000  1.0
  H  H3  1  0.18071000  0.36593000  0.38179000  1.0
  H  H4  1  0.55863000  0.59498000  0.84041000  1.0
  H  H5  1  0.59967000  0.81780000  0.41936000  1.0
  H  H6  1  0.37343000  0.85233000  0.58890000  1.0
  H  H7  1  0.39161000  0.71274000  0.57967000  1.0
  H  H8  1  0.46661000  0.93803000  0.61449000  1.0
  H  H9  1  0.46463000  0.07320000  0.61416000  1.0
  H  H10  1  0.48501000  0.07665000  0.39329000  1.0
  H  H11  1  0.48732000  0.94158000  0.39371000  1.0
  H  H12  1  0.59048000  0.14691000  0.41638000  1.0
  H  H13  1  0.67007000  0.37411000  0.16848000  1.0
  H  H14  1  0.03440000  0.31485000  0.38482000  1.0
  H  H15  1  0.59517000  0.28211000  0.41888000  1.0
  H  H16  1  0.38514000  0.33772000  0.58522000  1.0
  H  H17  1  0.36816000  0.20580000  0.58921000  1.0
  H  H18  1  0.81359000  0.53120000  0.53084000  1.0
  H  H19  1  0.14863000  0.67828000  0.56659000  1.0
  H  H20  1  0.87888000  0.60333000  0.56445000  1.0
  H  H21  1  0.95849000  0.69748000  0.59926000  1.0
  H  H22  1  0.26168000  0.45672000  0.42217000  1.0
  H  H23  1  0.63542000  0.38222000  0.29520000  1.0
  H  H24  1  0.68218000  0.53664000  0.05543000  1.0
  H  H25  1  0.31736000  0.56625000  0.08221000  1.0
  H  H26  1  0.26881000  0.66944000  0.07158000  1.0
  H  H27  1  0.25596000  0.62539000  0.15266000  1.0
  H  H28  1  0.40816000  0.67843000  0.14898000  1.0
  H  H29  1  0.46613000  0.61919000  0.07926000  1.0
  H  H30  1  0.23847000  0.58752000  0.26324000  1.0
  H  H31  1  0.29792000  0.56162000  0.34423000  1.0
  H  H32  1  0.21323000  0.65875000  0.32747000  1.0
  H  H33  1  0.40308000  0.64980000  0.32065000  1.0
  H  H34  1  0.34349000  0.67750000  0.24004000  1.0
  H  H35  1  0.68548000  0.53088000  0.92877000  1.0
  H  H36  1  0.75953000  0.71897000  0.40117000  1.0
  H  H37  1  0.80463000  0.62013000  0.37650000  1.0
  H  H38  1  0.77694000  0.64324000  0.46387000  1.0
  H  H39  1  0.63124000  0.60732000  0.40929000  1.0
  H  H40  1  0.60920000  0.68683000  0.35115000  1.0
  H  H41  1  0.45902000  0.41242000  0.94285000  1.0
  H  H42  1  0.45698000  0.41757000  0.06942000  1.0
  H  H43  1  0.56174000  0.35905000  0.84355000  1.0
  H  H44  1  0.53277000  0.37031000  0.71760000  1.0
  H  H45  1  0.52707000  0.60564000  0.71468000  1.0
  C  C46  1  0.50722000  0.49545000  0.63330000  1.0
  C  C47  1  0.17193000  0.57532000  0.51076000  1.0
  C  C48  1  0.59199000  0.43034000  0.26090000  1.0
  C  C49  1  0.28983000  0.55845000  0.50409000  1.0
  C  C50  1  0.61117000  0.42601000  0.19047000  1.0
  C  C51  1  0.55396000  0.48796000  0.14709000  1.0
  C  C52  1  0.47800000  0.55603000  0.17476000  1.0
  C  C53  1  0.45781000  0.56036000  0.24642000  1.0
  C  C54  1  0.51605000  0.49669000  0.28898000  1.0
  C  C55  1  0.63290000  0.50947000  0.03076000  1.0
  C  C56  1  0.63421000  0.50664000  0.95944000  1.0
  C  C57  1  0.01746000  0.53293000  0.50538000  1.0
  C  C58  1  0.57044000  0.47291000  0.92633000  1.0
  C  C59  1  0.50945000  0.43871000  0.96733000  1.0
  C  C60  1  0.50775000  0.44198000  0.03847000  1.0
  C  C61  1  0.50184000  0.49596000  0.36567000  1.0
  C  C62  1  0.56721000  0.47918000  0.07136000  1.0
  C  C63  1  0.55372000  0.41347000  0.81558000  1.0
  C  C64  1  0.53754000  0.41934000  0.74536000  1.0
  C  C65  1  0.52675000  0.48893000  0.70874000  1.0
  C  C66  1  0.53562000  0.55172000  0.74349000  1.0
  C  C67  1  0.55383000  0.54529000  0.81352000  1.0
  C  C68  1  0.12500000  0.52306000  0.48550000  1.0
  C  C69  1  0.56144000  0.47653000  0.85105000  1.0
  C  C70  1  0.55909000  0.71896000  0.45372000  1.0
  C  C71  1  0.55088000  0.79706000  0.45545000  1.0
  C  C72  1  0.48472000  0.84758000  0.50351000  1.0
  C  C73  1  0.70481000  0.44746000  0.49077000  1.0
  C  C74  1  0.42709000  0.81636000  0.55026000  1.0
  C  C75  1  0.43636000  0.73898000  0.54526000  1.0
  C  C76  1  0.46902000  0.96868000  0.56579000  1.0
  C  C77  1  0.46781000  0.04496000  0.56558000  1.0
  C  C78  1  0.47547000  0.08475000  0.50373000  1.0
  C  C79  1  0.97041000  0.47803000  0.48230000  1.0
  C  C80  1  0.48246000  0.04609000  0.44201000  1.0
  C  C81  1  0.48376000  0.96997000  0.44224000  1.0
  C  C82  1  0.47814000  0.92959000  0.50413000  1.0
  C  C83  1  0.54240000  0.18743000  0.45432000  1.0
  C  C84  1  0.54673000  0.26189000  0.45569000  1.0
  C  C85  1  0.98611000  0.36205000  0.41745000  1.0
  C  C86  1  0.42938000  0.29300000  0.54921000  1.0
  C  C87  1  0.42102000  0.21946000  0.55116000  1.0
  C  C88  1  0.47900000  0.16426000  0.50317000  1.0
  C  C89  1  0.82072000  0.43194000  0.47646000  1.0
  C  C90  1  0.03141000  0.41621000  0.43896000  1.0
  C  C91  1  0.11111000  0.63860000  0.54912000  1.0
  C  C92  1  0.00494000  0.64888000  0.56753000  1.0
  C  C93  1  0.96002000  0.59599000  0.54732000  1.0
  C  C94  1  0.41781000  0.62223000  0.12644000  1.0
  C  C95  1  0.30853000  0.62087000  0.10730000  1.0
  C  C96  1  0.37065000  0.62906000  0.27770000  1.0
  C  C97  1  0.27451000  0.60810000  0.30453000  1.0
  C  C98  1  0.63548000  0.66573000  0.40341000  1.0
  C  C99  1  0.75038000  0.66225000  0.41163000  1.0
  C  C100  1  0.13647000  0.41134000  0.41732000  1.0
  C  C101  1  0.18146000  0.46212000  0.43951000  1.0
  C  C102  1  0.86501000  0.48423000  0.49952000  1.0
  C  C103  1  0.88291000  0.36895000  0.43625000  1.0
  N  N104  1  0.50022000  0.69106000  0.49815000  1.0
  N  N105  1  0.49182000  0.31363000  0.50264000  1.0
  O  O106  1  0.47894000  0.56339000  0.60513000  1.0
  O  O107  1  0.52110000  0.43197000  0.60319000  1.0
  O  O108  1  0.32395000  0.61505000  0.49664000  1.0
  O  O109  1  0.34770000  0.48669000  0.50981000  1.0
  O  O110  1  0.50135000  0.55589000  0.39699000  1.0
  O  O111  1  0.49485000  0.43422000  0.39407000  1.0
  O  O112  1  0.64966000  0.51639000  0.50895000  1.0
  O  O113  1  0.66871000  0.39284000  0.48224000  1.0
