# generated using pymatgen
data_HgH16C8(ClO2)2
_symmetry_space_group_name_H-M   'P 1'
_cell_length_a   7.22641000
_cell_length_b   7.22643000
_cell_length_c   7.83080715
_cell_angle_alpha   117.41798057
_cell_angle_beta   117.45682919
_cell_angle_gamma   90.04130000
_symmetry_Int_Tables_number   1
_chemical_formula_structural   HgH16C8(ClO2)2
_chemical_formula_sum   'Hg1 H16 C8 Cl2 O4'
_cell_volume   310.10503131
_cell_formula_units_Z   1
loop_
 _symmetry_equiv_pos_site_id
 _symmetry_equiv_pos_as_xyz
  1  'x, y, z'
loop_
 _atom_site_type_symbol
 _atom_site_label
 _atom_site_symmetry_multiplicity
 _atom_site_fract_x
 _atom_site_fract_y
 _atom_site_fract_z
 _atom_site_occupancy
  Hg  Hg0  1  0.00000000  0.00000000  0.00000000  1.0
  H  H1  1  0.54496000  0.29591000  0.34247000  1.0
  H  H2  1  0.79774000  0.04706000  0.34288000  1.0
  H  H3  1  0.04702000  0.54485000  0.34282000  1.0
  H  H4  1  0.29604000  0.79755000  0.34255000  1.0
  H  H5  1  0.45504000  0.70409000  0.65753000  1.0
  H  H6  1  0.20226000  0.95294000  0.65712000  1.0
  H  H7  1  0.95298000  0.45515000  0.65718000  1.0
  H  H8  1  0.70396000  0.20245000  0.65745000  1.0
  H  H9  1  0.68685000  0.29967000  0.20627000  1.0
  H  H10  1  0.51976000  0.90716000  0.20691000  1.0
  H  H11  1  0.90711000  0.68677000  0.20668000  1.0
  H  H12  1  0.29981000  0.51967000  0.20648000  1.0
  H  H13  1  0.31316000  0.70034000  0.79374000  1.0
  H  H14  1  0.48024000  0.09284000  0.79309000  1.0
  H  H15  1  0.09289000  0.31323000  0.79332000  1.0
  H  H16  1  0.70019000  0.48033000  0.79352000  1.0
  C  C17  1  0.56586000  0.19894000  0.19925000  1.0
  C  C18  1  0.63360000  0.00070000  0.19959000  1.0
  C  C19  1  0.00067000  0.56576000  0.19951000  1.0
  C  C20  1  0.19904000  0.63348000  0.19935000  1.0
  C  C21  1  0.43414000  0.80106000  0.80075000  1.0
  C  C22  1  0.36640000  0.99930000  0.80041000  1.0
  C  C23  1  0.99933000  0.43424000  0.80049000  1.0
  C  C24  1  0.80096000  0.36652000  0.80065000  1.0
  Cl  Cl25  1  0.80118000  0.80133000  0.60253000  1.0
  Cl  Cl26  1  0.19882000  0.19867000  0.39747000  1.0
  O  O27  1  0.35894000  0.13748000  0.99978000  1.0
  O  O28  1  0.64106000  0.86252000  0.00022000  1.0
  O  O29  1  0.86243000  0.35897000  0.00015000  1.0
  O  O30  1  0.13757000  0.64103000  0.99985000  1.0
