# generated using pymatgen
data_SmH13C16O11
_symmetry_space_group_name_H-M   'P 1'
_cell_length_a   6.73116000
_cell_length_b   10.84310000
_cell_length_c   11.51640000
_cell_angle_alpha   94.34290000
_cell_angle_beta   100.04300000
_cell_angle_gamma   94.71160000
_symmetry_Int_Tables_number   1
_chemical_formula_structural   SmH13C16O11
_chemical_formula_sum   'Sm2 H26 C32 O22'
_cell_volume   821.38691669
_cell_formula_units_Z   2
loop_
 _symmetry_equiv_pos_site_id
 _symmetry_equiv_pos_as_xyz
  1  'x, y, z'
loop_
 _atom_site_type_symbol
 _atom_site_label
 _atom_site_symmetry_multiplicity
 _atom_site_fract_x
 _atom_site_fract_y
 _atom_site_fract_z
 _atom_site_occupancy
  Sm  Sm0  1  0.08241000  0.76472000  0.50053000  1.0
  Sm  Sm1  1  0.91759000  0.23528000  0.49947000  1.0
  H  H2  1  0.77267000  0.54555000  0.51953000  1.0
  H  H3  1  0.22733000  0.45445000  0.48047000  1.0
  H  H4  1  0.93545000  0.54832000  0.63245000  1.0
  H  H5  1  0.06455000  0.45168000  0.36755000  1.0
  H  H6  1  0.30488000  0.97029000  0.68919000  1.0
  H  H7  1  0.69512000  0.02971000  0.31081000  1.0
  H  H8  1  0.23823000  0.02530000  0.56441000  1.0
  H  H9  1  0.76176000  0.97470000  0.43559000  1.0
  H  H10  1  0.53022000  0.75780000  0.41695000  1.0
  H  H11  1  0.46978000  0.24220000  0.58305000  1.0
  H  H12  1  0.48197000  0.86565000  0.50524000  1.0
  H  H13  1  0.51803000  0.13435000  0.49476000  1.0
  H  H14  1  0.21924000  0.79147000  0.84132000  1.0
  H  H15  1  0.78076000  0.20853000  0.15869000  1.0
  H  H16  1  0.49772000  0.73466000  0.16698000  1.0
  H  H17  1  0.50229000  0.26534000  0.83302000  1.0
  H  H18  1  0.21515000  0.62708000  0.01498000  1.0
  H  H19  1  0.78486000  0.37292000  0.98502000  1.0
  H  H20  1  0.14811000  0.39633000  0.00204000  1.0
  H  H21  1  0.85190000  0.60367000  0.99796000  1.0
  H  H22  1  0.28497000  0.24803000  0.32139000  1.0
  H  H23  1  0.71504000  0.75197000  0.67861000  1.0
  H  H24  1  0.15116000  0.88506000  0.13178000  1.0
  H  H25  1  0.84883000  0.11494000  0.86822000  1.0
  H  H26  1  0.35064000  0.19662000  0.95652000  1.0
  H  H27  1  0.64936000  0.80338000  0.04349000  1.0
  C  C28  1  0.55779000  0.43470000  0.22585000  1.0
  C  C29  1  0.44221000  0.56530000  0.77415000  1.0
  C  C30  1  0.46990000  0.63362000  0.15790000  1.0
  C  C31  1  0.53011000  0.36638000  0.84210000  1.0
  C  C32  1  0.31034000  0.57300000  0.07408000  1.0
  C  C33  1  0.68967000  0.42700000  0.92592000  1.0
  C  C34  1  0.59791000  0.56478000  0.23078000  1.0
  C  C35  1  0.40210000  0.43522000  0.76922000  1.0
  C  C36  1  0.39292000  0.37349000  0.14373000  1.0
  C  C37  1  0.60708000  0.62651000  0.85627000  1.0
  C  C38  1  0.27415000  0.44414000  0.06646000  1.0
  C  C39  1  0.72586000  0.55586000  0.93354000  1.0
  C  C40  1  0.27949000  0.18794000  0.24053000  1.0
  C  C41  1  0.72050000  0.81206000  0.75948000  1.0
  C  C42  1  0.20223000  0.98322000  0.13343000  1.0
  C  C43  1  0.79777000  0.01679000  0.86657000  1.0
  C  C44  1  0.25480000  0.03309000  0.03310000  1.0
  C  C45  1  0.74520000  0.96690000  0.96690000  1.0
  C  C46  1  0.33156000  0.23838000  0.14054000  1.0
  C  C47  1  0.66844000  0.76162000  0.85946000  1.0
  C  C48  1  0.21010000  0.06207000  0.23639000  1.0
  C  C49  1  0.78990000  0.93793000  0.76361000  1.0
  C  C50  1  0.31385000  0.16042000  0.03642000  1.0
  C  C51  1  0.68615000  0.83958000  0.96358000  1.0
  C  C52  1  0.25372000  0.95693000  0.92001000  1.0
  C  C53  1  0.74628000  0.04307000  0.08000000  1.0
  C  C54  1  0.13953000  0.01566000  0.34263000  1.0
  C  C55  1  0.86046000  0.98434000  0.65737000  1.0
  C  C56  1  0.68398000  0.36721000  0.31571000  1.0
  C  C57  1  0.31602000  0.63279000  0.68429000  1.0
  C  C58  1  0.77591000  0.63358000  0.31291000  1.0
  C  C59  1  0.22409000  0.36642000  0.68709000  1.0
  O  O60  1  0.86190000  0.60434000  0.58030000  1.0
  O  O61  1  0.13811000  0.39566000  0.41970000  1.0
  O  O62  1  0.29890000  0.95486000  0.60197000  1.0
  O  O63  1  0.70110000  0.04514000  0.39803000  1.0
  O  O64  1  0.42191000  0.78954000  0.45688000  1.0
  O  O65  1  0.57809000  0.21046000  0.54312000  1.0
  O  O66  1  0.13667000  0.09777000  0.42966000  1.0
  O  O67  1  0.86333000  0.90223000  0.57034000  1.0
  O  O68  1  0.08821000  0.90148000  0.34443000  1.0
  O  O69  1  0.91179000  0.09852000  0.65557000  1.0
  O  O70  1  0.20621000  0.83552000  0.92124000  1.0
  O  O71  1  0.79378000  0.16448000  0.07876000  1.0
  O  O72  1  0.29760000  0.00565000  0.83264000  1.0
  O  O73  1  0.70239000  0.99435000  0.16736000  1.0
  O  O74  1  0.76709000  0.27008000  0.28561000  1.0
  O  O75  1  0.23291000  0.72992000  0.71439000  1.0
  O  O76  1  0.70892000  0.40792000  0.42426000  1.0
  O  O77  1  0.29108000  0.59208000  0.57574000  1.0
  O  O78  1  0.95362000  0.59758000  0.32463000  1.0
  O  O79  1  0.04639000  0.40242000  0.67537000  1.0
  O  O80  1  0.74422000  0.73273000  0.37197000  1.0
  O  O81  1  0.25578000  0.26727000  0.62802000  1.0
