# generated using pymatgen
data_Cu2H3C5N11O2
_symmetry_space_group_name_H-M   'P 1'
_cell_length_a   7.93705000
_cell_length_b   11.83360000
_cell_length_c   11.88350000
_cell_angle_alpha   89.99880000
_cell_angle_beta   79.24700000
_cell_angle_gamma   89.99880000
_symmetry_Int_Tables_number   1
_chemical_formula_structural   Cu2H3C5N11O2
_chemical_formula_sum   'Cu8 H12 C20 N44 O8'
_cell_volume   1096.54557482
_cell_formula_units_Z   4
loop_
 _symmetry_equiv_pos_site_id
 _symmetry_equiv_pos_as_xyz
  1  'x, y, z'
loop_
 _atom_site_type_symbol
 _atom_site_label
 _atom_site_symmetry_multiplicity
 _atom_site_fract_x
 _atom_site_fract_y
 _atom_site_fract_z
 _atom_site_occupancy
  Cu  Cu0  1  0.18536000  0.08947000  0.27073000  1.0
  Cu  Cu1  1  0.81459000  0.58939000  0.22925000  1.0
  Cu  Cu2  1  0.81363000  0.91012000  0.73079000  1.0
  Cu  Cu3  1  0.18634000  0.41004000  0.76918000  1.0
  Cu  Cu4  1  0.00012000  0.50024000  0.49986000  1.0
  Cu  Cu5  1  0.99995000  0.00021000  0.00024000  1.0
  Cu  Cu6  1  0.00124000  0.00108000  0.49871000  1.0
  Cu  Cu7  1  0.99864000  0.50099000  0.00122000  1.0
  H  H8  1  0.27155000  0.68928000  0.50981000  1.0
  H  H9  1  0.72857000  0.18918000  0.99021000  1.0
  H  H10  1  0.72887000  0.31114000  0.48957000  1.0
  H  H11  1  0.27127000  0.81102000  0.01043000  1.0
  H  H12  1  0.57718000  0.70978000  0.40411000  1.0
  H  H13  1  0.42293000  0.20976000  0.09587000  1.0
  H  H14  1  0.42358000  0.29023000  0.59562000  1.0
  H  H15  1  0.57652000  0.79017000  0.90432000  1.0
  H  H16  1  0.54009000  0.40177000  0.23891000  1.0
  H  H17  1  0.45983000  0.90174000  0.26110000  1.0
  H  H18  1  0.46032000  0.59824000  0.76096000  1.0
  H  H19  1  0.53964000  0.09824000  0.73911000  1.0
  C  C20  1  0.33161000  0.62602000  0.44865000  1.0
  C  C21  1  0.66847000  0.12596000  0.05139000  1.0
  C  C22  1  0.66890000  0.37423000  0.55096000  1.0
  C  C23  1  0.33120000  0.87416000  0.94908000  1.0
  C  C24  1  0.50086000  0.63632000  0.39094000  1.0
  C  C25  1  0.49922000  0.13629000  0.10908000  1.0
  C  C26  1  0.49977000  0.36375000  0.60881000  1.0
  C  C27  1  0.50032000  0.86371000  0.89121000  1.0
  C  C28  1  0.19868000  0.35496000  0.34539000  1.0
  C  C29  1  0.80133000  0.85490000  0.15468000  1.0
  C  C30  1  0.80146000  0.64508000  0.65475000  1.0
  C  C31  1  0.19858000  0.14504000  0.84534000  1.0
  C  C32  1  0.48077000  0.46586000  0.29940000  1.0
  C  C33  1  0.51921000  0.96584000  0.20066000  1.0
  C  C34  1  0.51959000  0.53411000  0.70051000  1.0
  C  C35  1  0.48043000  0.03410000  0.79958000  1.0
  C  C36  1  0.31209000  0.45477000  0.35749000  1.0
  C  C37  1  0.68793000  0.95473000  0.14261000  1.0
  C  C38  1  0.68825000  0.54528000  0.64241000  1.0
  C  C39  1  0.31180000  0.04526000  0.85773000  1.0
  N  N40  1  0.71176000  0.18399000  0.33212000  1.0
  N  N41  1  0.28820000  0.68386000  0.16777000  1.0
  N  N42  1  0.28917000  0.81772000  0.66690000  1.0
  N  N43  1  0.71087000  0.31752000  0.83301000  1.0
  N  N44  1  0.82695000  0.12842000  0.34556000  1.0
  N  N45  1  0.17298000  0.62831000  0.15433000  1.0
  N  N46  1  0.17279000  0.87215000  0.65362000  1.0
  N  N47  1  0.82719000  0.37201000  0.84629000  1.0
  N  N48  1  0.94627000  0.06761000  0.35606000  1.0
  N  N49  1  0.05364000  0.56754000  0.14384000  1.0
  N  N50  1  0.05127000  0.93074000  0.64231000  1.0
  N  N51  1  0.94864000  0.43068000  0.85759000  1.0
  N  N52  1  0.03023000  0.81052000  0.38649000  1.0
  N  N53  1  0.96963000  0.31058000  0.11348000  1.0
  N  N54  1  0.96896000  0.18892000  0.61287000  1.0
  N  N55  1  0.03097000  0.68898000  0.88709000  1.0
  N  N56  1  0.96211000  0.72462000  0.37720000  1.0
  N  N57  1  0.03784000  0.22470000  0.12277000  1.0
  N  N58  1  0.03745000  0.27479000  0.62195000  1.0
  N  N59  1  0.96256000  0.77487000  0.87801000  1.0
  N  N60  1  0.89452000  0.63345000  0.37274000  1.0
  N  N61  1  0.10549000  0.13355000  0.12724000  1.0
  N  N62  1  0.10582000  0.36565000  0.62625000  1.0
  N  N63  1  0.89426000  0.86576000  0.87370000  1.0
  N  N64  1  0.24288000  0.02731000  0.41978000  1.0
  N  N65  1  0.75700000  0.52723000  0.08019000  1.0
  N  N66  1  0.75986000  0.97197000  0.57983000  1.0
  N  N67  1  0.24002000  0.47189000  0.92013000  1.0
  N  N68  1  0.33368000  0.07732000  0.47518000  1.0
  N  N69  1  0.66622000  0.57724000  0.02478000  1.0
  N  N70  1  0.66718000  0.92321000  0.52482000  1.0
  N  N71  1  0.33273000  0.42313000  0.97512000  1.0
  N  N72  1  0.42238000  0.12047000  0.52947000  1.0
  N  N73  1  0.57755000  0.62039000  0.97047000  1.0
  N  N74  1  0.57797000  0.88022000  0.47079000  1.0
  N  N75  1  0.42199000  0.38013000  0.02912000  1.0
  N  N76  1  0.23942000  0.53536000  0.43090000  1.0
  N  N77  1  0.76064000  0.03531000  0.06920000  1.0
  N  N78  1  0.76100000  0.46488000  0.56887000  1.0
  N  N79  1  0.23909000  0.96483000  0.93124000  1.0
  N  N80  1  0.57405000  0.55700000  0.31685000  1.0
  N  N81  1  0.42597000  0.05699000  0.18318000  1.0
  N  N82  1  0.42644000  0.44294000  0.68302000  1.0
  N  N83  1  0.57361000  0.94292000  0.81701000  1.0
  O  O84  1  0.26703000  0.26987000  0.29352000  1.0
  O  O85  1  0.73300000  0.76982000  0.20656000  1.0
  O  O86  1  0.73310000  0.72970000  0.70743000  1.0
  O  O87  1  0.26695000  0.22967000  0.79269000  1.0
  O  O88  1  0.03992000  0.36684000  0.39150000  1.0
  O  O89  1  0.96007000  0.86675000  0.10848000  1.0
  O  O90  1  0.96010000  0.63363000  0.60801000  1.0
  O  O91  1  0.03991000  0.13355000  0.89197000  1.0
