# generated using pymatgen
data_UH6C5O7
_symmetry_space_group_name_H-M   'P 1'
_cell_length_a   8.35142000
_cell_length_b   9.67515000
_cell_length_c   10.61440000
_cell_angle_alpha   89.99990000
_cell_angle_beta   105.03000000
_cell_angle_gamma   90.00000000
_symmetry_Int_Tables_number   1
_chemical_formula_structural   UH6C5O7
_chemical_formula_sum   'U4 H24 C20 O28'
_cell_volume   828.31641063
_cell_formula_units_Z   4
loop_
 _symmetry_equiv_pos_site_id
 _symmetry_equiv_pos_as_xyz
  1  'x, y, z'
loop_
 _atom_site_type_symbol
 _atom_site_label
 _atom_site_symmetry_multiplicity
 _atom_site_fract_x
 _atom_site_fract_y
 _atom_site_fract_z
 _atom_site_occupancy
  U  U0  1  0.76281000  0.50671000  0.41287000  1.0
  U  U1  1  0.23720000  0.00671000  0.58714000  1.0
  U  U2  1  0.78239000  0.75388000  0.87933000  1.0
  U  U3  1  0.21761000  0.25388000  0.12066000  1.0
  H  H4  1  0.06525000  0.68563000  0.52039000  1.0
  H  H5  1  0.93475000  0.18563000  0.47961000  1.0
  H  H6  1  0.08106000  0.57646000  0.00870000  1.0
  H  H7  1  0.91893000  0.07646000  0.99130000  1.0
  H  H8  1  0.43790000  0.45863000  0.66232000  1.0
  H  H9  1  0.56210000  0.95862000  0.33769000  1.0
  H  H10  1  0.37101000  0.52924000  0.50228000  1.0
  H  H11  1  0.62898000  0.02923000  0.49773000  1.0
  H  H12  1  0.16769000  0.63599000  0.76546000  1.0
  H  H13  1  0.83230000  0.13599000  0.23454000  1.0
  H  H14  1  0.22892000  0.46193000  0.80918000  1.0
  H  H15  1  0.77108000  0.96192000  0.19083000  1.0
  H  H16  1  0.01688000  0.50315000  0.73361000  1.0
  H  H17  1  0.98311000  0.00315000  0.26639000  1.0
  H  H18  1  0.13959000  0.67662000  0.24110000  1.0
  H  H19  1  0.86042000  0.17663000  0.75891000  1.0
  H  H20  1  0.31576000  0.78639000  0.27770000  1.0
  H  H21  1  0.68425000  0.28640000  0.72230000  1.0
  H  H22  1  0.40320000  0.66666667  0.00259000  1.0
  H  H23  1  0.59681000  0.16665000  0.99741000  1.0
  H  H24  1  0.45213000  0.83065000  0.07801000  1.0
  H  H25  1  0.54786000  0.33065000  0.92199000  1.0
  H  H26  1  0.32023000  0.82069000  0.91756000  1.0
  H  H27  1  0.67977000  0.32069000  0.08244000  1.0
  C  C28  1  0.17632000  0.50468000  0.60153000  1.0
  C  C29  1  0.82368000  0.00467000  0.39848000  1.0
  C  C30  1  0.12888000  0.35462000  0.56259000  1.0
  C  C31  1  0.87113000  0.85462000  0.43742000  1.0
  C  C32  1  0.35724000  0.53594000  0.60209000  1.0
  C  C33  1  0.64277000  0.03594000  0.39791000  1.0
  C  C34  1  0.41240000  0.67882000  0.65488000  1.0
  C  C35  1  0.58760000  0.17881000  0.34512000  1.0
  C  C36  1  0.14585000  0.52750000  0.73627000  1.0
  C  C37  1  0.85414000  0.02749000  0.26373000  1.0
  C  C38  1  0.20419000  0.75956000  0.07012000  1.0
  C  C39  1  0.79581000  0.25956000  0.92989000  1.0
  C  C40  1  0.12894000  0.90513000  0.06502000  1.0
  C  C41  1  0.87106000  0.40512000  0.93499000  1.0
  C  C42  1  0.25274000  0.70467000  0.21158000  1.0
  C  C43  1  0.74726000  0.20468000  0.78842000  1.0
  C  C44  1  0.36300000  0.57693000  0.23093000  1.0
  C  C45  1  0.63700000  0.07694000  0.76906000  1.0
  C  C46  1  0.35409000  0.76973000  0.01299000  1.0
  C  C47  1  0.64590000  0.26973000  0.98701000  1.0
  O  O48  1  0.73380000  0.52092000  0.57465000  1.0
  O  O49  1  0.26620000  0.02092000  0.42534000  1.0
  O  O50  1  0.79019000  0.48739000  0.25101000  1.0
  O  O51  1  0.20982000  0.98739000  0.74898000  1.0
  O  O52  1  0.84065000  0.77948000  0.72910000  1.0
  O  O53  1  0.15934000  0.27948000  0.27090000  1.0
  O  O54  1  0.72890000  0.73719000  0.03254000  1.0
  O  O55  1  0.27110000  0.23718000  0.96746000  1.0
  O  O56  1  0.06133000  0.58237000  0.50238000  1.0
  O  O57  1  0.93867000  0.08237000  0.49762000  1.0
  O  O58  1  0.98089000  0.33874000  0.49096000  1.0
  O  O59  1  0.01912000  0.83874000  0.50904000  1.0
  O  O60  1  0.22584000  0.25607000  0.60549000  1.0
  O  O61  1  0.77416000  0.75606000  0.39452000  1.0
  O  O62  1  0.34743000  0.78362000  0.58856000  1.0
  O  O63  1  0.65258000  0.28362000  0.41143000  1.0
  O  O64  1  0.51974000  0.68940000  0.76392000  1.0
  O  O65  1  0.48026000  0.18940000  0.23608000  1.0
  O  O66  1  0.07455000  0.67819000  0.98726000  1.0
  O  O67  1  0.92545000  0.17818000  0.01275000  1.0
  O  O68  1  0.98290000  0.92056000  0.99034000  1.0
  O  O69  1  0.01710000  0.42056000  0.00966000  1.0
  O  O70  1  0.21162000  0.00265000  0.12859000  1.0
  O  O71  1  0.78837000  0.50266000  0.87141000  1.0
  O  O72  1  0.48579000  0.57297000  0.33121000  1.0
  O  O73  1  0.51421000  0.07298000  0.66878000  1.0
  O  O74  1  0.32781000  0.47861000  0.14896000  1.0
  O  O75  1  0.67219000  0.97861000  0.85103000  1.0
