# generated using pymatgen
data_AgH5C6(N3O)2
_symmetry_space_group_name_H-M   'P 1'
_cell_length_a   6.51718000
_cell_length_b   9.72146000
_cell_length_c   16.43310000
_cell_angle_alpha   89.99980000
_cell_angle_beta   98.31250000
_cell_angle_gamma   89.99890000
_symmetry_Int_Tables_number   1
_chemical_formula_structural   AgH5C6(N3O)2
_chemical_formula_sum   'Ag4 H20 C24 N24 O8'
_cell_volume   1030.20580344
_cell_formula_units_Z   4
loop_
 _symmetry_equiv_pos_site_id
 _symmetry_equiv_pos_as_xyz
  1  'x, y, z'
loop_
 _atom_site_type_symbol
 _atom_site_label
 _atom_site_symmetry_multiplicity
 _atom_site_fract_x
 _atom_site_fract_y
 _atom_site_fract_z
 _atom_site_occupancy
  Ag  Ag0  1  0.86834000  0.02208000  0.61862000  1.0
  Ag  Ag1  1  0.13167000  0.52208000  0.88138000  1.0
  Ag  Ag2  1  0.13167000  0.97792000  0.38138000  1.0
  Ag  Ag3  1  0.86833000  0.47792000  0.11862000  1.0
  H  H4  1  0.75208000  0.46823000  0.33571000  1.0
  H  H5  1  0.24794000  0.96823000  0.16429000  1.0
  H  H6  1  0.24792000  0.53178000  0.66430000  1.0
  H  H7  1  0.75206000  0.03177000  0.83570000  1.0
  H  H8  1  0.17484000  0.70472000  0.22432000  1.0
  H  H9  1  0.82514000  0.20470000  0.27567000  1.0
  H  H10  1  0.82514000  0.29529000  0.77567000  1.0
  H  H11  1  0.17486000  0.79527000  0.72433000  1.0
  H  H12  1  0.78663000  0.59139000  0.47200000  1.0
  H  H13  1  0.21340000  0.09139000  0.02799000  1.0
  H  H14  1  0.21336000  0.40861000  0.52799000  1.0
  H  H15  1  0.78661000  0.90861000  0.97201000  1.0
  H  H16  1  0.43940000  0.71490000  0.45098000  1.0
  H  H17  1  0.56062000  0.21492000  0.04902000  1.0
  H  H18  1  0.56061000  0.28510000  0.54902000  1.0
  H  H19  1  0.43939000  0.78509000  0.95099000  1.0
  H  H20  1  0.64902000  0.10844000  0.39273000  1.0
  H  H21  1  0.35096000  0.60845000  0.10727000  1.0
  H  H22  1  0.35098000  0.89156000  0.60727000  1.0
  H  H23  1  0.64904000  0.39156000  0.89274000  1.0
  C  C24  1  0.86443000  0.54401000  0.32180000  1.0
  C  C25  1  0.13557000  0.04400000  0.17819000  1.0
  C  C26  1  0.13556000  0.45600000  0.67820000  1.0
  C  C27  1  0.86442000  0.95599000  0.82181000  1.0
  C  C28  1  0.08535000  0.66389000  0.26957000  1.0
  C  C29  1  0.91465000  0.16387000  0.23042000  1.0
  C  C30  1  0.91463000  0.33613000  0.73043000  1.0
  C  C31  1  0.08534000  0.83612000  0.76957000  1.0
  C  C32  1  0.87950000  0.67837000  0.45433000  1.0
  C  C33  1  0.12052000  0.17838000  0.04566000  1.0
  C  C34  1  0.12050000  0.32163000  0.54567000  1.0
  C  C35  1  0.87947000  0.82162000  0.95433000  1.0
  C  C36  1  0.06173000  0.69800000  0.52756000  1.0
  C  C37  1  0.93830000  0.19801000  0.97243000  1.0
  C  C38  1  0.93826000  0.30200000  0.47244000  1.0
  C  C39  1  0.06171000  0.80199000  0.02757000  1.0
  C  C40  1  0.53515000  0.80099000  0.43653000  1.0
  C  C41  1  0.46485000  0.30100000  0.06347000  1.0
  C  C42  1  0.46485000  0.19901000  0.56347000  1.0
  C  C43  1  0.53515000  0.69900000  0.93654000  1.0
  C  C44  1  0.64341000  0.99971000  0.40733000  1.0
  C  C45  1  0.35659000  0.49971000  0.09268000  1.0
  C  C46  1  0.35658000  0.00029000  0.59267000  1.0
  C  C47  1  0.64344000  0.50029000  0.90733000  1.0
  N  N48  1  0.94971000  0.55681000  0.25319000  1.0
  N  N49  1  0.05028000  0.05680000  0.24680000  1.0
  N  N50  1  0.05027000  0.44320000  0.74681000  1.0
  N  N51  1  0.94969000  0.94320000  0.75320000  1.0
  N  N52  1  0.08893000  0.71679000  0.34405000  1.0
  N  N53  1  0.91107000  0.21677000  0.15595000  1.0
  N  N54  1  0.91107000  0.28323000  0.65596000  1.0
  N  N55  1  0.08894000  0.78322000  0.84405000  1.0
  N  N56  1  0.94695000  0.63967000  0.37691000  1.0
  N  N57  1  0.05305000  0.13966000  0.12308000  1.0
  N  N58  1  0.05305000  0.36034000  0.62309000  1.0
  N  N59  1  0.94695000  0.86034000  0.87692000  1.0
  N  N60  1  0.74306000  0.79732000  0.44037000  1.0
  N  N61  1  0.25695000  0.29733000  0.05963000  1.0
  N  N62  1  0.25694000  0.20268000  0.55963000  1.0
  N  N63  1  0.74305000  0.70268000  0.94038000  1.0
  N  N64  1  0.81448000  0.92392000  0.42181000  1.0
  N  N65  1  0.18553000  0.42392000  0.07820000  1.0
  N  N66  1  0.18551000  0.07610000  0.57819000  1.0
  N  N67  1  0.81449000  0.57609000  0.92181000  1.0
  N  N68  1  0.46810000  0.92782000  0.41561000  1.0
  N  N69  1  0.53190000  0.42782000  0.08439000  1.0
  N  N70  1  0.53189000  0.07219000  0.58438000  1.0
  N  N71  1  0.46812000  0.57218000  0.91562000  1.0
  O  O72  1  0.22435000  0.63009000  0.52258000  1.0
  O  O73  1  0.77569000  0.13012000  0.97742000  1.0
  O  O74  1  0.77566000  0.36989000  0.47743000  1.0
  O  O75  1  0.22432000  0.86990000  0.02258000  1.0
  O  O76  1  0.01858000  0.77113000  0.58579000  1.0
  O  O77  1  0.98150000  0.27113000  0.91420000  1.0
  O  O78  1  0.98144000  0.22888000  0.41420000  1.0
  O  O79  1  0.01853000  0.72886000  0.08580000  1.0
