# generated using pymatgen
data_AlH6C13Br2O5
_symmetry_space_group_name_H-M   'P 1'
_cell_length_a   6.58322000
_cell_length_b   11.04832633
_cell_length_c   15.18920000
_cell_angle_alpha   90.36697829
_cell_angle_beta   101.52770000
_cell_angle_gamma   105.68980976
_symmetry_Int_Tables_number   1
_chemical_formula_structural   AlH6C13Br2O5
_chemical_formula_sum   'Al2 H12 C26 Br4 O10'
_cell_volume   1040.00434759
_cell_formula_units_Z   2
loop_
 _symmetry_equiv_pos_site_id
 _symmetry_equiv_pos_as_xyz
  1  'x, y, z'
loop_
 _atom_site_type_symbol
 _atom_site_label
 _atom_site_symmetry_multiplicity
 _atom_site_fract_x
 _atom_site_fract_y
 _atom_site_fract_z
 _atom_site_occupancy
  Al  Al0  1  0.99943000  0.50691000  0.49907000  1.0
  Al  Al1  1  0.50181000  0.51264000  0.50053000  1.0
  H  H2  1  0.33873000  0.65918000  0.55910000  1.0
  H  H3  1  0.64113000  0.36370000  0.43507000  1.0
  H  H4  1  0.53751000  0.43342000  0.77305000  1.0
  H  H5  1  0.62849000  0.42055000  0.93799000  1.0
  H  H6  1  0.45333000  0.59126000  0.22643000  1.0
  H  H7  1  0.36408000  0.58629000  0.06052000  1.0
  H  H8  1  0.80098000  0.38231000  0.22827000  1.0
  H  H9  1  0.71489000  0.36305000  0.06245000  1.0
  H  H10  1  0.21061000  0.54311000  0.76550000  1.0
  H  H11  1  0.30619000  0.52889000  0.93016000  1.0
  H  H12  1  0.54036000  0.77765000  0.38514000  1.0
  H  H13  1  0.80975000  0.24335000  0.38257000  1.0
  C  C14  1  0.86458000  0.73466000  0.49280000  1.0
  C  C15  1  0.81535000  0.50546000  0.66075000  1.0
  C  C16  1  0.14453000  0.28416000  0.50536000  1.0
  C  C17  1  0.18401000  0.49999000  0.33775000  1.0
  C  C18  1  0.86869000  0.49125000  0.75928000  1.0
  C  C19  1  0.13214000  0.48920000  0.23783000  1.0
  C  C20  1  0.70555000  0.45461000  0.80852000  1.0
  C  C21  1  0.75844000  0.44690000  0.90120000  1.0
  C  C22  1  0.29111000  0.54312000  0.18949000  1.0
  C  C23  1  0.24003000  0.53804000  0.09606000  1.0
  C  C24  1  0.92397000  0.42547000  0.19073000  1.0
  C  C25  1  0.87594000  0.41672000  0.09716000  1.0
  C  C26  1  0.08492000  0.51646000  0.80445000  1.0
  C  C27  1  0.13671000  0.50856000  0.89705000  1.0
  C  C28  1  0.97514000  0.47550000  0.94810000  1.0
  C  C29  1  0.03100000  0.47541000  0.04745000  1.0
  C  C30  1  0.93690000  0.87611000  0.49571000  1.0
  C  C31  1  0.80450000  0.94251000  0.44129000  1.0
  C  C32  1  0.12994000  0.94240000  0.55141000  1.0
  C  C33  1  0.60104000  0.87962000  0.38619000  1.0
  C  C34  1  0.47415000  0.94610000  0.33583000  1.0
  C  C35  1  0.07787000  0.14262000  0.50084000  1.0
  C  C36  1  0.20085000  0.07624000  0.55457000  1.0
  C  C37  1  0.87857000  0.07705000  0.44270000  1.0
  C  C38  1  0.75037000  0.14196000  0.38606000  1.0
  C  C39  1  0.55092000  0.07910000  0.33514000  1.0
  Br  Br40  1  0.45664000  0.16428000  0.63636000  1.0
  Br  Br41  1  0.29507000  0.85680000  0.63219000  1.0
  Br  Br42  1  0.19853000  0.85620000  0.26890000  1.0
  Br  Br43  1  0.38460000  0.17567000  0.26675000  1.0
  O  O44  1  0.99154000  0.67658000  0.47185000  1.0
  O  O45  1  0.61784000  0.49102000  0.62374000  1.0
  O  O46  1  0.32447000  0.33929000  0.48633000  1.0
  O  O47  1  0.02577000  0.47127000  0.37794000  1.0
  O  O48  1  0.00998000  0.33765000  0.52520000  1.0
  O  O49  1  0.38301000  0.53557000  0.37669000  1.0
  O  O50  1  0.68170000  0.68427000  0.51151000  1.0
  O  O51  1  0.97238000  0.53347000  0.62020000  1.0
  O  O52  1  0.29420000  0.57073000  0.53812000  1.0
  O  O53  1  0.70342000  0.44965000  0.46037000  1.0
