# generated using pymatgen
data_HgH9C12Br2N2F
_symmetry_space_group_name_H-M   'P 1'
_cell_length_a   4.03604000
_cell_length_b   18.82580000
_cell_length_c   18.83360000
_cell_angle_alpha   105.16200000
_cell_angle_beta   94.87590000
_cell_angle_gamma   90.79680000
_symmetry_Int_Tables_number   1
_chemical_formula_structural   HgH9C12Br2N2F
_chemical_formula_sum   'Hg4 H36 C48 Br8 N8 F4'
_cell_volume   1375.22513703
_cell_formula_units_Z   4
loop_
 _symmetry_equiv_pos_site_id
 _symmetry_equiv_pos_as_xyz
  1  'x, y, z'
loop_
 _atom_site_type_symbol
 _atom_site_label
 _atom_site_symmetry_multiplicity
 _atom_site_fract_x
 _atom_site_fract_y
 _atom_site_fract_z
 _atom_site_occupancy
  Hg  Hg0  1  0.81069000  0.44263000  0.57702000  1.0
  Hg  Hg1  1  0.18944000  0.55737000  0.42297000  1.0
  Hg  Hg2  1  0.83272000  0.39465000  0.03008000  1.0
  Hg  Hg3  1  0.16725000  0.60533000  0.96991000  1.0
  H  H4  1  0.66027000  0.42375000  0.73745000  1.0
  H  H5  1  0.33975000  0.57625000  0.26253000  1.0
  H  H6  1  0.70252000  0.33697000  0.81831000  1.0
  H  H7  1  0.29744000  0.66303000  0.18168000  1.0
  H  H8  1  0.19702000  0.18762000  0.64860000  1.0
  H  H9  1  0.80299000  0.81238000  0.35140000  1.0
  H  H10  1  0.13407000  0.28140000  0.57404000  1.0
  H  H11  1  0.86599000  0.71860000  0.42596000  1.0
  H  H12  1  0.82462000  0.21556000  0.83257000  1.0
  H  H13  1  0.17533000  0.78444000  0.16742000  1.0
  H  H14  1  0.42509000  0.02264000  0.72844000  1.0
  H  H15  1  0.57493000  0.97737000  0.27155000  1.0
  H  H16  1  0.49578000  0.92596000  0.79813000  1.0
  H  H17  1  0.50434000  0.07405000  0.20187000  1.0
  H  H18  1  0.07333000  0.07017000  0.98292000  1.0
  H  H19  1  0.92674000  0.92984000  0.01708000  1.0
  H  H20  1  0.99419000  0.16498000  0.91315000  1.0
  H  H21  1  0.00581000  0.83502000  0.08684000  1.0
  H  H22  1  0.49260000  0.24237000  0.05829000  1.0
  H  H23  1  0.50734000  0.75761000  0.94172000  1.0
  H  H24  1  0.40345000  0.18195000  0.15975000  1.0
  H  H25  1  0.59646000  0.81805000  0.84028000  1.0
  H  H26  1  0.07667000  0.34904000  0.30404000  1.0
  H  H27  1  0.92334000  0.65095000  0.69595000  1.0
  H  H28  1  0.12595000  0.40399000  0.19821000  1.0
  H  H29  1  0.87405000  0.59599000  0.80178000  1.0
  H  H30  1  0.85940000  0.25682000  0.35375000  1.0
  H  H31  1  0.14056000  0.74319000  0.64627000  1.0
  H  H32  1  0.12145000  0.06524000  0.29661000  1.0
  H  H33  1  0.87854000  0.93477000  0.70340000  1.0
  H  H34  1  0.03867000  0.00736000  0.40024000  1.0
  H  H35  1  0.96127000  0.99265000  0.59976000  1.0
  H  H36  1  0.60237000  0.18805000  0.55163000  1.0
  H  H37  1  0.39760000  0.81196000  0.44838000  1.0
  H  H38  1  0.69067000  0.24542000  0.44957000  1.0
  H  H39  1  0.30933000  0.75459000  0.55043000  1.0
  C  C40  1  0.77741000  0.37083000  0.71993000  1.0
  C  C41  1  0.22261000  0.62916000  0.28006000  1.0
  C  C42  1  0.80116000  0.32240000  0.76445000  1.0
  C  C43  1  0.19879000  0.67759000  0.23554000  1.0
  C  C44  1  0.95190000  0.25488000  0.73912000  1.0
  C  C45  1  0.04807000  0.74512000  0.26087000  1.0
  C  C46  1  0.07715000  0.23951000  0.66950000  1.0
  C  C47  1  0.92283000  0.76049000  0.33049000  1.0
  C  C48  1  0.04181000  0.29080000  0.62849000  1.0
  C  C49  1  0.95823000  0.70920000  0.37150000  1.0
  C  C50  1  0.97556000  0.20309000  0.78508000  1.0
  C  C51  1  0.02438000  0.79691000  0.21491000  1.0
  C  C52  1  0.19726000  0.09892000  0.81454000  1.0
  C  C53  1  0.80274000  0.90108000  0.18545000  1.0
  C  C54  1  0.34513000  0.03196000  0.78388000  1.0
  C  C55  1  0.65488000  0.96804000  0.21611000  1.0
  C  C56  1  0.38671000  0.97847000  0.82249000  1.0
  C  C57  1  0.61335000  0.02154000  0.17750000  1.0
  C  C58  1  0.28462000  0.99411000  0.89329000  1.0
  C  C59  1  0.71548000  0.00590000  0.10671000  1.0
  C  C60  1  0.14609000  0.06045000  0.92694000  1.0
  C  C61  1  0.85395000  0.93955000  0.07305000  1.0
  C  C62  1  0.10197000  0.11287000  0.88720000  1.0
  C  C63  1  0.89801000  0.88713000  0.11279000  1.0
  C  C64  1  0.61699000  0.26369000  0.11384000  1.0
  C  C65  1  0.38295000  0.73630000  0.88617000  1.0
  C  C66  1  0.56915000  0.23037000  0.16997000  1.0
  C  C67  1  0.43077000  0.76963000  0.83004000  1.0
  C  C68  1  0.73244000  0.26098000  0.24064000  1.0
  C  C69  1  0.26756000  0.73902000  0.75938000  1.0
  C  C70  1  0.94138000  0.32360000  0.25058000  1.0
  C  C71  1  0.05859000  0.67640000  0.74943000  1.0
  C  C72  1  0.97052000  0.35438000  0.19175000  1.0
  C  C73  1  0.02946000  0.64560000  0.80825000  1.0
  C  C74  1  0.68900000  0.23217000  0.30428000  1.0
  C  C75  1  0.31098000  0.76784000  0.69574000  1.0
  C  C76  1  0.42050000  0.15720000  0.36491000  1.0
  C  C77  1  0.57950000  0.84280000  0.63510000  1.0
  C  C78  1  0.23071000  0.09112000  0.35253000  1.0
  C  C79  1  0.76928000  0.90889000  0.64747000  1.0
  C  C80  1  0.18245000  0.05881000  0.40963000  1.0
  C  C81  1  0.81755000  0.94119000  0.59038000  1.0
  C  C82  1  0.32047000  0.09517000  0.48009000  1.0
  C  C83  1  0.67952000  0.90483000  0.51992000  1.0
  C  C84  1  0.50095000  0.16180000  0.49523000  1.0
  C  C85  1  0.49903000  0.83821000  0.50478000  1.0
  C  C86  1  0.55067000  0.19304000  0.43760000  1.0
  C  C87  1  0.44932000  0.80696000  0.56241000  1.0
  Br  Br88  1  0.44085000  0.52783000  0.66139000  1.0
  Br  Br89  1  0.55925000  0.47218000  0.33859000  1.0
  Br  Br90  1  0.15674000  0.37918000  0.47308000  1.0
  Br  Br91  1  0.84335000  0.62081000  0.52691000  1.0
  Br  Br92  1  0.27359000  0.49386000  0.09619000  1.0
  Br  Br93  1  0.72637000  0.50613000  0.90381000  1.0
  Br  Br94  1  0.39583000  0.31136000  0.93784000  1.0
  Br  Br95  1  0.60405000  0.68864000  0.06215000  1.0
  N  N96  1  0.89211000  0.35497000  0.65295000  1.0
  N  N97  1  0.10792000  0.64502000  0.34705000  1.0
  N  N98  1  0.16289000  0.14740000  0.76944000  1.0
  N  N99  1  0.83707000  0.85261000  0.23055000  1.0
  N  N100  1  0.81103000  0.32514000  0.12470000  1.0
  N  N101  1  0.18891000  0.67485000  0.87530000  1.0
  N  N102  1  0.46314000  0.18249000  0.30229000  1.0
  N  N103  1  0.53686000  0.81751000  0.69772000  1.0
  F  F104  1  0.32421000  0.94187000  0.93197000  1.0
  F  F105  1  0.67602000  0.05816000  0.06804000  1.0
  F  F106  1  0.27448000  0.06556000  0.53773000  1.0
  F  F107  1  0.72546000  0.93445000  0.46229000  1.0
