# generated using pymatgen
data_Ag2P2H12C16N4O9
_symmetry_space_group_name_H-M   'P 1'
_cell_length_a   7.73410000
_cell_length_b   10.12040000
_cell_length_c   13.90460000
_cell_angle_alpha   107.13700000
_cell_angle_beta   97.98150000
_cell_angle_gamma   106.32900000
_symmetry_Int_Tables_number   1
_chemical_formula_structural   Ag2P2H12C16N4O9
_chemical_formula_sum   'Ag4 P4 H24 C32 N8 O18'
_cell_volume   968.46896521
_cell_formula_units_Z   2
loop_
 _symmetry_equiv_pos_site_id
 _symmetry_equiv_pos_as_xyz
  1  'x, y, z'
loop_
 _atom_site_type_symbol
 _atom_site_label
 _atom_site_symmetry_multiplicity
 _atom_site_fract_x
 _atom_site_fract_y
 _atom_site_fract_z
 _atom_site_occupancy
  Ag  Ag0  1  0.82798000  0.57920000  0.54949000  1.0
  Ag  Ag1  1  0.17202000  0.42080000  0.45051000  1.0
  Ag  Ag2  1  0.45497000  0.07917000  0.09807000  1.0
  Ag  Ag3  1  0.54503000  0.92083000  0.90194000  1.0
  P  P4  1  0.08327000  0.21423000  0.11572000  1.0
  P  P5  1  0.91673000  0.78577000  0.88428000  1.0
  P  P6  1  0.69719000  0.23763000  0.34742000  1.0
  P  P7  1  0.30281000  0.76237000  0.65259000  1.0
  H  H8  1  0.29681000  0.00640000  0.23676000  1.0
  H  H9  1  0.70319000  0.99360000  0.76325000  1.0
  H  H10  1  0.09811000  0.53737000  0.17908000  1.0
  H  H11  1  0.90189000  0.46263000  0.82092000  1.0
  H  H12  1  0.98437000  0.58481000  0.33975000  1.0
  H  H13  1  0.01562000  0.41518000  0.66024000  1.0
  H  H14  1  0.02314000  0.84004000  0.44832000  1.0
  H  H15  1  0.97685000  0.15995000  0.55168000  1.0
  H  H16  1  0.46940000  0.61438000  0.79714000  1.0
  H  H17  1  0.53061000  0.38563000  0.20286000  1.0
  H  H18  1  0.36794000  0.14612000  0.68258000  1.0
  H  H19  1  0.63207000  0.85389000  0.31742000  1.0
  H  H20  1  0.22265000  0.12227000  0.82703000  1.0
  H  H21  1  0.77735000  0.87774000  0.17296000  1.0
  H  H22  1  0.20601000  0.34041000  0.95974000  1.0
  H  H23  1  0.79399000  0.65960000  0.04026000  1.0
  H  H24  1  0.87276000  0.99084000  0.05626000  1.0
  H  H25  1  0.12724000  0.00915000  0.94374000  1.0
  H  H26  1  0.31251000  0.25445000  0.25143000  1.0
  H  H27  1  0.68749000  0.74555000  0.74858000  1.0
  H  H28  1  0.82294000  0.11817000  0.22748000  1.0
  H  H29  1  0.17706000  0.88183000  0.77253000  1.0
  H  H30  1  0.62030000  0.24894000  0.49188000  1.0
  H  H31  1  0.37970000  0.75106000  0.50812000  1.0
  C  C32  1  0.17705000  0.08470000  0.40438000  1.0
  C  C33  1  0.82295000  0.91530000  0.59562000  1.0
  C  C34  1  0.16002000  0.93797000  0.34753000  1.0
  C  C35  1  0.83998000  0.06203000  0.65247000  1.0
  C  C36  1  0.22688000  0.91332000  0.25774000  1.0
  C  C37  1  0.77311000  0.08668000  0.74226000  1.0
  C  C38  1  0.20519000  0.76940000  0.19760000  1.0
  C  C39  1  0.79480000  0.23060000  0.80240000  1.0
  C  C40  1  0.11752000  0.65055000  0.22707000  1.0
  C  C41  1  0.88248000  0.34945000  0.77293000  1.0
  C  C42  1  0.05336000  0.67730000  0.31742000  1.0
  C  C43  1  0.94663000  0.32269000  0.68258000  1.0
  C  C44  1  0.07356000  0.81991000  0.37807000  1.0
  C  C45  1  0.92643000  0.18008000  0.62192000  1.0
  C  C46  1  0.27404000  0.74453000  0.10462000  1.0
  C  C47  1  0.72597000  0.25547000  0.89538000  1.0
  C  C48  1  0.33288000  0.62162000  0.96530000  1.0
  C  C49  1  0.66712000  0.37838000  0.03470000  1.0
  C  C50  1  0.34008000  0.49245000  0.88792000  1.0
  C  C51  1  0.65993000  0.50755000  0.11209000  1.0
  C  C52  1  0.42020000  0.50803000  0.80602000  1.0
  C  C53  1  0.57981000  0.49199000  0.19398000  1.0
  C  C54  1  0.43205000  0.38362000  0.73284000  1.0
  C  C55  1  0.56796000  0.61638000  0.26716000  1.0
  C  C56  1  0.36017000  0.24325000  0.73975000  1.0
  C  C57  1  0.63983000  0.75676000  0.26025000  1.0
  C  C58  1  0.27933000  0.23011000  0.82149000  1.0
  C  C59  1  0.72068000  0.76990000  0.17851000  1.0
  C  C60  1  0.26937000  0.35294000  0.89601000  1.0
  C  C61  1  0.73063000  0.64707000  0.10399000  1.0
  C  C62  1  0.52185000  0.40193000  0.65281000  1.0
  C  C63  1  0.47816000  0.59808000  0.34718000  1.0
  N  N64  1  0.36147000  0.83983000  0.06543000  1.0
  N  N65  1  0.63854000  0.16018000  0.93457000  1.0
  N  N66  1  0.39794000  0.76093000  0.97563000  1.0
  N  N67  1  0.60206000  0.23907000  0.02438000  1.0
  N  N68  1  0.59961000  0.41705000  0.58836000  1.0
  N  N69  1  0.40039000  0.58295000  0.41164000  1.0
  N  N70  1  0.18953000  0.20619000  0.44738000  1.0
  N  N71  1  0.81046000  0.79380000  0.55262000  1.0
  O  O72  1  0.25449000  0.60552000  0.04501000  1.0
  O  O73  1  0.74552000  0.39448000  0.95499000  1.0
  O  O74  1  0.18942000  0.14095000  0.04438000  1.0
  O  O75  1  0.81058000  0.85904000  0.95562000  1.0
  O  O76  1  0.91116000  0.08369000  0.12218000  1.0
  O  O77  1  0.08884000  0.91631000  0.87783000  1.0
  O  O78  1  0.01931000  0.32779000  0.08900000  1.0
  O  O79  1  0.98068000  0.67220000  0.91100000  1.0
  O  O80  1  0.20407000  0.28518000  0.23370000  1.0
  O  O81  1  0.79593000  0.71482000  0.76630000  1.0
  O  O82  1  0.52291000  0.23276000  0.27776000  1.0
  O  O83  1  0.47709000  0.76723000  0.72224000  1.0
  O  O84  1  0.77424000  0.11368000  0.29012000  1.0
  O  O85  1  0.22576000  0.88632000  0.70989000  1.0
  O  O86  1  0.64067000  0.17313000  0.43571000  1.0
  O  O87  1  0.35933000  0.82686000  0.56430000  1.0
  O  O88  1  0.84806000  0.38895000  0.39528000  1.0
  O  O89  1  0.15194000  0.61105000  0.60472000  1.0
