# generated using pymatgen
data_CuH16C17N3ClO2
_symmetry_space_group_name_H-M   'P 1'
_cell_length_a   7.54601000
_cell_length_b   8.97923000
_cell_length_c   12.05890000
_cell_angle_alpha   90.31500000
_cell_angle_beta   89.99930000
_cell_angle_gamma   89.99980000
_symmetry_Int_Tables_number   1
_chemical_formula_structural   CuH16C17N3ClO2
_chemical_formula_sum   'Cu2 H32 C34 N6 Cl2 O4'
_cell_volume   817.06687252
_cell_formula_units_Z   2
loop_
 _symmetry_equiv_pos_site_id
 _symmetry_equiv_pos_as_xyz
  1  'x, y, z'
loop_
 _atom_site_type_symbol
 _atom_site_label
 _atom_site_symmetry_multiplicity
 _atom_site_fract_x
 _atom_site_fract_y
 _atom_site_fract_z
 _atom_site_occupancy
  Cu  Cu0  1  0.05125000  0.47863000  0.18189000  1.0
  Cu  Cu1  1  0.55126000  0.52140000  0.81810000  1.0
  H  H2  1  0.23035000  0.20213000  0.02976000  1.0
  H  H3  1  0.73037000  0.79789000  0.97024000  1.0
  H  H4  1  0.90237000  0.23897000  0.88186000  1.0
  H  H5  1  0.40235000  0.76105000  0.11809000  1.0
  H  H6  1  0.11709000  0.22802000  0.82795000  1.0
  H  H7  1  0.61703000  0.77196000  0.17205000  1.0
  H  H8  1  0.14818000  0.94166000  0.05630000  1.0
  H  H9  1  0.64817000  0.05836000  0.94373000  1.0
  H  H10  1  0.11527000  0.12053000  0.19217000  1.0
  H  H11  1  0.61534000  0.87946000  0.80782000  1.0
  H  H12  1  0.89829000  0.07224000  0.14654000  1.0
  H  H13  1  0.39834000  0.92779000  0.85347000  1.0
  H  H14  1  0.79879000  0.01728000  0.34135000  1.0
  H  H15  1  0.29883000  0.98271000  0.65863000  1.0
  H  H16  1  0.82879000  0.62143000  0.60104000  1.0
  H  H17  1  0.32874000  0.37856000  0.39897000  1.0
  H  H18  1  0.91037000  0.54993000  0.41102000  1.0
  H  H19  1  0.41041000  0.45007000  0.58900000  1.0
  H  H20  1  0.96508000  0.55199000  0.78134000  1.0
  H  H21  1  0.46507000  0.44799000  0.21868000  1.0
  H  H22  1  0.74998000  0.39765000  0.55883000  1.0
  H  H23  1  0.25003000  0.60232000  0.44117000  1.0
  H  H24  1  0.86672000  0.08994000  0.68062000  1.0
  H  H25  1  0.36667000  0.91003000  0.31939000  1.0
  H  H26  1  0.78352000  0.88428000  0.54978000  1.0
  H  H27  1  0.28340000  0.11571000  0.45021000  1.0
  H  H28  1  0.68910000  0.13219000  0.52046000  1.0
  H  H29  1  0.18916000  0.86778000  0.47954000  1.0
  H  H30  1  0.09880000  0.68674000  0.98135000  1.0
  H  H31  1  0.59879000  0.31326000  0.01867000  1.0
  H  H32  1  0.87105000  0.31498000  0.06855000  1.0
  H  H33  1  0.37107000  0.68504000  0.93146000  1.0
  C  C34  1  0.11507000  0.26648000  0.00081000  1.0
  C  C35  1  0.61512000  0.73353000  0.99922000  1.0
  C  C36  1  0.03472000  0.19128000  0.89827000  1.0
  C  C37  1  0.53471000  0.80873000  0.10173000  1.0
  C  C38  1  0.02796000  0.02495000  0.89777000  1.0
  C  C39  1  0.52799000  0.97505000  0.10224000  1.0
  C  C40  1  0.08835000  0.92438000  0.97548000  1.0
  C  C41  1  0.58836000  0.07562000  0.02454000  1.0
  C  C42  1  0.96422000  0.93722000  0.80547000  1.0
  C  C43  1  0.46425000  0.06279000  0.19452000  1.0
  C  C44  1  0.98125000  0.16448000  0.17711000  1.0
  C  C45  1  0.48128000  0.83554000  0.82287000  1.0
  C  C46  1  0.82197000  0.13415000  0.36125000  1.0
  C  C47  1  0.32199000  0.86584000  0.63872000  1.0
  C  C48  1  0.90993000  0.22391000  0.28505000  1.0
  C  C49  1  0.40992000  0.77608000  0.71494000  1.0
  C  C50  1  0.99085000  0.78398000  0.83275000  1.0
  C  C51  1  0.49087000  0.21603000  0.16725000  1.0
  C  C52  1  0.19017000  0.42036000  0.96993000  1.0
  C  C53  1  0.69023000  0.57966000  0.03004000  1.0
  C  C54  1  0.86814000  0.70851000  0.65915000  1.0
  C  C55  1  0.36809000  0.29149000  0.34085000  1.0
  C  C56  1  0.88237000  0.43136000  0.40141000  1.0
  C  C57  1  0.38239000  0.56863000  0.59861000  1.0
  C  C58  1  0.94261000  0.66831000  0.76029000  1.0
  C  C59  1  0.44261000  0.33169000  0.23971000  1.0
  C  C60  1  0.79482000  0.34814000  0.48107000  1.0
  C  C61  1  0.29487000  0.65183000  0.51893000  1.0
  C  C62  1  0.88943000  0.97377000  0.70219000  1.0
  C  C63  1  0.38939000  0.02622000  0.29780000  1.0
  C  C64  1  0.84214000  0.85891000  0.63012000  1.0
  C  C65  1  0.34208000  0.14108000  0.36987000  1.0
  C  C66  1  0.76257000  0.19756000  0.46004000  1.0
  C  C67  1  0.26261000  0.80241000  0.53995000  1.0
  N  N68  1  0.06654000  0.78034000  0.93663000  1.0
  N  N69  1  0.56656000  0.21965000  0.06337000  1.0
  N  N70  1  0.99491000  0.28604000  0.09635000  1.0
  N  N71  1  0.49495000  0.71394000  0.90365000  1.0
  N  N72  1  0.93842000  0.36999000  0.30560000  1.0
  N  N73  1  0.43845000  0.63000000  0.69442000  1.0
  Cl  Cl74  1  0.10405000  0.70183000  0.25966000  1.0
  Cl  Cl75  1  0.60407000  0.29822000  0.74035000  1.0
  O  O76  1  0.18500000  0.52431000  0.04614000  1.0
  O  O77  1  0.68500000  0.47569000  0.95386000  1.0
  O  O78  1  0.25469000  0.44163000  0.87670000  1.0
  O  O79  1  0.75475000  0.55838000  0.12331000  1.0
