# generated using pymatgen
data_Li2H8C6N2O7
_symmetry_space_group_name_H-M   'P 1'
_cell_length_a   7.40758000
_cell_length_b   7.89943000
_cell_length_c   16.34760000
_cell_angle_alpha   89.99980000
_cell_angle_beta   89.99970000
_cell_angle_gamma   86.77020000
_symmetry_Int_Tables_number   1
_chemical_formula_structural   Li2H8C6N2O7
_chemical_formula_sum   'Li8 H32 C24 N8 O28'
_cell_volume   955.07114575
_cell_formula_units_Z   4
loop_
 _symmetry_equiv_pos_site_id
 _symmetry_equiv_pos_as_xyz
  1  'x, y, z'
loop_
 _atom_site_type_symbol
 _atom_site_label
 _atom_site_symmetry_multiplicity
 _atom_site_fract_x
 _atom_site_fract_y
 _atom_site_fract_z
 _atom_site_occupancy
  Li  Li0  1  0.91532000  0.78354000  0.45554000  1.0
  Li  Li1  1  0.08468000  0.71646000  0.95554000  1.0
  Li  Li2  1  0.08468000  0.21646000  0.54446000  1.0
  Li  Li3  1  0.91533000  0.28354000  0.04446000  1.0
  Li  Li4  1  0.95637000  0.57895000  0.63152000  1.0
  Li  Li5  1  0.04363000  0.92105000  0.13152000  1.0
  Li  Li6  1  0.04363000  0.42105000  0.36848000  1.0
  Li  Li7  1  0.95637000  0.07895000  0.86848000  1.0
  H  H8  1  0.00844000  0.89892000  0.59100000  1.0
  H  H9  1  0.99156000  0.60108000  0.09101000  1.0
  H  H10  1  0.99156000  0.10108000  0.40900000  1.0
  H  H11  1  0.00844000  0.39892000  0.90899000  1.0
  H  H12  1  0.16537000  0.77369000  0.55566000  1.0
  H  H13  1  0.83463000  0.72631000  0.05566000  1.0
  H  H14  1  0.83463000  0.22631000  0.44434000  1.0
  H  H15  1  0.16537000  0.27369000  0.94434000  1.0
  H  H16  1  0.71656000  0.58214000  0.37936000  1.0
  H  H17  1  0.28344000  0.91786000  0.87936000  1.0
  H  H18  1  0.28344000  0.41786000  0.62064000  1.0
  H  H19  1  0.71656000  0.08214000  0.12064000  1.0
  H  H20  1  0.79203000  0.51588000  0.46715000  1.0
  H  H21  1  0.20797000  0.98412000  0.96715000  1.0
  H  H22  1  0.20797000  0.48412000  0.53285000  1.0
  H  H23  1  0.79203000  0.01588000  0.03285000  1.0
  H  H24  1  0.67595000  0.02289000  0.49864000  1.0
  H  H25  1  0.32405000  0.47711000  0.99864000  1.0
  H  H26  1  0.32405000  0.97711000  0.50136000  1.0
  H  H27  1  0.67596000  0.52289000  0.00136000  1.0
  H  H28  1  0.58251000  0.85788000  0.46878000  1.0
  H  H29  1  0.41749000  0.64212000  0.96878000  1.0
  H  H30  1  0.41749000  0.14212000  0.53122000  1.0
  H  H31  1  0.58251000  0.35788000  0.03122000  1.0
  H  H32  1  0.47873000  0.70384000  0.10856000  1.0
  H  H33  1  0.52127000  0.79615000  0.60856000  1.0
  H  H34  1  0.52127000  0.29615000  0.89144000  1.0
  H  H35  1  0.47873000  0.20384000  0.39144000  1.0
  H  H36  1  0.70881000  0.58501000  0.21342000  1.0
  H  H37  1  0.29119000  0.91499000  0.71342000  1.0
  H  H38  1  0.29119000  0.41500000  0.78658000  1.0
  H  H39  1  0.70881000  0.08500000  0.28658000  1.0
  C  C40  1  0.08607000  0.89015000  0.30337000  1.0
  C  C41  1  0.91393000  0.60986000  0.80337000  1.0
  C  C42  1  0.91393000  0.10985000  0.69663000  1.0
  C  C43  1  0.08607000  0.39015000  0.19663000  1.0
  C  C44  1  0.25410000  0.78412000  0.27796000  1.0
  C  C45  1  0.74590000  0.71588000  0.77796000  1.0
  C  C46  1  0.74590000  0.21588000  0.72204000  1.0
  C  C47  1  0.25410000  0.28412000  0.22204000  1.0
  C  C48  1  0.44978000  0.70608000  0.17390000  1.0
  C  C49  1  0.55022000  0.79391000  0.67390000  1.0
  C  C50  1  0.55022000  0.29392000  0.82610000  1.0
  C  C51  1  0.44978000  0.20608000  0.32610000  1.0
  C  C52  1  0.57478000  0.63816000  0.23088000  1.0
  C  C53  1  0.42522000  0.86184000  0.73088000  1.0
  C  C54  1  0.42522000  0.36185000  0.76912000  1.0
  C  C55  1  0.57478000  0.13816000  0.26912000  1.0
  C  C56  1  0.37199000  0.70167000  0.33472000  1.0
  C  C57  1  0.62801000  0.79833000  0.83471000  1.0
  C  C58  1  0.62801000  0.29833000  0.66528000  1.0
  C  C59  1  0.37199000  0.20167000  0.16529000  1.0
  C  C60  1  0.32002000  0.67165000  0.42285000  1.0
  C  C61  1  0.67998000  0.82836000  0.92285000  1.0
  C  C62  1  0.67998000  0.32835000  0.57715000  1.0
  C  C63  1  0.32002000  0.17164000  0.07715000  1.0
  N  N64  1  0.29200000  0.78114000  0.19778000  1.0
  N  N65  1  0.70801000  0.71886000  0.69778000  1.0
  N  N66  1  0.70800000  0.21886000  0.80222000  1.0
  N  N67  1  0.29200000  0.28114000  0.30222000  1.0
  N  N68  1  0.53424000  0.63403000  0.31089000  1.0
  N  N69  1  0.46576000  0.86598000  0.81089000  1.0
  N  N70  1  0.46575000  0.36597000  0.68911000  1.0
  N  N71  1  0.53425000  0.13403000  0.18911000  1.0
  O  O72  1  0.98934000  0.95821000  0.24812000  1.0
  O  O73  1  0.01066000  0.54179000  0.74812000  1.0
  O  O74  1  0.01066000  0.04179000  0.75188000  1.0
  O  O75  1  0.98934000  0.45821000  0.25188000  1.0
  O  O76  1  0.06232000  0.90737000  0.38059000  1.0
  O  O77  1  0.93768000  0.59263000  0.88059000  1.0
  O  O78  1  0.93768000  0.09263000  0.61941000  1.0
  O  O79  1  0.06232000  0.40737000  0.11941000  1.0
  O  O80  1  0.21410000  0.55377000  0.43405000  1.0
  O  O81  1  0.78590000  0.94623000  0.93405000  1.0
  O  O82  1  0.78590000  0.44623000  0.56595000  1.0
  O  O83  1  0.21410000  0.05377000  0.06595000  1.0
  O  O84  1  0.38830000  0.75640000  0.48007000  1.0
  O  O85  1  0.61169000  0.74360000  0.98006000  1.0
  O  O86  1  0.61170000  0.24360000  0.51994000  1.0
  O  O87  1  0.38831000  0.25640000  0.01994000  1.0
  O  O88  1  0.03496000  0.78285000  0.56683000  1.0
  O  O89  1  0.96503000  0.71715000  0.06683000  1.0
  O  O90  1  0.96504000  0.21715000  0.43317000  1.0
  O  O91  1  0.03497000  0.28285000  0.93317000  1.0
  O  O92  1  0.82725000  0.56879000  0.41450000  1.0
  O  O93  1  0.17275000  0.93121000  0.91450000  1.0
  O  O94  1  0.17275000  0.43121000  0.58550000  1.0
  O  O95  1  0.82725000  0.06879000  0.08550000  1.0
  O  O96  1  0.69738000  0.91683000  0.46801000  1.0
  O  O97  1  0.30261000  0.58317000  0.96801000  1.0
  O  O98  1  0.30262000  0.08317000  0.53199000  1.0
  O  O99  1  0.69739000  0.41683000  0.03199000  1.0
