# generated using pymatgen
data_BaP4H26(C2O)12
_symmetry_space_group_name_H-M   'P 1'
_cell_length_a   7.98392000
_cell_length_b   14.53600000
_cell_length_c   14.53610000
_cell_angle_alpha   96.90600000
_cell_angle_beta   98.69450000
_cell_angle_gamma   98.69490000
_symmetry_Int_Tables_number   1
_chemical_formula_structural   BaP4H26(C2O)12
_chemical_formula_sum   'Ba2 P8 H52 C48 O24'
_cell_volume   1630.65463175
_cell_formula_units_Z   2
loop_
 _symmetry_equiv_pos_site_id
 _symmetry_equiv_pos_as_xyz
  1  'x, y, z'
loop_
 _atom_site_type_symbol
 _atom_site_label
 _atom_site_symmetry_multiplicity
 _atom_site_fract_x
 _atom_site_fract_y
 _atom_site_fract_z
 _atom_site_occupancy
  Ba  Ba0  1  0.25001000  0.94339000  0.05661000  1.0
  Ba  Ba1  1  0.75000000  0.05661000  0.94339000  1.0
  P  P2  1  0.00762000  0.72018000  0.13245000  1.0
  P  P3  1  0.49239000  0.86755000  0.27982000  1.0
  P  P4  1  0.99237000  0.27980000  0.86754000  1.0
  P  P5  1  0.50764000  0.13245000  0.72019000  1.0
  P  P6  1  0.43013000  0.79806000  0.91643000  1.0
  P  P7  1  0.06988000  0.08358000  0.20194000  1.0
  P  P8  1  0.56987000  0.20194000  0.08359000  1.0
  P  P9  1  0.93012000  0.91641000  0.79805000  1.0
  H  H10  1  0.92145000  0.53373000  0.14294000  1.0
  H  H11  1  0.57856000  0.85705000  0.46627000  1.0
  H  H12  1  0.07856000  0.46627000  0.85705000  1.0
  H  H13  1  0.42145000  0.14296000  0.53374000  1.0
  H  H14  1  0.21880000  0.63305000  0.87575000  1.0
  H  H15  1  0.28120000  0.12427000  0.36696000  1.0
  H  H16  1  0.78120000  0.36695000  0.12426000  1.0
  H  H17  1  0.71882000  0.87574000  0.63305000  1.0
  H  H18  1  0.75940000  0.81239000  0.03530000  1.0
  H  H19  1  0.74062000  0.96470000  0.18762000  1.0
  H  H20  1  0.24061000  0.18761000  0.96470000  1.0
  H  H21  1  0.25939000  0.03530000  0.81239000  1.0
  H  H22  1  0.46495000  0.88777000  0.75127000  1.0
  H  H23  1  0.03503000  0.24873000  0.11222000  1.0
  H  H24  1  0.53503000  0.11222000  0.24874000  1.0
  H  H25  1  0.96495000  0.75124000  0.88775000  1.0
  H  H26  1  0.24504000  0.83312000  0.74685000  1.0
  H  H27  1  0.25494000  0.25315000  0.16686000  1.0
  H  H28  1  0.75494000  0.16685000  0.25312000  1.0
  H  H29  1  0.74504000  0.74686000  0.83313000  1.0
  H  H30  1  0.87979000  0.79439000  0.30539000  1.0
  H  H31  1  0.62021000  0.69461000  0.20561000  1.0
  H  H32  1  0.12018000  0.20562000  0.69460000  1.0
  H  H33  1  0.37979000  0.30539000  0.79438000  1.0
  H  H34  1  0.10663000  0.82989000  0.31450000  1.0
  H  H35  1  0.39336000  0.68548000  0.17013000  1.0
  H  H36  1  0.89335000  0.17013000  0.68550000  1.0
  H  H37  1  0.60663000  0.31451000  0.82988000  1.0
  H  H38  1  0.49899000  0.75116000  0.63451000  1.0
  H  H39  1  0.00101000  0.36549000  0.24884000  1.0
  H  H40  1  0.50111000  0.24886000  0.36552000  1.0
  H  H41  1  0.99888000  0.63446000  0.75112000  1.0
  H  H42  1  0.34013000  0.81504000  0.58793000  1.0
  H  H43  1  0.15987000  0.41207000  0.18496000  1.0
  H  H44  1  0.65998000  0.18498000  0.41207000  1.0
  H  H45  1  0.84000000  0.58792000  0.81500000  1.0
  H  H46  1  0.27612000  0.70462000  0.62505000  1.0
  H  H47  1  0.22388000  0.37494000  0.29537000  1.0
  H  H48  1  0.72399000  0.29538000  0.37492000  1.0
  H  H49  1  0.77601000  0.62506000  0.70460000  1.0
  H  H50  1  0.93194000  0.67035000  0.40866000  1.0
  H  H51  1  0.56813000  0.59136000  0.32968000  1.0
  H  H52  1  0.06800000  0.32969000  0.59135000  1.0
  H  H53  1  0.43196000  0.40864000  0.67031000  1.0
  H  H54  1  0.03459000  0.78439000  0.46655000  1.0
  H  H55  1  0.46547000  0.53344000  0.21565000  1.0
  H  H56  1  0.96539000  0.21565000  0.53344000  1.0
  H  H57  1  0.53457000  0.46656000  0.78435000  1.0
  H  H58  1  0.15857000  0.70615000  0.41657000  1.0
  H  H59  1  0.34148000  0.58343000  0.29390000  1.0
  H  H60  1  0.84138000  0.29386000  0.58344000  1.0
  H  H61  1  0.65858000  0.41656000  0.70613000  1.0
  C  C62  1  0.53787000  0.70986000  0.96932000  1.0
  C  C63  1  0.96213000  0.03069000  0.29016000  1.0
  C  C64  1  0.46212000  0.29015000  0.03068000  1.0
  C  C65  1  0.03789000  0.96931000  0.70986000  1.0
  C  C66  1  0.45414000  0.61317000  0.95919000  1.0
  C  C67  1  0.04585000  0.04082000  0.38683000  1.0
  C  C68  1  0.54585000  0.38682000  0.04080000  1.0
  C  C69  1  0.95414000  0.95920000  0.61318000  1.0
  C  C70  1  0.54082000  0.54777000  0.00468000  1.0
  C  C71  1  0.95920000  0.99534000  0.45224000  1.0
  C  C72  1  0.45920000  0.45222000  0.99532000  1.0
  C  C73  1  0.04081000  0.00469000  0.54777000  1.0
  C  C74  1  0.70858000  0.57787000  0.05966000  1.0
  C  C75  1  0.79144000  0.94034000  0.42214000  1.0
  C  C76  1  0.29145000  0.42213000  0.94033000  1.0
  C  C77  1  0.20857000  0.05967000  0.57788000  1.0
  C  C78  1  0.79178000  0.51144000  0.10299000  1.0
  C  C79  1  0.70821000  0.89700000  0.48857000  1.0
  C  C80  1  0.20820000  0.48856000  0.89700000  1.0
  C  C81  1  0.29179000  0.10300000  0.51144000  1.0
  C  C82  1  0.28739000  0.58193000  0.90664000  1.0
  C  C83  1  0.21261000  0.09336000  0.41807000  1.0
  C  C84  1  0.71260000  0.41806000  0.09334000  1.0
  C  C85  1  0.78739000  0.90665000  0.58194000  1.0
  C  C86  1  0.78783000  0.67563000  0.07051000  1.0
  C  C87  1  0.71218000  0.92950000  0.32436000  1.0
  C  C88  1  0.21219000  0.32435000  0.92950000  1.0
  C  C89  1  0.28781000  0.07050000  0.67564000  1.0
  C  C90  1  0.69884000  0.73872000  0.02572000  1.0
  C  C91  1  0.80118000  0.97428000  0.26128000  1.0
  C  C92  1  0.30119000  0.26127000  0.97427000  1.0
  C  C93  1  0.19882000  0.02573000  0.73873000  1.0
  C  C94  1  0.37448000  0.82091000  0.73780000  1.0
  C  C95  1  0.12552000  0.26220000  0.17908000  1.0
  C  C96  1  0.62554000  0.17908000  0.26221000  1.0
  C  C97  1  0.87446000  0.73778000  0.82090000  1.0
  C  C98  1  0.00475000  0.77016000  0.31596000  1.0
  C  C99  1  0.49525000  0.68404000  0.22985000  1.0
  C  C100  1  0.99520000  0.22985000  0.68403000  1.0
  C  C101  1  0.50478000  0.31596000  0.77015000  1.0
  C  C102  1  0.37221000  0.76947000  0.64081000  1.0
  C  C103  1  0.12778000  0.35920000  0.23052000  1.0
  C  C104  1  0.62788000  0.23054000  0.35919000  1.0
  C  C105  1  0.87211000  0.64079000  0.76945000  1.0
  C  C106  1  0.03366000  0.72988000  0.40703000  1.0
  C  C107  1  0.46638000  0.59297000  0.27016000  1.0
  C  C108  1  0.96629000  0.27015000  0.59298000  1.0
  C  C109  1  0.53368000  0.40702000  0.72985000  1.0
  O  O110  1  0.03832000  0.82462000  0.13242000  1.0
  O  O111  1  0.46170000  0.86757000  0.17538000  1.0
  O  O112  1  0.96169000  0.17537000  0.86757000  1.0
  O  O113  1  0.53832000  0.13243000  0.82464000  1.0
  O  O114  1  0.53505000  0.89492000  0.95083000  1.0
  O  O115  1  0.96494000  0.04918000  0.10508000  1.0
  O  O116  1  0.46495000  0.10507000  0.04918000  1.0
  O  O117  1  0.03505000  0.95081000  0.89492000  1.0
  O  O118  1  0.43198000  0.76231000  0.80726000  1.0
  O  O119  1  0.06804000  0.19273000  0.23768000  1.0
  O  O120  1  0.56802000  0.23768000  0.19273000  1.0
  O  O121  1  0.93195000  0.80725000  0.76230000  1.0
  O  O122  1  0.24929000  0.78379000  0.93705000  1.0
  O  O123  1  0.25070000  0.06294000  0.21620000  1.0
  O  O124  1  0.75071000  0.21619000  0.06294000  1.0
  O  O125  1  0.74929000  0.93705000  0.78381000  1.0
  O  O126  1  0.00361000  0.69657000  0.23879000  1.0
  O  O127  1  0.49639000  0.76121000  0.30345000  1.0
  O  O128  1  0.99637000  0.30345000  0.76121000  1.0
  O  O129  1  0.50363000  0.23879000  0.69656000  1.0
  O  O130  1  0.11171000  0.65469000  0.08832000  1.0
  O  O131  1  0.38828000  0.91169000  0.34530000  1.0
  O  O132  1  0.88830000  0.34530000  0.91171000  1.0
  O  O133  1  0.61172000  0.08830000  0.65471000  1.0
