# generated using pymatgen
data_Zn6H45C66N9O32
_symmetry_space_group_name_H-M   'P 1'
_cell_length_a   18.72300000
_cell_length_b   18.72985694
_cell_length_c   18.74110000
_cell_angle_alpha   109.37456790
_cell_angle_beta   109.42300000
_cell_angle_gamma   109.43265870
_symmetry_Int_Tables_number   1
_chemical_formula_structural   Zn6H45C66N9O32
_chemical_formula_sum   'Zn6 H45 C66 N9 O32'
_cell_volume   5070.63418176
_cell_formula_units_Z   1
loop_
 _symmetry_equiv_pos_site_id
 _symmetry_equiv_pos_as_xyz
  1  'x, y, z'
loop_
 _atom_site_type_symbol
 _atom_site_label
 _atom_site_symmetry_multiplicity
 _atom_site_fract_x
 _atom_site_fract_y
 _atom_site_fract_z
 _atom_site_occupancy
  Zn  Zn0  1  0.56110000  0.56904000  0.50153000  1.0
  Zn  Zn1  1  0.43959000  0.44168000  0.50175000  1.0
  Zn  Zn2  1  0.00288000  0.56046000  0.05265000  1.0
  Zn  Zn3  1  0.00495000  0.43550000  0.93198000  1.0
  Zn  Zn4  1  0.56784000  0.99795000  0.05605000  1.0
  Zn  Zn5  1  0.43659000  0.99994000  0.94246000  1.0
  H  H6  1  0.66111000  0.56955000  0.77883000  1.0
  H  H7  1  0.71712000  0.48857000  0.54368000  1.0
  H  H8  1  0.31685000  0.75080000  0.67691000  1.0
  H  H9  1  0.65373000  0.78087000  0.76485000  1.0
  H  H10  1  0.88601000  0.21521000  0.98138000  1.0
  H  H11  1  0.78503000  0.11552000  0.00664000  1.0
  H  H12  1  0.62243000  0.30163000  0.03142000  1.0
  H  H13  1  0.20911000  0.57127000  0.87402000  1.0
  H  H14  1  0.33154000  0.69019000  0.88786000  1.0
  H  H15  1  0.40023000  0.89845000  0.20765000  1.0
  H  H16  1  0.26755000  0.78362000  0.18959000  1.0
  H  H17  1  0.39790000  0.24253000  0.05905000  1.0
  H  H18  1  0.19972000  0.80730000  0.11968000  1.0
  H  H19  1  0.93830000  0.45249000  0.63645000  1.0
  H  H20  1  0.94670000  0.49337000  0.77749000  1.0
  H  H21  1  0.51345000  0.30242000  0.10403000  1.0
  H  H22  1  0.49490000  0.77271000  0.59285000  1.0
  H  H23  1  0.17488000  0.57126000  0.48304000  1.0
  H  H24  1  0.67913000  0.92805000  0.84217000  1.0
  H  H25  1  0.66840000  0.96513000  0.92911000  1.0
  H  H26  1  0.68691000  0.85390000  0.98755000  1.0
  H  H27  1  0.58752000  0.83928000  0.96349000  1.0
  H  H28  1  0.52512000  0.42018000  0.22825000  1.0
  H  H29  1  0.62621000  0.69435000  0.86392000  1.0
  H  H30  1  0.70696000  0.72205000  0.84266000  1.0
  H  H31  1  0.51239000  0.25080000  0.88385000  1.0
  H  H32  1  0.51628000  0.16284000  0.88261000  1.0
  H  H33  1  0.69360000  0.37099000  0.80801000  1.0
  H  H34  1  0.76310000  0.41970000  0.44657000  1.0
  H  H35  1  0.84795000  0.40253000  0.48295000  1.0
  H  H36  1  0.81496000  0.55761000  0.11954000  1.0
  H  H37  1  0.27900000  0.93230000  0.09562000  1.0
  H  H38  1  0.35789000  0.99870000  0.19969000  1.0
  H  H39  1  0.40957000  0.36163000  0.18266000  1.0
  H  H40  1  0.71085000  0.56655000  0.90995000  1.0
  H  H41  1  0.81170000  0.57774000  0.96438000  1.0
  H  H42  1  0.48979000  0.25763000  0.43779000  1.0
  H  H43  1  0.48529000  0.16114000  0.38927000  1.0
  H  H44  1  0.53323000  0.07466000  0.23607000  1.0
  H  H45  1  0.56766000  0.13640000  0.34273000  1.0
  H  H46  1  0.25434000  0.39188000  0.24788000  1.0
  H  H47  1  0.13317000  0.39310000  0.14219000  1.0
  H  H48  1  0.32331000  0.73911000  0.28778000  1.0
  H  H49  1  0.27818000  0.73614000  0.35835000  1.0
  H  H50  1  0.44981000  0.73645000  0.38635000  1.0
  C  C51  1  0.48890000  0.36927000  0.39030000  1.0
  C  C52  1  0.50403000  0.17160000  0.26263000  1.0
  C  C53  1  0.48668000  0.17149000  0.18281000  1.0
  C  C54  1  0.63969000  0.53519000  0.62403000  1.0
  C  C55  1  0.47393000  0.23926000  0.17659000  1.0
  C  C56  1  0.46122000  0.28064000  0.11960000  1.0
  C  C57  1  0.46840000  0.35535000  0.19788000  1.0
  C  C58  1  0.33574000  0.60863000  0.33404000  1.0
  C  C59  1  0.33509000  0.53170000  0.32522000  1.0
  C  C60  1  0.25843000  0.45371000  0.25592000  1.0
  C  C61  1  0.18976000  0.45438000  0.19760000  1.0
  C  C62  1  0.77118000  0.51361000  0.67672000  1.0
  C  C63  1  0.19082000  0.53288000  0.20773000  1.0
  C  C64  1  0.26483000  0.60957000  0.27880000  1.0
  C  C65  1  0.30912000  0.70838000  0.32581000  1.0
  C  C66  1  0.45354000  0.58818000  0.60045000  1.0
  C  C67  1  0.38966000  0.70839000  0.38890000  1.0
  C  C68  1  0.51984000  0.72326000  0.73945000  1.0
  C  C69  1  0.44575000  0.65870000  0.65926000  1.0
  C  C70  1  0.37176000  0.67035000  0.63819000  1.0
  C  C71  1  0.37426000  0.74312000  0.69639000  1.0
  C  C72  1  0.44908000  0.80608000  0.77801000  1.0
  C  C73  1  0.70967000  0.53554000  0.69268000  1.0
  C  C74  1  0.52074000  0.79276000  0.79800000  1.0
  C  C75  1  0.61659000  0.83307000  0.86653000  1.0
  C  C76  1  0.61666000  0.75547000  0.79402000  1.0
  C  C77  1  0.88792000  0.35901000  0.97097000  1.0
  C  C78  1  0.40688000  0.52754000  0.38529000  1.0
  C  C79  1  0.89579000  0.52818000  0.89596000  1.0
  C  C80  1  0.13247000  0.58430000  0.97659000  1.0
  C  C81  1  0.11821000  0.52900000  0.13957000  1.0
  C  C82  1  0.42165000  0.86672000  0.01289000  1.0
  C  C83  1  0.48577000  0.10688000  0.11046000  1.0
  C  C84  1  0.71000000  0.55422000  0.77008000  1.0
  C  C85  1  0.63632000  0.11056000  0.00823000  1.0
  C  C86  1  0.45640000  0.88237000  0.84472000  1.0
  C  C87  1  0.74971000  0.29615000  0.97582000  1.0
  C  C88  1  0.82209000  0.29153000  0.97498000  1.0
  C  C89  1  0.83107000  0.22246000  0.98301000  1.0
  C  C90  1  0.76680000  0.48858000  0.59476000  1.0
  C  C91  1  0.77327000  0.16541000  0.99621000  1.0
  C  C92  1  0.69950000  0.17029000  0.99534000  1.0
  C  C93  1  0.68860000  0.23571000  0.98191000  1.0
  C  C94  1  0.62963000  0.27554000  0.97370000  1.0
  C  C95  1  0.77408000  0.55741000  0.84025000  1.0
  C  C96  1  0.70586000  0.35185000  0.97594000  1.0
  C  C97  1  0.25587000  0.73735000  0.05781000  1.0
  C  C98  1  0.21129000  0.65217000  0.98844000  1.0
  C  C99  1  0.24257000  0.63697000  0.92922000  1.0
  C  C100  1  0.31227000  0.70425000  0.93752000  1.0
  C  C101  1  0.35585000  0.79011000  0.00732000  1.0
  C  C102  1  0.82423000  0.46395000  0.57800000  1.0
  C  C103  1  0.32702000  0.80336000  0.06738000  1.0
  C  C104  1  0.33995000  0.87422000  0.14799000  1.0
  C  C105  1  0.25684000  0.79810000  0.13588000  1.0
  C  C106  1  0.83549000  0.53477000  0.82732000  1.0
  C  C107  1  0.89024000  0.46826000  0.64706000  1.0
  C  C108  1  0.89524000  0.49188000  0.72724000  1.0
  C  C109  1  0.83465000  0.51303000  0.74522000  1.0
  C  C110  1  0.41037000  0.74497000  0.48286000  1.0
  C  C111  1  0.29432000  0.61003000  0.54910000  1.0
  C  C112  1  0.67402000  0.36764000  0.90011000  1.0
  C  C113  1  0.75669000  0.43525000  0.06416000  1.0
  C  C114  1  0.47970000  0.30433000  0.24484000  1.0
  C  C115  1  0.48904000  0.30168000  0.32098000  1.0
  C  C116  1  0.49843000  0.23219000  0.32817000  1.0
  N  N117  1  0.68070000  0.92049000  0.89414000  1.0
  N  N118  1  0.62301000  0.81927000  0.93938000  1.0
  N  N119  1  0.64125000  0.69781000  0.81686000  1.0
  N  N120  1  0.55044000  0.22244000  0.88984000  1.0
  N  N121  1  0.82090000  0.44003000  0.49776000  1.0
  N  N122  1  0.33852000  0.94844000  0.14147000  1.0
  N  N123  1  0.77077000  0.58197000  0.91639000  1.0
  N  N124  1  0.51001000  0.22404000  0.40197000  1.0
  N  N125  1  0.52087000  0.11013000  0.27991000  1.0
  O  O126  1  0.53523000  0.44819000  0.41258000  1.0
  O  O127  1  0.39083000  0.90041000  0.97161000  1.0
  O  O128  1  0.53727000  0.07648000  0.12886000  1.0
  O  O129  1  0.44091000  0.34315000  0.42268000  1.0
  O  O130  1  0.43386000  0.08625000  0.03244000  1.0
  O  O131  1  0.66479000  0.07836000  0.05503000  1.0
  O  O132  1  0.55822000  0.09568000  0.97270000  1.0
  O  O133  1  0.52052000  0.91782000  0.92108000  1.0
  O  O134  1  0.40209000  0.91008000  0.82647000  1.0
  O  O135  1  0.66303000  0.58716000  0.59487000  1.0
  O  O136  1  0.56151000  0.48311000  0.59917000  1.0
  O  O137  1  0.91837000  0.33352000  0.92145000  1.0
  O  O138  1  0.51309000  0.61687000  0.58278000  1.0
  O  O139  1  0.40634000  0.50815000  0.57688000  1.0
  O  O140  1  0.48610000  0.58581000  0.41560000  1.0
  O  O141  1  0.38494000  0.46622000  0.40248000  1.0
  O  O142  1  0.90872000  0.43718000  0.01809000  1.0
  O  O143  1  0.36293000  0.76012000  0.50959000  1.0
  O  O144  1  0.48918000  0.75751000  0.53511000  1.0
  O  O145  1  0.29647000  0.56677000  0.48544000  1.0
  O  O146  1  0.21982000  0.60879000  0.54475000  1.0
  O  O147  1  0.61826000  0.38894000  0.88381000  1.0
  O  O148  1  0.92038000  0.57901000  0.97695000  1.0
  O  O149  1  0.71525000  0.35662000  0.85365000  1.0
  O  O150  1  0.77202000  0.43573000  0.13279000  1.0
  O  O151  1  0.78343000  0.50964000  0.05927000  1.0
  O  O152  1  0.92054000  0.47261000  0.87496000  1.0
  O  O153  1  0.09996000  0.61080000  0.02228000  1.0
  O  O154  1  0.10135000  0.50334000  0.92170000  1.0
  O  O155  1  0.09244000  0.58444000  0.16212000  1.0
  O  O156  1  0.08630000  0.47026000  0.06176000  1.0
  O  O157  1  0.50355000  0.89446000  0.06008000  1.0
