# generated using pymatgen
data_CdH30C34(NO3)2
_symmetry_space_group_name_H-M   'P 1'
_cell_length_a   9.53494000
_cell_length_b   11.47230000
_cell_length_c   14.89190000
_cell_angle_alpha   90.00180000
_cell_angle_beta   90.00110000
_cell_angle_gamma   67.23400000
_symmetry_Int_Tables_number   1
_chemical_formula_structural   CdH30C34(NO3)2
_chemical_formula_sum   'Cd2 H60 C68 N4 O12'
_cell_volume   1502.08071501
_cell_formula_units_Z   2
loop_
 _symmetry_equiv_pos_site_id
 _symmetry_equiv_pos_as_xyz
  1  'x, y, z'
loop_
 _atom_site_type_symbol
 _atom_site_label
 _atom_site_symmetry_multiplicity
 _atom_site_fract_x
 _atom_site_fract_y
 _atom_site_fract_z
 _atom_site_occupancy
  Cd  Cd0  1  0.50001000  0.99999000  0.00001000  1.0
  Cd  Cd1  1  0.00000000  0.99999000  0.50000000  1.0
  H  H2  1  0.38311000  0.25193000  0.11136000  1.0
  H  H3  1  0.11688000  0.74806000  0.61137000  1.0
  H  H4  1  0.61690000  0.74807000  0.88863000  1.0
  H  H5  1  0.88309000  0.25193000  0.38864000  1.0
  H  H6  1  0.19969000  0.15939000  0.88310000  1.0
  H  H7  1  0.30032000  0.84059000  0.38312000  1.0
  H  H8  1  0.80034000  0.84059000  0.11689000  1.0
  H  H9  1  0.69968000  0.15939000  0.61689000  1.0
  H  H10  1  0.99031000  0.36920000  0.87810000  1.0
  H  H11  1  0.50968000  0.63078000  0.37812000  1.0
  H  H12  1  0.00971000  0.63078000  0.12189000  1.0
  H  H13  1  0.49030000  0.36919000  0.62189000  1.0
  H  H14  1  0.17851000  0.46275000  0.11956000  1.0
  H  H15  1  0.32147000  0.53724000  0.61957000  1.0
  H  H16  1  0.82149000  0.53724000  0.88043000  1.0
  H  H17  1  0.67850000  0.46276000  0.38045000  1.0
  H  H18  1  0.95811000  0.11329000  0.98599000  1.0
  H  H19  1  0.54188000  0.88674000  0.48601000  1.0
  H  H20  1  0.04188000  0.88675000  0.01402000  1.0
  H  H21  1  0.45813000  0.11324000  0.51398000  1.0
  H  H22  1  0.79868000  0.25205000  0.96461000  1.0
  H  H23  1  0.70128000  0.74797000  0.46462000  1.0
  H  H24  1  0.20128000  0.74797000  0.03539000  1.0
  H  H25  1  0.29872000  0.25201000  0.53537000  1.0
  H  H26  1  0.10837000  0.07993000  0.11665000  1.0
  H  H27  1  0.39160000  0.92010000  0.61666000  1.0
  H  H28  1  0.89161000  0.92012000  0.88336000  1.0
  H  H29  1  0.60841000  0.07989000  0.38333000  1.0
  H  H30  1  0.19014000  0.16759000  0.25064000  1.0
  H  H31  1  0.30985000  0.83242000  0.75065000  1.0
  H  H32  1  0.80982000  0.83246000  0.74937000  1.0
  H  H33  1  0.69017000  0.16757000  0.24935000  1.0
  H  H34  1  0.03172000  0.38041000  0.30695000  1.0
  H  H35  1  0.46827000  0.61960000  0.80694000  1.0
  H  H36  1  0.96823000  0.61963000  0.69305000  1.0
  H  H37  1  0.53174000  0.38039000  0.19305000  1.0
  H  H38  1  0.63892000  0.41415000  0.02221000  1.0
  H  H39  1  0.86108000  0.58589000  0.52223000  1.0
  H  H40  1  0.36107000  0.58588000  0.97778000  1.0
  H  H41  1  0.13895000  0.41410000  0.47777000  1.0
  H  H42  1  0.49309000  0.63120000  0.07638000  1.0
  H  H43  1  0.00690000  0.36884000  0.57638000  1.0
  H  H44  1  0.50687000  0.36882000  0.92361000  1.0
  H  H45  1  0.99311000  0.63116000  0.42362000  1.0
  H  H46  1  0.57376000  0.71252000  0.21238000  1.0
  H  H47  1  0.92623000  0.28750000  0.71236000  1.0
  H  H48  1  0.42617000  0.28752000  0.78762000  1.0
  H  H49  1  0.07378000  0.71249000  0.28764000  1.0
  H  H50  1  0.80940000  0.57660000  0.29357000  1.0
  H  H51  1  0.69057000  0.42342000  0.79354000  1.0
  H  H52  1  0.19052000  0.42345000  0.70644000  1.0
  H  H53  1  0.30943000  0.57657000  0.20645000  1.0
  H  H54  1  0.52207000  0.95220000  0.79032000  1.0
  H  H55  1  0.97795000  0.04776000  0.29032000  1.0
  H  H56  1  0.47799000  0.04778000  0.20969000  1.0
  H  H57  1  0.02209000  0.95222000  0.70968000  1.0
  H  H58  1  0.36947000  0.97288000  0.84519000  1.0
  H  H59  1  0.13056000  0.02710000  0.34516000  1.0
  H  H60  1  0.63060000  0.02711000  0.15482000  1.0
  H  H61  1  0.86948000  0.97289000  0.65483000  1.0
  C  C62  1  0.29299000  0.28133000  0.06102000  1.0
  C  C63  1  0.20701000  0.71865000  0.56104000  1.0
  C  C64  1  0.70703000  0.71865000  0.93897000  1.0
  C  C65  1  0.79298000  0.28133000  0.43897000  1.0
  C  C66  1  0.19130000  0.23016000  0.93379000  1.0
  C  C67  1  0.30869000  0.76982000  0.43381000  1.0
  C  C68  1  0.80870000  0.76983000  0.06620000  1.0
  C  C69  1  0.69129000  0.23016000  0.56620000  1.0
  C  C70  1  0.07306000  0.34818000  0.93228000  1.0
  C  C71  1  0.42693000  0.65180000  0.43230000  1.0
  C  C72  1  0.92696000  0.65182000  0.06771000  1.0
  C  C73  1  0.57305000  0.34818000  0.56772000  1.0
  C  C74  1  0.06272000  0.43705000  0.99928000  1.0
  C  C75  1  0.43728000  0.56294000  0.49929000  1.0
  C  C76  1  0.93729000  0.56294000  0.00072000  1.0
  C  C77  1  0.56270000  0.43705000  0.50072000  1.0
  C  C78  1  0.17755000  0.40063000  0.06464000  1.0
  C  C79  1  0.32245000  0.59934000  0.56465000  1.0
  C  C80  1  0.82248000  0.59935000  0.93535000  1.0
  C  C81  1  0.67753000  0.40063000  0.43537000  1.0
  C  C82  1  0.75353000  0.11256000  0.04308000  1.0
  C  C83  1  0.74649000  0.88744000  0.54308000  1.0
  C  C84  1  0.24651000  0.88743000  0.95695000  1.0
  C  C85  1  0.25354000  0.11254000  0.45690000  1.0
  C  C86  1  0.85596000  0.18375000  0.01759000  1.0
  C  C87  1  0.64401000  0.81627000  0.51760000  1.0
  C  C88  1  0.14403000  0.81628000  0.98241000  1.0
  C  C89  1  0.35598000  0.18371000  0.48239000  1.0
  C  C90  1  0.90289000  0.24268000  0.09605000  1.0
  C  C91  1  0.59709000  0.75735000  0.59606000  1.0
  C  C92  1  0.09708000  0.75736000  0.90395000  1.0
  C  C93  1  0.40293000  0.24264000  0.40393000  1.0
  C  C94  1  0.03658000  0.17391000  0.14111000  1.0
  C  C95  1  0.46341000  0.82612000  0.64113000  1.0
  C  C96  1  0.96340000  0.82615000  0.85889000  1.0
  C  C97  1  0.53661000  0.17387000  0.35887000  1.0
  C  C98  1  0.08386000  0.22321000  0.21679000  1.0
  C  C99  1  0.41613000  0.77680000  0.71680000  1.0
  C  C100  1  0.91610000  0.77684000  0.78321000  1.0
  C  C101  1  0.58389000  0.22318000  0.28320000  1.0
  C  C102  1  0.99549000  0.34161000  0.24880000  1.0
  C  C103  1  0.50450000  0.65840000  0.74880000  1.0
  C  C104  1  0.00446000  0.65843000  0.75121000  1.0
  C  C105  1  0.49551000  0.34159000  0.25120000  1.0
  C  C106  1  0.85835000  0.41646000  0.20490000  1.0
  C  C107  1  0.64164000  0.58356000  0.70489000  1.0
  C  C108  1  0.14162000  0.58358000  0.79510000  1.0
  C  C109  1  0.35836000  0.41643000  0.29511000  1.0
  C  C110  1  0.81105000  0.36746000  0.12673000  1.0
  C  C111  1  0.68894000  0.63255000  0.62673000  1.0
  C  C112  1  0.18892000  0.63257000  0.87327000  1.0
  C  C113  1  0.31107000  0.36743000  0.37327000  1.0
  C  C114  1  0.67626000  0.44795000  0.08237000  1.0
  C  C115  1  0.82374000  0.55208000  0.58237000  1.0
  C  C116  1  0.32372000  0.55208000  0.91762000  1.0
  C  C117  1  0.17628000  0.44791000  0.41763000  1.0
  C  C118  1  0.59317000  0.56891000  0.11292000  1.0
  C  C119  1  0.90683000  0.43112000  0.61292000  1.0
  C  C120  1  0.40679000  0.43112000  0.88708000  1.0
  C  C121  1  0.09319000  0.56887000  0.38709000  1.0
  C  C122  1  0.63896000  0.61579000  0.19053000  1.0
  C  C123  1  0.86103000  0.38423000  0.69051000  1.0
  C  C124  1  0.36099000  0.38424000  0.80947000  1.0
  C  C125  1  0.13898000  0.61576000  0.30947000  1.0
  C  C126  1  0.76908000  0.54052000  0.23536000  1.0
  C  C127  1  0.73091000  0.45949000  0.73535000  1.0
  C  C128  1  0.23088000  0.45951000  0.76463000  1.0
  C  C129  1  0.26910000  0.54051000  0.26465000  1.0
  N  N130  1  0.30005000  0.19645000  0.99727000  1.0
  N  N131  1  0.19995000  0.80353000  0.49729000  1.0
  N  N132  1  0.69996000  0.80354000  0.00272000  1.0
  N  N133  1  0.80005000  0.19645000  0.50273000  1.0
  O  O134  1  0.45734000  0.00120000  0.83869000  1.0
  O  O135  1  0.04269000  0.99878000  0.33869000  1.0
  O  O136  1  0.54272000  0.99879000  0.16131000  1.0
  O  O137  1  0.95734000  0.00121000  0.66131000  1.0
  O  O138  1  0.65981000  0.10951000  0.98293000  1.0
  O  O139  1  0.84020000  0.89048000  0.48292000  1.0
  O  O140  1  0.34022000  0.89046000  0.01710000  1.0
  O  O141  1  0.15981000  0.10951000  0.51705000  1.0
  O  O142  1  0.77250000  0.06026000  0.11969000  1.0
  O  O143  1  0.72756000  0.93974000  0.61970000  1.0
  O  O144  1  0.22757000  0.93973000  0.88033000  1.0
  O  O145  1  0.27248000  0.06024000  0.38029000  1.0
