# generated using pymatgen
data_NaLaH22(C4O3)5
_symmetry_space_group_name_H-M   'P 1'
_cell_length_a   8.55075000
_cell_length_b   12.10940000
_cell_length_c   12.75750000
_cell_angle_alpha   75.46850000
_cell_angle_beta   78.11950000
_cell_angle_gamma   83.82870000
_symmetry_Int_Tables_number   1
_chemical_formula_structural   NaLaH22(C4O3)5
_chemical_formula_sum   'Na2 La2 H44 C40 O30'
_cell_volume   1249.14280980
_cell_formula_units_Z   2
loop_
 _symmetry_equiv_pos_site_id
 _symmetry_equiv_pos_as_xyz
  1  'x, y, z'
loop_
 _atom_site_type_symbol
 _atom_site_label
 _atom_site_symmetry_multiplicity
 _atom_site_fract_x
 _atom_site_fract_y
 _atom_site_fract_z
 _atom_site_occupancy
  Na  Na0  1  0.30885000  0.53983000  0.94974000  1.0
  Na  Na1  1  0.69115000  0.46017000  0.05026000  1.0
  La  La2  1  0.32522000  0.28549000  0.20785000  1.0
  La  La3  1  0.67477000  0.71451000  0.79215000  1.0
  H  H4  1  0.80211000  0.34135000  0.30297000  1.0
  H  H5  1  0.19790000  0.65865000  0.69703000  1.0
  H  H6  1  0.86299000  0.19184000  0.32997000  1.0
  H  H7  1  0.13701000  0.80816000  0.67002000  1.0
  H  H8  1  0.44547000  0.39289000  0.46683000  1.0
  H  H9  1  0.55454000  0.60711000  0.53317000  1.0
  H  H10  1  0.34988000  0.53029000  0.41900000  1.0
  H  H11  1  0.65012000  0.46971000  0.58100000  1.0
  H  H12  1  0.22190000  0.42020000  0.58699000  1.0
  H  H13  1  0.77810000  0.57981000  0.41301000  1.0
  H  H14  1  0.97809000  0.36777000  0.72548000  1.0
  H  H15  1  0.02191000  0.63223000  0.27453000  1.0
  H  H16  1  0.75619000  0.28458000  0.67977000  1.0
  H  H17  1  0.24381000  0.71541000  0.32023000  1.0
  H  H18  1  0.77909000  0.25161000  0.49091000  1.0
  H  H19  1  0.22091000  0.74838000  0.50910000  1.0
  H  H20  1  0.37401000  0.22250000  0.87671000  1.0
  H  H21  1  0.62598000  0.77750000  0.12329000  1.0
  H  H22  1  0.54346000  0.13374000  0.91670000  1.0
  H  H23  1  0.45653000  0.86626000  0.08329000  1.0
  H  H24  1  0.21443000  0.92624000  0.36600000  1.0
  H  H25  1  0.78558000  0.07377000  0.63400000  1.0
  H  H26  1  0.03815000  0.01584000  0.39211000  1.0
  H  H27  1  0.96185000  0.98416000  0.60789000  1.0
  H  H28  1  0.02086000  0.90355000  0.27301000  1.0
  H  H29  1  0.97914000  0.09645000  0.72699000  1.0
  H  H30  1  0.00992000  0.80770000  0.12429000  1.0
  H  H31  1  0.99008000  0.19230000  0.87571000  1.0
  H  H32  1  0.16384000  0.87851000  0.93628000  1.0
  H  H33  1  0.83616000  0.12150000  0.06372000  1.0
  H  H34  1  0.33099000  0.04291000  0.89504000  1.0
  H  H35  1  0.66900000  0.95710000  0.10496000  1.0
  H  H36  1  0.08977000  0.51393000  0.13965000  1.0
  H  H37  1  0.91024000  0.48607000  0.86035000  1.0
  H  H38  1  0.25755000  0.56038000  0.14948000  1.0
  H  H39  1  0.74246000  0.43962000  0.85052000  1.0
  H  H40  1  0.58717000  0.12271000  0.29399000  1.0
  H  H41  1  0.41283000  0.87730000  0.70600000  1.0
  H  H42  1  0.68294000  0.20633000  0.18605000  1.0
  H  H43  1  0.31706000  0.79367000  0.81394000  1.0
  H  H44  1  0.20522000  0.43514000  0.82266000  1.0
  H  H45  1  0.79478000  0.56486000  0.17734000  1.0
  H  H46  1  0.11343000  0.37523000  0.94650000  1.0
  H  H47  1  0.88657000  0.62477000  0.05350000  1.0
  C  C48  1  0.01249000  0.31906000  0.43286000  1.0
  C  C49  1  0.98751000  0.68093000  0.56715000  1.0
  C  C50  1  0.90160000  0.27852000  0.28737000  1.0
  C  C51  1  0.09841000  0.72147000  0.71263000  1.0
  C  C52  1  0.94480000  0.28835000  0.16318000  1.0
  C  C53  1  0.05520000  0.71165000  0.83682000  1.0
  C  C54  1  0.13823000  0.36711000  0.45927000  1.0
  C  C55  1  0.86177000  0.63289000  0.54073000  1.0
  C  C56  1  0.39545000  0.44889000  0.39745000  1.0
  C  C57  1  0.60456000  0.55111000  0.60255000  1.0
  C  C58  1  0.52734000  0.47016000  0.29549000  1.0
  C  C59  1  0.47267000  0.52984000  0.70451000  1.0
  C  C60  1  0.12573000  0.38391000  0.56472000  1.0
  C  C61  1  0.87427000  0.61609000  0.43528000  1.0
  C  C62  1  0.98734000  0.35403000  0.64326000  1.0
  C  C63  1  0.01267000  0.64596000  0.35674000  1.0
  C  C64  1  0.86248000  0.30772000  0.61712000  1.0
  C  C65  1  0.13753000  0.69227000  0.38289000  1.0
  C  C66  1  0.87510000  0.28994000  0.51125000  1.0
  C  C67  1  0.12490000  0.71006000  0.48876000  1.0
  C  C68  1  0.27140000  0.06762000  0.06138000  1.0
  C  C69  1  0.72859000  0.93239000  0.93862000  1.0
  C  C70  1  0.45283000  0.19985000  0.93845000  1.0
  C  C71  1  0.54716000  0.80015000  0.06155000  1.0
  C  C72  1  0.53572000  0.30577000  0.93401000  1.0
  C  C73  1  0.46428000  0.69423000  0.06598000  1.0
  C  C74  1  0.18561000  0.02617000  0.16888000  1.0
  C  C75  1  0.81438000  0.97384000  0.83111000  1.0
  C  C76  1  0.16876000  0.01517000  0.36233000  1.0
  C  C77  1  0.83124000  0.98484000  0.63767000  1.0
  C  C78  1  0.24913000  0.06424000  0.43600000  1.0
  C  C79  1  0.75086000  0.93575000  0.56401000  1.0
  C  C80  1  0.08983000  0.93409000  0.19073000  1.0
  C  C81  1  0.91016000  0.06591000  0.80927000  1.0
  C  C82  1  0.08324000  0.88066000  0.10665000  1.0
  C  C83  1  0.91676000  0.11934000  0.89335000  1.0
  C  C84  1  0.16944000  0.92017000  0.00131000  1.0
  C  C85  1  0.83055000  0.07983000  0.99869000  1.0
  C  C86  1  0.26338000  0.01399000  0.97803000  1.0
  C  C87  1  0.73660000  0.98601000  0.02197000  1.0
  O  O88  1  0.03704000  0.30294000  0.32658000  1.0
  O  O89  1  0.96296000  0.69706000  0.67343000  1.0
  O  O90  1  0.08882000  0.30074000  0.11372000  1.0
  O  O91  1  0.91118000  0.69927000  0.88628000  1.0
  O  O92  1  0.82932000  0.28442000  0.11650000  1.0
  O  O93  1  0.17068000  0.71558000  0.88350000  1.0
  O  O94  1  0.26797000  0.39511000  0.37523000  1.0
  O  O95  1  0.73203000  0.60489000  0.62477000  1.0
  O  O96  1  0.52085000  0.41892000  0.21996000  1.0
  O  O97  1  0.47915000  0.58107000  0.78004000  1.0
  O  O98  1  0.63589000  0.53321000  0.29385000  1.0
  O  O99  1  0.36412000  0.46678000  0.70615000  1.0
  O  O100  1  0.36211000  0.15986000  0.04685000  1.0
  O  O101  1  0.63788000  0.84014000  0.95315000  1.0
  O  O102  1  0.48828000  0.35766000  0.01283000  1.0
  O  O103  1  0.51172000  0.64234000  0.98717000  1.0
  O  O104  1  0.64224000  0.33663000  0.85100000  1.0
  O  O105  1  0.35774000  0.66337000  0.14901000  1.0
  O  O106  1  0.20512000  0.08022000  0.24871000  1.0
  O  O107  1  0.79488000  0.91978000  0.75129000  1.0
  O  O108  1  0.32614000  0.15504000  0.38910000  1.0
  O  O109  1  0.67387000  0.84496000  0.61089000  1.0
  O  O110  1  0.23249000  0.01169000  0.53476000  1.0
  O  O111  1  0.76751000  0.98832000  0.46522000  1.0
  O  O112  1  0.20552000  0.49382000  0.13798000  1.0
  O  O113  1  0.79448000  0.50619000  0.86202000  1.0
  O  O114  1  0.58437000  0.16154000  0.21744000  1.0
  O  O115  1  0.41563000  0.83846000  0.78255000  1.0
  O  O116  1  0.11696000  0.44383000  0.88545000  1.0
  O  O117  1  0.88304000  0.55617000  0.11454000  1.0
