# generated using pymatgen
data_ZnH24C27N8O9
_symmetry_space_group_name_H-M   'P 1'
_cell_length_a   14.98490000
_cell_length_b   16.45900000
_cell_length_c   16.90477056
_cell_angle_alpha   119.12856382
_cell_angle_beta   105.69880648
_cell_angle_gamma   90.00780000
_symmetry_Int_Tables_number   1
_chemical_formula_structural   ZnH24C27N8O9
_chemical_formula_sum   'Zn4 H96 C108 N32 O36'
_cell_volume   3462.81721092
_cell_formula_units_Z   4
loop_
 _symmetry_equiv_pos_site_id
 _symmetry_equiv_pos_as_xyz
  1  'x, y, z'
loop_
 _atom_site_type_symbol
 _atom_site_label
 _atom_site_symmetry_multiplicity
 _atom_site_fract_x
 _atom_site_fract_y
 _atom_site_fract_z
 _atom_site_occupancy
  Zn  Zn0  1  0.88332000  0.34180000  0.69027000  1.0
  Zn  Zn1  1  0.61679000  0.65169000  0.30988000  1.0
  Zn  Zn2  1  0.11668000  0.65820000  0.30973000  1.0
  Zn  Zn3  1  0.38320000  0.34830000  0.69010000  1.0
  H  H4  1  0.18723000  0.77469000  0.86579000  1.0
  H  H5  1  0.31261000  0.90862000  0.13384000  1.0
  H  H6  1  0.81278000  0.22532000  0.13421000  1.0
  H  H7  1  0.68739000  0.09140000  0.86618000  1.0
  H  H8  1  0.14931000  0.17603000  0.95564000  1.0
  H  H9  1  0.35185000  0.22050000  0.04457000  1.0
  H  H10  1  0.85068000  0.82397000  0.04436000  1.0
  H  H11  1  0.64814000  0.77950000  0.95543000  1.0
  H  H12  1  0.04242000  0.05149000  0.22422000  1.0
  H  H13  1  0.45768000  0.82726000  0.77561000  1.0
  H  H14  1  0.95758000  0.94849000  0.77576000  1.0
  H  H15  1  0.54233000  0.17274000  0.22440000  1.0
  H  H16  1  0.12085000  0.03684000  0.90152000  1.0
  H  H17  1  0.37909000  0.13514000  0.09829000  1.0
  H  H18  1  0.87914000  0.96316000  0.09848000  1.0
  H  H19  1  0.62091000  0.86487000  0.90172000  1.0
  H  H20  1  0.14434000  0.12891000  0.19342000  1.0
  H  H21  1  0.35551000  0.93544000  0.80632000  1.0
  H  H22  1  0.85566000  0.87107000  0.80657000  1.0
  H  H23  1  0.64449000  0.06456000  0.19369000  1.0
  H  H24  1  0.11165000  0.83274000  0.98930000  1.0
  H  H25  1  0.38837000  0.84325000  0.01037000  1.0
  H  H26  1  0.88836000  0.16726000  0.01070000  1.0
  H  H27  1  0.61165000  0.15676000  0.98965000  1.0
  H  H28  1  0.17812000  0.67404000  0.70381000  1.0
  H  H29  1  0.32163000  0.96979000  0.29573000  1.0
  H  H30  1  0.82189000  0.32596000  0.29619000  1.0
  H  H31  1  0.67838000  0.03022000  0.70429000  1.0
  H  H32  1  0.06954000  0.71182000  0.66879000  1.0
  H  H33  1  0.43016000  0.04275000  0.33088000  1.0
  H  H34  1  0.93047000  0.28817000  0.33120000  1.0
  H  H35  1  0.56985000  0.95725000  0.66913000  1.0
  H  H36  1  0.17151000  0.52385000  0.69452000  1.0
  H  H37  1  0.32844000  0.82910000  0.30532000  1.0
  H  H38  1  0.82849000  0.47616000  0.30548000  1.0
  H  H39  1  0.67157000  0.17091000  0.69469000  1.0
  H  H40  1  0.08013000  0.39255000  0.68571000  1.0
  H  H41  1  0.41995000  0.70680000  0.31433000  1.0
  H  H42  1  0.91987000  0.60745000  0.31428000  1.0
  H  H43  1  0.58004000  0.29320000  0.68566000  1.0
  H  H44  1  0.85381000  0.53624000  0.72382000  1.0
  H  H45  1  0.64616000  0.81243000  0.27605000  1.0
  H  H46  1  0.14620000  0.46377000  0.27618000  1.0
  H  H47  1  0.35384000  0.18758000  0.72395000  1.0
  H  H48  1  0.93416000  0.67313000  0.73221000  1.0
  H  H49  1  0.56567000  0.94073000  0.26743000  1.0
  H  H50  1  0.06585000  0.32688000  0.26779000  1.0
  H  H51  1  0.43433000  0.05928000  0.73258000  1.0
  H  H52  1  0.22272000  0.35837000  0.06561000  1.0
  H  H53  1  0.27772000  0.29267000  0.93431000  1.0
  H  H54  1  0.77727000  0.64162000  0.93439000  1.0
  H  H55  1  0.72227000  0.70732000  0.06569000  1.0
  H  H56  1  0.13040000  0.35946000  0.11060000  1.0
  H  H57  1  0.37011000  0.24890000  0.88942000  1.0
  H  H58  1  0.86959000  0.64053000  0.88939000  1.0
  H  H59  1  0.62988000  0.75109000  0.11057000  1.0
  H  H60  1  0.16394000  0.46198000  0.00108000  1.0
  H  H61  1  0.33625000  0.46085000  0.99899000  1.0
  H  H62  1  0.83606000  0.53802000  0.99892000  1.0
  H  H63  1  0.66374000  0.53915000  0.00101000  1.0
  H  H64  1  0.05545000  0.46777000  0.86461000  1.0
  H  H65  1  0.44461000  0.60320000  0.13551000  1.0
  H  H66  1  0.94456000  0.53222000  0.13539000  1.0
  H  H67  1  0.55538000  0.39679000  0.86448000  1.0
  H  H68  1  0.88482000  0.22313000  0.77990000  1.0
  H  H69  1  0.61552000  0.44343000  0.22016000  1.0
  H  H70  1  0.11517000  0.77688000  0.22010000  1.0
  H  H71  1  0.38448000  0.55657000  0.77983000  1.0
  H  H72  1  0.98686000  0.20582000  0.91088000  1.0
  H  H73  1  0.51370000  0.29508000  0.08911000  1.0
  H  H74  1  0.01313000  0.79419000  0.08913000  1.0
  H  H75  1  0.48631000  0.70492000  0.91088000  1.0
  H  H76  1  0.11495000  0.93853000  0.31623000  1.0
  H  H77  1  0.38517000  0.62225000  0.68342000  1.0
  H  H78  1  0.88504000  0.06146000  0.68376000  1.0
  H  H79  1  0.61483000  0.37775000  0.31659000  1.0
  H  H80  1  0.01964000  0.00199000  0.33145000  1.0
  H  H81  1  0.48043000  0.67063000  0.66823000  1.0
  H  H82  1  0.98035000  0.99799000  0.66853000  1.0
  H  H83  1  0.51958000  0.32938000  0.33179000  1.0
  H  H84  1  0.25181000  0.09715000  0.33643000  1.0
  H  H85  1  0.24813000  0.76050000  0.66335000  1.0
  H  H86  1  0.74818000  0.90285000  0.66356000  1.0
  H  H87  1  0.75187000  0.23950000  0.33666000  1.0
  H  H88  1  0.36285000  0.22903000  0.48441000  1.0
  H  H89  1  0.13700000  0.74440000  0.51539000  1.0
  H  H90  1  0.63713000  0.77097000  0.51558000  1.0
  H  H91  1  0.86300000  0.25560000  0.48462000  1.0
  H  H92  1  0.19205000  0.24000000  0.64417000  1.0
  H  H93  1  0.30800000  0.59619000  0.35564000  1.0
  H  H94  1  0.80793000  0.75998000  0.35581000  1.0
  H  H95  1  0.69201000  0.40382000  0.64438000  1.0
  H  H96  1  0.07765000  0.10366000  0.50552000  1.0
  H  H97  1  0.42247000  0.59849000  0.49423000  1.0
  H  H98  1  0.92234000  0.89631000  0.49446000  1.0
  H  H99  1  0.57753000  0.40152000  0.50578000  1.0
  C  C100  1  0.11601000  0.92822000  0.93567000  1.0
  C  C101  1  0.38397000  0.99234000  0.06405000  1.0
  C  C102  1  0.88399000  0.07178000  0.06432000  1.0
  C  C103  1  0.61603000  0.00767000  0.93596000  1.0
  C  C104  1  0.12517000  0.02277000  0.95907000  1.0
  C  C105  1  0.37482000  0.06351000  0.04068000  1.0
  C  C106  1  0.87483000  0.97723000  0.04092000  1.0
  C  C107  1  0.62518000  0.93649000  0.95932000  1.0
  C  C108  1  0.13788000  0.09490000  0.05257000  1.0
  C  C109  1  0.36208000  0.04220000  0.94720000  1.0
  C  C110  1  0.86212000  0.90509000  0.94742000  1.0
  C  C111  1  0.63793000  0.95779000  0.05280000  1.0
  C  C112  1  0.13687000  0.07144000  0.12166000  1.0
  C  C113  1  0.36307000  0.94968000  0.87808000  1.0
  C  C114  1  0.86313000  0.92856000  0.87834000  1.0
  C  C115  1  0.63693000  0.05033000  0.12193000  1.0
  C  C116  1  0.12700000  0.97772000  0.09899000  1.0
  C  C117  1  0.37300000  0.87862000  0.90072000  1.0
  C  C118  1  0.87300000  0.02227000  0.90100000  1.0
  C  C119  1  0.62700000  0.12139000  0.09929000  1.0
  C  C120  1  0.11925000  0.90592000  0.00628000  1.0
  C  C121  1  0.38076000  0.89946000  0.99340000  1.0
  C  C122  1  0.88075000  0.09407000  0.99371000  1.0
  C  C123  1  0.61925000  0.10054000  0.00661000  1.0
  C  C124  1  0.09314000  0.85304000  0.83297000  1.0
  C  C125  1  0.40679000  0.01981000  0.16675000  1.0
  C  C126  1  0.90687000  0.14696000  0.16703000  1.0
  C  C127  1  0.59321000  0.98020000  0.83327000  1.0
  C  C128  1  0.11204000  0.69222000  0.71909000  1.0
  C  C129  1  0.38775000  0.97281000  0.28054000  1.0
  C  C130  1  0.88797000  0.30778000  0.28091000  1.0
  C  C131  1  0.61226000  0.02720000  0.71948000  1.0
  C  C132  1  0.05972000  0.60950000  0.71231000  1.0
  C  C133  1  0.44015000  0.89695000  0.28740000  1.0
  C  C134  1  0.94029000  0.39051000  0.28769000  1.0
  C  C135  1  0.55984000  0.10306000  0.71261000  1.0
  C  C136  1  0.10056000  0.52948000  0.69943000  1.0
  C  C137  1  0.39940000  0.82989000  0.30041000  1.0
  C  C138  1  0.89945000  0.47052000  0.30057000  1.0
  C  C139  1  0.60060000  0.17011000  0.69959000  1.0
  C  C140  1  0.05015000  0.45579000  0.69555000  1.0
  C  C141  1  0.44988000  0.76017000  0.30441000  1.0
  C  C142  1  0.94986000  0.54421000  0.30445000  1.0
  C  C143  1  0.55012000  0.23983000  0.69558000  1.0
  C  C144  1  0.92395000  0.53615000  0.71679000  1.0
  C  C145  1  0.57600000  0.81931000  0.28306000  1.0
  C  C146  1  0.07606000  0.46385000  0.28321000  1.0
  C  C147  1  0.42399000  0.18069000  0.71694000  1.0
  C  C148  1  0.96930000  0.61224000  0.72090000  1.0
  C  C149  1  0.53057000  0.89118000  0.27882000  1.0
  C  C150  1  0.03071000  0.38776000  0.27909000  1.0
  C  C151  1  0.46943000  0.10883000  0.72119000  1.0
  C  C152  1  0.14930000  0.19859000  0.08671000  1.0
  C  C153  1  0.35057000  0.11180000  0.91311000  1.0
  C  C154  1  0.85069000  0.80140000  0.91329000  1.0
  C  C155  1  0.64943000  0.88819000  0.08689000  1.0
  C  C156  1  0.15154000  0.32267000  0.04588000  1.0
  C  C157  1  0.34892000  0.27678000  0.95411000  1.0
  C  C158  1  0.84845000  0.67731000  0.95411000  1.0
  C  C159  1  0.65108000  0.72322000  0.04590000  1.0
  C  C160  1  0.08606000  0.33141000  0.96633000  1.0
  C  C161  1  0.41431000  0.36512000  0.03369000  1.0
  C  C162  1  0.91394000  0.66859000  0.03367000  1.0
  C  C163  1  0.58569000  0.63488000  0.96631000  1.0
  C  C164  1  0.10325000  0.40704000  0.95350000  1.0
  C  C165  1  0.39698000  0.45355000  0.04657000  1.0
  C  C166  1  0.89675000  0.59296000  0.04650000  1.0
  C  C167  1  0.60301000  0.54645000  0.95343000  1.0
  C  C168  1  0.04239000  0.41078000  0.87735000  1.0
  C  C169  1  0.45776000  0.53347000  0.12274000  1.0
  C  C170  1  0.95761000  0.58922000  0.12264000  1.0
  C  C171  1  0.54223000  0.46653000  0.87726000  1.0
  C  C172  1  0.94796000  0.27374000  0.82931000  1.0
  C  C173  1  0.55237000  0.44457000  0.17074000  1.0
  C  C174  1  0.05204000  0.72626000  0.17069000  1.0
  C  C175  1  0.44763000  0.55542000  0.82925000  1.0
  C  C176  1  0.00569000  0.26489000  0.90330000  1.0
  C  C177  1  0.49474000  0.36168000  0.09671000  1.0
  C  C178  1  0.99431000  0.73511000  0.09670000  1.0
  C  C179  1  0.50527000  0.63831000  0.90328000  1.0
  C  C180  1  0.12959000  0.95358000  0.17438000  1.0
  C  C181  1  0.37038000  0.77911000  0.82528000  1.0
  C  C182  1  0.87041000  0.04641000  0.82561000  1.0
  C  C183  1  0.62963000  0.22090000  0.17474000  1.0
  C  C184  1  0.08920000  0.00322000  0.32207000  1.0
  C  C185  1  0.41087000  0.68115000  0.67762000  1.0
  C  C186  1  0.91079000  0.99677000  0.67792000  1.0
  C  C187  1  0.58914000  0.31886000  0.32239000  1.0
  C  C188  1  0.15581000  0.08733000  0.40850000  1.0
  C  C189  1  0.34423000  0.67887000  0.59124000  1.0
  C  C190  1  0.84417000  0.91265000  0.59148000  1.0
  C  C191  1  0.65577000  0.32114000  0.40878000  1.0
  C  C192  1  0.23640000  0.12508000  0.40349000  1.0
  C  C193  1  0.26357000  0.72150000  0.59629000  1.0
  C  C194  1  0.76358000  0.87491000  0.59650000  1.0
  C  C195  1  0.73643000  0.27851000  0.40373000  1.0
  C  C196  1  0.29813000  0.19955000  0.48520000  1.0
  C  C197  1  0.20179000  0.71427000  0.51459000  1.0
  C  C198  1  0.70185000  0.80045000  0.51479000  1.0
  C  C199  1  0.79822000  0.28575000  0.48543000  1.0
  C  C200  1  0.20357000  0.20499000  0.57483000  1.0
  C  C201  1  0.29648000  0.63040000  0.42496000  1.0
  C  C202  1  0.79641000  0.79499000  0.42515000  1.0
  C  C203  1  0.70353000  0.36961000  0.57505000  1.0
  C  C204  1  0.13960000  0.12890000  0.49673000  1.0
  C  C205  1  0.36047000  0.63239000  0.50300000  1.0
  C  C206  1  0.86039000  0.87108000  0.50325000  1.0
  C  C207  1  0.63954000  0.36761000  0.49701000  1.0
  N  N208  1  0.13362000  0.77508000  0.81408000  1.0
  N  N209  1  0.36626000  0.96069000  0.18558000  1.0
  N  N210  1  0.86639000  0.22493000  0.18592000  1.0
  N  N211  1  0.63375000  0.03933000  0.81444000  1.0
  N  N212  1  0.96346000  0.45887000  0.70450000  1.0
  N  N213  1  0.53657000  0.75437000  0.29548000  1.0
  N  N214  1  0.03655000  0.54114000  0.29550000  1.0
  N  N215  1  0.46342000  0.24564000  0.70452000  1.0
  N  N216  1  0.15090000  0.22514000  0.02250000  1.0
  N  N217  1  0.34960000  0.20266000  0.97753000  1.0
  N  N218  1  0.84909000  0.77485000  0.97750000  1.0
  N  N219  1  0.65040000  0.79735000  0.02248000  1.0
  N  N220  1  0.96685000  0.34466000  0.81486000  1.0
  N  N221  1  0.53333000  0.52993000  0.18524000  1.0
  N  N222  1  0.03315000  0.65534000  0.18514000  1.0
  N  N223  1  0.46667000  0.47007000  0.81475000  1.0
  N  N224  1  0.08123000  0.00369000  0.23464000  1.0
  N  N225  1  0.41883000  0.76901000  0.76510000  1.0
  N  N226  1  0.91876000  0.99629000  0.76534000  1.0
  N  N227  1  0.58118000  0.23100000  0.23492000  1.0
  N  N228  1  0.28214000  0.23964000  0.57000000  1.0
  N  N229  1  0.21783000  0.66971000  0.42981000  1.0
  N  N230  1  0.71784000  0.76035000  0.42999000  1.0
  N  N231  1  0.78218000  0.33030000  0.57021000  1.0
  N  N232  1  0.92555000  0.16444000  0.58983000  1.0
  N  N233  1  0.57454000  0.57462000  0.41022000  1.0
  N  N234  1  0.07445000  0.83557000  0.41018000  1.0
  N  N235  1  0.42545000  0.42538000  0.58977000  1.0
  N  N236  1  0.77040000  0.39968000  0.80765000  1.0
  N  N237  1  0.72967000  0.59213000  0.19246000  1.0
  N  N238  1  0.22960000  0.60034000  0.19236000  1.0
  N  N239  1  0.27033000  0.40787000  0.80754000  1.0
  O  O240  1  0.15579000  0.25694000  0.17053000  1.0
  O  O241  1  0.34342000  0.08627000  0.82913000  1.0
  O  O242  1  0.84421000  0.74305000  0.82946000  1.0
  O  O243  1  0.65657000  0.91373000  0.17087000  1.0
  O  O244  1  0.17549000  0.89177000  0.17887000  1.0
  O  O245  1  0.32440000  0.71278000  0.82068000  1.0
  O  O246  1  0.82452000  0.10822000  0.82112000  1.0
  O  O247  1  0.67560000  0.28723000  0.17933000  1.0
  O  O248  1  0.85217000  0.16852000  0.61480000  1.0
  O  O249  1  0.64793000  0.55373000  0.38530000  1.0
  O  O250  1  0.14782000  0.83148000  0.38520000  1.0
  O  O251  1  0.35206000  0.44627000  0.61469000  1.0
  O  O252  1  0.96899000  0.24325000  0.60859000  1.0
  O  O253  1  0.53114000  0.63468000  0.39145000  1.0
  O  O254  1  0.03102000  0.75675000  0.39141000  1.0
  O  O255  1  0.46885000  0.36532000  0.60854000  1.0
  O  O256  1  0.95580000  0.08936000  0.54949000  1.0
  O  O257  1  0.54422000  0.53988000  0.45053000  1.0
  O  O258  1  0.04419000  0.91065000  0.45052000  1.0
  O  O259  1  0.45578000  0.46013000  0.54947000  1.0
  O  O260  1  0.76450000  0.31683000  0.73648000  1.0
  O  O261  1  0.73559000  0.58063000  0.26373000  1.0
  O  O262  1  0.23549000  0.68318000  0.26353000  1.0
  O  O263  1  0.26441000  0.41936000  0.73626000  1.0
  O  O264  1  0.81525000  0.46817000  0.81169000  1.0
  O  O265  1  0.68486000  0.65655000  0.18831000  1.0
  O  O266  1  0.18476000  0.53183000  0.18831000  1.0
  O  O267  1  0.31513000  0.34345000  0.81169000  1.0
  O  O268  1  0.73403000  0.41122000  0.86979000  1.0
  O  O269  1  0.76595000  0.54137000  0.13030000  1.0
  O  O270  1  0.26597000  0.58881000  0.13022000  1.0
  O  O271  1  0.23405000  0.45864000  0.86969000  1.0
  O  O272  1  0.03720000  0.86300000  0.76954000  1.0
  O  O273  1  0.46273000  0.09318000  0.23023000  1.0
  O  O274  1  0.96280000  0.13699000  0.23045000  1.0
  O  O275  1  0.53728000  0.90683000  0.76978000  1.0
