# generated using pymatgen
data_CdH11C15N4O5
_symmetry_space_group_name_H-M   'P 1'
_cell_length_a   9.08919000
_cell_length_b   9.21239000
_cell_length_c   18.03510000
_cell_angle_alpha   90.00000000
_cell_angle_beta   100.50700000
_cell_angle_gamma   89.99990000
_symmetry_Int_Tables_number   1
_chemical_formula_structural   CdH11C15N4O5
_chemical_formula_sum   'Cd4 H44 C60 N16 O20'
_cell_volume   1484.81496962
_cell_formula_units_Z   4
loop_
 _symmetry_equiv_pos_site_id
 _symmetry_equiv_pos_as_xyz
  1  'x, y, z'
loop_
 _atom_site_type_symbol
 _atom_site_label
 _atom_site_symmetry_multiplicity
 _atom_site_fract_x
 _atom_site_fract_y
 _atom_site_fract_z
 _atom_site_occupancy
  Cd  Cd0  1  0.84826000  0.56397000  0.17910000  1.0
  Cd  Cd1  1  0.65174000  0.06397000  0.32090000  1.0
  Cd  Cd2  1  0.15174000  0.43602000  0.82090000  1.0
  Cd  Cd3  1  0.34826000  0.93602000  0.67910000  1.0
  H  H4  1  0.68065000  0.41862000  0.27365000  1.0
  H  H5  1  0.81935000  0.91862000  0.22635000  1.0
  H  H6  1  0.31935000  0.58138000  0.72635000  1.0
  H  H7  1  0.18065000  0.08138000  0.77365000  1.0
  H  H8  1  0.62636000  0.35016000  0.19565000  1.0
  H  H9  1  0.87364000  0.85016000  0.30435000  1.0
  H  H10  1  0.37364000  0.64984000  0.80435000  1.0
  H  H11  1  0.12636000  0.14984000  0.69565000  1.0
  H  H12  1  0.70551000  0.27149000  0.08903000  1.0
  H  H13  1  0.79449000  0.77149000  0.41097000  1.0
  H  H14  1  0.29449000  0.72850000  0.91097000  1.0
  H  H15  1  0.20551000  0.22851000  0.58903000  1.0
  H  H16  1  0.76256000  0.09379000  0.99374000  1.0
  H  H17  1  0.73744000  0.59379000  0.50626000  1.0
  H  H18  1  0.23745000  0.90621000  0.00626000  1.0
  H  H19  1  0.26256000  0.40621000  0.49374000  1.0
  H  H20  1  0.00933000  0.11414000  0.94942000  1.0
  H  H21  1  0.49067000  0.61414000  0.55058000  1.0
  H  H22  1  0.99067000  0.88586000  0.05058000  1.0
  H  H23  1  0.50933000  0.38586000  0.44942000  1.0
  H  H24  1  0.18511000  0.31263000  0.00292000  1.0
  H  H25  1  0.31489000  0.81263000  0.49707000  1.0
  H  H26  1  0.81489000  0.68737000  0.99708000  1.0
  H  H27  1  0.68511000  0.18737000  0.50293000  1.0
  H  H28  1  0.35998000  0.47951000  0.06660000  1.0
  H  H29  1  0.14002000  0.97951000  0.43340000  1.0
  H  H30  1  0.64002000  0.52050000  0.93340000  1.0
  H  H31  1  0.85998000  0.02049000  0.56660000  1.0
  H  H32  1  0.43751000  0.71481000  0.16052000  1.0
  H  H33  1  0.06249000  0.21481000  0.33948000  1.0
  H  H34  1  0.56249000  0.28520000  0.83948000  1.0
  H  H35  1  0.93751000  0.78519000  0.66052000  1.0
  H  H36  1  0.31162000  0.81828000  0.26950000  1.0
  H  H37  1  0.18838000  0.31828000  0.23050000  1.0
  H  H38  1  0.68838000  0.18172000  0.73050000  1.0
  H  H39  1  0.81162000  0.68172000  0.76950000  1.0
  H  H40  1  0.11664000  0.78319000  0.26294000  1.0
  H  H41  1  0.38336000  0.28319000  0.23706000  1.0
  H  H42  1  0.88336000  0.21681000  0.73706000  1.0
  H  H43  1  0.61664000  0.71681000  0.76294000  1.0
  H  H44  1  0.09493000  0.71622000  0.44237000  1.0
  H  H45  1  0.40507000  0.21623000  0.05762000  1.0
  H  H46  1  0.90507000  0.28378000  0.55763000  1.0
  H  H47  1  0.59493000  0.78378000  0.94237000  1.0
  C  C48  1  0.81134000  0.27609000  0.06892000  1.0
  C  C49  1  0.68865000  0.77609000  0.43108000  1.0
  C  C50  1  0.18865000  0.72391000  0.93108000  1.0
  C  C51  1  0.31135000  0.22391000  0.56892000  1.0
  C  C52  1  0.84377000  0.17680000  0.01586000  1.0
  C  C53  1  0.65623000  0.67681000  0.48414000  1.0
  C  C54  1  0.15623000  0.82320000  0.98414000  1.0
  C  C55  1  0.34377000  0.32320000  0.51586000  1.0
  C  C56  1  0.98024000  0.18817000  0.99155000  1.0
  C  C57  1  0.51976000  0.68817000  0.50845000  1.0
  C  C58  1  0.01976000  0.81183000  0.00845000  1.0
  C  C59  1  0.48024000  0.31183000  0.49155000  1.0
  C  C60  1  0.07909000  0.29713000  0.02148000  1.0
  C  C61  1  0.42091000  0.79713000  0.47852000  1.0
  C  C62  1  0.92091000  0.70287000  0.97852000  1.0
  C  C63  1  0.57909000  0.20286000  0.52148000  1.0
  C  C64  1  0.04014000  0.39142000  0.07522000  1.0
  C  C65  1  0.45986000  0.89142000  0.42478000  1.0
  C  C66  1  0.95986000  0.60858000  0.92478000  1.0
  C  C67  1  0.54014000  0.10858000  0.57522000  1.0
  C  C68  1  0.14216000  0.50596000  0.10876000  1.0
  C  C69  1  0.35784000  0.00596000  0.39124000  1.0
  C  C70  1  0.85784000  0.49405000  0.89124000  1.0
  C  C71  1  0.64216000  0.99404000  0.60876000  1.0
  C  C72  1  0.29170000  0.53467000  0.10128000  1.0
  C  C73  1  0.20830000  0.03467000  0.39872000  1.0
  C  C74  1  0.70830000  0.46534000  0.89872000  1.0
  C  C75  1  0.79170000  0.96533000  0.60128000  1.0
  C  C76  1  0.33423000  0.65356000  0.14705000  1.0
  C  C77  1  0.16577000  0.15356000  0.35294000  1.0
  C  C78  1  0.66577000  0.34644000  0.85295000  1.0
  C  C79  1  0.83423000  0.84643000  0.64706000  1.0
  C  C80  1  0.20434000  0.80923000  0.23042000  1.0
  C  C81  1  0.29565000  0.30924000  0.26958000  1.0
  C  C82  1  0.79566000  0.19076000  0.76959000  1.0
  C  C83  1  0.70434000  0.69076000  0.73042000  1.0
  C  C84  1  0.17121000  0.94766000  0.19129000  1.0
  C  C85  1  0.32879000  0.44768000  0.30872000  1.0
  C  C86  1  0.82879000  0.05233000  0.80872000  1.0
  C  C87  1  0.67121000  0.55232000  0.69128000  1.0
  C  C88  1  0.97405000  0.51599000  0.42088000  1.0
  C  C89  1  0.52595000  0.01600000  0.07912000  1.0
  C  C90  1  0.02596000  0.48400000  0.57912000  1.0
  C  C91  1  0.47405000  0.98400000  0.92088000  1.0
  C  C92  1  0.91929000  0.39274000  0.45343000  1.0
  C  C93  1  0.58072000  0.89274000  0.04657000  1.0
  C  C94  1  0.08071000  0.60726000  0.54656000  1.0
  C  C95  1  0.41929000  0.10726000  0.95343000  1.0
  C  C96  1  0.05251000  0.62155000  0.46796000  1.0
  C  C97  1  0.44749000  0.12155000  0.03204000  1.0
  C  C98  1  0.94749000  0.37845000  0.53204000  1.0
  C  C99  1  0.55251000  0.87845000  0.96796000  1.0
  C  C100  1  0.95354000  0.53392000  0.33678000  1.0
  C  C101  1  0.54646000  0.03392000  0.16321000  1.0
  C  C102  1  0.04646000  0.46608000  0.66321000  1.0
  C  C103  1  0.45354000  0.96608000  0.83679000  1.0
  C  C104  1  0.82508000  0.27812000  0.40778000  1.0
  C  C105  1  0.67492000  0.77812000  0.09222000  1.0
  C  C106  1  0.17492000  0.72188000  0.59222000  1.0
  C  C107  1  0.32509000  0.22188000  0.90778000  1.0
  N  N108  1  0.90668000  0.38104000  0.09808000  1.0
  N  N109  1  0.59332000  0.88104000  0.40192000  1.0
  N  N110  1  0.09332000  0.61896000  0.90192000  1.0
  N  N111  1  0.40668000  0.11896000  0.59808000  1.0
  N  N112  1  0.09642000  0.60260000  0.15593000  1.0
  N  N113  1  0.40358000  0.10260000  0.34406000  1.0
  N  N114  1  0.90358000  0.39741000  0.84407000  1.0
  N  N115  1  0.59642000  0.89740000  0.65593000  1.0
  N  N116  1  0.21420000  0.69095000  0.17828000  1.0
  N  N117  1  0.28579000  0.19095000  0.32172000  1.0
  N  N118  1  0.78579000  0.30906000  0.82172000  1.0
  N  N119  1  0.71421000  0.80905000  0.67828000  1.0
  N  N120  1  0.14739000  0.05834000  0.16029000  1.0
  N  N121  1  0.35261000  0.55833000  0.33971000  1.0
  N  N122  1  0.85261000  0.94166000  0.83971000  1.0
  N  N123  1  0.64739000  0.44167000  0.66029000  1.0
  O  O124  1  0.97487000  0.42585000  0.29702000  1.0
  O  O125  1  0.52513000  0.92586000  0.20297000  1.0
  O  O126  1  0.02513000  0.57414000  0.70298000  1.0
  O  O127  1  0.47487000  0.07414000  0.79702000  1.0
  O  O128  1  0.91254000  0.65881000  0.30845000  1.0
  O  O129  1  0.58746000  0.15882000  0.19155000  1.0
  O  O130  1  0.08746000  0.34118000  0.69155000  1.0
  O  O131  1  0.41254000  0.84118000  0.80845000  1.0
  O  O132  1  0.71461000  0.31704000  0.35698000  1.0
  O  O133  1  0.78539000  0.81703000  0.14302000  1.0
  O  O134  1  0.28538000  0.68297000  0.64302000  1.0
  O  O135  1  0.21462000  0.18297000  0.85698000  1.0
  O  O136  1  0.85395000  0.14615000  0.42459000  1.0
  O  O137  1  0.64605000  0.64615000  0.07541000  1.0
  O  O138  1  0.14605000  0.85385000  0.57541000  1.0
  O  O139  1  0.35395000  0.35385000  0.92459000  1.0
  O  O140  1  0.64889000  0.44587000  0.21978000  1.0
  O  O141  1  0.85111000  0.94586000  0.28022000  1.0
  O  O142  1  0.35111000  0.55413000  0.78022000  1.0
  O  O143  1  0.14889000  0.05413000  0.71978000  1.0
